# generated using pymatgen
data_Al2P3H9(CO3)3
_symmetry_space_group_name_H-M   'P 1'
_cell_length_a   8.63063458
_cell_length_b   13.94401701
_cell_length_c   13.94400874
_cell_angle_alpha   60.00004382
_cell_angle_beta   89.99991406
_cell_angle_gamma   89.99990005
_symmetry_Int_Tables_number   1
_chemical_formula_structural   Al2P3H9(CO3)3
_chemical_formula_sum   'Al8 P12 H36 C12 O36'
_cell_volume   1453.27935021
_cell_formula_units_Z   4
loop_
 _symmetry_equiv_pos_site_id
 _symmetry_equiv_pos_as_xyz
  1  'x, y, z'
loop_
 _atom_site_type_symbol
 _atom_site_label
 _atom_site_symmetry_multiplicity
 _atom_site_fract_x
 _atom_site_fract_y
 _atom_site_fract_z
 _atom_site_occupancy
  Al  Al0  1  0.51326325  0.66666667  0.66666667  1.0
  Al  Al1  1  0.01326356  0.33333333  0.33333333  1.0
  Al  Al2  1  0.44343091  0.51203785  0.39257341  1.0
  Al  Al3  1  0.44343144  0.39257481  0.09538746  1.0
  Al  Al4  1  0.94343123  0.60742427  0.48796451  1.0
  Al  Al5  1  0.44343135  0.09538821  0.51203705  1.0
  Al  Al6  1  0.94343089  0.48796306  0.90461182  1.0
  Al  Al7  1  0.94343066  0.90461182  0.60742498  1.0
  P  P8  1  0.30031855  0.65439834  0.48199785  1.0
  P  P9  1  0.30031601  0.48199688  0.86360427  1.0
  P  P10  1  0.80031665  0.51800330  0.34560030  1.0
  P  P11  1  0.30032036  0.86360058  0.65439817  1.0
  P  P12  1  0.80031599  0.34560086  0.13639505  1.0
  P  P13  1  0.80032161  0.13639876  0.51799962  1.0
  P  P14  1  0.77059546  0.81486269  0.46771711  1.0
  P  P15  1  0.77059912  0.46771528  0.71742022  1.0
  P  P16  1  0.27060259  0.53228651  0.18513288  1.0
  P  P17  1  0.77059865  0.71741892  0.81486607  1.0
  P  P18  1  0.27059601  0.18513823  0.28257892  1.0
  P  P19  1  0.27059557  0.28258216  0.53228263  1.0
  H  H20  1  0.20417609  0.82106202  0.32787080  1.0
  H  H21  1  0.20417731  0.32787063  0.85106692  1.0
  H  H22  1  0.70417770  0.67212959  0.17893746  1.0
  H  H23  1  0.20417661  0.85106742  0.82106271  1.0
  H  H24  1  0.70417843  0.17893723  0.14893303  1.0
  H  H25  1  0.70417552  0.14893209  0.67213020  1.0
  H  H26  1  0.37557937  0.84397955  0.38695122  1.0
  H  H27  1  0.37557956  0.38695114  0.76906823  1.0
  H  H28  1  0.87558004  0.61304975  0.15602035  1.0
  H  H29  1  0.37558008  0.76906999  0.84398045  1.0
  H  H30  1  0.87558060  0.15601960  0.23093102  1.0
  H  H31  1  0.87557887  0.23092936  0.61305062  1.0
  H  H32  1  0.19389279  0.82519343  0.45431908  1.0
  H  H33  1  0.19389299  0.45431774  0.72048830  1.0
  H  H34  1  0.69389359  0.54568246  0.17480591  1.0
  H  H35  1  0.19389365  0.72048808  0.82519420  1.0
  H  H36  1  0.69389283  0.17480672  0.27951155  1.0
  H  H37  1  0.69389351  0.27951140  0.54568241  1.0
  H  H38  1  0.79800022  0.94731015  0.27366573  1.0
  H  H39  1  0.79799824  0.27366727  0.77902251  1.0
  H  H40  1  0.29799791  0.72633283  0.05269023  1.0
  H  H41  1  0.79800079  0.77902358  0.94731019  1.0
  H  H42  1  0.29799866  0.05268985  0.22097613  1.0
  H  H43  1  0.29800128  0.22097755  0.72633352  1.0
  H  H44  1  0.61922532  0.96335794  0.32904908  1.0
  H  H45  1  0.61922460  0.32904963  0.70759221  1.0
  H  H46  1  0.11922436  0.67095141  0.03664108  1.0
  H  H47  1  0.61922607  0.70759198  0.96335955  1.0
  H  H48  1  0.11922495  0.03664142  0.29240687  1.0
  H  H49  1  0.11922645  0.29240762  0.67095207  1.0
  H  H50  1  0.64269540  0.85158550  0.30131728  1.0
  H  H51  1  0.64269435  0.30131669  0.84709757  1.0
  H  H52  1  0.14269523  0.69868357  0.14841390  1.0
  H  H53  1  0.64269705  0.84709735  0.85158668  1.0
  H  H54  1  0.14269485  0.14841463  0.15290228  1.0
  H  H55  1  0.14269649  0.15290305  0.69868340  1.0
  C  C56  1  0.26442884  0.80038194  0.40512844  1.0
  C  C57  1  0.26443008  0.40512793  0.79449005  1.0
  C  C58  1  0.76442944  0.59487224  0.19961860  1.0
  C  C59  1  0.26442952  0.79449179  0.80038107  1.0
  C  C60  1  0.76442883  0.19961813  0.20550947  1.0
  C  C61  1  0.76442835  0.20550930  0.59487216  1.0
  C  C62  1  0.70127615  0.90305752  0.32939289  1.0
  C  C63  1  0.70127643  0.32939328  0.76754940  1.0
  C  C64  1  0.20127620  0.67060690  0.09694163  1.0
  C  C65  1  0.70127681  0.76754949  0.90305735  1.0
  C  C66  1  0.20127568  0.09694342  0.23245021  1.0
  C  C67  1  0.20127728  0.23245087  0.67060698  1.0
  O  O68  1  0.38762259  0.61889615  0.58817971  1.0
  O  O69  1  0.38762239  0.58818042  0.79292356  1.0
  O  O70  1  0.88762088  0.41181885  0.38110355  1.0
  O  O71  1  0.38762115  0.79292410  0.61889661  1.0
  O  O72  1  0.88762345  0.38110386  0.20707648  1.0
  O  O73  1  0.88762113  0.20707514  0.41182094  1.0
  O  O74  1  0.39189364  0.62866185  0.40147970  1.0
  O  O75  1  0.39189443  0.40148015  0.96985795  1.0
  O  O76  1  0.89189494  0.59852000  0.37133801  1.0
  O  O77  1  0.39189520  0.96985867  0.62866151  1.0
  O  O78  1  0.89189452  0.37133806  0.03014150  1.0
  O  O79  1  0.89189431  0.03014145  0.59852062  1.0
  O  O80  1  0.14325831  0.59176943  0.50897215  1.0
  O  O81  1  0.14325911  0.50897139  0.89925863  1.0
  O  O82  1  0.64325864  0.49102977  0.40822867  1.0
  O  O83  1  0.14325778  0.89925933  0.59176971  1.0
  O  O84  1  0.64325913  0.40822992  0.10074254  1.0
  O  O85  1  0.64325677  0.10074178  0.49102829  1.0
  O  O86  1  0.63711282  0.74781918  0.53894328  1.0
  O  O87  1  0.63711174  0.53894412  0.71323801  1.0
  O  O88  1  0.13710721  0.46105448  0.25218323  1.0
  O  O89  1  0.63711029  0.71323872  0.74781829  1.0
  O  O90  1  0.13711210  0.25218105  0.28676195  1.0
  O  O91  1  0.13710952  0.28676160  0.46105719  1.0
  O  O92  1  0.84788627  0.89196432  0.50371370  1.0
  O  O93  1  0.84788553  0.50371262  0.60432333  1.0
  O  O94  1  0.34787863  0.49628410  0.10803800  1.0
  O  O95  1  0.84788388  0.60432401  0.89196351  1.0
  O  O96  1  0.34788694  0.10803576  0.39567825  1.0
  O  O97  1  0.34788061  0.39567867  0.49628297  1.0
  O  O98  1  0.89998583  0.74140875  0.46085611  1.0
  O  O99  1  0.89998697  0.46085446  0.79773520  1.0
  O  O100  1  0.39998695  0.53914560  0.25858934  1.0
  O  O101  1  0.89998772  0.79773517  0.74140901  1.0
  O  O102  1  0.39998510  0.25859039  0.20226490  1.0
  O  O103  1  0.39998709  0.20226495  0.53914371  1.0
