# generated using pymatgen
data_AlH5C10SO7
_symmetry_space_group_name_H-M   'P 1'
_cell_length_a   6.61123934
_cell_length_b   10.99957844
_cell_length_c   12.70706314
_cell_angle_alpha   73.41180917
_cell_angle_beta   75.30508279
_cell_angle_gamma   74.62251804
_symmetry_Int_Tables_number   1
_chemical_formula_structural   AlH5C10SO7
_chemical_formula_sum   'Al2 H10 C20 S2 O14'
_cell_volume   837.91925696
_cell_formula_units_Z   2
loop_
 _symmetry_equiv_pos_site_id
 _symmetry_equiv_pos_as_xyz
  1  'x, y, z'
loop_
 _atom_site_type_symbol
 _atom_site_label
 _atom_site_symmetry_multiplicity
 _atom_site_fract_x
 _atom_site_fract_y
 _atom_site_fract_z
 _atom_site_occupancy
  Al  Al0  1  0.49679421  0.51054818  0.48618240  1.0
  Al  Al1  1  0.99488687  0.50952197  0.48948930  1.0
  H  H2  1  0.26297258  0.60474254  0.35172558  1.0
  H  H3  1  0.78149124  0.34576218  0.55425122  1.0
  H  H4  1  0.61457179  0.48876315  0.13576574  1.0
  H  H5  1  0.38462215  0.53756396  0.83554919  1.0
  H  H6  1  0.87290559  0.74955993  0.64034824  1.0
  H  H7  1  0.58483682  0.20739715  0.65804254  1.0
  H  H8  1  0.09498259  0.22288991  0.43378236  1.0
  H  H9  1  0.32879054  0.79735908  0.43302334  1.0
  H  H10  1  0.07897595  0.74537884  0.76050526  1.0
  H  H11  1  0.82077448  0.17469615  0.76917360  1.0
  C  C12  1  0.64601716  0.73510060  0.49904784  1.0
  C  C13  1  0.83160641  0.52548985  0.28771570  1.0
  C  C14  1  0.33830731  0.27433330  0.50572354  1.0
  C  C15  1  0.16546629  0.49805065  0.68485184  1.0
  C  C16  1  0.77715667  0.50356574  0.10341017  1.0
  C  C17  1  0.22116819  0.52412726  0.86805581  1.0
  C  C18  1  0.89829222  0.52332925  0.16887977  1.0
  C  C19  1  0.09940177  0.50379644  0.80284092  1.0
  C  C20  1  0.10394461  0.52430104  0.97753138  1.0
  C  C21  1  0.89424651  0.50407714  0.99396359  1.0
  C  C22  1  0.55643566  0.86582639  0.51882404  1.0
  C  C23  1  0.64983517  0.92340857  0.57952212  1.0
  C  C24  1  0.37293831  0.93721851  0.47490327  1.0
  C  C25  1  0.81024487  0.85103390  0.64171792  1.0
  C  C26  1  0.89059570  0.90409154  0.70484768  1.0
  C  C27  1  0.40023669  0.13269083  0.52326706  1.0
  C  C28  1  0.29684488  0.07170283  0.47588898  1.0
  C  C29  1  0.56949073  0.05703350  0.58271272  1.0
  C  C30  1  0.65206398  0.10832451  0.64937437  1.0
  C  C31  1  0.80976488  0.03572774  0.70877369  1.0
  S  S32  1  0.15365778  0.54336317  0.09793312  1.0
  S  S33  1  0.84357204  0.48485017  0.87382742  1.0
  O  O34  1  0.52635952  0.68328474  0.46478161  1.0
  O  O35  1  0.96795475  0.54339750  0.33459654  1.0
  O  O36  1  0.15254098  0.33282844  0.48002719  1.0
  O  O37  1  0.34962206  0.52019864  0.63536611  1.0
  O  O38  1  0.46908094  0.33639193  0.51355393  1.0
  O  O39  1  0.03283009  0.47201044  0.64108545  1.0
  O  O40  1  0.83499483  0.67564711  0.51104096  1.0
  O  O41  1  0.64286752  0.50866637  0.33457787  1.0
  O  O42  1  0.24191909  0.57608850  0.43267524  1.0
  O  O43  1  0.75192780  0.43982958  0.53895291  1.0
  O  O44  1  0.13133548  0.13235339  0.42382057  1.0
  O  O45  1  0.26180391  0.89176251  0.42540739  1.0
  O  O46  1  0.04411539  0.83549783  0.76642012  1.0
  O  O47  1  0.89145336  0.08401461  0.77363342  1.0
