# generated using pymatgen
data_Zn4H20C40O21
_symmetry_space_group_name_H-M   'P 1'
_cell_length_a   23.81219366
_cell_length_b   23.81235013
_cell_length_c   23.81080733
_cell_angle_alpha   66.34084845
_cell_angle_beta   72.57813809
_cell_angle_gamma   107.41786231
_symmetry_Int_Tables_number   1
_chemical_formula_structural   Zn4H20C40O21
_chemical_formula_sum   'Zn8 H40 C80 O42'
_cell_volume   10351.06490031
_cell_formula_units_Z   2
loop_
 _symmetry_equiv_pos_site_id
 _symmetry_equiv_pos_as_xyz
  1  'x, y, z'
loop_
 _atom_site_type_symbol
 _atom_site_label
 _atom_site_symmetry_multiplicity
 _atom_site_fract_x
 _atom_site_fract_y
 _atom_site_fract_z
 _atom_site_occupancy
  Zn  Zn0  1  0.05600052  0.09997999  0.45600948  1.0
  Zn  Zn1  1  0.05599830  0.95601860  0.48797883  1.0
  Zn  Zn2  1  0.94399420  0.95600769  0.59999261  1.0
  Zn  Zn3  1  0.94401328  0.98799490  0.45600486  1.0
  Zn  Zn4  1  0.94400070  0.40001968  0.04399077  1.0
  Zn  Zn5  1  0.05600658  0.54399198  0.90000819  1.0
  Zn  Zn6  1  0.94399970  0.54397956  0.01201776  1.0
  Zn  Zn7  1  0.05598637  0.51200815  0.04399597  1.0
  H  H8  1  0.92368872  0.12555107  0.29814569  1.0
  H  H9  1  0.07631373  0.37445042  0.20185323  1.0
  H  H10  1  0.92368795  0.22183154  0.20186288  1.0
  H  H11  1  0.07631450  0.27816995  0.29813605  1.0
  H  H12  1  0.92368802  0.79813491  0.77818370  1.0
  H  H13  1  0.07631467  0.70186481  0.72181422  1.0
  H  H14  1  0.92369098  0.70185445  0.87446207  1.0
  H  H15  1  0.07631238  0.79814578  0.62553544  1.0
  H  H16  1  0.92266541  0.20764032  0.90237106  1.0
  H  H17  1  0.07731885  0.40237035  0.70761397  1.0
  H  H18  1  0.92267215  0.09763198  0.79238452  1.0
  H  H19  1  0.07727384  0.29237582  0.59761229  1.0
  H  H20  1  0.07733713  0.67499321  0.21500769  1.0
  H  H21  1  0.92268018  0.71506968  0.17493815  1.0
  H  H22  1  0.07727806  0.78490160  0.32509054  1.0
  H  H23  1  0.92267423  0.82504448  0.28495252  1.0
  H  H24  1  0.60999839  0.20763361  0.21507400  1.0
  H  H25  1  0.60999255  0.40237337  0.17493798  1.0
  H  H26  1  0.39000912  0.09762316  0.32507495  1.0
  H  H27  1  0.39000043  0.29234702  0.28500534  1.0
  H  H28  1  0.39001073  0.71510526  0.70762478  1.0
  H  H29  1  0.38999629  0.67493798  0.90239353  1.0
  H  H30  1  0.61000552  0.82507449  0.59760248  1.0
  H  H31  1  0.60998973  0.78497467  0.79235736  1.0
  H  H32  1  0.91981158  0.29199430  0.99413249  1.0
  H  H33  1  0.08017945  0.49413441  0.79196605  1.0
  H  H34  1  0.91981526  0.00586737  0.70803322  1.0
  H  H35  1  0.08013061  0.20801868  0.50585334  1.0
  H  H36  1  0.08019373  0.58609279  0.12779239  1.0
  H  H37  1  0.91982632  0.62786408  0.08602642  1.0
  H  H38  1  0.08013001  0.87210877  0.41400180  1.0
  H  H39  1  0.91981355  0.91394177  0.37217156  1.0
  H  H40  1  0.78611630  0.29199398  0.12785699  1.0
  H  H41  1  0.78610951  0.49413711  0.08603058  1.0
  H  H42  1  0.21389172  0.00585944  0.41397617  1.0
  H  H43  1  0.21388533  0.20799086  0.37221227  1.0
  H  H44  1  0.21389219  0.62788481  0.79199032  1.0
  H  H45  1  0.21388022  0.58603011  0.99416199  1.0
  H  H46  1  0.78612210  0.91397870  0.50583658  1.0
  H  H47  1  0.78610584  0.87218415  0.70799776  1.0
  C  C48  1  0.18363494  0.09180379  0.40819133  1.0
  C  C49  1  0.99999844  0.86070801  0.63929081  1.0
  C  C50  1  0.99998745  0.09181018  0.59182192  1.0
  C  C51  1  0.81636847  0.90819869  0.59179223  1.0
  C  C52  1  0.00000361  0.13929338  0.36070662  1.0
  C  C53  1  0.99999112  0.90817414  0.40818885  1.0
  C  C54  1  0.99999889  0.40819387  0.90817550  1.0
  C  C55  1  0.00000424  0.63929170  0.86070586  1.0
  C  C56  1  0.81636484  0.40818960  0.09182552  1.0
  C  C57  1  0.99999102  0.59183022  0.09180551  1.0
  C  C58  1  0.99999777  0.36070864  0.13929325  1.0
  C  C59  1  0.18363325  0.59182214  0.90820509  1.0
  C  C60  1  0.00000205  0.19651783  0.30348351  1.0
  C  C61  1  0.00000052  0.30348354  0.19651511  1.0
  C  C62  1  0.95682790  0.18016417  0.27666783  1.0
  C  C63  1  0.04317523  0.31983784  0.22333026  1.0
  C  C64  1  0.95682736  0.23349446  0.22333632  1.0
  C  C65  1  0.04317597  0.26650703  0.27666192  1.0
  C  C66  1  0.00000148  0.80348448  0.69651447  1.0
  C  C67  1  0.00000224  0.69651615  0.80348289  1.0
  C  C68  1  0.95682876  0.77666381  0.76651274  1.0
  C  C69  1  0.04317528  0.72333694  0.73348479  1.0
  C  C70  1  0.95683043  0.72333406  0.81984159  1.0
  C  C71  1  0.04317386  0.77666722  0.68015564  1.0
  C  C72  1  0.99999522  0.37181916  0.87180128  1.0
  C  C73  1  0.95623841  0.29807200  0.90837660  1.0
  C  C74  1  0.95649674  0.26352543  0.87310364  1.0
  C  C75  1  0.99999124  0.30082492  0.80081158  1.0
  C  C76  1  0.04348998  0.37311088  0.76350432  1.0
  C  C77  1  0.04374983  0.40838287  0.79804846  1.0
  C  C78  1  0.99998808  0.26531298  0.76530052  1.0
  C  C79  1  0.99998118  0.23469795  0.73468879  1.0
  C  C80  1  0.99997445  0.19918497  0.69917796  1.0
  C  C81  1  0.95649416  0.12689567  0.73648993  1.0
  C  C82  1  0.95623266  0.09162106  0.70194691  1.0
  C  C83  1  0.99997994  0.12819121  0.62818900  1.0
  C  C84  1  0.04371510  0.20194356  0.59160942  1.0
  C  C85  1  0.04345409  0.23648910  0.62688065  1.0
  C  C86  1  0.00000465  0.62821945  0.12816265  1.0
  C  C87  1  0.04376461  0.63541280  0.15814674  1.0
  C  C88  1  0.04350839  0.67042549  0.19295241  1.0
  C  C89  1  0.00000766  0.69921160  0.19915263  1.0
  C  C90  1  0.95651375  0.69301803  0.17036161  1.0
  C  C91  1  0.95625447  0.65821739  0.13534687  1.0
  C  C92  1  0.00000030  0.73470840  0.23467499  1.0
  C  C93  1  0.99998891  0.76530420  0.26531154  1.0
  C  C94  1  0.99997849  0.80079628  0.30083838  1.0
  C  C95  1  0.04345790  0.80696893  0.32965134  1.0
  C  C96  1  0.04371557  0.84176801  0.36466550  1.0
  C  C97  1  0.99997953  0.87178321  0.37183229  1.0
  C  C98  1  0.95623086  0.86460764  0.34183016  1.0
  C  C99  1  0.95649481  0.82960120  0.30702052  1.0
  C  C100  1  0.74361758  0.37181644  0.12819374  1.0
  C  C101  1  0.70643903  0.29806707  0.15819848  1.0
  C  C102  1  0.63662278  0.26352094  0.19300436  1.0
  C  C103  1  0.60163641  0.30082312  0.19918808  1.0
  C  C104  1  0.63661952  0.37311199  0.17038000  1.0
  C  C105  1  0.70643502  0.40838511  0.13536578  1.0
  C  C106  1  0.53061366  0.26530637  0.23470965  1.0
  C  C107  1  0.46938795  0.23468325  0.26533629  1.0
  C  C108  1  0.39836559  0.19916545  0.30085900  1.0
  C  C109  1  0.36338033  0.12687770  0.32964965  1.0
  C  C110  1  0.29356516  0.09160720  0.36465978  1.0
  C  C111  1  0.25638223  0.12817219  0.37183970  1.0
  C  C112  1  0.29356012  0.20191625  0.34186163  1.0
  C  C113  1  0.36337885  0.23646392  0.30705817  1.0
  C  C114  1  0.25638062  0.62820318  0.87182404  1.0
  C  C115  1  0.29356772  0.65822498  0.79806307  1.0
  C  C116  1  0.36338038  0.69303040  0.76351909  1.0
  C  C117  1  0.39836386  0.69920382  0.80082784  1.0
  C  C118  1  0.36337364  0.67038430  0.87312585  1.0
  C  C119  1  0.29355879  0.63537204  0.90839923  1.0
  C  C120  1  0.46938663  0.73471585  0.76530898  1.0
  C  C121  1  0.53061432  0.76533376  0.73467626  1.0
  C  C122  1  0.60163734  0.80084632  0.69915880  1.0
  C  C123  1  0.63662718  0.82964125  0.62686692  1.0
  C  C124  1  0.70644467  0.86465351  0.59159275  1.0
  C  C125  1  0.74362112  0.87183387  0.62816513  1.0
  C  C126  1  0.70643600  0.84183823  0.70191761  1.0
  C  C127  1  0.63661723  0.80703385  0.73646762  1.0
  O  O128  1  0.99999931  0.99999895  0.50000062  1.0
  O  O129  1  0.15204925  0.12688106  0.41353845  1.0
  O  O130  1  0.04037156  0.88307454  0.57655266  1.0
  O  O131  1  0.95956485  0.02514518  0.62690642  1.0
  O  O132  1  0.15204943  0.02514609  0.43440906  1.0
  O  O133  1  0.04042089  0.12688472  0.52515503  1.0
  O  O134  1  0.95962147  0.88306377  0.65730822  1.0
  O  O135  1  0.84794882  0.91354749  0.62687401  1.0
  O  O136  1  0.95963426  0.07656278  0.38306639  1.0
  O  O137  1  0.84795787  0.93442725  0.52512543  1.0
  O  O138  1  0.04037461  0.15730170  0.38306865  1.0
  O  O139  1  0.04042138  0.91352896  0.43441909  1.0
  O  O140  1  0.95957524  0.93442357  0.41352602  1.0
  O  O141  1  0.00000055  0.50000049  0.00000014  1.0
  O  O142  1  0.95956487  0.37311867  0.97484125  1.0
  O  O143  1  0.04037937  0.61693386  0.84268982  1.0
  O  O144  1  0.84794961  0.47485049  0.06559162  1.0
  O  O145  1  0.04043486  0.47485502  0.87309449  1.0
  O  O146  1  0.84795121  0.37311283  0.08648010  1.0
  O  O147  1  0.95963092  0.61692569  0.92344427  1.0
  O  O148  1  0.95955393  0.58646690  0.06558333  1.0
  O  O149  1  0.04036492  0.42343925  0.11693456  1.0
  O  O150  1  0.04041610  0.56559268  0.08645757  1.0
  O  O151  1  0.95962672  0.34269927  0.11693124  1.0
  O  O152  1  0.15205182  0.58647386  0.87312427  1.0
  O  O153  1  0.15204379  0.56557633  0.97487542  1.0
  O  O154  1  0.91345624  0.25936871  0.97767221  1.0
  O  O155  1  0.08653352  0.47767255  0.75933940  1.0
  O  O156  1  0.91345972  0.02233081  0.74065800  1.0
  O  O157  1  0.08647670  0.24064904  0.52230779  1.0
  O  O158  1  0.08655440  0.60891556  0.15405659  1.0
  O  O159  1  0.91347464  0.65413975  0.10883698  1.0
  O  O160  1  0.08647786  0.84582577  0.39119867  1.0
  O  O161  1  0.91345565  0.89112214  0.34590401  1.0
  O  O162  1  0.73702975  0.25936638  0.15412765  1.0
  O  O163  1  0.73702253  0.47767762  0.10884135  1.0
  O  O164  1  0.26297818  0.02231683  0.39117102  1.0
  O  O165  1  0.26297195  0.24061477  0.34595146  1.0
  O  O166  1  0.26297892  0.65416860  0.75935672  1.0
  O  O167  1  0.26296595  0.60884445  0.97769958  1.0
  O  O168  1  0.73703650  0.89116751  0.52229601  1.0
  O  O169  1  0.73701800  0.84591604  0.74062502  1.0
