# generated using pymatgen
data_ZnH25C26NO4
_symmetry_space_group_name_H-M   'P 1'
_cell_length_a   8.90186792
_cell_length_b   18.23254395
_cell_length_c   19.69322924
_cell_angle_alpha   88.79663962
_cell_angle_beta   88.43560349
_cell_angle_gamma   79.59758178
_symmetry_Int_Tables_number   1
_chemical_formula_structural   ZnH25C26NO4
_chemical_formula_sum   'Zn2 H50 C52 N2 O8'
_cell_volume   3142.15769181
_cell_formula_units_Z   2
loop_
 _symmetry_equiv_pos_site_id
 _symmetry_equiv_pos_as_xyz
  1  'x, y, z'
loop_
 _atom_site_type_symbol
 _atom_site_label
 _atom_site_symmetry_multiplicity
 _atom_site_fract_x
 _atom_site_fract_y
 _atom_site_fract_z
 _atom_site_occupancy
  Zn  Zn0  1  0.48736685  0.57849174  0.49854693  1.0
  Zn  Zn1  1  0.51319798  0.42196339  0.50208498  1.0
  H  H2  1  0.03535606  0.41482418  0.49626689  1.0
  H  H3  1  0.51174110  0.61553646  0.28095882  1.0
  H  H4  1  0.48572850  0.38349290  0.84702476  1.0
  H  H5  1  0.51248288  0.61641254  0.15408008  1.0
  H  H6  1  0.51214012  0.61706507  0.84167671  1.0
  H  H7  1  0.48615324  0.38281883  0.15842634  1.0
  H  H8  1  0.51028199  0.61632720  0.71485629  1.0
  H  H9  1  0.48848400  0.38284462  0.28524804  1.0
  H  H10  1  0.67242674  0.56903268  0.93433594  1.0
  H  H11  1  0.32612794  0.43124085  0.06628496  1.0
  H  H12  1  0.67225049  0.56861660  0.05986897  1.0
  H  H13  1  0.96500169  0.58627133  0.50480311  1.0
  H  H14  1  0.32621598  0.43167398  0.94075942  1.0
  H  H15  1  0.27531806  0.71337466  0.53583153  1.0
  H  H16  1  0.69660163  0.29171249  0.43925576  1.0
  H  H17  1  0.98079103  0.83723608  0.34131692  1.0
  H  H18  1  0.06987726  0.83737297  0.42078941  1.0
  H  H19  1  0.12304223  0.76043671  0.36600883  1.0
  H  H20  1  0.95195590  0.72519334  0.45849538  1.0
  H  H21  1  0.86050766  0.72872124  0.38005884  1.0
  H  H22  1  0.72915206  0.86221303  0.40577050  1.0
  H  H23  1  0.81105154  0.85329037  0.48559176  1.0
  H  H24  1  0.71694108  0.67314421  0.45834417  1.0
  H  H25  1  0.96963676  0.15641779  0.61495951  1.0
  H  H26  1  0.07983479  0.15355604  0.68902261  1.0
  H  H27  1  0.93105051  0.23073985  0.67330240  1.0
  H  H28  1  0.18580652  0.26553271  0.64548284  1.0
  H  H29  1  0.07634882  0.26911895  0.57191143  1.0
  H  H30  1  0.21315352  0.13995770  0.54155592  1.0
  H  H31  1  0.31961019  0.13542841  0.61497052  1.0
  H  H32  1  0.06942725  0.99219868  0.61208160  1.0
  H  H33  1  0.98361807  0.91462955  0.63641283  1.0
  H  H34  1  0.08729818  0.95576072  0.69636654  1.0
  H  H35  1  0.31034804  0.32317981  0.56330209  1.0
  H  H36  1  0.24774211  0.83674172  0.65336215  1.0
  H  H37  1  0.33074626  0.91412621  0.62808451  1.0
  H  H38  1  0.20388376  0.91613863  0.51465995  1.0
  H  H39  1  0.12855559  0.83650957  0.54040580  1.0
  H  H40  1  0.96294331  0.00776650  0.41571993  1.0
  H  H41  1  0.04828573  0.08369232  0.38610086  1.0
  H  H42  1  0.10486646  0.03814685  0.46426643  1.0
  H  H43  1  0.92817207  0.15948968  0.48711730  1.0
  H  H44  1  0.84334229  0.08373308  0.51508033  1.0
  H  H45  1  0.70274899  0.09200567  0.40368267  1.0
  H  H46  1  0.62521084  0.91860143  0.59175644  1.0
  H  H47  1  0.78045353  0.17216567  0.38137494  1.0
  H  H48  1  0.38045295  0.08174663  0.40527230  1.0
  H  H49  1  0.62264143  0.05515043  0.59298487  1.0
  H  H50  1  0.38137024  0.94522004  0.40446655  1.0
  H  H51  1  0.48626971  0.38373838  0.72017753  1.0
  C  C52  1  0.50134633  0.49913237  0.36675107  1.0
  C  C53  1  0.61151506  0.26511692  0.46630390  1.0
  C  C54  1  0.36911265  0.81484002  0.52092139  1.0
  C  C55  1  0.61578773  0.18835833  0.46336829  1.0
  C  C56  1  0.50076393  0.84164011  0.49812694  1.0
  C  C57  1  0.50148329  0.15896198  0.49981547  1.0
  C  C58  1  0.63032245  0.79153719  0.47410916  1.0
  C  C59  1  0.38727047  0.20661297  0.53708944  1.0
  C  C60  1  0.62207123  0.71574409  0.47541594  1.0
  C  C61  1  0.39442691  0.28249936  0.53631100  1.0
  C  C62  1  0.57117519  0.95444813  0.55090352  1.0
  C  C63  1  0.49802667  0.49964302  0.63387334  1.0
  C  C64  1  0.43410308  0.04592072  0.44618627  1.0
  C  C65  1  0.57004757  0.03095521  0.55150649  1.0
  C  C66  1  0.43444319  0.96943848  0.44577423  1.0
  C  C67  1  0.79830072  0.47718581  0.49773652  1.0
  C  C68  1  0.20213704  0.52436391  0.50294326  1.0
  C  C69  1  0.50146015  0.07745820  0.49915704  1.0
  C  C70  1  0.50252831  0.92299221  0.49821252  1.0
  C  C71  1  0.96672609  0.47067650  0.49844765  1.0
  C  C72  1  0.03384187  0.53049563  0.50247714  1.0
  C  C73  1  0.49058734  0.43459355  0.74759244  1.0
  C  C74  1  0.59433198  0.53972082  0.96316858  1.0
  C  C75  1  0.50758527  0.56481807  0.25330142  1.0
  C  C76  1  0.48988776  0.43489771  0.81821427  1.0
  C  C77  1  0.50840935  0.56486581  0.18266589  1.0
  C  C78  1  0.49912196  0.50029362  0.85329509  1.0
  C  C79  1  0.49941266  0.49960580  0.14733807  1.0
  C  C80  1  0.50770577  0.56556443  0.81517508  1.0
  C  C81  1  0.49071159  0.43415443  0.18518574  1.0
  C  C82  1  0.50592018  0.56560420  0.74454883  1.0
  C  C83  1  0.49264725  0.43374651  0.25581403  1.0
  C  C84  1  0.49799506  0.50002071  0.71002759  1.0
  C  C85  1  0.40422266  0.46051890  0.03743639  1.0
  C  C86  1  0.50058006  0.49915993  0.29059633  1.0
  C  C87  1  0.76875036  0.82063782  0.44602673  1.0
  C  C88  1  0.90201399  0.76361334  0.41779309  1.0
  C  C89  1  0.02592552  0.80163043  0.38464824  1.0
  C  C90  1  0.26411985  0.17507135  0.57613084  1.0
  C  C91  1  0.13672417  0.23063285  0.61023074  1.0
  C  C92  1  0.02293716  0.19078647  0.64907041  1.0
  C  C93  1  0.22630038  0.86507897  0.54638432  1.0
  C  C94  1  0.23083702  0.88744525  0.62102269  1.0
  C  C95  1  0.08497927  0.94038225  0.64283437  1.0
  C  C96  1  0.59426582  0.53947496  0.03384276  1.0
  C  C97  1  0.74360954  0.14006829  0.42473858  1.0
  C  C98  1  0.88208620  0.11133924  0.46926595  1.0
  C  C99  1  0.00641548  0.05728971  0.43187515  1.0
  C  C100  1  0.40424651  0.46078026  0.96679279  1.0
  C  C101  1  0.49929851  0.49984232  0.07241456  1.0
  C  C102  1  0.49936171  0.50032275  0.92820012  1.0
  C  C103  1  0.37379787  0.73796664  0.51954906  1.0
  N  N104  1  0.49678260  0.69000864  0.49767228  1.0
  N  N105  1  0.50435203  0.31057571  0.50195295  1.0
  O  O106  1  0.48556462  0.56241128  0.39499388  1.0
  O  O107  1  0.50871084  0.43638815  0.60594864  1.0
  O  O108  1  0.51748525  0.43596708  0.39725131  1.0
  O  O109  1  0.48774120  0.56241875  0.60305488  1.0
  O  O110  1  0.71917201  0.54271373  0.49539423  1.0
  O  O111  1  0.28183625  0.45899003  0.50312684  1.0
  O  O112  1  0.74666873  0.41625547  0.50000152  1.0
  O  O113  1  0.25304089  0.58554394  0.50249135  1.0
