# generated using pymatgen
data_Zn2H22C19(NO4)2
_symmetry_space_group_name_H-M   'P 1'
_cell_length_a   9.82940324
_cell_length_b   10.93882626
_cell_length_c   11.31256516
_cell_angle_alpha   89.85949161
_cell_angle_beta   85.62601856
_cell_angle_gamma   75.47082675
_symmetry_Int_Tables_number   1
_chemical_formula_structural   Zn2H22C19(NO4)2
_chemical_formula_sum   'Zn2 H22 C19 N2 O8'
_cell_volume   1173.84759351
_cell_formula_units_Z   1
loop_
 _symmetry_equiv_pos_site_id
 _symmetry_equiv_pos_as_xyz
  1  'x, y, z'
loop_
 _atom_site_type_symbol
 _atom_site_label
 _atom_site_symmetry_multiplicity
 _atom_site_fract_x
 _atom_site_fract_y
 _atom_site_fract_z
 _atom_site_occupancy
  Zn  Zn0  1  0.35845142  0.53925271  0.48409959  1.0
  Zn  Zn1  1  0.64260768  0.47008504  0.51285016  1.0
  H  H2  1  0.34453677  0.93690751  0.37572166  1.0
  H  H3  1  0.68353961  0.07093837  0.60116409  1.0
  H  H4  1  0.43313565  0.91085230  0.68340644  1.0
  H  H5  1  0.42574375  0.12545390  0.68555135  1.0
  H  H6  1  0.62232503  0.48800671  0.89754259  1.0
  H  H7  1  0.37951000  0.53081002  0.10145203  1.0
  H  H8  1  0.29950802  0.54407315  0.89195049  1.0
  H  H9  1  0.70288179  0.47273544  0.10366268  1.0
  H  H10  1  0.12884999  0.42385996  0.56449879  1.0
  H  H11  1  0.87251528  0.58299613  0.42927134  1.0
  H  H12  1  0.09287134  0.63824705  0.40439539  1.0
  H  H13  1  0.90792363  0.37185333  0.59324799  1.0
  H  H14  1  0.53028464  0.10395579  0.30852344  1.0
  H  H15  1  0.35162200  0.14674303  0.36447955  1.0
  H  H16  1  0.29588761  0.93912600  0.58691865  1.0
  H  H17  1  0.29082343  0.15467082  0.58677589  1.0
  H  H18  1  0.68536282  0.85658023  0.59963921  1.0
  H  H19  1  0.72823485  0.84963909  0.44590965  1.0
  H  H20  1  0.72273400  0.06433392  0.44686309  1.0
  H  H21  1  0.49560681  0.91992865  0.18720276  1.0
  H  H22  1  0.64948865  0.87750492  0.26532021  1.0
  H  H23  1  0.53405597  0.77535372  0.26445519  1.0
  C  C24  1  0.56468873  0.49440574  0.26801803  1.0
  C  C25  1  0.50050137  0.12397272  0.49982080  1.0
  C  C26  1  0.39702490  0.09633996  0.59977183  1.0
  C  C27  1  0.64944109  0.04287870  0.51733758  1.0
  C  C28  1  0.59237922  0.49234850  0.13731888  1.0
  C  C29  1  0.48829181  0.51190396  0.06268004  1.0
  C  C30  1  0.41059125  0.52391776  0.85992004  1.0
  C  C31  1  0.51326137  0.50725574  0.93572540  1.0
  C  C32  1  0.92623021  0.50962619  0.48827736  1.0
  C  C33  1  0.07496766  0.49847208  0.50679548  1.0
  C  C34  1  0.50172818  0.74486961  0.49700838  1.0
  C  C35  1  0.44202959  0.51648664  0.72946996  1.0
  C  C36  1  0.49608310  0.26477856  0.49919797  1.0
  C  C37  1  0.45397310  0.94416317  0.37808362  1.0
  C  C38  1  0.45574570  0.08586170  0.38017636  1.0
  C  C39  1  0.40050807  0.95397590  0.59871467  1.0
  C  C40  1  0.65186103  0.90105839  0.51592789  1.0
  C  C41  1  0.50464736  0.88389844  0.49689736  1.0
  C  C42  1  0.53816812  0.87475531  0.26809994  1.0
  N  N43  1  0.85415710  0.43847895  0.53803506  1.0
  N  N44  1  0.14690786  0.57051069  0.45848471  1.0
  O  O45  1  0.43626773  0.51814507  0.31028662  1.0
  O  O46  1  0.67262014  0.47198395  0.32840964  1.0
  O  O47  1  0.38295086  0.72036383  0.48700261  1.0
  O  O48  1  0.61753163  0.66280652  0.50729801  1.0
  O  O49  1  0.33558091  0.53922872  0.66698248  1.0
  O  O50  1  0.57111059  0.48827963  0.68942819  1.0
  O  O51  1  0.37703828  0.34300493  0.49129626  1.0
  O  O52  1  0.61273546  0.29435928  0.50573321  1.0
