# generated using pymatgen
data_AlH12C27(ClO2)3
_symmetry_space_group_name_H-M   'P 1'
_cell_length_a   3.99348294
_cell_length_b   15.99898484
_cell_length_c   16.07352746
_cell_angle_alpha   60.22694670
_cell_angle_beta   88.20455462
_cell_angle_gamma   87.94784157
_symmetry_Int_Tables_number   1
_chemical_formula_structural   AlH12C27(ClO2)3
_chemical_formula_sum   'Al1 H12 C27 Cl3 O6'
_cell_volume   890.72390946
_cell_formula_units_Z   1
loop_
 _symmetry_equiv_pos_site_id
 _symmetry_equiv_pos_as_xyz
  1  'x, y, z'
loop_
 _atom_site_type_symbol
 _atom_site_label
 _atom_site_symmetry_multiplicity
 _atom_site_fract_x
 _atom_site_fract_y
 _atom_site_fract_z
 _atom_site_occupancy
  Al  Al0  1  0.00678473  0.50139083  0.49831141  1.0
  H  H1  1  0.49293315  0.92527121  0.92055965  1.0
  H  H2  1  0.52948055  0.65504895  0.92355222  1.0
  H  H3  1  0.46963273  0.92070576  0.65584308  1.0
  H  H4  1  0.25821403  0.24060639  0.74457594  1.0
  H  H5  1  0.23637786  0.06296122  0.83659987  1.0
  H  H6  1  0.75745212  0.04944246  0.60379368  1.0
  H  H7  1  0.74165215  0.84500433  0.05273324  1.0
  H  H8  1  0.26858883  0.51824177  0.23484295  1.0
  H  H9  1  0.25485948  0.60545204  0.05790477  1.0
  H  H10  1  0.23526859  0.60552709  0.84579139  1.0
  H  H11  1  0.75256883  0.73701028  0.52259923  1.0
  H  H12  1  0.76018919  0.83270566  0.60527854  1.0
  C  C13  1  0.51178437  0.57800190  0.35106518  1.0
  C  C14  1  0.49073790  0.56905861  0.57814639  1.0
  C  C15  1  0.51758285  0.35319533  0.56802726  1.0
  C  C16  1  0.50032713  0.78395357  0.93479579  1.0
  C  C17  1  0.49475770  0.88495205  0.88232648  1.0
  C  C18  1  0.49332577  0.93540335  0.78186179  1.0
  C  C19  1  0.48912147  0.88255430  0.73366307  1.0
  C  C20  1  0.49694823  0.78161360  0.78378029  1.0
  C  C21  1  0.50688997  0.73344488  0.88417565  1.0
  C  C22  1  0.36895567  0.19781064  0.71460274  1.0
  C  C23  1  0.35951273  0.09775578  0.76633684  1.0
  C  C24  1  0.49642766  0.04193663  0.72772566  1.0
  C  C25  1  0.64037460  0.08988943  0.63540366  1.0
  C  C26  1  0.64409186  0.19008215  0.58317277  1.0
  C  C27  1  0.51156099  0.24532815  0.62240342  1.0
  C  C28  1  0.63062692  0.77419018  0.09091744  1.0
  C  C29  1  0.62787237  0.72565300  0.19070736  1.0
  C  C30  1  0.50614672  0.63218798  0.24363641  1.0
  C  C31  1  0.37467807  0.58971805  0.19412552  1.0
  C  C32  1  0.37016994  0.63882331  0.09443771  1.0
  C  C33  1  0.50182412  0.73162895  0.04092186  1.0
  C  C34  1  0.35147601  0.63575673  0.77488143  1.0
  C  C35  1  0.34632169  0.58249405  0.72778952  1.0
  C  C36  1  0.48758885  0.61924221  0.63512435  1.0
  C  C37  1  0.63583413  0.71003726  0.59322554  1.0
  C  C38  1  0.63694351  0.76355918  0.63957143  1.0
  C  C39  1  0.49442538  0.72696218  0.73193999  1.0
  Cl  Cl40  1  0.81710331  0.24596600  0.46869193  1.0
  Cl  Cl41  1  0.78049956  0.78232970  0.24900431  1.0
  Cl  Cl42  1  0.17427384  0.46956717  0.79052467  1.0
  O  O43  1  0.75047606  0.39247138  0.58776347  1.0
  O  O44  1  0.75504578  0.51873721  0.39018293  1.0
  O  O45  1  0.72692187  0.59005623  0.51578960  1.0
  O  O46  1  0.28715311  0.39738766  0.50783756  1.0
  O  O47  1  0.25876603  0.51061746  0.59239951  1.0
  O  O48  1  0.27105736  0.59422990  0.39502305  1.0
