# generated using pymatgen
data_ZrH8C14O5
_symmetry_space_group_name_H-M   'P 1'
_cell_length_a   7.84125680
_cell_length_b   15.59661040
_cell_length_c   17.87197456
_cell_angle_alpha   64.12101379
_cell_angle_beta   78.52504068
_cell_angle_gamma   90.00374584
_symmetry_Int_Tables_number   1
_chemical_formula_structural   ZrH8C14O5
_chemical_formula_sum   'Zr4 H32 C56 O20'
_cell_volume   1917.81506021
_cell_formula_units_Z   4
loop_
 _symmetry_equiv_pos_site_id
 _symmetry_equiv_pos_as_xyz
  1  'x, y, z'
loop_
 _atom_site_type_symbol
 _atom_site_label
 _atom_site_symmetry_multiplicity
 _atom_site_fract_x
 _atom_site_fract_y
 _atom_site_fract_z
 _atom_site_occupancy
  Zr  Zr0  1  0.66213107  0.02480184  0.91600869  1.0
  Zr  Zr1  1  0.83781411  0.94085075  0.08400295  1.0
  Zr  Zr2  1  0.33786823  0.97519953  0.08399043  1.0
  Zr  Zr3  1  0.16218623  0.05914920  0.91599662  1.0
  H  H4  1  0.79177503  0.66053007  0.29916655  1.0
  H  H5  1  0.70816957  0.95963347  0.70086382  1.0
  H  H6  1  0.20822401  0.33946987  0.70083090  1.0
  H  H7  1  0.29181658  0.04036718  0.29913616  1.0
  H  H8  1  0.76591035  0.51152665  0.43156752  1.0
  H  H9  1  0.73413401  0.94310160  0.56844286  1.0
  H  H10  1  0.23408739  0.48847329  0.56843060  1.0
  H  H11  1  0.26585487  0.05689978  0.43155716  1.0
  H  H12  1  0.27655690  0.75211001  0.33190901  1.0
  H  H13  1  0.22344736  0.08396654  0.66804592  1.0
  H  H14  1  0.72344071  0.24788922  0.66809107  1.0
  H  H15  1  0.77654451  0.91603698  0.33195358  1.0
  H  H16  1  0.25326561  0.60441391  0.46475288  1.0
  H  H17  1  0.24672699  0.06906490  0.53525460  1.0
  H  H18  1  0.74673070  0.39558531  0.53524788  1.0
  H  H19  1  0.75326501  0.93093934  0.46474461  1.0
  H  H20  1  0.71702851  0.76812594  0.87113412  1.0
  H  H21  1  0.78319971  0.63920972  0.12888436  1.0
  H  H22  1  0.28297443  0.23187400  0.12886355  1.0
  H  H23  1  0.21680089  0.36079166  0.87111352  1.0
  H  H24  1  0.72623313  0.61066026  0.86872466  1.0
  H  H25  1  0.77392516  0.47932355  0.13130764  1.0
  H  H26  1  0.27376838  0.38933897  0.13127396  1.0
  H  H27  1  0.22607947  0.52067854  0.86868962  1.0
  H  H28  1  0.63857017  0.32091295  0.88966428  1.0
  H  H29  1  0.86160945  0.21055282  0.11021900  1.0
  H  H30  1  0.36142861  0.67908556  0.11033598  1.0
  H  H31  1  0.13839232  0.78944785  0.88978017  1.0
  H  H32  1  0.63167432  0.47857170  0.89082963  1.0
  H  H33  1  0.86842773  0.36932294  0.10916909  1.0
  H  H34  1  0.36832615  0.52142896  0.10916910  1.0
  H  H35  1  0.13157404  0.63067772  0.89082952  1.0
  C  C36  1  0.00747230  0.54468419  0.45994444  1.0
  C  C37  1  0.49255234  0.00459120  0.54006227  1.0
  C  C38  1  0.99252271  0.45531504  0.54005419  1.0
  C  C39  1  0.50743731  0.99541446  0.45993549  1.0
  C  C40  1  0.87910114  0.56324367  0.41104733  1.0
  C  C41  1  0.62092144  0.97426261  0.58896614  1.0
  C  C42  1  0.12089517  0.43675554  0.58895120  1.0
  C  C43  1  0.37906887  0.02573948  0.41103292  1.0
  C  C44  1  0.89235230  0.64708547  0.33613031  1.0
  C  C45  1  0.60759707  0.98314330  0.66389491  1.0
  C  C46  1  0.10764818  0.35291519  0.66386730  1.0
  C  C47  1  0.39239572  0.01685806  0.33610534  1.0
  C  C48  1  0.03583851  0.71579945  0.30686907  1.0
  C  C49  1  0.46417647  0.02264533  0.69310970  1.0
  C  C50  1  0.96416145  0.28419834  0.69312968  1.0
  C  C51  1  0.53581137  0.97735747  0.30688819  1.0
  C  C52  1  0.16504541  0.69866049  0.35446421  1.0
  C  C53  1  0.33495326  0.05305291  0.64552386  1.0
  C  C54  1  0.83495338  0.30133801  0.64553493  1.0
  C  C55  1  0.66503874  0.94695133  0.35447703  1.0
  C  C56  1  0.15056410  0.61484542  0.42946611  1.0
  C  C57  1  0.34941029  0.04420503  0.57054738  1.0
  C  C58  1  0.84942973  0.38515452  0.57053403  1.0
  C  C59  1  0.65057637  0.95579850  0.42945313  1.0
  C  C60  1  0.05052909  0.80604027  0.22686025  1.0
  C  C61  1  0.44948129  0.03283690  0.77313554  1.0
  C  C62  1  0.94947516  0.19395967  0.77313955  1.0
  C  C63  1  0.55051267  0.96716376  0.22686487  1.0
  C  C64  1  0.75010240  0.53192994  0.00001571  1.0
  C  C65  1  0.24990315  0.46807000  0.99998285  1.0
  C  C66  1  0.73483755  0.61531812  0.92699211  1.0
  C  C67  1  0.76536411  0.54225235  0.07303932  1.0
  C  C68  1  0.26516149  0.38468182  0.07300590  1.0
  C  C69  1  0.23463909  0.45774902  0.92695834  1.0
  C  C70  1  0.73197767  0.70420409  0.92728922  1.0
  C  C71  1  0.76829526  0.63146707  0.07271486  1.0
  C  C72  1  0.26802398  0.29579585  0.07270912  1.0
  C  C73  1  0.23170782  0.36853358  0.92728253  1.0
  C  C74  1  0.75017799  0.71327593  0.99999831  1.0
  C  C75  1  0.24982371  0.28672578  0.99999853  1.0
  C  C76  1  0.75003318  0.43711146  0.00000414  1.0
  C  C77  1  0.24996989  0.56288920  0.99999492  1.0
  C  C78  1  0.68715090  0.42137433  0.93803209  1.0
  C  C79  1  0.81291905  0.35937019  0.06196737  1.0
  C  C80  1  0.31284957  0.57862633  0.06196608  1.0
  C  C81  1  0.18708142  0.64063047  0.93803136  1.0
  C  C82  1  0.68826227  0.33255992  0.93756014  1.0
  C  C83  1  0.81191966  0.27013243  0.06234769  1.0
  C  C84  1  0.31173794  0.66743930  0.06244028  1.0
  C  C85  1  0.18808223  0.72986894  0.93765176  1.0
  C  C86  1  0.75011344  0.25574380  0.99993800  1.0
  C  C87  1  0.24988560  0.74425615  0.00006168  1.0
  C  C88  1  0.75012692  0.80847750  0.00001390  1.0
  C  C89  1  0.24987485  0.19152315  0.99998360  1.0
  C  C90  1  0.74998217  0.16026950  0.99996172  1.0
  C  C91  1  0.25001960  0.83973116  0.00003801  1.0
  O  O92  1  0.40505221  0.04428134  0.94836240  1.0
  O  O93  1  0.09498473  0.99255182  0.05163858  1.0
  O  O94  1  0.59494956  0.95571932  0.05163621  1.0
  O  O95  1  0.90501574  0.00744883  0.94836127  1.0
  O  O96  1  0.92802739  0.81941268  0.18716913  1.0
  O  O97  1  0.57189164  0.00640326  0.81288248  1.0
  O  O98  1  0.07197568  0.18058798  0.81283105  1.0
  O  O99  1  0.42810636  0.99359811  0.18711507  1.0
  O  O100  1  0.18637371  0.86473049  0.20417451  1.0
  O  O101  1  0.31375761  0.06893355  0.79578673  1.0
  O  O102  1  0.81362936  0.13527017  0.79582511  1.0
  O  O103  1  0.68623388  0.93106783  0.20421474  1.0
  O  O104  1  0.69400450  0.87578488  0.94058652  1.0
  O  O105  1  0.80619011  0.81637588  0.05943404  1.0
  O  O106  1  0.30599467  0.12421578  0.05941176  1.0
  O  O107  1  0.19381061  0.18362621  0.94056300  1.0
  O  O108  1  0.69239269  0.15165539  0.94128709  1.0
  O  O109  1  0.80746914  0.09295889  0.05866862  1.0
  O  O110  1  0.30760908  0.84834528  0.05871320  1.0
  O  O111  1  0.19253237  0.90704033  0.94133057  1.0
