# generated using pymatgen
data_Zn4H49C89I3(N8O5)2
_symmetry_space_group_name_H-M   'P 1'
_cell_length_a   19.07921723
_cell_length_b   19.15275112
_cell_length_c   20.12061727
_cell_angle_alpha   108.02447164
_cell_angle_beta   104.66797469
_cell_angle_gamma   112.92803027
_symmetry_Int_Tables_number   1
_chemical_formula_structural   Zn4H49C89I3(N8O5)2
_chemical_formula_sum   'Zn4 H49 C89 I3 N16 O10'
_cell_volume   5823.42518171
_cell_formula_units_Z   1
loop_
 _symmetry_equiv_pos_site_id
 _symmetry_equiv_pos_as_xyz
  1  'x, y, z'
loop_
 _atom_site_type_symbol
 _atom_site_label
 _atom_site_symmetry_multiplicity
 _atom_site_fract_x
 _atom_site_fract_y
 _atom_site_fract_z
 _atom_site_occupancy
  Zn  Zn0  1  0.11676084  0.12648483  0.49886920  1.0
  Zn  Zn1  1  0.89859862  0.89665886  0.49036525  1.0
  Zn  Zn2  1  0.01819603  0.91828456  0.39513754  1.0
  Zn  Zn3  1  0.00224253  0.10070246  0.59594721  1.0
  H  H4  1  0.99563084  0.16591306  0.38966647  1.0
  H  H5  1  0.00018460  0.87684284  0.62200869  1.0
  H  H6  1  0.15291019  0.90260242  0.32260097  1.0
  H  H7  1  0.95096493  0.11029342  0.74501121  1.0
  H  H8  1  0.80377427  0.83692867  0.60058436  1.0
  H  H9  1  0.29518502  0.17380457  0.47540536  1.0
  H  H10  1  0.13060864  0.10886252  0.74370762  1.0
  H  H11  1  0.14478687  0.87061991  0.48734613  1.0
  H  H12  1  0.20381690  0.80804223  0.56104021  1.0
  H  H13  1  0.00173368  0.76381273  0.63079402  1.0
  H  H14  1  0.95175711  0.65278663  0.66916654  1.0
  H  H15  1  0.73327694  0.87212503  0.36440467  1.0
  H  H16  1  0.19591577  0.46060331  0.58367786  1.0
  H  H17  1  0.25986602  0.58351378  0.56193045  1.0
  H  H18  1  0.27752415  0.91064357  0.36596771  1.0
  H  H19  1  0.54320829  0.22840381  0.39239331  1.0
  H  H20  1  0.66869132  0.21887752  0.39841897  1.0
  H  H21  1  0.74731397  0.14088231  0.40890052  1.0
  H  H22  1  0.90715853  0.71178129  0.25138523  1.0
  H  H23  1  0.61498487  0.88163084  0.37205702  1.0
  H  H24  1  0.46444476  0.80943857  0.34021218  1.0
  H  H25  1  0.33897553  0.82047269  0.33858441  1.0
  H  H26  1  0.75517455  0.59968606  0.14560288  1.0
  H  H27  1  0.74485887  0.51892274  0.32210483  1.0
  H  H28  1  0.49603714  0.17101330  0.84934738  1.0
  H  H29  1  0.64102191  0.45581929  0.04612581  1.0
  H  H30  1  0.36752753  0.10462464  0.72924929  1.0
  H  H31  1  0.01670414  0.28939280  0.66105669  1.0
  H  H32  1  0.59306933  0.31470759  0.98037169  1.0
  H  H33  1  0.40016532  0.30810522  0.97464941  1.0
  H  H34  1  0.63187591  0.37403034  0.22243058  1.0
  H  H35  1  0.76084280  0.90259324  0.16723804  1.0
  H  H36  1  0.82158970  0.07418535  0.77574748  1.0
  H  H37  1  0.74943334  0.90215806  0.94863648  1.0
  H  H38  1  0.88907812  0.16942861  0.14432169  1.0
  H  H39  1  0.77854548  0.07496740  0.88133222  1.0
  H  H40  1  0.94428299  0.17002677  0.26913630  1.0
  H  H41  1  0.81031938  0.09309638  0.00602574  1.0
  H  H42  1  0.70729416  0.90159576  0.04203452  1.0
  H  H43  1  0.77825833  0.84141167  0.84818485  1.0
  H  H44  1  0.14321950  0.31723675  0.51238046  1.0
  H  H45  1  0.87108006  0.14601239  0.50837957  1.0
  H  H46  1  0.86272346  0.89084100  0.25493407  1.0
  H  H47  1  0.28599165  0.14789143  0.61924899  1.0
  H  H48  1  0.82287506  0.30799264  0.53021758  1.0
  H  H49  1  0.36232012  0.82214620  0.55434603  1.0
  H  H50  1  0.22910617  0.33083614  0.82216239  1.0
  H  H51  1  0.51884629  0.39836013  0.16516535  1.0
  H  H52  1  0.92099622  0.80640822  0.72932597  1.0
  C  C53  1  0.97181634  0.09781504  0.36586710  1.0
  C  C54  1  0.76933053  0.01060663  0.42066536  1.0
  C  C55  1  0.81425754  0.66028546  0.29816109  1.0
  C  C56  1  0.07850361  0.33722554  0.59037249  1.0
  C  C57  1  0.23647029  0.13458896  0.63897224  1.0
  C  C58  1  0.03030288  0.88112542  0.58315494  1.0
  C  C59  1  0.17665290  0.96806663  0.36311208  1.0
  C  C60  1  0.91952890  0.04508367  0.70007591  1.0
  C  C61  1  0.84543256  0.90552365  0.62726871  1.0
  C  C62  1  0.24899828  0.10642999  0.44020213  1.0
  C  C63  1  0.15730108  0.11608753  0.70287698  1.0
  C  C64  1  0.77845012  0.93860541  0.40536921  1.0
  C  C65  1  0.10458790  0.87894163  0.51500568  1.0
  C  C66  1  0.23971074  0.13909461  0.71087554  1.0
  C  C67  1  0.08566198  0.85298775  0.56962367  1.0
  C  C68  1  0.25620796  0.04065381  0.39232977  1.0
  C  C69  1  0.86306954  0.96934535  0.69745627  1.0
  C  C70  1  0.16069944  0.77152546  0.57973371  1.0
  C  C71  1  0.10127737  0.79324335  0.59271733  1.0
  C  C72  1  0.04817063  0.74814346  0.61983005  1.0
  C  C73  1  0.04813113  0.67789866  0.62703180  1.0
  C  C74  1  0.10465089  0.65235596  0.60924246  1.0
  C  C75  1  0.88096329  0.72150407  0.29317967  1.0
  C  C76  1  0.16490112  0.70290832  0.58823626  1.0
  C  C77  1  0.99005873  0.62887781  0.64983340  1.0
  C  C78  1  0.98163378  0.55408444  0.64839499  1.0
  C  C79  1  0.03131294  0.52032446  0.62297300  1.0
  C  C80  1  0.09682597  0.57543785  0.60937618  1.0
  C  C81  1  0.15412319  0.55061256  0.59224337  1.0
  C  C82  1  0.21627169  0.60288944  0.57503954  1.0
  C  C83  1  0.22268239  0.67582887  0.57220709  1.0
  C  C84  1  0.02069900  0.43890089  0.61083730  1.0
  C  C85  1  0.08177024  0.41758078  0.59943110  1.0
  C  C86  1  0.04792949  0.28368332  0.62330717  1.0
  C  C87  1  0.14827486  0.47560515  0.59208153  1.0
  C  C88  1  0.32975665  0.96313248  0.36748603  1.0
  C  C89  1  0.32845130  0.03904008  0.38028357  1.0
  C  C90  1  0.39697392  0.10605478  0.38217238  1.0
  C  C91  1  0.46850986  0.10129133  0.37912693  1.0
  C  C92  1  0.46845139  0.02382797  0.36922374  1.0
  C  C93  1  0.39629186  0.95289383  0.36011595  1.0
  C  C94  1  0.54280255  0.16990921  0.38726190  1.0
  C  C95  1  0.61291767  0.16447916  0.39068445  1.0
  C  C96  1  0.61600774  0.08952718  0.38547204  1.0
  C  C97  1  0.81065193  0.70988315  0.36414712  1.0
  C  C98  1  0.54086719  0.01784647  0.37132720  1.0
  C  C99  1  0.54035760  0.94073914  0.36295653  1.0
  C  C100  1  0.46476259  0.86866874  0.34851873  1.0
  C  C101  1  0.39575083  0.87478807  0.34773519  1.0
  C  C102  1  0.68970451  0.08520735  0.39673064  1.0
  C  C103  1  0.69107864  0.01178496  0.39460601  1.0
  C  C104  1  0.61507932  0.93932370  0.37425471  1.0
  C  C105  1  0.31292018  0.17213056  0.78201060  1.0
  C  C106  1  0.32393317  0.23013553  0.85308751  1.0
  C  C107  1  0.39307221  0.26215767  0.92146534  1.0
  C  C108  1  0.11301595  0.29828393  0.54787848  1.0
  C  C109  1  0.45718158  0.24302990  0.92170500  1.0
  C  C110  1  0.44709066  0.18673112  0.85080839  1.0
  C  C111  1  0.37550028  0.15040876  0.78308330  1.0
  C  C112  1  0.66563371  0.46850766  0.10634834  1.0
  C  C113  1  0.72964595  0.54971924  0.16246085  1.0
  C  C114  1  0.72218651  0.50524839  0.26152523  1.0
  C  C115  1  0.65829915  0.42334243  0.20504409  1.0
  C  C116  1  0.62624430  0.40390545  0.12624161  1.0
  C  C117  1  0.53664728  0.29271898  0.99092387  1.0
  C  C118  1  0.54821585  0.32473800  0.06594764  1.0
  C  C119  1  0.84920877  0.07851302  0.47799766  1.0
  C  C120  1  0.75671649  0.57079413  0.24143110  1.0
  C  C121  1  0.86054599  0.03508711  0.22687928  1.0
  C  C122  1  0.79024691  0.96119707  0.16230900  1.0
  C  C123  1  0.75983498  0.96060264  0.09165857  1.0
  C  C124  1  0.79820796  0.03420820  0.08227928  1.0
  C  C125  1  0.86029878  0.11073839  0.14935362  1.0
  C  C126  1  0.89140598  0.11098640  0.21987077  1.0
  C  C127  1  0.78942552  0.02433824  0.85247408  1.0
  C  C128  1  0.81476898  0.02458363  0.79372169  1.0
  C  C129  1  0.81761204  0.89551352  0.77644936  1.0
  C  C130  1  0.90320022  0.95739209  0.29769900  1.0
  C  C131  1  0.78800831  0.89336977  0.83302727  1.0
  C  C132  1  0.77764458  0.95941664  0.87507947  1.0
  C  C133  1  0.78712830  0.03155868  0.00703941  1.0
  C  C134  1  0.76567887  0.96138024  0.94404736  1.0
  C  C135  1  0.83214578  0.96227777  0.75574542  1.0
  C  C136  1  0.90580526  0.03070956  0.29442738  1.0
  C  C137  1  0.93855885  0.36916928  0.59766804  1.0
  C  C138  1  0.29070412  0.71908553  0.55060524  1.0
  C  C139  1  0.26797103  0.26682224  0.85864515  1.0
  C  C140  1  0.47733100  0.28520184  0.08692575  1.0
  C  C141  1  0.83682395  0.82693294  0.74605336  1.0
  I  I142  1  0.90088782  0.50190251  0.69676152  1.0
  I  I143  1  0.39216889  0.21561904  0.38508555  1.0
  I  I144  1  0.72941835  0.67630661  0.41528478  1.0
  N  N145  1  0.00578529  0.06626107  0.40700576  1.0
  N  N146  1  0.01591186  0.91820513  0.53849863  1.0
  N  N147  1  0.12687968  0.98882068  0.39105465  1.0
  N  N148  1  0.93468323  0.02754321  0.63695345  1.0
  N  N149  1  0.88815311  0.94062015  0.59145076  1.0
  N  N150  1  0.17190288  0.07517552  0.43910764  1.0
  N  N151  1  0.11005513  0.10105990  0.63246674  1.0
  N  N152  1  0.06166774  0.91699822  0.49653448  1.0
  N  N153  1  0.85709533  0.96235630  0.45069553  1.0
  N  N154  1  0.91356896  0.79980247  0.35064679  1.0
  N  N155  1  0.06234058  0.21883002  0.60155073  1.0
  N  N156  1  0.86913477  0.79272573  0.39461130  1.0
  N  N157  1  0.10307941  0.22780091  0.55458629  1.0
  N  N158  1  0.90065236  0.04830568  0.49568465  1.0
  N  N159  1  0.96357254  0.98003654  0.36509496  1.0
  N  N160  1  0.15853415  0.11288360  0.59322971  1.0
  O  O161  1  0.92673052  0.32735953  0.63302680  1.0
  O  O162  1  0.87464106  0.35203025  0.53406673  1.0
  O  O163  1  0.32336792  0.68434038  0.51896599  1.0
  O  O164  1  0.31687477  0.80306001  0.57057238  1.0
  O  O165  1  0.23066184  0.26428043  0.89978681  1.0
  O  O166  1  0.26685822  0.30909299  0.81509721  1.0
  O  O167  1  0.42689222  0.20921451  0.05622174  1.0
  O  O168  1  0.47202158  0.34044421  0.14525324  1.0
  O  O169  1  0.79103112  0.75168766  0.72715733  1.0
  O  O170  1  0.91462556  0.85654158  0.74594755  1.0
