# generated using pymatgen
data_Zn4C24N12O37
_symmetry_space_group_name_H-M   'P 1'
_cell_length_a   18.30252841
_cell_length_b   18.30214540
_cell_length_c   18.30243659
_cell_angle_alpha   59.99899043
_cell_angle_beta   59.99968805
_cell_angle_gamma   59.99943693
_symmetry_Int_Tables_number   1
_chemical_formula_structural   Zn4C24N12O37
_chemical_formula_sum   'Zn8 C48 N24 O74'
_cell_volume   4335.11695173
_cell_formula_units_Z   2
loop_
 _symmetry_equiv_pos_site_id
 _symmetry_equiv_pos_as_xyz
  1  'x, y, z'
loop_
 _atom_site_type_symbol
 _atom_site_label
 _atom_site_symmetry_multiplicity
 _atom_site_fract_x
 _atom_site_fract_y
 _atom_site_fract_z
 _atom_site_occupancy
  Zn  Zn0  1  0.04382454  0.54381822  0.04382646  1.0
  Zn  Zn1  1  0.86854848  0.54382278  0.04382192  1.0
  Zn  Zn2  1  0.04382592  0.36852659  0.04383202  1.0
  Zn  Zn3  1  0.04382105  0.54381613  0.86854740  1.0
  Zn  Zn4  1  0.45619072  0.95617254  0.45618085  1.0
  Zn  Zn5  1  0.45617992  0.13146420  0.45617776  1.0
  Zn  Zn6  1  0.63146412  0.95617707  0.45618213  1.0
  Zn  Zn7  1  0.45618417  0.95617293  0.63146306  1.0
  C  C8  1  0.86353868  0.63646851  0.13645500  1.0
  C  C9  1  0.86354085  0.36353597  0.13646314  1.0
  C  C10  1  0.13646026  0.36352716  0.13647207  1.0
  C  C11  1  0.13645986  0.36352725  0.86354801  1.0
  C  C12  1  0.13645961  0.63646607  0.86353987  1.0
  C  C13  1  0.86354138  0.63646296  0.86354231  1.0
  C  C14  1  0.36354451  0.13645201  0.36353524  1.0
  C  C15  1  0.63646198  0.13646066  0.36353957  1.0
  C  C16  1  0.63646348  0.86353768  0.36353654  1.0
  C  C17  1  0.63647441  0.86353790  0.63645638  1.0
  C  C18  1  0.36354267  0.86353794  0.63645474  1.0
  C  C19  1  0.36353745  0.13646483  0.63645844  1.0
  C  C20  1  0.19473584  0.69473601  0.80526539  1.0
  C  C21  1  0.30527291  0.80526900  0.69472653  1.0
  C  C22  1  0.22462388  0.72159183  0.71169856  1.0
  C  C23  1  0.27839780  0.77538857  0.78829472  1.0
  C  C24  1  0.27538250  0.77840230  0.65791845  1.0
  C  C25  1  0.22158605  0.72463064  0.84208816  1.0
  C  C26  1  0.80526794  0.30526936  0.19473427  1.0
  C  C27  1  0.69473187  0.19473519  0.30527245  1.0
  C  C28  1  0.84207612  0.21169954  0.22160531  1.0
  C  C29  1  0.65791378  0.28830275  0.27538947  1.0
  C  C30  1  0.78829804  0.15791807  0.27841272  1.0
  C  C31  1  0.71170284  0.34208533  0.22462336  1.0
  C  C32  1  0.19473631  0.30525852  0.19473080  1.0
  C  C33  1  0.30526794  0.19472341  0.30527316  1.0
  C  C34  1  0.22160439  0.21169147  0.22461983  1.0
  C  C35  1  0.27537717  0.28829575  0.27841215  1.0
  C  C36  1  0.27841485  0.15790307  0.27538043  1.0
  C  C37  1  0.22461411  0.34207887  0.22160154  1.0
  C  C38  1  0.80527730  0.69472934  0.80526619  1.0
  C  C39  1  0.69473888  0.80527080  0.69472448  1.0
  C  C40  1  0.84209639  0.72461198  0.71169595  1.0
  C  C41  1  0.65792397  0.77841937  0.78829267  1.0
  C  C42  1  0.78830713  0.77536986  0.65791340  1.0
  C  C43  1  0.71170984  0.72160297  0.84208400  1.0
  C  C44  1  0.80526266  0.69473478  0.19473536  1.0
  C  C45  1  0.69472578  0.80527627  0.30526756  1.0
  C  C46  1  0.71169933  0.72462863  0.22158849  1.0
  C  C47  1  0.78829601  0.77840323  0.27538236  1.0
  C  C48  1  0.65792361  0.77538236  0.27840143  1.0
  C  C49  1  0.84209111  0.72159515  0.22461614  1.0
  C  C50  1  0.19471752  0.30526010  0.80527568  1.0
  C  C51  1  0.30525913  0.19473208  0.69472943  1.0
  C  C52  1  0.22156289  0.34208714  0.71170807  1.0
  C  C53  1  0.27537780  0.15790909  0.78829772  1.0
  C  C54  1  0.27838335  0.28830347  0.65791914  1.0
  C  C55  1  0.22462013  0.21168975  0.84208662  1.0
  N  N56  1  0.20474843  0.68822629  0.66663897  1.0
  N  N57  1  0.31176245  0.79526621  0.83336248  1.0
  N  N58  1  0.29525717  0.81177060  0.55963890  1.0
  N  N59  1  0.18821392  0.70476496  0.94038662  1.0
  N  N60  1  0.94038799  0.16663072  0.18823661  1.0
  N  N61  1  0.55961166  0.33337041  0.29525894  1.0
  N  N62  1  0.83335706  0.05960726  0.31177343  1.0
  N  N63  1  0.66666667  0.44037283  0.20473644  1.0
  N  N64  1  0.18823644  0.16662502  0.20474473  1.0
  N  N65  1  0.29525546  0.33335807  0.31176911  1.0
  N  N66  1  0.31177865  0.05959816  0.29528986  1.0
  N  N67  1  0.20473041  0.44038709  0.18823808  1.0
  N  N68  1  0.94039996  0.70473785  0.66663047  1.0
  N  N69  1  0.55962081  0.81178328  0.83336266  1.0
  N  N70  1  0.83337429  0.79523604  0.55960553  1.0
  N  N71  1  0.66666667  0.68823019  0.94038735  1.0
  N  N72  1  0.66666667  0.70472173  0.18822862  1.0
  N  N73  1  0.83336232  0.81176866  0.29526025  1.0
  N  N74  1  0.55961114  0.79525637  0.31179916  1.0
  N  N75  1  0.94038695  0.68823262  0.20473917  1.0
  N  N76  1  0.18819162  0.44039228  0.66664618  1.0
  N  N77  1  0.29525661  0.05959923  0.83335831  1.0
  N  N78  1  0.31174940  0.33337370  0.55961299  1.0
  N  N79  1  0.20475118  0.16662012  0.94039139  1.0
  O  O80  1  0.00001933  0.49998182  0.00002578  1.0
  O  O81  1  0.94183965  0.64067296  0.08861288  1.0
  O  O82  1  0.82888273  0.44184349  0.08861842  1.0
  O  O83  1  0.14066593  0.32886044  0.08862999  1.0
  O  O84  1  0.82886863  0.58862896  0.14065611  1.0
  O  O85  1  0.08860859  0.44182500  0.14068165  1.0
  O  O86  1  0.94184077  0.32887100  0.14067044  1.0
  O  O87  1  0.08863303  0.32885224  0.94185919  1.0
  O  O88  1  0.08862400  0.64065513  0.82888083  1.0
  O  O89  1  0.14065233  0.44183719  0.82887851  1.0
  O  O90  1  0.14065613  0.58863062  0.94185506  1.0
  O  O91  1  0.82888477  0.64066981  0.94184025  1.0
  O  O92  1  0.94184894  0.58861356  0.82887619  1.0
  O  O93  1  0.50001305  0.99999764  0.49998889  1.0
  O  O94  1  0.35935077  0.05814297  0.41137272  1.0
  O  O95  1  0.55815622  0.17112845  0.41137718  1.0
  O  O96  1  0.67112508  0.85933012  0.41138166  1.0
  O  O97  1  0.41138529  0.17111899  0.35933091  1.0
  O  O98  1  0.55816166  0.91138198  0.35933443  1.0
  O  O99  1  0.67112844  0.05815502  0.35933805  1.0
  O  O100  1  0.67114069  0.91137161  0.55815110  1.0
  O  O101  1  0.35934277  0.91138073  0.67111661  1.0
  O  O102  1  0.55816650  0.85934510  0.67112116  1.0
  O  O103  1  0.41138441  0.85933333  0.55815342  1.0
  O  O104  1  0.35933759  0.17114088  0.55815009  1.0
  O  O105  1  0.41138152  0.05816042  0.67111373  1.0
  O  O106  1  0.23991637  0.60728144  0.67909720  1.0
  O  O107  1  0.15723328  0.74474490  0.62014361  1.0
  O  O108  1  0.39270871  0.76009937  0.82090269  1.0
  O  O109  1  0.25523760  0.84277459  0.87986353  1.0
  O  O110  1  0.26009040  0.89271883  0.52629481  1.0
  O  O111  1  0.34275795  0.75525087  0.52211665  1.0
  O  O112  1  0.10727252  0.73994972  0.97369047  1.0
  O  O113  1  0.24472705  0.65724468  0.97788816  1.0
  O  O114  1  0.97369851  0.17909998  0.10728855  1.0
  O  O115  1  0.97787938  0.12012311  0.24475608  1.0
  O  O116  1  0.52629997  0.32091657  0.26008348  1.0
  O  O117  1  0.52211813  0.37986368  0.34277776  1.0
  O  O118  1  0.82090654  0.02628385  0.39271700  1.0
  O  O119  1  0.87984624  0.02212313  0.25524808  1.0
  O  O120  1  0.67909902  0.47371855  0.23990301  1.0
  O  O121  1  0.62014790  0.47788355  0.15722150  1.0
  O  O122  1  0.10729445  0.17908466  0.23991453  1.0
  O  O123  1  0.24475708  0.12011996  0.15723524  1.0
  O  O124  1  0.26008626  0.32090201  0.39271449  1.0
  O  O125  1  0.34276847  0.37985352  0.25524537  1.0
  O  O126  1  0.39272153  0.02627918  0.26008045  1.0
  O  O127  1  0.25526142  0.02210729  0.34277193  1.0
  O  O128  1  0.23988987  0.47370894  0.10729242  1.0
  O  O129  1  0.15721846  0.47786908  0.24476678  1.0
  O  O130  1  0.97371526  0.73990566  0.67909193  1.0
  O  O131  1  0.97788672  0.65723135  0.62012681  1.0
  O  O132  1  0.52630539  0.89273064  0.82090508  1.0
  O  O133  1  0.52213203  0.75526200  0.87985827  1.0
  O  O134  1  0.82091158  0.76005711  0.52629928  1.0
  O  O135  1  0.87987354  0.84274478  0.52210970  1.0
  O  O136  1  0.67911410  0.60730012  0.97371113  1.0
  O  O137  1  0.62015516  0.74477506  0.97786915  1.0
  O  O138  1  0.67908878  0.73992807  0.10728367  1.0
  O  O139  1  0.62014343  0.65723601  0.24474835  1.0
  O  O140  1  0.82091187  0.89271069  0.26008621  1.0
  O  O141  1  0.87985561  0.75523787  0.34278145  1.0
  O  O142  1  0.52630247  0.76007972  0.39272013  1.0
  O  O143  1  0.52211904  0.84276754  0.25525231  1.0
  O  O144  1  0.97370428  0.60728385  0.23990445  1.0
  O  O145  1  0.97787347  0.74475381  0.15722975  1.0
  O  O146  1  0.10724784  0.47370385  0.67909529  1.0
  O  O147  1  0.24470722  0.47788589  0.62015142  1.0
  O  O148  1  0.26009062  0.02628304  0.82089550  1.0
  O  O149  1  0.34276565  0.02210978  0.87986413  1.0
  O  O150  1  0.39268912  0.32092707  0.52631220  1.0
  O  O151  1  0.25523472  0.37986409  0.52211415  1.0
  O  O152  1  0.23993416  0.17907776  0.97369584  1.0
  O  O153  1  0.15724118  0.12012226  0.97788988  1.0
