# generated using pymatgen
data_CuH3C8N3O4
_symmetry_space_group_name_H-M   'P 1'
_cell_length_a   10.18306435
_cell_length_b   19.33031710
_cell_length_c   19.33023993
_cell_angle_alpha   60.00618393
_cell_angle_beta   89.98531740
_cell_angle_gamma   89.98400375
_symmetry_Int_Tables_number   1
_chemical_formula_structural   CuH3C8N3O4
_chemical_formula_sum   'Cu12 H36 C96 N36 O48'
_cell_volume   3295.43220068
_cell_formula_units_Z   12
loop_
 _symmetry_equiv_pos_site_id
 _symmetry_equiv_pos_as_xyz
  1  'x, y, z'
loop_
 _atom_site_type_symbol
 _atom_site_label
 _atom_site_symmetry_multiplicity
 _atom_site_fract_x
 _atom_site_fract_y
 _atom_site_fract_z
 _atom_site_occupancy
  Cu  Cu0  1  0.35922838  0.96489590  0.54404209  1.0
  Cu  Cu1  1  0.35924674  0.49109100  0.96493091  1.0
  Cu  Cu2  1  0.36019809  0.54421516  0.49116058  1.0
  Cu  Cu3  1  0.14079787  0.45599352  0.03512646  1.0
  Cu  Cu4  1  0.14075010  0.03501507  0.50898565  1.0
  Cu  Cu5  1  0.13972139  0.50881096  0.45574779  1.0
  Cu  Cu6  1  0.64083245  0.03511822  0.45598554  1.0
  Cu  Cu7  1  0.64074929  0.50889699  0.03510449  1.0
  Cu  Cu8  1  0.64083686  0.45600224  0.50885868  1.0
  Cu  Cu9  1  0.85918934  0.54398488  0.96486294  1.0
  Cu  Cu10  1  0.85929504  0.96493774  0.49104975  1.0
  Cu  Cu11  1  0.85914637  0.49115158  0.54402723  1.0
  H  H12  1  0.26111656  0.75907015  0.49699818  1.0
  H  H13  1  0.26092535  0.74382604  0.75930488  1.0
  H  H14  1  0.26143243  0.49694977  0.74385159  1.0
  H  H15  1  0.23898390  0.50299942  0.24091732  1.0
  H  H16  1  0.23890233  0.24070852  0.25616077  1.0
  H  H17  1  0.23866647  0.25614901  0.50303189  1.0
  H  H18  1  0.73907097  0.24075200  0.50318058  1.0
  H  H19  1  0.73912078  0.25610427  0.24072275  1.0
  H  H20  1  0.73874625  0.50324260  0.25599745  1.0
  H  H21  1  0.76084716  0.49679574  0.75927100  1.0
  H  H22  1  0.76100532  0.75927520  0.74387284  1.0
  H  H23  1  0.76121663  0.74402399  0.49676281  1.0
  H  H24  1  0.99003927  0.95362280  0.36706533  1.0
  H  H25  1  0.98967391  0.67922303  0.95380651  1.0
  H  H26  1  0.99024054  0.36739838  0.67884410  1.0
  H  H27  1  0.51007720  0.63298557  0.04638054  1.0
  H  H28  1  0.51019831  0.04621107  0.32081681  1.0
  H  H29  1  0.50980829  0.32116434  0.63259488  1.0
  H  H30  1  0.01022783  0.04621906  0.63301606  1.0
  H  H31  1  0.01034275  0.32076601  0.04618230  1.0
  H  H32  1  0.01007859  0.63283287  0.32085680  1.0
  H  H33  1  0.48973517  0.36691479  0.95382810  1.0
  H  H34  1  0.48974567  0.95379332  0.67920545  1.0
  H  H35  1  0.48988525  0.67913128  0.36719983  1.0
  H  H36  1  0.97492869  0.74624733  0.33911951  1.0
  H  H37  1  0.97447992  0.91448205  0.74636125  1.0
  H  H38  1  0.97480846  0.33921073  0.91427587  1.0
  H  H39  1  0.52507192  0.66092194  0.25374818  1.0
  H  H40  1  0.52541008  0.25363760  0.08553983  1.0
  H  H41  1  0.52529232  0.08573593  0.66078787  1.0
  H  H42  1  0.02557508  0.25367958  0.66083105  1.0
  H  H43  1  0.02553873  0.08547001  0.25357321  1.0
  H  H44  1  0.02544000  0.66078876  0.08551402  1.0
  H  H45  1  0.47436432  0.33916195  0.74632727  1.0
  H  H46  1  0.47457906  0.74641236  0.91451649  1.0
  H  H47  1  0.47455930  0.91451126  0.33915438  1.0
  C  C48  1  0.97287230  0.85539790  0.34567335  1.0
  C  C49  1  0.97244142  0.79880897  0.85559184  1.0
  C  C50  1  0.97311332  0.34578932  0.79853947  1.0
  C  C51  1  0.52713784  0.65435395  0.14462091  1.0
  C  C52  1  0.52745352  0.14442426  0.20121950  1.0
  C  C53  1  0.52698575  0.20147147  0.65419997  1.0
  C  C54  1  0.02752148  0.14444362  0.65438593  1.0
  C  C55  1  0.02757427  0.20115665  0.14439517  1.0
  C  C56  1  0.02740519  0.65425552  0.20123728  1.0
  C  C57  1  0.47244965  0.34556974  0.85557937  1.0
  C  C58  1  0.47251403  0.85559339  0.79879798  1.0
  C  C59  1  0.47255555  0.79877018  0.34573272  1.0
  C  C60  1  0.02764230  0.89505746  0.38245570  1.0
  C  C61  1  0.02728564  0.72237803  0.89525969  1.0
  C  C62  1  0.02787029  0.38268854  0.72206489  1.0
  C  C63  1  0.47243399  0.61758220  0.10493619  1.0
  C  C64  1  0.47256906  0.10475673  0.27764603  1.0
  C  C65  1  0.47217760  0.27793816  0.61730545  1.0
  C  C66  1  0.97265818  0.10477783  0.61763882  1.0
  C  C67  1  0.97273299  0.27759400  0.10473210  1.0
  C  C68  1  0.97249107  0.61750773  0.27764078  1.0
  C  C69  1  0.52732045  0.38229377  0.89527364  1.0
  C  C70  1  0.52735233  0.89524861  0.72237744  1.0
  C  C71  1  0.52746880  0.72235326  0.38251733  1.0
  C  C72  1  0.12813136  0.85999893  0.43825726  1.0
  C  C73  1  0.12783715  0.70161771  0.86022644  1.0
  C  C74  1  0.12829887  0.43846853  0.70142096  1.0
  C  C75  1  0.37200978  0.56176947  0.13999025  1.0
  C  C76  1  0.37199465  0.13978710  0.29839728  1.0
  C  C77  1  0.37174440  0.29857322  0.56153701  1.0
  C  C78  1  0.87212689  0.13981068  0.56187310  1.0
  C  C79  1  0.87219032  0.29833318  0.13977969  1.0
  C  C80  1  0.87183856  0.56182683  0.29830384  1.0
  C  C81  1  0.62782421  0.43807512  0.86022854  1.0
  C  C82  1  0.62791202  0.86019769  0.70164350  1.0
  C  C83  1  0.62811316  0.70169163  0.43820333  1.0
  C  C84  1  0.17970691  0.78590715  0.45549134  1.0
  C  C85  1  0.17940021  0.75844572  0.78614331  1.0
  C  C86  1  0.17980627  0.45563413  0.75829770  1.0
  C  C87  1  0.32039402  0.54449504  0.21408546  1.0
  C  C88  1  0.32043952  0.21386605  0.24154786  1.0
  C  C89  1  0.32027715  0.24169523  0.54435850  1.0
  C  C90  1  0.82057786  0.21390199  0.54463065  1.0
  C  C91  1  0.82064199  0.24149945  0.21386701  1.0
  C  C92  1  0.82029679  0.54463876  0.24144204  1.0
  C  C93  1  0.67935355  0.45534573  0.78612855  1.0
  C  C94  1  0.67947206  0.78612397  0.75848039  1.0
  C  C95  1  0.67967076  0.75857977  0.45536153  1.0
  C  C96  1  0.12305969  0.74564954  0.41939050  1.0
  C  C97  1  0.12264850  0.83477225  0.74587988  1.0
  C  C98  1  0.12291856  0.41951537  0.83460566  1.0
  C  C99  1  0.37700205  0.58061161  0.25432917  1.0
  C  C100  1  0.37721419  0.25412930  0.16523121  1.0
  C  C101  1  0.37720957  0.16539721  0.58046626  1.0
  C  C102  1  0.87736552  0.25417459  0.58067355  1.0
  C  C103  1  0.87738682  0.16518341  0.25411670  1.0
  C  C104  1  0.87715801  0.58066861  0.16515259  1.0
  C  C105  1  0.62257071  0.41932107  0.74584901  1.0
  C  C106  1  0.62272881  0.74587515  0.83480957  1.0
  C  C107  1  0.62281297  0.83487986  0.41929618  1.0
  C  C108  1  0.01799725  0.77924443  0.36555486  1.0
  C  C109  1  0.01748296  0.85502321  0.77942234  1.0
  C  C110  1  0.01794477  0.36565897  0.85484012  1.0
  C  C111  1  0.48202523  0.63446665  0.22076993  1.0
  C  C112  1  0.48240064  0.22058872  0.14499477  1.0
  C  C113  1  0.48217516  0.14516866  0.63432306  1.0
  C  C114  1  0.98251045  0.22062458  0.63444528  1.0
  C  C115  1  0.98253175  0.14493332  0.22054975  1.0
  C  C116  1  0.98236948  0.63438455  0.14495276  1.0
  C  C117  1  0.51743851  0.36553920  0.77939332  1.0
  C  C118  1  0.51758065  0.77943064  0.85504722  1.0
  C  C119  1  0.51762050  0.85506001  0.36557139  1.0
  C  C120  1  0.17698916  0.90527562  0.47702885  1.0
  C  C121  1  0.17677278  0.61758662  0.90547865  1.0
  C  C122  1  0.17779612  0.47713971  0.61730809  1.0
  C  C123  1  0.32312827  0.52300527  0.09468960  1.0
  C  C124  1  0.32308150  0.09454306  0.38242371  1.0
  C  C125  1  0.32218357  0.38265289  0.52286389  1.0
  C  C126  1  0.82323570  0.09458321  0.52305792  1.0
  C  C127  1  0.82325861  0.38237242  0.09455257  1.0
  C  C128  1  0.82278327  0.52307362  0.38230858  1.0
  C  C129  1  0.67670572  0.47689432  0.90545332  1.0
  C  C130  1  0.67683892  0.90543628  0.61759796  1.0
  C  C131  1  0.67719177  0.61769570  0.47696668  1.0
  C  C132  1  0.17611733  0.66581357  0.43794128  1.0
  C  C133  1  0.17584679  0.89603005  0.66630625  1.0
  C  C134  1  0.17601743  0.43776083  0.89595286  1.0
  C  C135  1  0.32385525  0.56203976  0.33417671  1.0
  C  C136  1  0.32404816  0.33371126  0.10396729  1.0
  C  C137  1  0.32407138  0.10404177  0.56224399  1.0
  C  C138  1  0.82421559  0.33378950  0.56230316  1.0
  C  C139  1  0.82425138  0.10393593  0.33372557  1.0
  C  C140  1  0.82400611  0.56234222  0.10389379  1.0
  C  C141  1  0.67576071  0.43768093  0.66624337  1.0
  C  C142  1  0.67584967  0.66626221  0.89606095  1.0
  C  C143  1  0.67593053  0.89612360  0.43764150  1.0
  N  N144  1  0.87407303  0.89893355  0.28980475  1.0
  N  N145  1  0.87359682  0.81113918  0.89914250  1.0
  N  N146  1  0.87421777  0.28998968  0.81075312  1.0
  N  N147  1  0.62592313  0.71025807  0.10107221  1.0
  N  N148  1  0.62630861  0.10086862  0.18891471  1.0
  N  N149  1  0.62582682  0.18924778  0.71003233  1.0
  N  N150  1  0.12639442  0.10088991  0.71021510  1.0
  N  N151  1  0.12643065  0.18885054  0.10082839  1.0
  N  N152  1  0.12628995  0.71005500  0.18899913  1.0
  N  N153  1  0.37360935  0.28972193  0.89912928  1.0
  N  N154  1  0.37363438  0.89915270  0.81110577  1.0
  N  N155  1  0.37368109  0.81099661  0.28992903  1.0
  N  N156  1  0.79942360  0.86816720  0.26263960  1.0
  N  N157  1  0.79910839  0.86917071  0.86840735  1.0
  N  N158  1  0.79970681  0.26271764  0.86877252  1.0
  N  N159  1  0.70061781  0.73741477  0.13183368  1.0
  N  N160  1  0.70078723  0.13161611  0.13087342  1.0
  N  N161  1  0.70036323  0.13122433  0.73729218  1.0
  N  N162  1  0.20092304  0.13162686  0.73748358  1.0
  N  N163  1  0.20098879  0.13084668  0.13157131  1.0
  N  N164  1  0.20074000  0.73742866  0.13094927  1.0
  N  N165  1  0.29908850  0.26247214  0.86839049  1.0
  N  N166  1  0.29909783  0.86840710  0.86911121  1.0
  N  N167  1  0.29922621  0.86903965  0.26255031  1.0
  N  N168  1  0.71964234  0.85056384  0.23236219  1.0
  N  N169  1  0.71951194  0.91718808  0.85076418  1.0
  N  N170  1  0.72009356  0.23234453  0.91679133  1.0
  N  N171  1  0.78043219  0.76769040  0.14942627  1.0
  N  N172  1  0.78036457  0.14925747  0.08286276  1.0
  N  N173  1  0.77996544  0.08321666  0.76764846  1.0
  N  N174  1  0.28054814  0.14925266  0.76782373  1.0
  N  N175  1  0.28063532  0.08286580  0.14921806  1.0
  N  N176  1  0.28031592  0.76785398  0.08293882  1.0
  N  N177  1  0.21943717  0.23213385  0.85075249  1.0
  N  N178  1  0.21944292  0.85076062  0.91709798  1.0
  N  N179  1  0.21963777  0.91704792  0.23211937  1.0
  O  O180  1  0.29867636  0.90265265  0.49260997  1.0
  O  O181  1  0.29847892  0.60465154  0.90282722  1.0
  O  O182  1  0.29965735  0.49176309  0.60511178  1.0
  O  O183  1  0.20143360  0.50740422  0.09736610  1.0
  O  O184  1  0.20136774  0.09712498  0.39539048  1.0
  O  O185  1  0.20027167  0.39484978  0.50822060  1.0
  O  O186  1  0.70154162  0.09724530  0.50745649  1.0
  O  O187  1  0.70157013  0.39531347  0.09725000  1.0
  O  O188  1  0.70109500  0.50735080  0.39520668  1.0
  O  O189  1  0.79839351  0.49251976  0.90276011  1.0
  O  O190  1  0.79854385  0.90277374  0.60464552  1.0
  O  O191  1  0.79884335  0.60480629  0.49270545  1.0
  O  O192  1  0.09037357  0.94610324  0.49001512  1.0
  O  O193  1  0.09023833  0.56376336  0.94632345  1.0
  O  O194  1  0.09102235  0.49036970  0.56359703  1.0
  O  O195  1  0.40971182  0.51006578  0.05381427  1.0
  O  O196  1  0.40965730  0.05375167  0.43624352  1.0
  O  O197  1  0.40891463  0.43639180  0.50961363  1.0
  O  O198  1  0.90980023  0.05374647  0.51004954  1.0
  O  O199  1  0.90979306  0.43619668  0.05368508  1.0
  O  O200  1  0.90918473  0.51020903  0.43614870  1.0
  O  O201  1  0.59016340  0.48989205  0.94631252  1.0
  O  O202  1  0.59027587  0.94628069  0.56378592  1.0
  O  O203  1  0.59078491  0.56385763  0.48981610  1.0
  O  O204  1  0.28518717  0.64447115  0.47529762  1.0
  O  O205  1  0.28572964  0.88072835  0.64491194  1.0
  O  O206  1  0.28587717  0.47446724  0.88069114  1.0
  O  O207  1  0.21474448  0.52468440  0.35548581  1.0
  O  O208  1  0.21415633  0.35511394  0.11926140  1.0
  O  O209  1  0.21421933  0.11930485  0.52554436  1.0
  O  O210  1  0.71434622  0.35513197  0.52561527  1.0
  O  O211  1  0.71440289  0.11926176  0.35512645  1.0
  O  O212  1  0.71416305  0.52561996  0.11923377  1.0
  O  O213  1  0.78563568  0.47435933  0.64491509  1.0
  O  O214  1  0.78570027  0.64483983  0.88073280  1.0
  O  O215  1  0.78577375  0.88079924  0.47434471  1.0
  O  O216  1  0.10825122  0.62553996  0.41506293  1.0
  O  O217  1  0.10792821  0.95910830  0.62553470  1.0
  O  O218  1  0.10807760  0.41542084  0.95904071  1.0
  O  O219  1  0.39165791  0.58491081  0.37445914  1.0
  O  O220  1  0.39196445  0.37447485  0.04089973  1.0
  O  O221  1  0.39200621  0.04094070  0.58460862  1.0
  O  O222  1  0.89211018  0.37460104  0.58455255  1.0
  O  O223  1  0.89220531  0.04086202  0.37448636  1.0
  O  O224  1  0.89190078  0.58464952  0.04081132  1.0
  O  O225  1  0.60791285  0.41541579  0.62542159  1.0
  O  O226  1  0.60793730  0.62551187  0.95913926  1.0
  O  O227  1  0.60795837  0.95918028  0.41537602  1.0
