# generated using pymatgen
data_Zr3H24(C7O4)4
_symmetry_space_group_name_H-M   'P 1'
_cell_length_a   17.56339865
_cell_length_b   19.68058942
_cell_length_c   27.69151502
_cell_angle_alpha   90.07467410
_cell_angle_beta   89.96088068
_cell_angle_gamma   89.95159914
_symmetry_Int_Tables_number   1
_chemical_formula_structural   Zr3H24(C7O4)4
_chemical_formula_sum   'Zr12 H96 C112 O64'
_cell_volume   9571.78095852
_cell_formula_units_Z   4
loop_
 _symmetry_equiv_pos_site_id
 _symmetry_equiv_pos_as_xyz
  1  'x, y, z'
loop_
 _atom_site_type_symbol
 _atom_site_label
 _atom_site_symmetry_multiplicity
 _atom_site_fract_x
 _atom_site_fract_y
 _atom_site_fract_z
 _atom_site_occupancy
  Zr  Zr0  1  0.90144850  0.08899462  0.00460963  1.0
  Zr  Zr1  1  0.10503092  0.08391998  0.00454764  1.0
  Zr  Zr2  1  0.89576682  0.90749829  0.00396227  1.0
  Zr  Zr3  1  0.09901135  0.90290419  0.00374303  1.0
  Zr  Zr4  1  0.00013751  0.99604818  0.91475940  1.0
  Zr  Zr5  1  0.00014298  0.99561215  0.09380451  1.0
  Zr  Zr6  1  0.40340398  0.40245559  0.50493276  1.0
  Zr  Zr7  1  0.60670016  0.40889813  0.50411420  1.0
  Zr  Zr8  1  0.39566584  0.58416267  0.50458555  1.0
  Zr  Zr9  1  0.59828620  0.58963902  0.50475263  1.0
  Zr  Zr10  1  0.50044870  0.49594565  0.59420370  1.0
  Zr  Zr11  1  0.50047205  0.49556602  0.41486155  1.0
  H  H12  1  0.99921576  0.13860406  0.07534066  1.0
  H  H13  1  0.15998482  0.99222261  0.93311592  1.0
  H  H14  1  0.00153953  0.85275436  0.07455088  1.0
  H  H15  1  0.84129617  0.99663720  0.93284481  1.0
  H  H16  1  0.25275520  0.07885254  0.97779506  1.0
  H  H17  1  0.22988807  0.98618433  0.00667789  1.0
  H  H18  1  0.09270616  0.77352906  0.97773996  1.0
  H  H19  1  0.98800585  0.79043407  0.00304348  1.0
  H  H20  1  0.75183334  0.91686235  0.03301819  1.0
  H  H21  1  0.77028205  0.00852129  0.00547653  1.0
  H  H22  1  0.91052649  0.21786147  0.97694177  1.0
  H  H23  1  0.01375126  0.20054658  0.00290111  1.0
  H  H24  1  0.90918018  0.76910441  0.03134014  1.0
  H  H25  1  0.74797049  0.07801700  0.97537762  1.0
  H  H26  1  0.09269405  0.22044806  0.03192012  1.0
  H  H27  1  0.24234666  0.91805272  0.03918102  1.0
  H  H28  1  0.50060334  0.35262650  0.43395015  1.0
  H  H29  1  0.66081566  0.50107172  0.57519204  1.0
  H  H30  1  0.50148670  0.63889760  0.43370587  1.0
  H  H31  1  0.33977309  0.49285883  0.57534706  1.0
  H  H32  1  0.75503774  0.41558685  0.52966416  1.0
  H  H33  1  0.73007336  0.50796095  0.50164305  1.0
  H  H34  1  0.59079894  0.71883879  0.53027747  1.0
  H  H35  1  0.48644064  0.70185638  0.50448109  1.0
  H  H36  1  0.25075793  0.57836811  0.47758734  1.0
  H  H37  1  0.27191435  0.48309976  0.50261900  1.0
  H  H38  1  0.41209322  0.27309398  0.53054108  1.0
  H  H39  1  0.51598446  0.29147739  0.50560220  1.0
  H  H40  1  0.40809019  0.72157751  0.47535031  1.0
  H  H41  1  0.25965330  0.41387096  0.47086418  1.0
  H  H42  1  0.59595190  0.27161154  0.47777806  1.0
  H  H43  1  0.74186146  0.57676126  0.46961397  1.0
  H  H44  1  0.31215053  0.73564311  0.18077721  1.0
  H  H45  1  0.25082547  0.80077133  0.11495598  1.0
  H  H46  1  0.08503554  0.87841350  0.21479734  1.0
  H  H47  1  0.14139128  0.80908040  0.28032570  1.0
  H  H48  1  0.22546096  0.79097995  0.33294939  1.0
  H  H49  1  0.28113945  0.72092393  0.39807748  1.0
  H  H50  1  0.37649633  0.58503753  0.29284254  1.0
  H  H51  1  0.31596463  0.65126784  0.22709127  1.0
  H  H52  1  0.81745851  0.83698161  0.28079600  1.0
  H  H53  1  0.87850717  0.90339493  0.21528473  1.0
  H  H54  1  0.77756236  0.77220262  0.10927994  1.0
  H  H55  1  0.72093374  0.70201570  0.17412241  1.0
  H  H56  1  0.63730589  0.68471300  0.22808014  1.0
  H  H57  1  0.58149366  0.61523077  0.29381218  1.0
  H  H58  1  0.75339206  0.68651382  0.39162312  1.0
  H  H59  1  0.81441545  0.75097158  0.32540775  1.0
  H  H60  1  0.18888389  0.23337371  0.33051619  1.0
  H  H61  1  0.25193615  0.29873186  0.39557325  1.0
  H  H62  1  0.41133692  0.37998944  0.29331941  1.0
  H  H63  1  0.35340130  0.31045463  0.22842066  1.0
  H  H64  1  0.26837824  0.29259381  0.17746354  1.0
  H  H65  1  0.21354841  0.22223992  0.11203831  1.0
  H  H66  1  0.12256138  0.08383400  0.21677719  1.0
  H  H67  1  0.18280934  0.15002534  0.28271638  1.0
  H  H68  1  0.14399942  0.80692633  0.72826605  1.0
  H  H69  1  0.08334184  0.87355947  0.79390000  1.0
  H  H70  1  0.24259223  0.79192897  0.89601548  1.0
  H  H71  1  0.30808513  0.72928342  0.83039013  1.0
  H  H72  1  0.23166623  0.79158353  0.67762671  1.0
  H  H73  1  0.29244975  0.72474874  0.61206454  1.0
  H  H74  1  0.38114101  0.58454710  0.71629803  1.0
  H  H75  1  0.31606180  0.64733862  0.78208624  1.0
  H  H76  1  0.83411416  0.16462235  0.72687988  1.0
  H  H77  1  0.89705266  0.10085446  0.79296350  1.0
  H  H78  1  0.77358655  0.21760053  0.89807496  1.0
  H  H79  1  0.71273767  0.28416322  0.83278210  1.0
  H  H80  1  0.63021637  0.29280762  0.77603294  1.0
  H  H81  1  0.57155459  0.36085343  0.71048748  1.0
  H  H82  1  0.76103236  0.31557504  0.61777989  1.0
  H  H83  1  0.82480256  0.25423156  0.68454636  1.0
  H  H84  1  0.85241722  0.81395613  0.72742777  1.0
  H  H85  1  0.91320554  0.88053861  0.79290587  1.0
  H  H86  1  0.75901755  0.79435954  0.89622959  1.0
  H  H87  1  0.69302106  0.73165358  0.83072310  1.0
  H  H88  1  0.68595992  0.65017254  0.78154527  1.0
  H  H89  1  0.62048890  0.58765741  0.71590047  1.0
  H  H90  1  0.70361749  0.73159951  0.61225682  1.0
  H  H91  1  0.76366840  0.79828422  0.67773614  1.0
  H  H92  1  0.68326211  0.24862449  0.18107487  1.0
  H  H93  1  0.74565138  0.18313184  0.11543132  1.0
  H  H94  1  0.92050914  0.11912976  0.21355971  1.0
  H  H95  1  0.86332471  0.18931029  0.27848294  1.0
  H  H96  1  0.78193758  0.20569173  0.33239861  1.0
  H  H97  1  0.72562465  0.27602065  0.39743083  1.0
  H  H98  1  0.61393531  0.40043954  0.29187282  1.0
  H  H99  1  0.67433380  0.33400997  0.22605841  1.0
  H  H100  1  0.14259345  0.18140172  0.72774606  1.0
  H  H101  1  0.08276923  0.11495316  0.79366197  1.0
  H  H102  1  0.24661279  0.19292592  0.89435286  1.0
  H  H103  1  0.31173317  0.25461253  0.82822921  1.0
  H  H104  1  0.31685275  0.33838490  0.78134825  1.0
  H  H105  1  0.38217906  0.40171466  0.71602681  1.0
  H  H106  1  0.29158222  0.26361208  0.61078073  1.0
  H  H107  1  0.23073566  0.19632310  0.67573773  1.0
  C  C108  1  0.87706203  0.11572718  0.88875669  1.0
  C  C109  1  0.12818596  0.10862132  0.12085508  1.0
  C  C110  1  0.12410237  0.11037484  0.88755060  1.0
  C  C111  1  0.87328221  0.10653707  0.12137185  1.0
  C  C112  1  0.86957457  0.88211591  0.11941276  1.0
  C  C113  1  0.12117036  0.87603323  0.88822257  1.0
  C  C114  1  0.12802573  0.88423692  0.12155880  1.0
  C  C115  1  0.87741915  0.88100248  0.88766654  1.0
  C  C116  1  0.38011774  0.37560497  0.62044306  1.0
  C  C117  1  0.62928387  0.38267658  0.38804109  1.0
  C  C118  1  0.62615806  0.38225986  0.62073586  1.0
  C  C119  1  0.37222683  0.38437760  0.38739820  1.0
  C  C120  1  0.36943948  0.60845872  0.38868122  1.0
  C  C121  1  0.62006656  0.61637669  0.62075396  1.0
  C  C122  1  0.62755010  0.60701326  0.38643146  1.0
  C  C123  1  0.37793521  0.61113437  0.62088722  1.0
  C  C124  1  0.16720074  0.80824183  0.24450778  1.0
  C  C125  1  0.23150796  0.76716753  0.23573484  1.0
  C  C126  1  0.26143040  0.76573409  0.18851810  1.0
  C  C127  1  0.22809856  0.80303671  0.15154785  1.0
  C  C128  1  0.16477571  0.84433621  0.16093788  1.0
  C  C129  1  0.13477245  0.84672153  0.20787652  1.0
  C  C130  1  0.26617428  0.72656602  0.27480305  1.0
  C  C131  1  0.25702701  0.74507495  0.32363031  1.0
  C  C132  1  0.28893267  0.70641307  0.36040097  1.0
  C  C133  1  0.33255467  0.64871693  0.34952653  1.0
  C  C134  1  0.34264639  0.63003197  0.30105082  1.0
  C  C135  1  0.30933830  0.66794625  0.26441985  1.0
  C  C136  1  0.75407507  0.74689091  0.18364998  1.0
  C  C137  1  0.76488284  0.76397270  0.23259006  1.0
  C  C138  1  0.80973210  0.82137595  0.24332522  1.0
  C  C139  1  0.84335620  0.85935308  0.20687140  1.0
  C  C140  1  0.83198820  0.84189275  0.15829745  1.0
  C  C141  1  0.78645579  0.78558346  0.14705789  1.0
  C  C142  1  0.73041524  0.72318071  0.27160054  1.0
  C  C143  1  0.66452525  0.68406520  0.26346119  1.0
  C  C144  1  0.63240788  0.64554761  0.30022449  1.0
  C  C145  1  0.66417107  0.64627976  0.34669507  1.0
  C  C146  1  0.72921046  0.68555509  0.35539685  1.0
  C  C147  1  0.76238150  0.72256400  0.31824400  1.0
  C  C148  1  0.32921038  0.30892264  0.26467095  1.0
  C  C149  1  0.26601050  0.26693717  0.27420902  1.0
  C  C150  1  0.23845588  0.26444170  0.32197343  1.0
  C  C151  1  0.27276997  0.30186089  0.35856991  1.0
  C  C152  1  0.33474926  0.34430558  0.34837130  1.0
  C  C153  1  0.36254786  0.34755343  0.30094113  1.0
  C  C154  1  0.23044272  0.22659674  0.23527963  1.0
  C  C155  1  0.23805291  0.24603518  0.18656603  1.0
  C  C156  1  0.20643538  0.20741004  0.14967016  1.0
  C  C157  1  0.16433128  0.14888105  0.16035240  1.0
  C  C158  1  0.15533495  0.12943423  0.20871192  1.0
  C  C159  1  0.18849500  0.16732228  0.24549287  1.0
  C  C160  1  0.25768103  0.75941926  0.82205820  1.0
  C  C161  1  0.23103187  0.76297119  0.77413843  1.0
  C  C162  1  0.16718785  0.80428750  0.76473432  1.0
  C  C163  1  0.13220200  0.84109416  0.80140802  1.0
  C  C164  1  0.15883005  0.83644587  0.84902481  1.0
  C  C165  1  0.22169335  0.79489919  0.85902410  1.0
  C  C166  1  0.26880333  0.72453580  0.73501687  1.0
  C  C167  1  0.26295528  0.74540653  0.68650558  1.0
  C  C168  1  0.29752841  0.70875460  0.64957631  1.0
  C  C169  1  0.34045313  0.65065933  0.66018821  1.0
  C  C170  1  0.34766338  0.62977327  0.70835047  1.0
  C  C171  1  0.31175520  0.66574933  0.74506664  1.0
  C  C172  1  0.75216091  0.24333895  0.82351889  1.0
  C  C173  1  0.76879213  0.22963480  0.77468389  1.0
  C  C174  1  0.82143833  0.17754570  0.76433768  1.0
  C  C175  1  0.85646969  0.14120245  0.80110435  1.0
  C  C176  1  0.83943813  0.15533661  0.84959467  1.0
  C  C177  1  0.78666298  0.20663766  0.86037832  1.0
  C  C178  1  0.73229336  0.26853567  0.73543554  1.0
  C  C179  1  0.66048838  0.29920964  0.74193391  1.0
  C  C180  1  0.62675831  0.33661825  0.70517644  1.0
  C  C181  1  0.66273146  0.34242527  0.66015651  1.0
  C  C182  1  0.73341876  0.31107522  0.65287480  1.0
  C  C183  1  0.76827747  0.27576674  0.69025140  1.0
  C  C184  1  0.74239481  0.76291561  0.82210568  1.0
  C  C185  1  0.76766358  0.76777766  0.77392235  1.0
  C  C186  1  0.83023801  0.81036909  0.76412238  1.0
  C  C187  1  0.86528367  0.84716777  0.80070411  1.0
  C  C188  1  0.83990036  0.84132463  0.84852566  1.0
  C  C189  1  0.77843650  0.79845233  0.85896421  1.0
  C  C190  1  0.72982487  0.72938651  0.73486679  1.0
  C  C191  1  0.68868694  0.66954343  0.74471500  1.0
  C  C192  1  0.65257474  0.63370411  0.70804922  1.0
  C  C193  1  0.65788558  0.65570913  0.66001458  1.0
  C  C194  1  0.69935652  0.71470550  0.64962292  1.0
  C  C195  1  0.73392497  0.75131051  0.68652100  1.0
  C  C196  1  0.83566979  0.18688682  0.24328873  1.0
  C  C197  1  0.76833573  0.22402720  0.23500971  1.0
  C  C198  1  0.73620273  0.22159937  0.18841945  1.0
  C  C199  1  0.77017108  0.18430585  0.15156950  1.0
  C  C200  1  0.83631673  0.14660813  0.16062275  1.0
  C  C201  1  0.86861186  0.14804831  0.20691546  1.0
  C  C202  1  0.73288354  0.26445191  0.27400016  1.0
  C  C203  1  0.74639911  0.24912120  0.32294305  1.0
  C  C204  1  0.71416348  0.28778780  0.35968199  1.0
  C  C205  1  0.66592958  0.34239664  0.34872299  1.0
  C  C206  1  0.65133979  0.35785194  0.30018220  1.0
  C  C207  1  0.68477335  0.31985041  0.26352421  1.0
  C  C208  1  0.26042793  0.22549522  0.82038514  1.0
  C  C209  1  0.23200268  0.22319130  0.77284938  1.0
  C  C210  1  0.16703696  0.18312558  0.76392957  1.0
  C  C211  1  0.13260483  0.14635173  0.80077391  1.0
  C  C212  1  0.16101056  0.14984025  0.84803271  1.0
  C  C213  1  0.22494108  0.19020961  0.85752694  1.0
  C  C214  1  0.26925957  0.26194783  0.73375444  1.0
  C  C215  1  0.31250713  0.32045097  0.74417202  1.0
  C  C216  1  0.34857405  0.35667176  0.70773103  1.0
  C  C217  1  0.34137875  0.33632357  0.65939754  1.0
  C  C218  1  0.29749418  0.27892347  0.64842030  1.0
  C  C219  1  0.26267745  0.24198477  0.68504724  1.0
  O  O220  1  0.85873345  0.12995503  0.93257466  1.0
  O  O221  1  0.92424144  0.07004207  0.87587171  1.0
  O  O222  1  0.14406111  0.12520781  0.07737391  1.0
  O  O223  1  0.08264052  0.06134887  0.13353049  1.0
  O  O224  1  0.14370623  0.12339617  0.93093198  1.0
  O  O225  1  0.07588474  0.06516320  0.87465710  1.0
  O  O226  1  0.85370972  0.11873454  0.07802034  1.0
  O  O227  1  0.92391613  0.06336673  0.13456563  1.0
  O  O228  1  0.93188866  0.19432562  0.00467633  1.0
  O  O229  1  0.77387583  0.06302975  0.00450431  1.0
  O  O230  1  0.07486103  0.19710673  0.00308221  1.0
  O  O231  1  0.22362750  0.06127945  0.00486150  1.0
  O  O232  1  0.00239274  0.07176962  0.96663437  1.0
  O  O233  1  0.00083502  0.09852684  0.05497298  1.0
  O  O234  1  0.85224421  0.86739251  0.07551521  1.0
  O  O235  1  0.91714482  0.92720993  0.13245148  1.0
  O  O236  1  0.13866582  0.86131567  0.93191768  1.0
  O  O237  1  0.07462012  0.92232674  0.87528638  1.0
  O  O238  1  0.15011166  0.87379509  0.07818033  1.0
  O  O239  1  0.07535109  0.92535663  0.13428521  1.0
  O  O240  1  0.86040801  0.86667577  0.93118543  1.0
  O  O241  1  0.92362539  0.92775325  0.87433725  1.0
  O  O242  1  0.92718518  0.79376653  0.00316312  1.0
  O  O243  1  0.77776538  0.93528083  0.00489154  1.0
  O  O244  1  0.07075887  0.79726944  0.00527932  1.0
  O  O245  1  0.22569682  0.93238674  0.00717048  1.0
  O  O246  1  0.99956516  0.89286355  0.05429279  1.0
  O  O247  1  0.99848343  0.92045725  0.96643698  1.0
  O  O248  1  0.91622821  0.99660361  0.04177126  1.0
  O  O249  1  0.11554027  0.99254973  0.95389507  1.0
  O  O250  1  0.88513798  0.99809689  0.95406874  1.0
  O  O251  1  0.08526335  0.99532739  0.04208667  1.0
  O  O252  1  0.36529818  0.35948201  0.57663825  1.0
  O  O253  1  0.42513591  0.42290427  0.63369048  1.0
  O  O254  1  0.64561245  0.36691843  0.43163598  1.0
  O  O255  1  0.58279647  0.42927668  0.37527580  1.0
  O  O256  1  0.64713144  0.37033962  0.57740905  1.0
  O  O257  1  0.57679395  0.42639214  0.63378349  1.0
  O  O258  1  0.35146426  0.37347154  0.43096528  1.0
  O  O259  1  0.42389180  0.42623639  0.37435874  1.0
  O  O260  1  0.43343432  0.29697336  0.50293359  1.0
  O  O261  1  0.27620817  0.42922234  0.50268793  1.0
  O  O262  1  0.57684102  0.29549960  0.50608766  1.0
  O  O263  1  0.72491978  0.43316570  0.50305703  1.0
  O  O264  1  0.50413168  0.42039738  0.54234577  1.0
  O  O265  1  0.50149655  0.39309918  0.45394153  1.0
  O  O266  1  0.35212071  0.62377527  0.43244885  1.0
  O  O267  1  0.41655626  0.56268177  0.37590455  1.0
  O  O268  1  0.63543365  0.63269977  0.57703949  1.0
  O  O269  1  0.57540664  0.56862583  0.63371943  1.0
  O  O270  1  0.64950014  0.61819172  0.42969312  1.0
  O  O271  1  0.57492728  0.56568677  0.37401324  1.0
  O  O272  1  0.36232711  0.62650484  0.57737877  1.0
  O  O273  1  0.42305377  0.56345021  0.63414779  1.0
  O  O274  1  0.42575426  0.69838931  0.50424352  1.0
  O  O275  1  0.27823729  0.55793063  0.50436433  1.0
  O  O276  1  0.56958908  0.69507544  0.50254960  1.0
  O  O277  1  0.72513220  0.56186478  0.50149513  1.0
  O  O278  1  0.49925234  0.59885210  0.45401453  1.0
  O  O279  1  0.49811739  0.57106980  0.54217818  1.0
  O  O280  1  0.41733967  0.49495176  0.46708079  1.0
  O  O281  1  0.61620120  0.50048176  0.55460768  1.0
  O  O282  1  0.38418223  0.49277295  0.55446290  1.0
  O  O283  1  0.58567968  0.49687969  0.46637120  1.0
