# generated using pymatgen
data_Zn2H3C12S2ClO7
_symmetry_space_group_name_H-M   'P 1'
_cell_length_a   19.66683390
_cell_length_b   19.69363196
_cell_length_c   33.37096656
_cell_angle_alpha   79.10579055
_cell_angle_beta   79.18459058
_cell_angle_gamma   63.94666953
_symmetry_Int_Tables_number   1
_chemical_formula_structural   Zn2H3C12S2ClO7
_chemical_formula_sum   'Zn16 H24 C96 S16 Cl8 O56'
_cell_volume   11321.83820180
_cell_formula_units_Z   8
loop_
 _symmetry_equiv_pos_site_id
 _symmetry_equiv_pos_as_xyz
  1  'x, y, z'
loop_
 _atom_site_type_symbol
 _atom_site_label
 _atom_site_symmetry_multiplicity
 _atom_site_fract_x
 _atom_site_fract_y
 _atom_site_fract_z
 _atom_site_occupancy
  Zn  Zn0  1  0.05681245  0.39941056  0.47835107  1.0
  Zn  Zn1  1  0.98437097  0.48328494  0.56025320  1.0
  Zn  Zn2  1  0.05817122  0.56090737  0.48247451  1.0
  Zn  Zn3  1  0.90097893  0.55463657  0.47977385  1.0
  Zn  Zn4  1  0.69425620  0.35039170  0.27171357  1.0
  Zn  Zn5  1  0.68942356  0.19002036  0.26702801  1.0
  Zn  Zn6  1  0.76896989  0.26596148  0.19083557  1.0
  Zn  Zn7  1  0.84797918  0.19565074  0.27306361  1.0
  Zn  Zn8  1  0.26662583  0.76652683  0.68917246  1.0
  Zn  Zn9  1  0.34864894  0.69582141  0.77134469  1.0
  Zn  Zn10  1  0.19304695  0.84750136  0.77130290  1.0
  Zn  Zn11  1  0.19098457  0.68754907  0.76616615  1.0
  Zn  Zn12  1  0.56055386  0.06028564  0.98337747  1.0
  Zn  Zn13  1  0.40119195  0.05494276  0.97805360  1.0
  Zn  Zn14  1  0.55440942  0.90152394  0.97789304  1.0
  Zn  Zn15  1  0.48400799  0.98365564  0.06034154  1.0
  H  H16  1  0.95382744  0.24879955  0.35122392  1.0
  H  H17  1  0.74666336  0.45553363  0.35102502  1.0
  H  H18  1  0.00094107  0.29775230  0.39928399  1.0
  H  H19  1  0.09765339  0.59756411  0.70001551  1.0
  H  H20  1  0.20143592  0.70128658  0.59658404  1.0
  H  H21  1  0.05003884  0.55023436  0.65136438  1.0
  H  H22  1  0.46315339  0.23983751  0.34098284  1.0
  H  H23  1  0.47900063  0.70287282  0.60120871  1.0
  H  H24  1  0.20302065  0.97877091  0.60153812  1.0
  H  H25  1  0.94915121  0.97022755  0.34797401  1.0
  H  H26  1  0.54977762  0.04986432  0.15268286  1.0
  H  H27  1  0.65316654  0.15337330  0.04895527  1.0
  H  H28  1  0.59838666  0.09832076  0.20021426  1.0
  H  H29  1  0.54738218  0.77088794  0.14843665  1.0
  H  H30  1  0.16291903  0.14130916  0.04034981  1.0
  H  H31  1  0.50131688  0.79601109  0.89883045  1.0
  H  H32  1  0.29462991  0.00326979  0.89889067  1.0
  H  H33  1  0.45203840  0.74942763  0.85070690  1.0
  H  H34  1  0.30071119  0.27965134  0.90214769  1.0
  H  H35  1  0.78662977  0.01002911  0.90907076  1.0
  H  H36  1  0.80984797  0.52753824  0.41868420  1.0
  H  H37  1  0.13591291  0.63604347  0.52659236  1.0
  H  H38  1  0.72323563  0.22306897  0.11438689  1.0
  H  H39  1  0.22208261  0.94035800  0.83128799  1.0
  C  C40  1  0.06167306  0.31585797  0.56166271  1.0
  C  C41  1  0.06957305  0.57019455  0.56952587  1.0
  C  C42  1  0.18381125  0.43940126  0.43870841  1.0
  C  C43  1  0.93738363  0.68406004  0.43882847  1.0
  C  C44  1  0.93047167  0.43000868  0.43054466  1.0
  C  C45  1  0.81631787  0.56111366  0.56190250  1.0
  C  C46  1  0.56563768  0.31117394  0.31135559  1.0
  C  C47  1  0.68062283  0.17995960  0.18061990  1.0
  C  C48  1  0.68908316  0.43364332  0.18834326  1.0
  C  C49  1  0.93465509  0.18784959  0.18949697  1.0
  C  C50  1  0.81857760  0.32066800  0.31985103  1.0
  C  C51  1  0.81152165  0.06603382  0.31166062  1.0
  C  C52  1  0.43375772  0.68947509  0.68813594  1.0
  C  C53  1  0.31935329  0.82004952  0.81946120  1.0
  C  C54  1  0.18906120  0.93358743  0.68838137  1.0
  C  C55  1  0.06604291  0.81022730  0.81119443  1.0
  C  C56  1  0.18125283  0.68055179  0.67968050  1.0
  C  C57  1  0.31222485  0.56589540  0.81110414  1.0
  C  C58  1  0.43821935  0.18398137  0.93861512  1.0
  C  C59  1  0.42958712  0.93111012  0.93033004  1.0
  C  C60  1  0.68387553  0.93890455  0.93856735  1.0
  C  C61  1  0.56123178  0.81636227  0.06145379  1.0
  C  C62  1  0.57008429  0.06998885  0.06928851  1.0
  C  C63  1  0.31603932  0.06160977  0.06123707  1.0
  C  C64  1  0.90095262  0.40334473  0.40210104  1.0
  C  C65  1  0.84743085  0.34942355  0.34839721  1.0
  C  C66  1  0.82824499  0.44862695  0.38829104  1.0
  C  C67  1  0.91958158  0.30428421  0.36185914  1.0
  C  C68  1  0.80239238  0.42070388  0.36143286  1.0
  C  C69  1  0.94541075  0.33145479  0.38836511  1.0
  C  C70  1  0.09867912  0.59890661  0.59710694  1.0
  C  C71  1  0.15232371  0.65214768  0.65101231  1.0
  C  C72  1  0.14199165  0.64204207  0.58132161  1.0
  C  C73  1  0.10947814  0.60942194  0.66689545  1.0
  C  C74  1  0.16832434  0.66826628  0.60877261  1.0
  C  C75  1  0.08328921  0.58341847  0.63998891  1.0
  C  C76  1  0.30467525  0.45485278  0.40099227  1.0
  C  C77  1  0.44605503  0.29658951  0.34894735  1.0
  C  C78  1  0.25853409  0.41573192  0.41394244  1.0
  C  C79  1  0.49085767  0.33654118  0.33642368  1.0
  C  C80  1  0.37794789  0.33966695  0.37255252  1.0
  C  C81  1  0.37278022  0.41141676  0.37737511  1.0
  C  C82  1  0.72584027  0.57575384  0.62992493  1.0
  C  C83  1  0.52388559  0.67385468  0.62113218  1.0
  C  C84  1  0.74231989  0.58531169  0.58729388  1.0
  C  C85  1  0.50890872  0.66387432  0.66352474  1.0
  C  C86  1  0.60314619  0.64167285  0.60874250  1.0
  C  C87  1  0.64639523  0.60795875  0.64214868  1.0
  C  C88  1  0.07605157  0.22546167  0.62982477  1.0
  C  C89  1  0.17407292  0.02366697  0.62137097  1.0
  C  C90  1  0.08566476  0.24188603  0.58717757  1.0
  C  C91  1  0.16393249  0.00873571  0.66376808  1.0
  C  C92  1  0.14202864  0.10283262  0.60886799  1.0
  C  C93  1  0.10827045  0.14609926  0.64218280  1.0
  C  C94  1  0.84300126  0.80088330  0.39706104  1.0
  C  C95  1  0.90483827  0.94972477  0.35253292  1.0
  C  C96  1  0.91163363  0.75836988  0.41369867  1.0
  C  C97  1  0.83614164  0.99095664  0.33643575  1.0
  C  C98  1  0.90760358  0.88015046  0.37470079  1.0
  C  C99  1  0.84074772  0.87033836  0.37484201  1.0
  C  C100  1  0.65273682  0.15262787  0.15164800  1.0
  C  C101  1  0.59871810  0.09879487  0.09800460  1.0
  C  C102  1  0.66837595  0.16846662  0.10837964  1.0
  C  C103  1  0.58287915  0.08296615  0.14083203  1.0
  C  C104  1  0.64091624  0.14107150  0.08202979  1.0
  C  C105  1  0.60979282  0.10980452  0.16698966  1.0
  C  C106  1  0.67393654  0.52415421  0.12011710  1.0
  C  C107  1  0.57629770  0.72605895  0.12856094  1.0
  C  C108  1  0.66451879  0.50763629  0.16277218  1.0
  C  C109  1  0.58637808  0.74112843  0.08616428  1.0
  C  C110  1  0.60817923  0.64683108  0.14106284  1.0
  C  C111  1  0.64179504  0.60355407  0.10775619  1.0
  C  C112  1  0.08210912  0.12363598  0.17813015  1.0
  C  C113  1  0.17027481  0.12485583  0.07277300  1.0
  C  C114  1  0.00986103  0.16258270  0.16512243  1.0
  C  C115  1  0.24134988  0.08619315  0.08649810  1.0
  C  C116  1  0.11187636  0.13865935  0.10617854  1.0
  C  C117  1  0.14022730  0.11000476  0.14453455  1.0
  C  C118  1  0.34643817  0.84944808  0.84779216  1.0
  C  C119  1  0.40076726  0.90249479  0.90163194  1.0
  C  C120  1  0.30132887  0.92203106  0.86158076  1.0
  C  C121  1  0.44576839  0.83044825  0.88816647  1.0
  C  C122  1  0.32943983  0.94764488  0.88847491  1.0
  C  C123  1  0.41840770  0.80488949  0.86159440  1.0
  C  C124  1  0.40678747  0.44897390  0.85283995  1.0
  C  C125  1  0.34503501  0.30014814  0.89757536  1.0
  C  C126  1  0.33811402  0.49147118  0.83622981  1.0
  C  C127  1  0.41371456  0.25892290  0.91366946  1.0
  C  C128  1  0.34230785  0.36963606  0.87530428  1.0
  C  C129  1  0.40916394  0.37947652  0.87509372  1.0
  C  C130  1  0.94519532  0.79489658  0.84913574  1.0
  C  C131  1  0.80372789  0.95325266  0.90113151  1.0
  C  C132  1  0.99137454  0.83394750  0.83609826  1.0
  C  C133  1  0.75886371  0.91335469  0.91364192  1.0
  C  C134  1  0.87191587  0.91010969  0.87755797  1.0
  C  C135  1  0.87710336  0.83833578  0.87277422  1.0
  S  S136  1  0.29885621  0.32607617  0.39716668  1.0
  S  S137  1  0.45110342  0.42615899  0.35303867  1.0
  S  S138  1  0.66056618  0.63351158  0.56244776  1.0
  S  S139  1  0.59017691  0.61560278  0.68863173  1.0
  S  S140  1  0.13393244  0.16014889  0.56250512  1.0
  S  S141  1  0.11572088  0.08997899  0.68873332  1.0
  S  S142  1  0.97296934  0.80363383  0.40195807  1.0
  S  S143  1  0.77467147  0.94604195  0.34789940  1.0
  S  S144  1  0.61627435  0.58944955  0.18743743  1.0
  S  S145  1  0.63437001  0.65979131  0.06120967  1.0
  S  S146  1  0.01364747  0.18228367  0.11177859  1.0
  S  S147  1  0.23808938  0.06624045  0.13972635  1.0
  S  S148  1  0.27688416  0.44609431  0.84803535  1.0
  S  S149  1  0.47528405  0.30375925  0.90203847  1.0
  S  S150  1  0.95104148  0.92364025  0.85288886  1.0
  S  S151  1  0.79871067  0.82366723  0.89708200  1.0
  Cl  Cl152  1  0.28562155  0.54364056  0.41111794  1.0
  Cl  Cl153  1  0.79002696  0.53158012  0.66482780  1.0
  Cl  Cl154  1  0.03188320  0.28955223  0.66466380  1.0
  Cl  Cl155  1  0.76867801  0.77615317  0.40157175  1.0
  Cl  Cl156  1  0.71778893  0.45997843  0.08529969  1.0
  Cl  Cl157  1  0.10249361  0.09424091  0.22768911  1.0
  Cl  Cl158  1  0.48117435  0.47366370  0.84824193  1.0
  Cl  Cl159  1  0.96442547  0.70601603  0.83907237  1.0
  O  O160  1  0.00069061  0.49856106  0.49987515  1.0
  O  O161  1  0.07866188  0.31406569  0.52271128  1.0
  O  O162  1  0.03144719  0.53165679  0.58535900  1.0
  O  O163  1  0.15484115  0.50547641  0.45036950  1.0
  O  O164  1  0.02638128  0.37497566  0.58027652  1.0
  O  O165  1  0.15436625  0.39102089  0.44634645  1.0
  O  O166  1  0.08489180  0.58638445  0.53028721  1.0
  O  O167  1  0.00409138  0.65837118  0.45007052  1.0
  O  O168  1  0.88673178  0.49645493  0.44238907  1.0
  O  O169  1  0.89199892  0.65155537  0.44740538  1.0
  O  O170  1  0.99588554  0.38741925  0.44185547  1.0
  O  O171  1  0.87573670  0.52632997  0.58038015  1.0
  O  O172  1  0.81428164  0.57752257  0.52289626  1.0
  O  O173  1  0.74941046  0.25054239  0.25080186  1.0
  O  O174  1  0.59630857  0.35835843  0.30314191  1.0
  O  O175  1  0.66464976  0.16445179  0.21900388  1.0
  O  O176  1  0.72511830  0.37426998  0.16992246  1.0
  O  O177  1  0.59281904  0.24474089  0.30016727  1.0
  O  O178  1  0.67190741  0.43561212  0.22725648  1.0
  O  O179  1  0.72035362  0.21865323  0.16479701  1.0
  O  O180  1  0.87718230  0.22292263  0.16898862  1.0
  O  O181  1  0.86204238  0.25454263  0.30929637  1.0
  O  O182  1  0.93259947  0.17309546  0.22844700  1.0
  O  O183  1  0.75315535  0.36418240  0.30837426  1.0
  O  O184  1  0.74505840  0.09335407  0.30010364  1.0
  O  O185  1  0.85840830  0.09685236  0.30402623  1.0
  O  O186  1  0.24983781  0.74967485  0.74949666  1.0
  O  O187  1  0.37572129  0.72509368  0.66849202  1.0
  O  O188  1  0.36233726  0.75499256  0.80792509  1.0
  O  O189  1  0.17253511  0.93345792  0.72738480  1.0
  O  O190  1  0.43389412  0.67348903  0.72714196  1.0
  O  O191  1  0.22478202  0.87572389  0.66873057  1.0
  O  O192  1  0.25239563  0.86312869  0.80794520  1.0
  O  O193  1  0.09540908  0.85878217  0.80368050  1.0
  O  O194  1  0.16558400  0.66360552  0.71808944  1.0
  O  O195  1  0.09516733  0.74445003  0.79925947  1.0
  O  O196  1  0.21930296  0.71936781  0.66344053  1.0
  O  O197  1  0.35765261  0.59835553  0.80274586  1.0
  O  O198  1  0.24564183  0.59150152  0.79978110  1.0
  O  O199  1  0.50000348  0.00010819  0.99994991  1.0
  O  O200  1  0.50503019  0.15628618  0.94971496  1.0
  O  O201  1  0.38618164  0.99676250  0.94149581  1.0
  O  O202  1  0.65294078  0.89190186  0.94661273  1.0
  O  O203  1  0.39084423  0.15367193  0.94684727  1.0
  O  O204  1  0.65674732  0.00524904  0.94979242  1.0
  O  O205  1  0.49539230  0.88750822  0.94135382  1.0
  O  O206  1  0.57713912  0.81632120  0.02246613  1.0
  O  O207  1  0.53165890  0.03157409  0.08563216  1.0
  O  O208  1  0.52605238  0.87439845  0.08105681  1.0
  O  O209  1  0.58631755  0.08602672  0.03082436  1.0
  O  O210  1  0.31557167  0.07811209  0.02238516  1.0
  O  O211  1  0.37449492  0.02589666  0.08076435  1.0
  O  O212  1  0.78199753  0.51800164  0.39977742  1.0
  O  O213  1  0.15942690  0.65929554  0.54079369  1.0
  O  O214  1  0.70881688  0.20902852  0.09101855  1.0
  O  O215  1  0.23188419  0.96831133  0.85000117  1.0
