# generated using pymatgen
data_AlH18C27(NO2)3
_symmetry_space_group_name_H-M   'P 1'
_cell_length_a   4.00565225
_cell_length_b   15.99256759
_cell_length_c   16.05513674
_cell_angle_alpha   60.20105966
_cell_angle_beta   89.25517298
_cell_angle_gamma   88.60517112
_symmetry_Int_Tables_number   1
_chemical_formula_structural   AlH18C27(NO2)3
_chemical_formula_sum   'Al1 H18 C27 N3 O6'
_cell_volume   892.24364605
_cell_formula_units_Z   1
loop_
 _symmetry_equiv_pos_site_id
 _symmetry_equiv_pos_as_xyz
  1  'x, y, z'
loop_
 _atom_site_type_symbol
 _atom_site_label
 _atom_site_symmetry_multiplicity
 _atom_site_fract_x
 _atom_site_fract_y
 _atom_site_fract_z
 _atom_site_occupancy
  Al  Al0  1  0.99228562  0.50191988  0.49916864  1.0
  H  H1  1  0.48295718  0.92548362  0.92033335  1.0
  H  H2  1  0.50618589  0.65457826  0.92480707  1.0
  H  H3  1  0.50084125  0.92021603  0.65528856  1.0
  H  H4  1  0.19173458  0.23737979  0.73754883  1.0
  H  H5  1  0.18333072  0.05911822  0.82912308  1.0
  H  H6  1  0.81709814  0.04958297  0.61474033  1.0
  H  H7  1  0.78383417  0.83532048  0.05252694  1.0
  H  H8  1  0.18731045  0.52723410  0.23240188  1.0
  H  H9  1  0.17918164  0.61483602  0.05466966  1.0
  H  H10  1  0.19911452  0.61337916  0.83771888  1.0
  H  H11  1  0.79467776  0.73416808  0.52800080  1.0
  H  H12  1  0.80860388  0.82751314  0.61324094  1.0
  H  H13  1  0.96246216  0.30144680  0.48795546  1.0
  H  H14  1  0.02440565  0.19569641  0.49259337  1.0
  H  H15  1  0.92950097  0.70953603  0.30367594  1.0
  H  H16  1  0.98115155  0.81075600  0.19950175  1.0
  H  H17  1  0.09487721  0.47482328  0.72046068  1.0
  H  H18  1  0.98597922  0.49030362  0.81605284  1.0
  C  C19  1  0.49139714  0.57658567  0.34994827  1.0
  C  C20  1  0.48661113  0.57267497  0.57637545  1.0
  C  C21  1  0.50396935  0.35175707  0.57117845  1.0
  C  C22  1  0.48629970  0.78394550  0.93485700  1.0
  C  C23  1  0.48829059  0.88491459  0.88225752  1.0
  C  C24  1  0.49883931  0.93511310  0.78167496  1.0
  C  C25  1  0.50566512  0.88214987  0.73350479  1.0
  C  C26  1  0.50238698  0.78112865  0.78400769  1.0
  C  C27  1  0.49462038  0.73311306  0.88458555  1.0
  C  C28  1  0.33326473  0.19562512  0.71176699  1.0
  C  C29  1  0.33078208  0.09540545  0.76360422  1.0
  C  C30  1  0.49946531  0.04165910  0.72789567  1.0
  C  C31  1  0.67136006  0.09060130  0.64074010  1.0
  C  C32  1  0.68351203  0.19158463  0.58855961  1.0
  C  C33  1  0.50691530  0.24407477  0.62501562  1.0
  C  C34  1  0.64383922  0.76899122  0.09172021  1.0
  C  C35  1  0.65550123  0.71979743  0.19238820  1.0
  C  C36  1  0.48955682  0.63114642  0.24267152  1.0
  C  C37  1  0.32288254  0.59418209  0.19240228  1.0
  C  C38  1  0.32048731  0.64307636  0.09252162  1.0
  C  C39  1  0.48213088  0.73164911  0.04096769  1.0
  C  C40  1  0.33655735  0.63939871  0.77047284  1.0
  C  C41  1  0.31939719  0.58619168  0.72234603  1.0
  C  C42  1  0.48767424  0.62217442  0.63249506  1.0
  C  C43  1  0.66172454  0.70912329  0.59563544  1.0
  C  C44  1  0.66593184  0.76165927  0.64267533  1.0
  C  C45  1  0.50218449  0.72653707  0.73208221  1.0
  N  N46  1  0.85430521  0.23863316  0.50176909  1.0
  N  N47  1  0.81658786  0.75885890  0.24107242  1.0
  N  N48  1  0.15703115  0.49997875  0.76512191  1.0
  O  O49  1  0.73740855  0.39367575  0.58851227  1.0
  O  O50  1  0.73183050  0.51711627  0.39195084  1.0
  O  O51  1  0.71581289  0.59202891  0.51305041  1.0
  O  O52  1  0.26826773  0.39567689  0.51087647  1.0
  O  O53  1  0.25588370  0.51122927  0.59237629  1.0
  O  O54  1  0.25164376  0.59332051  0.39354045  1.0
