# generated using pymatgen
data_Al4H22C28SO23
_symmetry_space_group_name_H-M   'P 1'
_cell_length_a   6.67291761
_cell_length_b   14.01803950
_cell_length_c   16.20146111
_cell_angle_alpha   90.67715605
_cell_angle_beta   90.95991287
_cell_angle_gamma   90.04661003
_symmetry_Int_Tables_number   1
_chemical_formula_structural   Al4H22C28SO23
_chemical_formula_sum   'Al4 H22 C28 S1 O23'
_cell_volume   1515.18519474
_cell_formula_units_Z   1
loop_
 _symmetry_equiv_pos_site_id
 _symmetry_equiv_pos_as_xyz
  1  'x, y, z'
loop_
 _atom_site_type_symbol
 _atom_site_label
 _atom_site_symmetry_multiplicity
 _atom_site_fract_x
 _atom_site_fract_y
 _atom_site_fract_z
 _atom_site_occupancy
  Al  Al0  1  0.87459266  0.50123558  0.50131985  1.0
  Al  Al1  1  0.37360539  0.50076341  0.49922349  1.0
  Al  Al2  1  0.40515363  0.01215257  0.00812812  1.0
  Al  Al3  1  0.90465125  0.00818951  0.00908632  1.0
  H  H4  1  0.97877838  0.32224841  0.13198451  1.0
  H  H5  1  0.78191267  0.28598529  0.28328101  1.0
  H  H6  1  0.97386031  0.10393156  0.28735946  1.0
  H  H7  1  0.29725050  0.18849963  0.37976073  1.0
  H  H8  1  0.49371504  0.22483334  0.22822154  1.0
  H  H9  1  0.30152240  0.40683072  0.22445562  1.0
  H  H10  1  0.83064113  0.29065208  0.68276556  1.0
  H  H11  1  0.28415905  0.31688658  0.71440515  1.0
  H  H12  1  0.83382252  0.18941850  0.80705288  1.0
  H  H13  1  0.29446427  0.20707146  0.80596816  1.0
  H  H14  1  0.95335015  0.80919952  0.20874876  1.0
  H  H15  1  0.49155323  0.81403777  0.20679984  1.0
  H  H16  1  0.92549165  0.70606047  0.33106246  1.0
  H  H17  1  0.47598910  0.68710578  0.28676988  1.0
  H  H18  1  0.92002453  0.77427565  0.83819020  1.0
  H  H19  1  0.49410961  0.83816207  0.78587140  1.0
  H  H20  1  0.91316011  0.69548147  0.70201287  1.0
  H  H21  1  0.33093458  0.50727433  0.68051356  1.0
  H  H22  1  0.62313555  0.37816157  0.47572542  1.0
  H  H23  1  0.12937030  0.61780449  0.53932948  1.0
  H  H24  1  0.66266759  0.12882501  0.04207326  1.0
  H  H25  1  0.15820607  0.88551336  0.99120198  1.0
  C  C26  1  0.61434854  0.61319099  0.39034922  1.0
  C  C27  1  0.63678159  0.60387796  0.61991510  1.0
  C  C28  1  0.13081816  0.38731623  0.61369253  1.0
  C  C29  1  0.11116193  0.38578159  0.39008208  1.0
  C  C30  1  0.93953627  0.27174804  0.27057302  1.0
  C  C31  1  0.04852167  0.29339316  0.18794080  1.0
  C  C32  1  0.15708451  0.19367705  0.19133929  1.0
  C  C33  1  0.04592596  0.17218014  0.27444888  1.0
  C  C34  1  0.22727627  0.21730620  0.32379639  1.0
  C  C35  1  0.33611671  0.23898026  0.24110508  1.0
  C  C36  1  0.22974666  0.33849796  0.23723880  1.0
  C  C37  1  0.11844001  0.31682292  0.32056540  1.0
  C  C38  1  0.97454120  0.27824304  0.71409614  1.0
  C  C39  1  0.13683053  0.32378336  0.68498414  1.0
  C  C40  1  0.97737756  0.21523359  0.78459145  1.0
  C  C41  1  0.14488786  0.18553764  0.82453720  1.0
  C  C42  1  0.80334010  0.78916598  0.22858035  1.0
  C  C43  1  0.64534044  0.82943462  0.18933279  1.0
  C  C44  1  0.78835539  0.72235785  0.29608271  1.0
  C  C45  1  0.61900679  0.67770490  0.31924296  1.0
  C  C46  1  0.77913843  0.77209916  0.80272289  1.0
  C  C47  1  0.63334315  0.83454270  0.82174641  1.0
  C  C48  1  0.77044487  0.70650282  0.73321638  1.0
  C  C49  1  0.61443289  0.65694358  0.69969105  1.0
  C  C50  1  0.64398242  0.89971769  0.89393006  1.0
  C  C51  1  0.66191720  0.89557975  0.11939062  1.0
  C  C52  1  0.16470816  0.12510503  0.12120583  1.0
  C  C53  1  0.14088808  0.12214954  0.89677372  1.0
  S  S54  1  0.36975143  0.64674973  0.74282538  1.0
  O  O55  1  0.47548932  0.59189459  0.57766522  1.0
  O  O56  1  0.77775238  0.59846969  0.43033517  1.0
  O  O57  1  0.94377358  0.42394706  0.40754003  1.0
  O  O58  1  0.80922255  0.57501955  0.59928835  1.0
  O  O59  1  0.96862007  0.39915751  0.57304749  1.0
  O  O60  1  0.44328851  0.57755288  0.40716833  1.0
  O  O61  1  0.62349728  0.44111146  0.50110147  1.0
  O  O62  1  0.29974853  0.42846148  0.59791329  1.0
  O  O63  1  0.27773706  0.40236811  0.42794423  1.0
  O  O64  1  0.12485724  0.56098488  0.50431324  1.0
  O  O65  1  0.83441155  0.92646899  0.09985788  1.0
  O  O66  1  0.47682610  0.93650477  0.91426377  1.0
  O  O67  1  0.31041961  0.10760016  0.93232568  1.0
  O  O68  1  0.49512154  0.91543761  0.08367194  1.0
  O  O69  1  0.33516867  0.09296608  0.10023431  1.0
  O  O70  1  0.81154517  0.91330046  0.93118409  1.0
  O  O71  1  0.65663927  0.06912680  0.01132294  1.0
  O  O72  1  0.99640028  0.10379473  0.08723141  1.0
  O  O73  1  0.97253356  0.08843815  0.91802739  1.0
  O  O74  1  0.15614688  0.95215403  0.00766336  1.0
  O  O75  1  0.37317864  0.66895422  0.82949314  1.0
  O  O76  1  0.22876175  0.69549743  0.68925087  1.0
  O  O77  1  0.33682008  0.53453873  0.73823515  1.0
