# generated using pymatgen
data_ZnH15C32Br(NO3)2
_symmetry_space_group_name_H-M   'P 1'
_cell_length_a   14.65396938
_cell_length_b   15.68944503
_cell_length_c   23.78185791
_cell_angle_alpha   89.83048654
_cell_angle_beta   74.13454318
_cell_angle_gamma   81.34182350
_symmetry_Int_Tables_number   1
_chemical_formula_structural   ZnH15C32Br(NO3)2
_chemical_formula_sum   'Zn2 H30 C64 Br2 N4 O12'
_cell_volume   5195.33051368
_cell_formula_units_Z   2
loop_
 _symmetry_equiv_pos_site_id
 _symmetry_equiv_pos_as_xyz
  1  'x, y, z'
loop_
 _atom_site_type_symbol
 _atom_site_label
 _atom_site_symmetry_multiplicity
 _atom_site_fract_x
 _atom_site_fract_y
 _atom_site_fract_z
 _atom_site_occupancy
  Zn  Zn0  1  0.59344497  0.51592878  0.48357461  1.0
  Zn  Zn1  1  0.40683672  0.48349167  0.51417653  1.0
  H  H2  1  0.65113449  0.31199310  0.02786188  1.0
  H  H3  1  0.34925101  0.68793926  0.96992503  1.0
  H  H4  1  0.80217595  0.09048219  0.48984385  1.0
  H  H5  1  0.19485879  0.90941603  0.57932371  1.0
  H  H6  1  0.63399743  0.85116369  0.52670170  1.0
  H  H7  1  0.36136471  0.14868692  0.56853778  1.0
  H  H8  1  0.97917163  0.32200508  0.59745972  1.0
  H  H9  1  0.02028607  0.67834352  0.40219974  1.0
  H  H10  1  0.76667825  0.46037355  0.51636384  1.0
  H  H11  1  0.23369016  0.53763110  0.48099736  1.0
  H  H12  1  0.68961102  0.65310941  0.41241320  1.0
  H  H13  1  0.31010796  0.34792532  0.58704061  1.0
  H  H14  1  0.86066221  0.39976650  0.55371348  1.0
  H  H15  1  0.13892426  0.60018161  0.44568239  1.0
  H  H16  1  0.64605140  0.30801661  0.92231039  1.0
  H  H17  1  0.35452310  0.69203928  0.07542582  1.0
  H  H18  1  0.35149640  0.46343499  0.80806741  1.0
  H  H19  1  0.36255577  0.47385193  0.23536489  1.0
  H  H20  1  0.35381380  0.46615303  0.70189599  1.0
  H  H21  1  0.36026727  0.47215347  0.34142180  1.0
  H  H22  1  0.63907773  0.52894009  0.65657147  1.0
  H  H23  1  0.64629623  0.53336611  0.29636217  1.0
  H  H24  1  0.63749890  0.52667408  0.76265187  1.0
  H  H25  1  0.64887586  0.53624947  0.19026707  1.0
  H  H26  1  0.75655095  0.94589781  0.50887583  1.0
  H  H27  1  0.23907497  0.05412222  0.58602805  1.0
  H  H28  1  0.53919296  0.77868025  0.51634223  1.0
  H  H29  1  0.45924596  0.22102423  0.52877554  1.0
  H  H30  1  0.24317474  0.75096476  0.55491198  1.0
  H  H31  1  0.75592322  0.24883520  0.47958745  1.0
  C  C32  1  0.57412592  0.33635395  0.49596332  1.0
  C  C33  1  0.42602169  0.66346020  0.51685324  1.0
  C  C34  1  0.41433258  0.47731922  0.77462101  1.0
  C  C35  1  0.42418238  0.48722599  0.24919724  1.0
  C  C36  1  0.41553178  0.47882210  0.71589481  1.0
  C  C37  1  0.42286145  0.48643747  0.30793021  1.0
  C  C38  1  0.49665431  0.49724249  0.67340618  1.0
  C  C39  1  0.50300538  0.50313762  0.32493263  1.0
  C  C40  1  0.57679874  0.51436653  0.69020038  1.0
  C  C41  1  0.58440375  0.52104666  0.28242218  1.0
  C  C42  1  0.57583376  0.51330870  0.74886123  1.0
  C  C43  1  0.58581405  0.52258017  0.22361721  1.0
  C  C44  1  0.49455877  0.49475768  0.79059935  1.0
  C  C45  1  0.50567705  0.50536038  0.20743401  1.0
  C  C46  1  0.60387728  0.24261248  0.50404557  1.0
  C  C47  1  0.39493293  0.75736668  0.53374866  1.0
  C  C48  1  0.72672757  0.11935831  0.49902523  1.0
  C  C49  1  0.27055930  0.88062726  0.56576899  1.0
  C  C50  1  0.70179060  0.20668873  0.49331094  1.0
  C  C51  1  0.29661063  0.79330442  0.55223358  1.0
  C  C52  1  0.53342315  0.19051073  0.52182387  1.0
  C  C53  1  0.46454860  0.80941469  0.53099835  1.0
  C  C54  1  0.49756602  0.49867012  0.61021159  1.0
  C  C55  1  0.50187477  0.50140551  0.38826614  1.0
  C  C56  1  0.55651884  0.10113209  0.52794710  1.0
  C  C57  1  0.44029368  0.89881347  0.54443543  1.0
  C  C58  1  0.65583925  0.06461781  0.51512456  1.0
  C  C59  1  0.34076509  0.93535460  0.56125862  1.0
  C  C60  1  0.48387500  0.04534606  0.54298502  1.0
  C  C61  1  0.51241210  0.95461347  0.53838698  1.0
  C  C62  1  0.61212310  0.92071003  0.52692265  1.0
  C  C63  1  0.38378627  0.07921945  0.56147541  1.0
  C  C64  1  0.68087818  0.97348088  0.51700322  1.0
  C  C65  1  0.31505758  0.02643199  0.57144554  1.0
  C  C66  1  0.16386713  0.35353224  0.58150189  1.0
  C  C67  1  0.83587558  0.64689310  0.41791138  1.0
  C  C68  1  0.25319355  0.37889184  0.56903593  1.0
  C  C69  1  0.74669516  0.62127567  0.42997171  1.0
  C  C70  1  0.20943656  0.48614462  0.50932493  1.0
  C  C71  1  0.79073400  0.51273585  0.48885882  1.0
  C  C72  1  0.11621347  0.46541373  0.51951782  1.0
  C  C73  1  0.88363032  0.53400793  0.47930720  1.0
  C  C74  1  0.09170801  0.39621281  0.55725564  1.0
  C  C75  1  0.90801162  0.60364097  0.44197053  1.0
  C  C76  1  0.45021385  0.57533505  0.12840233  1.0
  C  C77  1  0.55044815  0.42477817  0.86939841  1.0
  C  C78  1  0.04618043  0.51174702  0.49337017  1.0
  C  C79  1  0.95356615  0.48777572  0.50559881  1.0
  C  C80  1  0.93173442  0.41859514  0.54368596  1.0
  C  C81  1  0.06794658  0.58121208  0.45554032  1.0
  C  C82  1  0.99780645  0.37441149  0.56851472  1.0
  C  C83  1  0.00180835  0.62561680  0.43087982  1.0
  C  C84  1  0.56129528  0.43351069  0.11058826  1.0
  C  C85  1  0.43897083  0.56637749  0.88734041  1.0
  C  C86  1  0.55775758  0.43274093  0.04880480  1.0
  C  C87  1  0.44277522  0.56727001  0.94902789  1.0
  C  C88  1  0.50187626  0.50123988  0.02856775  1.0
  C  C89  1  0.49882747  0.49886132  0.96921345  1.0
  C  C90  1  0.44879869  0.57194328  0.06628421  1.0
  C  C91  1  0.55191096  0.42815206  0.93149475  1.0
  C  C92  1  0.60897620  0.36389751  0.01096675  1.0
  C  C93  1  0.39154529  0.63611501  0.98682577  1.0
  C  C94  1  0.60610606  0.36162975  0.95241665  1.0
  C  C95  1  0.39454771  0.63843478  0.04533963  1.0
  Br  Br96  1  0.14099161  0.26040078  0.63196676  1.0
  Br  Br97  1  0.85847813  0.74131177  0.36871759  1.0
  N  N98  1  0.50651366  0.50519944  0.14648928  1.0
  N  N99  1  0.49392947  0.49482698  0.85145038  1.0
  N  N100  1  0.27440875  0.44468030  0.53327456  1.0
  N  N101  1  0.72588188  0.55452268  0.46490946  1.0
  O  O102  1  0.63913572  0.38449261  0.48323660  1.0
  O  O103  1  0.36134021  0.61514185  0.52455691  1.0
  O  O104  1  0.48474888  0.36152018  0.50269701  1.0
  O  O105  1  0.51605003  0.63837901  0.49610532  1.0
  O  O106  1  0.57413368  0.51406508  0.57357138  1.0
  O  O107  1  0.42317004  0.49171502  0.42524731  1.0
  O  O108  1  0.42164393  0.48429997  0.59807173  1.0
  O  O109  1  0.57981227  0.50970827  0.40019875  1.0
  O  O110  1  0.40524448  0.63508667  0.16289994  1.0
  O  O111  1  0.59554465  0.36517542  0.83481117  1.0
  O  O112  1  0.60811636  0.37545588  0.13038364  1.0
  O  O113  1  0.39181078  0.62422300  0.86758614  1.0
