# generated using pymatgen
data_ZnH33C34Br3NO4
_symmetry_space_group_name_H-M   'P 1'
_cell_length_a   15.91776063
_cell_length_b   18.77119740
_cell_length_c   19.50252247
_cell_angle_alpha   89.52938054
_cell_angle_beta   92.18946715
_cell_angle_gamma   89.96244679
_symmetry_Int_Tables_number   1
_chemical_formula_structural   ZnH33C34Br3NO4
_chemical_formula_sum   'Zn2 H66 C68 Br6 N2 O8'
_cell_volume   5822.81120131
_cell_formula_units_Z   2
loop_
 _symmetry_equiv_pos_site_id
 _symmetry_equiv_pos_as_xyz
  1  'x, y, z'
loop_
 _atom_site_type_symbol
 _atom_site_label
 _atom_site_symmetry_multiplicity
 _atom_site_fract_x
 _atom_site_fract_y
 _atom_site_fract_z
 _atom_site_occupancy
  Zn  Zn0  1  0.49978403  0.41942591  0.49694005  1.0
  Zn  Zn1  1  0.49351248  0.57985486  0.49416971  1.0
  H  H2  1  0.92723906  0.50564599  0.40213124  1.0
  H  H3  1  0.93364596  0.61168386  0.48305556  1.0
  H  H4  1  0.07373050  0.51269531  0.41138140  1.0
  H  H5  1  0.08022950  0.61081412  0.50005403  1.0
  H  H6  1  0.07108257  0.58886038  0.58760391  1.0
  H  H7  1  0.07593024  0.42246491  0.43722384  1.0
  H  H8  1  0.92473143  0.59840067  0.57216642  1.0
  H  H9  1  0.92886235  0.41854248  0.43692516  1.0
  H  H10  1  0.06575229  0.39151484  0.56445408  1.0
  H  H11  1  0.07087234  0.45960485  0.62632073  1.0
  H  H12  1  0.91881669  0.39855112  0.56470864  1.0
  H  H13  1  0.92434091  0.47206305  0.62062106  1.0
  H  H14  1  0.39596944  0.57782154  0.70559896  1.0
  H  H15  1  0.59951124  0.42780562  0.71671030  1.0
  H  H16  1  0.39312431  0.57894440  0.83378178  1.0
  H  H17  1  0.60060254  0.43182374  0.84509616  1.0
  H  H18  1  0.37268537  0.53931140  0.14774400  1.0
  H  H19  1  0.62996046  0.47019792  0.15711110  1.0
  H  H20  1  0.60877247  0.16468117  0.56834099  1.0
  H  H21  1  0.59155222  0.83367972  0.57903095  1.0
  H  H22  1  0.53608268  0.06870518  0.39411191  1.0
  H  H23  1  0.53655646  0.93682419  0.39207843  1.0
  H  H24  1  0.47348855  0.93124247  0.60493875  1.0
  H  H25  1  0.47392593  0.06364761  0.60710568  1.0
  H  H26  1  0.21610791  0.48036384  0.36765128  1.0
  H  H27  1  0.16787494  0.52000843  0.29316918  1.0
  H  H28  1  0.16328276  0.42626614  0.30528221  1.0
  H  H29  1  0.27284795  0.45593295  0.21980261  1.0
  H  H30  1  0.32078317  0.41833804  0.29444786  1.0
  H  H31  1  0.35325532  0.54138904  0.33852048  1.0
  H  H32  1  0.31040904  0.57791434  0.26071575  1.0
  H  H33  1  0.81241837  0.43472937  0.34597957  1.0
  H  H34  1  0.76471066  0.34983098  0.33942178  1.0
  H  H35  1  0.84378905  0.37450564  0.28175442  1.0
  H  H36  1  0.69810743  0.38314987  0.22511982  1.0
  H  H37  1  0.74933291  0.46639819  0.22723684  1.0
  H  H38  1  0.67192499  0.50159091  0.32992412  1.0
  H  H39  1  0.62759672  0.41687406  0.33620346  1.0
  H  H40  1  0.77023841  0.21038128  0.58232030  1.0
  H  H41  1  0.72424739  0.19746823  0.49883400  1.0
  H  H42  1  0.82164028  0.24206761  0.50894148  1.0
  H  H43  1  0.70429972  0.33095153  0.48489363  1.0
  H  H44  1  0.75644445  0.34492099  0.56411247  1.0
  H  H45  1  0.61190559  0.36057758  0.58379116  1.0
  H  H46  1  0.64158013  0.27908212  0.62348932  1.0
  H  H47  1  0.62148046  0.78611662  0.71327171  1.0
  H  H48  1  0.51714925  0.80287690  0.68128416  1.0
  H  H49  1  0.53441097  0.75663823  0.75998707  1.0
  H  H50  1  0.49420425  0.67035864  0.66554803  1.0
  H  H51  1  0.59413975  0.65291305  0.70244154  1.0
  H  H52  1  0.60841652  0.63821641  0.58326925  1.0
  H  H53  1  0.65900291  0.71914277  0.60377314  1.0
  H  H54  1  0.28563804  0.35045500  0.82125833  1.0
  H  H55  1  0.26461260  0.30895666  0.90097357  1.0
  H  H56  1  0.19468477  0.37459383  0.86573656  1.0
  H  H57  1  0.28607475  0.42668693  0.96104335  1.0
  H  H58  1  0.30671984  0.46821357  0.88190681  1.0
  H  H59  1  0.43147128  0.39004038  0.86886335  1.0
  H  H60  1  0.41052219  0.34583748  0.94684146  1.0
  H  H61  1  0.69336082  0.66626767  0.81753099  1.0
  H  H62  1  0.72177220  0.71058679  0.89510139  1.0
  H  H63  1  0.79031655  0.64595388  0.86157340  1.0
  H  H64  1  0.71253592  0.59339054  0.95995107  1.0
  H  H65  1  0.68393175  0.54979873  0.88261590  1.0
  H  H66  1  0.55556853  0.62661082  0.86944560  1.0
  H  H67  1  0.58364966  0.66969341  0.94733457  1.0
  C  C68  1  0.49725213  0.49930317  0.36478434  1.0
  C  C69  1  0.33835205  0.49209186  0.50804490  1.0
  C  C70  1  0.50106642  0.50312124  0.62721545  1.0
  C  C71  1  0.65900798  0.50146057  0.49705228  1.0
  C  C72  1  0.04933070  0.47480050  0.44890481  1.0
  C  C73  1  0.05020312  0.57366516  0.53536524  1.0
  C  C74  1  0.95323939  0.57676988  0.52629312  1.0
  C  C75  1  0.95236194  0.47295900  0.44519838  1.0
  C  C76  1  0.74989041  0.50246846  0.50178996  1.0
  C  C77  1  0.08187213  0.49724000  0.52158417  1.0
  C  C78  1  0.91733216  0.50128289  0.51279641  1.0
  C  C79  1  0.94765694  0.45121838  0.57238413  1.0
  C  C80  1  0.04481939  0.44597016  0.57511154  1.0
  C  C81  1  0.82621777  0.50249710  0.50736540  1.0
  C  C82  1  0.17300179  0.49454043  0.52281131  1.0
  C  C83  1  0.24892796  0.49252424  0.51832200  1.0
  C  C84  1  0.44028026  0.54578588  0.73670901  1.0
  C  C85  1  0.55528325  0.46134426  0.74303198  1.0
  C  C86  1  0.43906034  0.54643006  0.80806525  1.0
  C  C87  1  0.55550961  0.46359334  0.81436196  1.0
  C  C88  1  0.49735294  0.50605072  0.84770513  1.0
  C  C89  1  0.49843171  0.50318668  0.70376705  1.0
  C  C90  1  0.45540304  0.45271697  0.95891801  1.0
  C  C91  1  0.54195922  0.56199536  0.95926219  1.0
  C  C92  1  0.45897630  0.45424665  0.03081438  1.0
  C  C93  1  0.54273092  0.55999238  0.03122816  1.0
  C  C94  1  0.50188590  0.50708885  0.06887171  1.0
  C  C95  1  0.49791817  0.50725536  0.92413224  1.0
  C  C96  1  0.42891555  0.52394835  0.17818064  1.0
  C  C97  1  0.57354328  0.48462930  0.18375688  1.0
  C  C98  1  0.42572972  0.52003014  0.24965020  1.0
  C  C99  1  0.57300784  0.48082062  0.25530193  1.0
  C  C100  1  0.49857491  0.49966307  0.28764751  1.0
  C  C101  1  0.50213538  0.50646129  0.14500582  1.0
  C  C102  1  0.56156979  0.26716556  0.53539504  1.0
  C  C103  1  0.54522023  0.73195694  0.54539383  1.0
  C  C104  1  0.56048085  0.19277634  0.53767165  1.0
  C  C105  1  0.54848257  0.80628260  0.54344474  1.0
  C  C106  1  0.50055562  0.15358834  0.50016485  1.0
  C  C107  1  0.49920694  0.84652259  0.49674536  1.0
  C  C108  1  0.43865683  0.19195780  0.46235198  1.0
  C  C109  1  0.44597739  0.80872692  0.45093787  1.0
  C  C110  1  0.44092149  0.26684276  0.46328314  1.0
  C  C111  1  0.44698740  0.73386723  0.45346034  1.0
  C  C112  1  0.52243322  0.03846256  0.44032163  1.0
  C  C113  1  0.52237326  0.96451007  0.43913235  1.0
  C  C114  1  0.50342833  0.92520941  0.49808004  1.0
  C  C115  1  0.50376682  0.07473064  0.50048731  1.0
  C  C116  1  0.48808828  0.96144185  0.55887957  1.0
  C  C117  1  0.48829001  0.03574426  0.56013903  1.0
  C  C118  1  0.34309300  0.53098597  0.28338331  1.0
  C  C119  1  0.28577177  0.46539733  0.27490015  1.0
  C  C120  1  0.20380962  0.47327982  0.31225457  1.0
  C  C121  1  0.64869800  0.45648772  0.29853772  1.0
  C  C122  1  0.72168563  0.42516175  0.26001291  1.0
  C  C123  1  0.78959783  0.39436570  0.30926586  1.0
  C  C124  1  0.63122677  0.30591439  0.57335737  1.0
  C  C125  1  0.71525816  0.30711859  0.53607604  1.0
  C  C126  1  0.75980646  0.23534972  0.53137855  1.0
  C  C127  1  0.59712402  0.69286562  0.59950046  1.0
  C  C128  1  0.55814327  0.69205177  0.67087112  1.0
  C  C129  1  0.55783221  0.76332276  0.70802941  1.0
  C  C130  1  0.40540237  0.39730610  0.91967219  1.0
  C  C131  1  0.31191328  0.41735027  0.91031269  1.0
  C  C132  1  0.26130998  0.35977195  0.87247240  1.0
  C  C133  1  0.58727914  0.61882270  0.92001595  1.0
  C  C134  1  0.68019966  0.60100044  0.90949403  1.0
  C  C135  1  0.72392037  0.65906010  0.86872231  1.0
  Br  Br136  1  0.40461813  0.37962820  0.08034047  1.0
  Br  Br137  1  0.60061034  0.63360348  0.08165281  1.0
  Br  Br138  1  0.35189589  0.14218079  0.41406864  1.0
  Br  Br139  1  0.37114604  0.85798505  0.38930123  1.0
  Br  Br140  1  0.35556709  0.31723208  0.41419010  1.0
  Br  Br141  1  0.37843274  0.68324397  0.39020379  1.0
  N  N142  1  0.50141042  0.30378249  0.49796246  1.0
  N  N143  1  0.49486312  0.69598792  0.49930108  1.0
  O  O144  1  0.47982430  0.44079996  0.39437752  1.0
  O  O145  1  0.51346555  0.55849868  0.39369915  1.0
  O  O146  1  0.37830202  0.43530859  0.52472295  1.0
  O  O147  1  0.36850324  0.54845323  0.48183949  1.0
  O  O148  1  0.52920717  0.44742477  0.59924025  1.0
  O  O149  1  0.47546240  0.55960576  0.59624792  1.0
  O  O150  1  0.62477472  0.44248348  0.48034624  1.0
  O  O151  1  0.62189832  0.55951751  0.51046513  1.0
