# generated using pymatgen
data_Zn4H7C24S4O15F
_symmetry_space_group_name_H-M   'P 1'
_cell_length_a   19.66669882
_cell_length_b   19.71774886
_cell_length_c   33.36620009
_cell_angle_alpha   79.02419394
_cell_angle_beta   79.17456948
_cell_angle_gamma   63.94334351
_symmetry_Int_Tables_number   1
_chemical_formula_structural   Zn4H7C24S4O15F
_chemical_formula_sum   'Zn16 H28 C96 S16 O60 F4'
_cell_volume   11331.21495363
_cell_formula_units_Z   4
loop_
 _symmetry_equiv_pos_site_id
 _symmetry_equiv_pos_as_xyz
  1  'x, y, z'
loop_
 _atom_site_type_symbol
 _atom_site_label
 _atom_site_symmetry_multiplicity
 _atom_site_fract_x
 _atom_site_fract_y
 _atom_site_fract_z
 _atom_site_occupancy
  Zn  Zn0  1  0.05609740  0.40056894  0.47838693  1.0
  Zn  Zn1  1  0.98450104  0.48365812  0.56057207  1.0
  Zn  Zn2  1  0.05851734  0.56144414  0.48231381  1.0
  Zn  Zn3  1  0.90039514  0.55524906  0.47963764  1.0
  Zn  Zn4  1  0.69479503  0.34961619  0.27113017  1.0
  Zn  Zn5  1  0.68931037  0.19027712  0.26644779  1.0
  Zn  Zn6  1  0.76944278  0.26615052  0.18997114  1.0
  Zn  Zn7  1  0.84842261  0.19505298  0.27256685  1.0
  Zn  Zn8  1  0.26656901  0.76687018  0.68968771  1.0
  Zn  Zn9  1  0.34877266  0.69594721  0.77198054  1.0
  Zn  Zn10  1  0.19263002  0.84773856  0.77164122  1.0
  Zn  Zn11  1  0.19109108  0.68765028  0.76693672  1.0
  Zn  Zn12  1  0.56059798  0.05992228  0.98325311  1.0
  Zn  Zn13  1  0.40110229  0.05516315  0.97814484  1.0
  Zn  Zn14  1  0.55469630  0.90164926  0.97817897  1.0
  Zn  Zn15  1  0.48385090  0.98301057  0.06038077  1.0
  H  H16  1  0.95395041  0.24899785  0.35148015  1.0
  H  H17  1  0.74679890  0.45520301  0.35085355  1.0
  H  H18  1  0.00043190  0.29852120  0.39955658  1.0
  H  H19  1  0.09739219  0.59707779  0.70005258  1.0
  H  H20  1  0.20157207  0.70143058  0.59719955  1.0
  H  H21  1  0.05031066  0.55049090  0.65072343  1.0
  H  H22  1  0.46270869  0.24064562  0.34123873  1.0
  H  H23  1  0.47983749  0.70236183  0.60128348  1.0
  H  H24  1  0.20229502  0.98006633  0.60145426  1.0
  H  H25  1  0.94845567  0.96975312  0.34817571  1.0
  H  H26  1  0.54995387  0.05011256  0.15302747  1.0
  H  H27  1  0.65279465  0.15290581  0.04871725  1.0
  H  H28  1  0.59914146  0.09909495  0.19996666  1.0
  H  H29  1  0.54789956  0.76953694  0.14850293  1.0
  H  H30  1  0.16240826  0.14138775  0.04073749  1.0
  H  H31  1  0.50123210  0.79572358  0.89860116  1.0
  H  H32  1  0.29521271  0.00314891  0.89915086  1.0
  H  H33  1  0.45066700  0.75038657  0.85048495  1.0
  H  H34  1  0.30101415  0.28044989  0.90184441  1.0
  H  H35  1  0.78766646  0.00908150  0.90871254  1.0
  H  H36  1  0.32569015  0.54235762  0.39846192  1.0
  H  H37  1  0.75625792  0.53965436  0.68461770  1.0
  H  H38  1  0.04014965  0.25606839  0.68414680  1.0
  H  H39  1  0.74280532  0.81560834  0.38801960  1.0
  H  H40  1  0.71034825  0.49315421  0.06570678  1.0
  H  H41  1  0.14874495  0.07555160  0.22081769  1.0
  H  H42  1  0.50715177  0.43389461  0.86202482  1.0
  H  H43  1  0.92386570  0.70701013  0.85187873  1.0
  C  C44  1  0.06147472  0.31652681  0.56211890  1.0
  C  C45  1  0.06916494  0.57017525  0.56893625  1.0
  C  C46  1  0.18373620  0.44047082  0.43851768  1.0
  C  C47  1  0.93606055  0.68438574  0.43868502  1.0
  C  C48  1  0.93112238  0.43034593  0.43119704  1.0
  C  C49  1  0.81676652  0.56098041  0.56267448  1.0
  C  C50  1  0.56584693  0.31131198  0.31116304  1.0
  C  C51  1  0.68137221  0.18052940  0.18083112  1.0
  C  C52  1  0.68980835  0.43328571  0.18772776  1.0
  C  C53  1  0.93583039  0.18735887  0.18990225  1.0
  C  C54  1  0.81882056  0.32008761  0.31955688  1.0
  C  C55  1  0.81116901  0.06623841  0.31153716  1.0
  C  C56  1  0.43355719  0.68954855  0.68830660  1.0
  C  C57  1  0.31837306  0.82002556  0.81908181  1.0
  C  C58  1  0.18856590  0.93356324  0.68838279  1.0
  C  C59  1  0.06555807  0.80886772  0.81122066  1.0
  C  C60  1  0.18119090  0.68023104  0.68055353  1.0
  C  C61  1  0.31383581  0.56560894  0.81142852  1.0
  C  C62  1  0.43824009  0.18386257  0.93862302  1.0
  C  C63  1  0.43055785  0.93051968  0.93054585  1.0
  C  C64  1  0.68394870  0.93903228  0.93862950  1.0
  C  C65  1  0.56131950  0.81613350  0.06151557  1.0
  C  C66  1  0.56953490  0.06941224  0.06943677  1.0
  C  C67  1  0.31600275  0.06147931  0.06113874  1.0
  C  C68  1  0.90083059  0.40367706  0.40227883  1.0
  C  C69  1  0.84761682  0.34875444  0.34814969  1.0
  C  C70  1  0.82929523  0.44662783  0.38782180  1.0
  C  C71  1  0.91930901  0.30453208  0.36191469  1.0
  C  C72  1  0.80254427  0.42019693  0.36123582  1.0
  C  C73  1  0.94496152  0.33200907  0.38851858  1.0
  C  C74  1  0.09891584  0.59929403  0.59683522  1.0
  C  C75  1  0.15236553  0.65202796  0.65179300  1.0
  C  C76  1  0.14195553  0.64210898  0.58266108  1.0
  C  C77  1  0.10959772  0.60941411  0.66696198  1.0
  C  C78  1  0.16849199  0.66839983  0.60940340  1.0
  C  C79  1  0.08356640  0.58371340  0.63967481  1.0
  C  C80  1  0.30434609  0.45575352  0.40101431  1.0
  C  C81  1  0.44590185  0.29736173  0.34906431  1.0
  C  C82  1  0.25842222  0.41624064  0.41389188  1.0
  C  C83  1  0.49121685  0.33666545  0.33628040  1.0
  C  C84  1  0.37783006  0.34040568  0.37266693  1.0
  C  C85  1  0.37270197  0.41200904  0.37739453  1.0
  C  C86  1  0.72653779  0.57545159  0.63048631  1.0
  C  C87  1  0.52444966  0.67341162  0.62141380  1.0
  C  C88  1  0.74265871  0.58516346  0.58776904  1.0
  C  C89  1  0.50861573  0.66387722  0.66375208  1.0
  C  C90  1  0.60372632  0.64129606  0.60912086  1.0
  C  C91  1  0.64679284  0.60777075  0.64257459  1.0
  C  C92  1  0.07578643  0.22631198  0.63008700  1.0
  C  C93  1  0.17345142  0.02456363  0.62148557  1.0
  C  C94  1  0.08555396  0.24243861  0.58732612  1.0
  C  C95  1  0.16369298  0.00867968  0.66383502  1.0
  C  C96  1  0.14149610  0.10369254  0.60904815  1.0
  C  C97  1  0.10796111  0.14668526  0.64237493  1.0
  C  C98  1  0.84176208  0.80084568  0.39716023  1.0
  C  C99  1  0.90392764  0.94957211  0.35260098  1.0
  C  C100  1  0.91073561  0.75855413  0.41364482  1.0
  C  C101  1  0.83550308  0.99137966  0.33632618  1.0
  C  C102  1  0.90659969  0.88004890  0.37470929  1.0
  C  C103  1  0.83973831  0.87041006  0.37483150  1.0
  C  C104  1  0.65319216  0.15297294  0.15131886  1.0
  C  C105  1  0.59817380  0.09827250  0.09799913  1.0
  C  C106  1  0.66726539  0.16725168  0.10831152  1.0
  C  C107  1  0.58300461  0.08314394  0.14074370  1.0
  C  C108  1  0.64053379  0.14063185  0.08180314  1.0
  C  C109  1  0.61028245  0.11028776  0.16670403  1.0
  C  C110  1  0.67463529  0.52337288  0.11970573  1.0
  C  C111  1  0.57671704  0.72510350  0.12842497  1.0
  C  C112  1  0.66491783  0.50726396  0.16247664  1.0
  C  C113  1  0.58640416  0.74107136  0.08608007  1.0
  C  C114  1  0.60864301  0.64595548  0.14079693  1.0
  C  C115  1  0.64222473  0.60301371  0.10744123  1.0
  C  C116  1  0.08265374  0.12315960  0.17870848  1.0
  C  C117  1  0.17026860  0.12471366  0.07311746  1.0
  C  C118  1  0.01051493  0.16223528  0.16538926  1.0
  C  C119  1  0.24166543  0.08600306  0.08641846  1.0
  C  C120  1  0.11213000  0.13842199  0.10659235  1.0
  C  C121  1  0.14069763  0.10965988  0.14487549  1.0
  C  C122  1  0.34556369  0.85015372  0.84777766  1.0
  C  C123  1  0.40159390  0.90213172  0.90191226  1.0
  C  C124  1  0.30298307  0.92144529  0.86216267  1.0
  C  C125  1  0.44550859  0.83068173  0.88817680  1.0
  C  C126  1  0.32996100  0.94760166  0.88877084  1.0
  C  C127  1  0.41748353  0.80563558  0.86154371  1.0
  C  C128  1  0.40811657  0.44897444  0.85287570  1.0
  C  C129  1  0.34562368  0.30050887  0.89744911  1.0
  C  C130  1  0.33922705  0.49128390  0.83630182  1.0
  C  C131  1  0.41396324  0.25865678  0.91377996  1.0
  C  C132  1  0.34319952  0.36984624  0.87521197  1.0
  C  C133  1  0.41011160  0.37937839  0.87513009  1.0
  C  C134  1  0.94516962  0.79367020  0.84905783  1.0
  C  C135  1  0.80421396  0.95238922  0.90093040  1.0
  C  C136  1  0.99115511  0.83305293  0.83603766  1.0
  C  C137  1  0.75866620  0.91334925  0.91372300  1.0
  C  C138  1  0.87217154  0.90908145  0.87735970  1.0
  C  C139  1  0.87699337  0.83753430  0.87272659  1.0
  S  S140  1  0.29890419  0.32645575  0.39723115  1.0
  S  S141  1  0.45154534  0.42630976  0.35282938  1.0
  S  S142  1  0.66088955  0.63325667  0.56277357  1.0
  S  S143  1  0.58983539  0.61572234  0.68906831  1.0
  S  S144  1  0.13358285  0.16074386  0.56258803  1.0
  S  S145  1  0.11561460  0.08974782  0.68896404  1.0
  S  S146  1  0.97226338  0.80370909  0.40185049  1.0
  S  S147  1  0.77377162  0.94667941  0.34772215  1.0
  S  S148  1  0.61652384  0.58890130  0.18724319  1.0
  S  S149  1  0.63445190  0.66006404  0.06089228  1.0
  S  S150  1  0.01401268  0.18211621  0.11197532  1.0
  S  S151  1  0.23888507  0.06581889  0.13969248  1.0
  S  S152  1  0.27769342  0.44614233  0.84797694  1.0
  S  S153  1  0.47592996  0.30310315  0.90231340  1.0
  S  S154  1  0.95111290  0.92281543  0.85268283  1.0
  S  S155  1  0.79798196  0.82361989  0.89731059  1.0
  O  O156  1  0.00044418  0.49908928  0.50017454  1.0
  O  O157  1  0.07788224  0.31527572  0.52306506  1.0
  O  O158  1  0.03191208  0.53120322  0.58652191  1.0
  O  O159  1  0.15487988  0.50689161  0.44958244  1.0
  O  O160  1  0.02668923  0.37521023  0.58104772  1.0
  O  O161  1  0.15413691  0.39212629  0.44662560  1.0
  O  O162  1  0.08306739  0.58646100  0.53046947  1.0
  O  O163  1  0.00330023  0.65794887  0.44941020  1.0
  O  O164  1  0.88842754  0.49472857  0.44337854  1.0
  O  O165  1  0.88987619  0.65281183  0.44766399  1.0
  O  O166  1  0.99753790  0.38568333  0.44121623  1.0
  O  O167  1  0.87592255  0.52626430  0.58146863  1.0
  O  O168  1  0.81495439  0.57738625  0.52365547  1.0
  O  O169  1  0.74984795  0.25016103  0.25036697  1.0
  O  O170  1  0.59681076  0.35827706  0.30297046  1.0
  O  O171  1  0.66302527  0.16391857  0.21905511  1.0
  O  O172  1  0.72628067  0.37437489  0.16909082  1.0
  O  O173  1  0.59277370  0.24511282  0.29983273  1.0
  O  O174  1  0.67242094  0.43481808  0.22675278  1.0
  O  O175  1  0.72092899  0.21777971  0.16567539  1.0
  O  O176  1  0.87818068  0.22290393  0.16950912  1.0
  O  O177  1  0.86217733  0.25410548  0.30910918  1.0
  O  O178  1  0.93427342  0.17207210  0.22888450  1.0
  O  O179  1  0.75344747  0.36390682  0.30803541  1.0
  O  O180  1  0.74484076  0.09365627  0.29970985  1.0
  O  O181  1  0.85815002  0.09692752  0.30408208  1.0
  O  O182  1  0.25008756  0.74940462  0.74993467  1.0
  O  O183  1  0.37547895  0.72479643  0.66858733  1.0
  O  O184  1  0.36415285  0.75472899  0.80830434  1.0
  O  O185  1  0.17162374  0.93322051  0.72737508  1.0
  O  O186  1  0.43362624  0.67410218  0.72735423  1.0
  O  O187  1  0.22456130  0.87578097  0.66871124  1.0
  O  O188  1  0.25262023  0.86129450  0.80788144  1.0
  O  O189  1  0.09489352  0.85745241  0.80322118  1.0
  O  O190  1  0.16574746  0.66285342  0.71891555  1.0
  O  O191  1  0.09462078  0.74267862  0.79983756  1.0
  O  O192  1  0.21888571  0.71932816  0.66421992  1.0
  O  O193  1  0.35943736  0.59790311  0.80334932  1.0
  O  O194  1  0.24718986  0.59150509  0.80001446  1.0
  O  O195  1  0.49993389  0.00005284  0.99999703  1.0
  O  O196  1  0.50491196  0.15619716  0.95000556  1.0
  O  O197  1  0.38711925  0.99608902  0.94159091  1.0
  O  O198  1  0.65282036  0.89218353  0.94674777  1.0
  O  O199  1  0.39100021  0.15339661  0.94656161  1.0
  O  O200  1  0.65694243  0.00529947  0.94986453  1.0
  O  O201  1  0.49634107  0.88678836  0.94152622  1.0
  O  O202  1  0.57725965  0.81633346  0.02247308  1.0
  O  O203  1  0.53131146  0.03092845  0.08588023  1.0
  O  O204  1  0.52610036  0.87405929  0.08113796  1.0
  O  O205  1  0.58576225  0.08563687  0.03097673  1.0
  O  O206  1  0.31545922  0.07783350  0.02223244  1.0
  O  O207  1  0.37462290  0.02581558  0.08061665  1.0
  O  O208  1  0.28493305  0.52651767  0.41025201  1.0
  O  O209  1  0.78092085  0.53970343  0.65642001  1.0
  O  O210  1  0.04007572  0.28058163  0.65588432  1.0
  O  O211  1  0.78512346  0.77727827  0.40227238  1.0
  O  O212  1  0.71051770  0.46898591  0.09404139  1.0
  O  O213  1  0.09417109  0.10161572  0.21886061  1.0
  O  O214  1  0.46478030  0.47253147  0.84791482  1.0
  O  O215  1  0.96447499  0.72290914  0.83982547  1.0
  F  F216  1  0.78273433  0.51636189  0.39919158  1.0
  F  F217  1  0.15975036  0.65975397  0.54198383  1.0
  F  F218  1  0.70778368  0.20799352  0.09059508  1.0
  F  F219  1  0.23319986  0.96832793  0.85061927  1.0
