# generated using pymatgen
data_Zn4H13C21S2O19
_symmetry_space_group_name_H-M   'P 1'
_cell_length_a   18.50684422
_cell_length_b   18.50720180
_cell_length_c   18.52331082
_cell_angle_alpha   60.76002598
_cell_angle_beta   60.67074615
_cell_angle_gamma   60.16005606
_symmetry_Int_Tables_number   1
_chemical_formula_structural   Zn4H13C21S2O19
_chemical_formula_sum   'Zn8 H26 C42 S4 O38'
_cell_volume   4539.64880381
_cell_formula_units_Z   2
loop_
 _symmetry_equiv_pos_site_id
 _symmetry_equiv_pos_as_xyz
  1  'x, y, z'
loop_
 _atom_site_type_symbol
 _atom_site_label
 _atom_site_symmetry_multiplicity
 _atom_site_fract_x
 _atom_site_fract_y
 _atom_site_fract_z
 _atom_site_occupancy
  Zn  Zn0  1  0.46246192  0.45235044  0.95056726  1.0
  Zn  Zn1  1  0.46003609  0.45747579  0.12286545  1.0
  Zn  Zn2  1  0.45791640  0.62762051  0.95511924  1.0
  Zn  Zn3  1  0.63190171  0.45653449  0.95466728  1.0
  Zn  Zn4  1  0.04427873  0.04437112  0.54010645  1.0
  Zn  Zn5  1  0.04090443  0.87211713  0.54616373  1.0
  Zn  Zn6  1  0.03958647  0.04533297  0.37051759  1.0
  Zn  Zn7  1  0.86847094  0.04358854  0.54436902  1.0
  H  H8  1  0.60688763  0.25351984  0.83920328  1.0
  H  H9  1  0.18360276  0.88941283  0.20388463  1.0
  H  H10  1  0.77591795  0.42690240  0.76006335  1.0
  H  H11  1  0.26267558  0.65122934  0.26196072  1.0
  H  H12  1  0.19942946  0.20922156  0.18508682  1.0
  H  H13  1  0.19626656  0.21987067  0.34807184  1.0
  H  H14  1  0.32349940  0.26393944  0.10868255  1.0
  H  H15  1  0.91765013  0.44282048  0.64863312  1.0
  H  H16  1  0.96473085  0.23307215  0.57426480  1.0
  H  H17  1  0.27477874  0.80715759  0.82178918  1.0
  H  H18  1  0.68454229  0.21831489  0.40456988  1.0
  H  H19  1  0.25934935  0.64926562  0.82085587  1.0
  H  H20  1  0.19336224  0.70767715  0.47299211  1.0
  H  H21  1  0.31291697  0.80570981  0.10151424  1.0
  H  H22  1  0.26107662  0.49041945  0.21899440  1.0
  H  H23  1  0.15855507  0.33533977  0.53968661  1.0
  H  H24  1  0.70153455  0.15566895  0.74628778  1.0
  H  H25  1  0.13225445  0.93411080  0.87994019  1.0
  H  H26  1  0.24530670  0.74851042  0.67949653  1.0
  H  H27  1  0.68798317  0.90382642  0.69885366  1.0
  H  H28  1  0.84799719  0.73304617  0.71821820  1.0
  H  H29  1  0.59675784  0.80938461  0.80706285  1.0
  H  H30  1  0.76240087  0.65463074  0.75807228  1.0
  H  H31  1  0.83988586  0.18629891  0.23836286  1.0
  H  H32  1  0.59171464  0.29749338  0.30882083  1.0
  H  H33  1  0.76310518  0.31620654  0.15643276  1.0
  C  C34  1  0.63638554  0.37713166  0.13583864  1.0
  C  C35  1  0.19577021  0.81001382  0.69145418  1.0
  C  C36  1  0.25215812  0.77464512  0.80503737  1.0
  C  C37  1  0.34943207  0.63290856  0.87617934  1.0
  C  C38  1  0.28254231  0.68611608  0.83130244  1.0
  C  C39  1  0.72130408  0.83264806  0.72073832  1.0
  C  C40  1  0.81009984  0.80283769  0.69640823  1.0
  C  C41  1  0.66645776  0.77766912  0.77536008  1.0
  C  C42  1  0.69449699  0.69063713  0.78936400  1.0
  C  C43  1  0.71690083  0.22716972  0.33460397  1.0
  C  C44  1  0.80410233  0.18308690  0.30672312  1.0
  C  C45  1  0.92236099  0.27385996  0.61619954  1.0
  C  C46  1  0.66273327  0.28430875  0.27827388  1.0
  C  C47  1  0.69356267  0.32349705  0.19108328  1.0
  C  C48  1  0.22914507  0.82432790  0.22890732  1.0
  C  C49  1  0.36134235  0.36905547  0.12605163  1.0
  C  C50  1  0.22555370  0.80414752  0.31096267  1.0
  C  C51  1  0.28331986  0.77212372  0.17050770  1.0
  C  C52  1  0.29372008  0.68701011  0.19498404  1.0
  C  C53  1  0.21355688  0.23149709  0.22015468  1.0
  C  C54  1  0.18173666  0.20384845  0.30834969  1.0
  C  C55  1  0.27387880  0.28048583  0.16789492  1.0
  C  C56  1  0.84073940  0.26372956  0.67853574  1.0
  C  C57  1  0.28211865  0.34140530  0.18114809  1.0
  C  C58  1  0.86313162  0.86148634  0.63862291  1.0
  C  C59  1  0.12795833  0.14579937  0.35932559  1.0
  C  C60  1  0.13999487  0.86382218  0.63398467  1.0
  C  C61  1  0.63698103  0.63670480  0.84981572  1.0
  C  C62  1  0.85849885  0.12902899  0.36481567  1.0
  C  C63  1  0.15366667  0.86247121  0.36491618  1.0
  C  C64  1  0.86319026  0.13936436  0.63574802  1.0
  C  C65  1  0.35154064  0.63504234  0.13449995  1.0
  C  C66  1  0.64320471  0.36430088  0.85444498  1.0
  C  C67  1  0.78649893  0.32013419  0.73213537  1.0
  C  C68  1  0.81678225  0.38378870  0.72021980  1.0
  C  C69  1  0.89595403  0.39267009  0.65863848  1.0
  C  C70  1  0.94838302  0.33648701  0.60712276  1.0
  C  C71  1  0.70219572  0.31291104  0.79201136  1.0
  C  C72  1  0.67226547  0.25597205  0.79471870  1.0
  C  C73  1  0.72531071  0.20108419  0.74252501  1.0
  C  C74  1  0.80905150  0.20267078  0.68655800  1.0
  C  C75  1  0.19181363  0.82987871  0.75456270  1.0
  S  S76  1  0.30511180  0.71636296  0.36329369  1.0
  S  S77  1  0.20427120  0.39237014  0.26441652  1.0
  S  S78  1  0.04668829  0.35013751  0.52079691  1.0
  S  S79  1  0.11210196  0.93045381  0.77821184  1.0
  O  O80  1  0.50261406  0.49829125  0.99501755  1.0
  O  O81  1  0.94168252  0.10077472  0.32549712  1.0
  O  O82  1  0.12752222  0.82299125  0.44794339  1.0
  O  O83  1  0.67640547  0.39926329  0.05311148  1.0
  O  O84  1  0.82087688  0.11897012  0.61502047  1.0
  O  O85  1  0.12294758  0.94353007  0.32553692  1.0
  O  O86  1  0.94640072  0.10991059  0.61837984  1.0
  O  O87  1  0.12722167  0.94576945  0.60094800  1.0
  O  O88  1  0.82018054  0.11535123  0.44707629  1.0
  O  O89  1  0.94681477  0.82178844  0.61409220  1.0
  O  O90  1  0.10520907  0.12503740  0.31867833  1.0
  O  O91  1  0.39553004  0.37334137  0.04600984  1.0
  O  O92  1  0.37480693  0.54969739  0.89443494  1.0
  O  O93  1  0.38837392  0.38539051  0.16613818  1.0
  O  O94  1  0.55437759  0.67578240  0.88098945  1.0
  O  O95  1  0.36058028  0.55277442  0.16890719  1.0
  O  O96  1  0.67922431  0.37483501  0.89062536  1.0
  O  O97  1  0.38949958  0.67334796  0.05499691  1.0
  O  O98  1  0.56058019  0.39146474  0.86812428  1.0
  O  O99  1  0.37050595  0.65833060  0.31355342  1.0
  O  O100  1  0.33048119  0.75983671  0.38929543  1.0
  O  O101  1  0.24521362  0.66200776  0.44718862  1.0
  O  O102  1  0.67671585  0.55337310  0.86631385  1.0
  O  O103  1  0.11802809  0.40375651  0.27423384  1.0
  O  O104  1  0.23640623  0.34936285  0.33726774  1.0
  O  O105  1  0.20971557  0.48992435  0.21570785  1.0
  O  O106  1  0.08200533  0.28810111  0.47658652  1.0
  O  O107  1  0.03277621  0.44245729  0.47279123  1.0
  O  O108  1  0.10655763  0.31744541  0.57958469  1.0
  O  O109  1  0.15109977  0.99847570  0.72797609  1.0
  O  O110  1  0.02842587  0.94218035  0.78087821  1.0
  O  O111  1  0.10390996  0.90177906  0.87929570  1.0
  O  O112  1  0.55293513  0.39640639  0.17403969  1.0
  O  O113  1  0.37634310  0.67366600  0.89200358  1.0
  O  O114  1  0.99839962  0.00007157  0.49909660  1.0
  O  O115  1  0.82327264  0.94463638  0.61773855  1.0
  O  O116  1  0.10946516  0.12022746  0.44207155  1.0
  O  O117  1  0.11310150  0.82080602  0.62131991  1.0
