# generated using pymatgen
data_Zn2H7C21S5N2ClO13
_symmetry_space_group_name_H-M   'P 1'
_cell_length_a   11.46306395
_cell_length_b   12.75946312
_cell_length_c   23.92691655
_cell_angle_alpha   90.24203874
_cell_angle_beta   91.44441626
_cell_angle_gamma   90.53349600
_symmetry_Int_Tables_number   1
_chemical_formula_structural   Zn2H7C21S5N2ClO13
_chemical_formula_sum   'Zn4 H14 C42 S10 N4 Cl2 O26'
_cell_volume   3498.31316322
_cell_formula_units_Z   2
loop_
 _symmetry_equiv_pos_site_id
 _symmetry_equiv_pos_as_xyz
  1  'x, y, z'
loop_
 _atom_site_type_symbol
 _atom_site_label
 _atom_site_symmetry_multiplicity
 _atom_site_fract_x
 _atom_site_fract_y
 _atom_site_fract_z
 _atom_site_occupancy
  Zn  Zn0  1  0.61818284  0.49856742  0.50079032  1.0
  Zn  Zn1  1  0.37690082  0.49964766  0.50202247  1.0
  Zn  Zn2  1  0.38154023  0.49426514  0.02851047  1.0
  Zn  Zn3  1  0.62361704  0.50070590  0.04033449  1.0
  H  H4  1  0.75441823  0.42670918  0.21537460  1.0
  H  H5  1  0.75974000  0.56619115  0.21635048  1.0
  H  H6  1  0.76369071  0.56489971  0.32208779  1.0
  H  H7  1  0.75740281  0.42532403  0.32133900  1.0
  H  H8  1  0.88902399  0.67083233  0.58459683  1.0
  H  H9  1  0.10691389  0.33944537  0.41113013  1.0
  H  H10  1  0.75982379  0.91920889  0.49602293  1.0
  H  H11  1  0.24099320  0.07872058  0.50355688  1.0
  H  H12  1  0.24471689  0.49626551  0.72807630  1.0
  H  H13  1  0.77299389  0.49394853  0.80927035  1.0
  H  H14  1  0.11063785  0.66736055  0.94938693  1.0
  H  H15  1  0.89813204  0.33044642  0.12126678  1.0
  H  H16  1  0.23842283  0.91482968  0.03737821  1.0
  H  H17  1  0.75812664  0.08022737  0.03530486  1.0
  C  C18  1  0.50030020  0.29453642  0.50057031  1.0
  C  C19  1  0.50048973  0.50107218  0.39167203  1.0
  C  C20  1  0.49808124  0.70406940  0.50145538  1.0
  C  C21  1  0.49170524  0.50030448  0.61073849  1.0
  C  C22  1  0.49707383  0.29267108  0.03482155  1.0
  C  C23  1  0.49413945  0.49958154  0.14356264  1.0
  C  C24  1  0.49759166  0.70209433  0.03510793  1.0
  C  C25  1  0.52098948  0.49873800  0.92557536  1.0
  C  C26  1  0.87274133  0.55645685  0.53283707  1.0
  C  C27  1  0.12262966  0.43912628  0.47103402  1.0
  C  C28  1  0.00279359  0.45955722  0.48119494  1.0
  C  C29  1  0.99254431  0.53792848  0.52169206  1.0
  C  C30  1  0.59747173  0.88802065  0.50006961  1.0
  C  C31  1  0.40350141  0.11039026  0.50140223  1.0
  C  C32  1  0.50255324  0.81923585  0.50134784  1.0
  C  C33  1  0.49819513  0.17944005  0.50029484  1.0
  C  C34  1  0.43998683  0.00431513  0.50126131  1.0
  C  C35  1  0.56124535  0.99423064  0.50003027  1.0
  C  C36  1  0.48616683  0.50318399  0.20620942  1.0
  C  C37  1  0.48961377  0.50361267  0.32884439  1.0
  C  C38  1  0.58834587  0.50048037  0.23895164  1.0
  C  C39  1  0.38377525  0.50933471  0.29662702  1.0
  C  C40  1  0.58998043  0.50023347  0.29719013  1.0
  C  C41  1  0.38219556  0.50878582  0.23714678  1.0
  C  C42  1  0.72004047  0.49697813  0.23563050  1.0
  C  C43  1  0.72205587  0.49637798  0.30173192  1.0
  C  C44  1  0.40543689  0.50108610  0.70973130  1.0
  C  C45  1  0.61184641  0.49935091  0.82674721  1.0
  C  C46  1  0.49624179  0.50086076  0.67215251  1.0
  C  C47  1  0.52082828  0.49963950  0.86415126  1.0
  C  C48  1  0.56975886  0.49975207  0.77034251  1.0
  C  C49  1  0.44791119  0.50043943  0.76598465  1.0
  C  C50  1  0.12625047  0.55100955  0.99921196  1.0
  C  C51  1  0.87926211  0.44155862  0.06848118  1.0
  C  C52  1  0.99822159  0.45771716  0.05431587  1.0
  C  C53  1  0.00722258  0.53496998  0.01337536  1.0
  C  C54  1  0.40061411  0.88503172  0.03499510  1.0
  C  C55  1  0.59580352  0.10989395  0.03694871  1.0
  C  C56  1  0.49510440  0.81724160  0.03542013  1.0
  C  C57  1  0.50124922  0.17758988  0.03587606  1.0
  C  C58  1  0.55896047  0.00324247  0.03657123  1.0
  C  C59  1  0.43753961  0.99163731  0.03540145  1.0
  S  S60  1  0.86681323  0.41429484  0.46017931  1.0
  S  S61  1  0.12861200  0.57987318  0.54457165  1.0
  S  S62  1  0.36927616  0.88453899  0.50244843  1.0
  S  S63  1  0.63166638  0.11432477  0.49898900  1.0
  S  S64  1  0.63344076  0.49982758  0.70572509  1.0
  S  S65  1  0.38379779  0.50061671  0.83037655  1.0
  S  S66  1  0.13411141  0.41046778  0.07205848  1.0
  S  S67  1  0.87096638  0.58024016  0.99463083  1.0
  S  S68  1  0.62896368  0.88411991  0.03678488  1.0
  S  S69  1  0.36743210  0.11062279  0.03414277  1.0
  N  N70  1  0.79951703  0.49662390  0.50276668  1.0
  N  N71  1  0.19576692  0.49848275  0.50147780  1.0
  N  N72  1  0.19997162  0.49024985  0.02744944  1.0
  N  N73  1  0.80534446  0.50180178  0.04006748  1.0
  Cl  Cl74  1  0.25066165  0.51951548  0.32834376  1.0
  Cl  Cl75  1  0.24800201  0.51837648  0.20322691  1.0
  O  O76  1  0.60111490  0.33835986  0.49745263  1.0
  O  O77  1  0.40307118  0.34074168  0.50407588  1.0
  O  O78  1  0.40735542  0.50207427  0.41923382  1.0
  O  O79  1  0.60379911  0.49767885  0.41249572  1.0
  O  O80  1  0.39641562  0.66229324  0.50339537  1.0
  O  O81  1  0.59488700  0.65611704  0.49944196  1.0
  O  O82  1  0.58956634  0.49490560  0.58640823  1.0
  O  O83  1  0.39112509  0.50510852  0.58704492  1.0
  O  O84  1  0.39538246  0.33236593  0.02898418  1.0
  O  O85  1  0.59350164  0.34262063  0.03968289  1.0
  O  O86  1  0.59681461  0.51081823  0.12489124  1.0
  O  O87  1  0.40189710  0.48445758  0.11415190  1.0
  O  O88  1  0.59896594  0.66058235  0.03493591  1.0
  O  O89  1  0.40000939  0.65382951  0.03509661  1.0
  O  O90  1  0.41900450  0.49717540  0.94645861  1.0
  O  O91  1  0.61776579  0.49941262  0.95266958  1.0
  O  O92  1  0.82851297  0.62382219  0.56963024  1.0
  O  O93  1  0.16710548  0.36835630  0.43629002  1.0
  O  O94  1  0.71085522  0.85680120  0.49915035  1.0
  O  O95  1  0.29016807  0.14131594  0.50226147  1.0
  O  O96  1  0.29019195  0.50167680  0.69431552  1.0
  O  O97  1  0.72678619  0.49898301  0.84277583  1.0
  O  O98  1  0.16925627  0.61679675  0.96117601  1.0
  O  O99  1  0.83666676  0.37535680  0.10644712  1.0
  O  O100  1  0.28680054  0.85282903  0.03399937  1.0
  O  O101  1  0.70956311  0.14223829  0.03795273  1.0
