# generated using pymatgen
data_Zn4H24C36N4O13
_symmetry_space_group_name_H-M   'P 1'
_cell_length_a   18.37562083
_cell_length_b   18.37562825
_cell_length_c   25.22585673
_cell_angle_alpha   111.36280341
_cell_angle_beta   111.36205179
_cell_angle_gamma   89.99291544
_symmetry_Int_Tables_number   1
_chemical_formula_structural   Zn4H24C36N4O13
_chemical_formula_sum   'Zn8 H48 C72 N8 O26'
_cell_volume   7300.81443672
_cell_formula_units_Z   2
loop_
 _symmetry_equiv_pos_site_id
 _symmetry_equiv_pos_as_xyz
  1  'x, y, z'
loop_
 _atom_site_type_symbol
 _atom_site_label
 _atom_site_symmetry_multiplicity
 _atom_site_fract_x
 _atom_site_fract_y
 _atom_site_fract_z
 _atom_site_occupancy
  Zn  Zn0  1  0.22724472  0.81011330  0.44715484  1.0
  Zn  Zn1  1  0.78002087  0.18985020  0.55283986  1.0
  Zn  Zn2  1  0.63701310  0.22718127  0.44716068  1.0
  Zn  Zn3  1  0.36295395  0.78008910  0.55284181  1.0
  Zn  Zn4  1  0.21992092  0.63698324  0.44716499  1.0
  Zn  Zn5  1  0.77282419  0.36300608  0.55283608  1.0
  Zn  Zn6  1  0.81016843  0.21999019  0.44716616  1.0
  Zn  Zn7  1  0.18981902  0.77275609  0.55283311  1.0
  H  H8  1  0.95860416  0.29351615  0.74204470  1.0
  H  H9  1  0.21905405  0.70358172  0.25801529  1.0
  H  H10  1  0.44556851  0.96103568  0.74198607  1.0
  H  H11  1  0.55147342  0.21655518  0.25795435  1.0
  H  H12  1  0.78348380  0.44850742  0.74206843  1.0
  H  H13  1  0.03890523  0.55439394  0.25796314  1.0
  H  H14  1  0.29643092  0.78093815  0.74203409  1.0
  H  H15  1  0.70644153  0.04141261  0.25793243  1.0
  H  H16  1  0.07325617  0.97216978  0.42937051  1.0
  H  H17  1  0.93035415  0.02290363  0.57012991  1.0
  H  H18  1  0.45716421  0.07323738  0.42936364  1.0
  H  H19  1  0.54720042  0.93028162  0.57010300  1.0
  H  H20  1  0.35610086  0.45722170  0.42935895  1.0
  H  H21  1  0.63977545  0.54719363  0.57014077  1.0
  H  H22  1  0.97219570  0.35614344  0.42937398  1.0
  H  H23  1  0.02298131  0.63980143  0.57017070  1.0
  H  H24  1  0.64387089  0.02779508  0.57063451  1.0
  H  H25  1  0.36017830  0.97710062  0.42989398  1.0
  H  H26  1  0.02786719  0.92673934  0.57063972  1.0
  H  H27  1  0.97704911  0.06963595  0.42985834  1.0
  H  H28  1  0.92677094  0.54282639  0.57062918  1.0
  H  H29  1  0.06963122  0.45280706  0.42982911  1.0
  H  H30  1  0.54279659  0.64388666  0.57062713  1.0
  H  H31  1  0.45277866  0.36022310  0.42987047  1.0
  H  H32  1  0.01853117  0.35367612  0.85692246  1.0
  H  H33  1  0.16415709  0.64322359  0.14318139  1.0
  H  H34  1  0.50004375  0.02096901  0.85681933  1.0
  H  H35  1  0.49675031  0.16160242  0.14307623  1.0
  H  H36  1  0.83841833  0.50323551  0.85693170  1.0
  H  H37  1  0.97900803  0.49990177  0.14311012  1.0
  H  H38  1  0.35678940  0.83589218  0.85688663  1.0
  H  H39  1  0.64630377  0.98148091  0.14306954  1.0
  H  H40  1  0.02512638  0.63332724  0.94466037  1.0
  H  H41  1  0.93570820  0.63877415  0.94325352  1.0
  H  H42  1  0.07462172  0.36482334  0.05531501  1.0
  H  H43  1  0.98647235  0.36264564  0.05677080  1.0
  H  H44  1  0.30951077  0.01929678  0.94468442  1.0
  H  H45  1  0.30587274  0.92969185  0.94322700  1.0
  H  H46  1  0.68866868  0.08046677  0.05535222  1.0
  H  H47  1  0.69551887  0.99244227  0.05673406  1.0
  H  H48  1  0.91951640  0.31133395  0.94460337  1.0
  H  H49  1  0.00757800  0.30443532  0.94329672  1.0
  H  H50  1  0.98070729  0.69045482  0.05530122  1.0
  H  H51  1  0.07033066  0.69418385  0.05680214  1.0
  H  H52  1  0.63512245  0.92536636  0.94466530  1.0
  H  H53  1  0.63741593  0.01352392  0.94323281  1.0
  H  H54  1  0.36673173  0.97490288  0.05539729  1.0
  H  H55  1  0.36113643  0.06426883  0.05670037  1.0
  C  C56  1  0.93325777  0.34029168  0.76764509  1.0
  C  C57  1  0.16699964  0.65809428  0.23242962  1.0
  C  C58  1  0.52824050  0.96216507  0.53968095  1.0
  C  C59  1  0.41829703  0.47611252  0.46006176  1.0
  C  C60  1  0.57747426  0.52824667  0.53971265  1.0
  C  C61  1  0.98400299  0.41834322  0.46007135  1.0
  C  C62  1  0.01151857  0.57750346  0.53973900  1.0
  C  C63  1  0.58167609  0.01598631  0.53991886  1.0
  C  C64  1  0.42248172  0.98856163  0.46031455  1.0
  C  C65  1  0.01605370  0.95823262  0.53993668  1.0
  C  C66  1  0.98853052  0.03776112  0.46028725  1.0
  C  C67  1  0.95827403  0.52393324  0.53993129  1.0
  C  C68  1  0.42566668  0.93456601  0.76757007  1.0
  C  C69  1  0.03776761  0.47178015  0.46026254  1.0
  C  C70  1  0.52388644  0.58169357  0.53990751  1.0
  C  C71  1  0.47174595  0.42252462  0.46029318  1.0
  C  C72  1  0.04178423  0.98398002  0.46008965  1.0
  C  C73  1  0.96223149  0.01144993  0.53970725  1.0
  C  C74  1  0.47607052  0.04175630  0.46007977  1.0
  C  C75  1  0.57264753  0.16560872  0.23235344  1.0
  C  C76  1  0.94832298  0.05163600  0.49998569  1.0
  C  C77  1  0.83442424  0.42733724  0.76767123  1.0
  C  C78  1  0.05597050  0.94406200  0.50001298  1.0
  C  C79  1  0.44832465  0.94832623  0.49999970  1.0
  C  C80  1  0.55592396  0.05592317  0.49999733  1.0
  C  C81  1  0.55165157  0.44833831  0.50001273  1.0
  C  C82  1  0.44404907  0.55595720  0.49998761  1.0
  C  C83  1  0.05167540  0.55167478  0.50000078  1.0
  C  C84  1  0.94408668  0.44408708  0.50000081  1.0
  C  C85  1  0.06535965  0.57430491  0.23238105  1.0
  C  C86  1  0.34192447  0.83297542  0.76761725  1.0
  C  C87  1  0.65966806  0.06674939  0.23232956  1.0
  C  C88  1  0.93267323  0.43264669  0.86532496  1.0
  C  C89  1  0.06738944  0.56734548  0.13471712  1.0
  C  C90  1  0.43262955  0.93266370  0.86528184  1.0
  C  C91  1  0.56732143  0.06734065  0.13467473  1.0
  C  C92  1  0.96612088  0.37363343  0.83196162  1.0
  C  C93  1  0.13557628  0.62466084  0.16811622  1.0
  C  C94  1  0.45654647  0.96745308  0.83188434  1.0
  C  C95  1  0.54167006  0.13415449  0.16803651  1.0
  C  C96  1  0.86586844  0.45830201  0.83198688  1.0
  C  C97  1  0.03251533  0.54340809  0.16805738  1.0
  C  C98  1  0.37534843  0.86445220  0.83193995  1.0
  C  C99  1  0.62631575  0.03387788  0.16801433  1.0
  C  C100  1  0.86750026  0.36749004  0.73497412  1.0
  C  C101  1  0.13250383  0.63253111  0.26508388  1.0
  C  C102  1  0.36745068  0.86741673  0.73491533  1.0
  C  C103  1  0.63251806  0.13252489  0.26502572  1.0
  C  C104  1  0.98550454  0.54978763  0.96738841  1.0
  C  C105  1  0.01574947  0.45018639  0.03263094  1.0
  C  C106  1  0.41755613  0.98310226  0.96736743  1.0
  C  C107  1  0.58239948  0.01810450  0.03261108  1.0
  C  C108  1  0.98197995  0.41757153  0.96738327  1.0
  C  C109  1  0.01700263  0.58244948  0.03264380  1.0
  C  C110  1  0.54980545  0.98434620  0.96735457  1.0
  C  C111  1  0.45018816  0.01458568  0.03261527  1.0
  C  C112  1  0.03309065  0.53301029  0.06602818  1.0
  C  C113  1  0.96703236  0.46698648  0.93400461  1.0
  C  C114  1  0.53298123  0.03301896  0.06599462  1.0
  C  C115  1  0.46698216  0.96704689  0.93397010  1.0
  C  C116  1  0.33297159  0.83307089  0.66613916  1.0
  C  C117  1  0.66698118  0.16686418  0.33380304  1.0
  C  C118  1  0.83306258  0.33317394  0.66619664  1.0
  C  C119  1  0.16693205  0.66682998  0.33385942  1.0
  C  C120  1  0.39081407  0.89082105  0.49999705  1.0
  C  C121  1  0.61349191  0.11348801  0.50000136  1.0
  C  C122  1  0.60918266  0.39083814  0.50000919  1.0
  C  C123  1  0.38647598  0.61353625  0.49999778  1.0
  C  C124  1  0.10917298  0.60917037  0.49999862  1.0
  C  C125  1  0.88652345  0.38652588  0.50000138  1.0
  C  C126  1  0.89082442  0.10916921  0.49999436  1.0
  C  C127  1  0.11354005  0.88648124  0.49999864  1.0
  N  N128  1  0.97315454  0.59985753  0.93325572  1.0
  N  N129  1  0.03511602  0.39997439  0.06675032  1.0
  N  N130  1  0.33322460  0.96835497  0.93324797  1.0
  N  N131  1  0.66666667  0.03988435  0.06674283  1.0
  N  N132  1  0.96016255  0.33337380  0.93325441  1.0
  N  N133  1  0.03167397  0.66677880  0.06675192  1.0
  N  N134  1  0.60002811  0.96492143  0.93324720  1.0
  N  N135  1  0.40011910  0.02689840  0.06674450  1.0
  O  O136  1  0.24996957  0.74997129  0.49999766  1.0
  O  O137  1  0.62236410  0.20199595  0.36079375  1.0
  O  O138  1  0.79793408  0.37782611  0.63924622  1.0
  O  O139  1  0.15834180  0.62231888  0.36079455  1.0
  O  O140  1  0.26152541  0.79754868  0.63920466  1.0
  O  O141  1  0.73857843  0.15868994  0.36075363  1.0
  O  O142  1  0.84120380  0.26157251  0.63920687  1.0
  O  O143  1  0.20254390  0.73825295  0.36085931  1.0
  O  O144  1  0.37739618  0.84168007  0.63913913  1.0
  O  O145  1  0.75000502  0.25000741  0.50000118  1.0
  O  O146  1  0.41928754  0.85052715  0.53263886  1.0
  O  O147  1  0.58745088  0.14247434  0.45884127  1.0
  O  O148  1  0.68208164  0.41928595  0.53274788  1.0
  O  O149  1  0.31636758  0.58749679  0.45880269  1.0
  O  O150  1  0.11334559  0.68209662  0.53265479  1.0
  O  O151  1  0.87146386  0.31635962  0.45887601  1.0
  O  O152  1  0.85068128  0.11349958  0.53275956  1.0
  O  O153  1  0.14246101  0.87127496  0.45879596  1.0
  O  O154  1  0.88653392  0.14933440  0.46725336  1.0
  O  O155  1  0.12869778  0.85756648  0.54119740  1.0
  O  O156  1  0.14943987  0.58069087  0.46734652  1.0
  O  O157  1  0.85748304  0.41259091  0.54112478  1.0
  O  O158  1  0.58074511  0.31792301  0.46724218  1.0
  O  O159  1  0.41247552  0.68366463  0.54120204  1.0
  O  O160  1  0.31788808  0.88665158  0.46735834  1.0
  O  O161  1  0.68362762  0.12860792  0.54115659  1.0
