# generated using pymatgen
data_Al4H16C36(SO12)3
_symmetry_space_group_name_H-M   'P 1'
_cell_length_a   6.98406824
_cell_length_b   16.31446073
_cell_length_c   18.56874471
_cell_angle_alpha   106.60698865
_cell_angle_beta   90.35211376
_cell_angle_gamma   90.73053868
_symmetry_Int_Tables_number   1
_chemical_formula_structural   Al4H16C36(SO12)3
_chemical_formula_sum   'Al4 H16 C36 S3 O36'
_cell_volume   2027.22380233
_cell_formula_units_Z   1
loop_
 _symmetry_equiv_pos_site_id
 _symmetry_equiv_pos_as_xyz
  1  'x, y, z'
loop_
 _atom_site_type_symbol
 _atom_site_label
 _atom_site_symmetry_multiplicity
 _atom_site_fract_x
 _atom_site_fract_y
 _atom_site_fract_z
 _atom_site_occupancy
  Al  Al0  1  0.14211712  0.49538102  0.50110371  1.0
  Al  Al1  1  0.64321575  0.49717337  0.50170743  1.0
  Al  Al2  1  0.61529177  0.99695990  0.00282049  1.0
  Al  Al3  1  0.11824283  0.99539897  0.00124660  1.0
  H  H4  1  0.69727547  0.78967065  0.80735521  1.0
  H  H5  1  0.17290559  0.70443718  0.83724148  1.0
  H  H6  1  0.03242281  0.16043492  0.36604939  1.0
  H  H7  1  0.65634881  0.60275790  0.75712748  1.0
  H  H8  1  0.01116264  0.85951069  0.71500025  1.0
  H  H9  1  0.58351007  0.14145950  0.31654581  1.0
  H  H10  1  0.56112860  0.33119635  0.14309635  1.0
  H  H11  1  0.87884934  0.34092103  0.12213146  1.0
  H  H12  1  0.22374807  0.36065088  0.19096769  1.0
  H  H13  1  0.35880476  0.27638370  0.32119692  1.0
  H  H14  1  0.31102910  0.90061176  0.67752833  1.0
  H  H15  1  0.71036407  0.82506865  0.66258414  1.0
  H  H16  1  0.39080571  0.39044410  0.50587374  1.0
  H  H17  1  0.90145516  0.60803577  0.53312463  1.0
  H  H18  1  0.36925682  0.09862933  0.05969282  1.0
  H  H19  1  0.86377758  0.89535407  0.01425412  1.0
  C  C20  1  0.39176373  0.61107109  0.61419714  1.0
  C  C21  1  0.39684312  0.58392685  0.42003341  1.0
  C  C22  1  0.89088945  0.39118912  0.38279696  1.0
  C  C23  1  0.88704229  0.40508795  0.58182896  1.0
  C  C24  1  0.88778565  0.35542854  0.63481551  1.0
  C  C25  1  0.88609805  0.31305024  0.67977701  1.0
  C  C26  1  0.88316719  0.26631831  0.72861653  1.0
  C  C27  1  0.87912271  0.22288723  0.77320690  1.0
  C  C28  1  0.87458331  0.17551595  0.82153024  1.0
  C  C29  1  0.87031853  0.13216096  0.86568753  1.0
  C  C30  1  0.75474695  0.19092354  0.26021557  1.0
  C  C31  1  0.93308606  0.23248271  0.30889116  1.0
  C  C32  1  0.88565654  0.32489032  0.30764709  1.0
  C  C33  1  0.70118093  0.29109822  0.25910199  1.0
  C  C34  1  0.82526304  0.27231508  0.18671553  1.0
  C  C35  1  0.00548410  0.31195823  0.23270854  1.0
  C  C36  1  0.05814904  0.21745798  0.23569175  1.0
  C  C37  1  0.87543046  0.18015825  0.18744900  1.0
  C  C38  1  0.49156254  0.77810002  0.69989968  1.0
  C  C39  1  0.30633425  0.82095815  0.73629886  1.0
  C  C40  1  0.37029549  0.81532602  0.81562711  1.0
  C  C41  1  0.55857186  0.77234143  0.77990382  1.0
  C  C42  1  0.45701519  0.68276434  0.76359592  1.0
  C  C43  1  0.26593582  0.72523203  0.79853713  1.0
  C  C44  1  0.20388339  0.73107916  0.71906265  1.0
  C  C45  1  0.38878078  0.68672692  0.68163798  1.0
  C  C46  1  0.39243995  0.63338448  0.36712319  1.0
  C  C47  1  0.38548793  0.67624334  0.32268432  1.0
  C  C48  1  0.37834810  0.72351153  0.27443630  1.0
  C  C49  1  0.37207555  0.76743827  0.23033525  1.0
  C  C50  1  0.36723015  0.81481465  0.18213340  1.0
  C  C51  1  0.36412284  0.85794411  0.13782631  1.0
  C  C52  1  0.36460859  0.90671361  0.08451838  1.0
  C  C53  1  0.36371602  0.88576143  0.88712111  1.0
  C  C54  1  0.86880914  0.08220087  0.91841819  1.0
  C  C55  1  0.87148954  0.10777159  0.11663264  1.0
  S  S56  1  0.97685599  0.72190307  0.67855101  1.0
  S  S57  1  0.53803961  0.37362225  0.26384485  1.0
  S  S58  1  0.26902176  0.16150809  0.23363935  1.0
  O  O59  1  0.56127124  0.56120825  0.43622978  1.0
  O  O60  1  0.22904973  0.57534990  0.59326441  1.0
  O  O61  1  0.04989859  0.41871191  0.55650363  1.0
  O  O62  1  0.23501165  0.56927552  0.44546934  1.0
  O  O63  1  0.05591533  0.41715282  0.40828631  1.0
  O  O64  1  0.55470285  0.58826497  0.58568336  1.0
  O  O65  1  0.39183159  0.44389731  0.49271960  1.0
  O  O66  1  0.73016623  0.40840208  0.41510844  1.0
  O  O67  1  0.72254151  0.42901691  0.56625160  1.0
  O  O68  1  0.89454591  0.54598821  0.51155013  1.0
  O  O69  1  0.19938126  0.91035872  0.91314070  1.0
  O  O70  1  0.52974228  0.92542112  0.06390956  1.0
  O  O71  1  0.70655139  0.08215463  0.09045822  1.0
  O  O72  1  0.52614642  0.91428299  0.91520222  1.0
  O  O73  1  0.70487909  0.06461286  0.94011729  1.0
  O  O74  1  0.20035236  0.92452574  0.06278867  1.0
  O  O75  1  0.36784323  0.04901265  0.01520487  1.0
  O  O76  1  0.03261219  0.06193424  0.93785390  1.0
  O  O77  1  0.03423817  0.08350803  0.08882470  1.0
  O  O78  1  0.86502312  0.94475746  0.99491651  1.0
  O  O79  1  0.98000540  0.21780389  0.37591459  1.0
  O  O80  1  0.52853682  0.61188734  0.77923850  1.0
  O  O81  1  0.98832663  0.71736187  0.59994811  1.0
  O  O82  1  0.85455561  0.66444443  0.70363097  1.0
  O  O83  1  0.90654672  0.81845400  0.72097691  1.0
  O  O84  1  0.65898136  0.12291888  0.27058250  1.0
  O  O85  1  0.37607689  0.37067426  0.31145441  1.0
  O  O86  1  0.64653074  0.45136730  0.27438788  1.0
  O  O87  1  0.45112596  0.34751044  0.17956073  1.0
  O  O88  1  0.78091209  0.29658596  0.12255668  1.0
  O  O89  1  0.08898111  0.37302638  0.20556780  1.0
  O  O90  1  0.22203385  0.07775379  0.23995144  1.0
  O  O91  1  0.39061842  0.17308769  0.17490606  1.0
  O  O92  1  0.35050292  0.21258097  0.31560028  1.0
  O  O93  1  0.23384295  0.89233448  0.71907347  1.0
  O  O94  1  0.57466504  0.81344573  0.64841122  1.0
