# generated using pymatgen
data_Al4H11C32O20F
_symmetry_space_group_name_H-M   'P 1'
_cell_length_a   6.69360482
_cell_length_b   16.36375562
_cell_length_c   18.85578651
_cell_angle_alpha   106.14869981
_cell_angle_beta   89.94658577
_cell_angle_gamma   89.67936162
_symmetry_Int_Tables_number   1
_chemical_formula_structural   Al4H11C32O20F
_chemical_formula_sum   'Al4 H11 C32 O20 F1'
_cell_volume   1983.79277057
_cell_formula_units_Z   1
loop_
 _symmetry_equiv_pos_site_id
 _symmetry_equiv_pos_as_xyz
  1  'x, y, z'
loop_
 _atom_site_type_symbol
 _atom_site_label
 _atom_site_symmetry_multiplicity
 _atom_site_fract_x
 _atom_site_fract_y
 _atom_site_fract_z
 _atom_site_occupancy
  Al  Al0  1  0.88408633  0.50019352  0.49843933  1.0
  Al  Al1  1  0.38411537  0.49841786  0.49697406  1.0
  Al  Al2  1  0.38165414  0.00012169  0.99979149  1.0
  Al  Al3  1  0.88204529  0.00053112  0.99953730  1.0
  H  H4  1  0.45211877  0.30285499  0.31120858  1.0
  H  H5  1  0.45020905  0.18522916  0.19170889  1.0
  H  H6  1  0.80982420  0.19673467  0.18745593  1.0
  H  H7  1  0.81174408  0.31483338  0.30669084  1.0
  H  H8  1  0.94351002  0.70233313  0.68033328  1.0
  H  H9  1  0.95109690  0.81907891  0.79896871  1.0
  H  H10  1  0.31456047  0.79703236  0.81945829  1.0
  H  H11  1  0.63715725  0.39893310  0.51208446  1.0
  H  H12  1  0.13692048  0.60707006  0.54208465  1.0
  H  H13  1  0.62990894  0.10576613  0.99552202  1.0
  H  H14  1  0.13209301  0.89732287  0.00886099  1.0
  C  C15  1  0.63095581  0.58381749  0.41174817  1.0
  C  C16  1  0.63162944  0.61607281  0.61059488  1.0
  C  C17  1  0.13679935  0.41227809  0.58401584  1.0
  C  C18  1  0.13261058  0.38471004  0.38582490  1.0
  C  C19  1  0.31281672  0.27900239  0.28341449  1.0
  C  C20  1  0.31177105  0.21422484  0.21758048  1.0
  C  C21  1  0.12998371  0.18493088  0.18304530  1.0
  C  C22  1  0.94912522  0.22070444  0.21516474  1.0
  C  C23  1  0.95009767  0.28564735  0.28088514  1.0
  C  C24  1  0.13197925  0.31514063  0.31524221  1.0
  C  C25  1  0.13189009  0.13603410  0.86161977  1.0
  C  C26  1  0.13211194  0.17992643  0.81841165  1.0
  C  C27  1  0.13260557  0.22786328  0.77116335  1.0
  C  C28  1  0.13384421  0.27209303  0.72778984  1.0
  C  C29  1  0.13516592  0.31986132  0.68041777  1.0
  C  C30  1  0.13611791  0.36319584  0.63676740  1.0
  C  C31  1  0.63171305  0.63430459  0.36007368  1.0
  C  C32  1  0.63193550  0.67852091  0.31714220  1.0
  C  C33  1  0.63265120  0.72699135  0.27031162  1.0
  C  C34  1  0.63338123  0.77183148  0.22741856  1.0
  C  C35  1  0.63348643  0.82020763  0.18050357  1.0
  C  C36  1  0.63386619  0.86419617  0.13736466  1.0
  C  C37  1  0.80686550  0.72406605  0.71116401  1.0
  C  C38  1  0.81141116  0.78856493  0.77698850  1.0
  C  C39  1  0.63369059  0.81546541  0.81612723  1.0
  C  C40  1  0.45284385  0.77687214  0.78896369  1.0
  C  C41  1  0.45226641  0.71225836  0.72331993  1.0
  C  C42  1  0.62730877  0.68429788  0.68226626  1.0
  C  C43  1  0.63488370  0.88446605  0.88737436  1.0
  C  C44  1  0.63225361  0.91426731  0.08555501  1.0
  C  C45  1  0.12935147  0.11629735  0.11180060  1.0
  C  C46  1  0.13224907  0.08581681  0.91333905  1.0
  O  O47  1  0.46549197  0.59130702  0.57943818  1.0
  O  O48  1  0.80022908  0.56837983  0.43583953  1.0
  O  O49  1  0.96401580  0.41434699  0.41253809  1.0
  O  O50  1  0.80378389  0.58877449  0.58531937  1.0
  O  O51  1  0.96625836  0.42949207  0.56169163  1.0
  O  O52  1  0.46093177  0.56054471  0.42872229  1.0
  O  O53  1  0.63547961  0.44825890  0.49307920  1.0
  O  O54  1  0.30783194  0.43239533  0.56466032  1.0
  O  O55  1  0.30170745  0.40885388  0.41490556  1.0
  O  O56  1  0.13405416  0.55067680  0.50763630  1.0
  O  O57  1  0.80167015  0.93241613  0.06329830  1.0
  O  O58  1  0.46549384  0.90917007  0.91659552  1.0
  O  O59  1  0.30258758  0.06480959  0.93284588  1.0
  O  O60  1  0.46137251  0.93499464  0.06622136  1.0
  O  O61  1  0.29885861  0.09059996  0.08298743  1.0
  O  O62  1  0.80469091  0.91192839  0.91346423  1.0
  O  O63  1  0.63098146  0.05101949  0.00592631  1.0
  O  O64  1  0.95971322  0.08951212  0.08461338  1.0
  O  O65  1  0.96228977  0.06782376  0.93515849  1.0
  O  O66  1  0.13232439  0.94900930  0.99328198  1.0
  F  F67  1  0.27310635  0.67544108  0.70050733  1.0
