# generated using pymatgen
data_CuH3C9N2
_symmetry_space_group_name_H-M   'P 1'
_cell_length_a   35.68750276
_cell_length_b   36.05797221
_cell_length_c   36.04575201
_cell_angle_alpha   89.99228743
_cell_angle_beta   89.99690316
_cell_angle_gamma   89.96705859
_symmetry_Int_Tables_number   1
_chemical_formula_structural   CuH3C9N2
_chemical_formula_sum   'Cu12 H36 C108 N24'
_cell_volume   46384.34978048
_cell_formula_units_Z   12
loop_
 _symmetry_equiv_pos_site_id
 _symmetry_equiv_pos_as_xyz
  1  'x, y, z'
loop_
 _atom_site_type_symbol
 _atom_site_label
 _atom_site_symmetry_multiplicity
 _atom_site_fract_x
 _atom_site_fract_y
 _atom_site_fract_z
 _atom_site_occupancy
  Cu  Cu0  1  0.37504007  0.59100500  0.65944403  1.0
  Cu  Cu1  1  0.33857984  0.62656048  0.58756656  1.0
  Cu  Cu2  1  0.41155730  0.66315177  0.62393221  1.0
  Cu  Cu3  1  0.62570071  0.90912535  0.16003985  1.0
  Cu  Cu4  1  0.66141691  0.87418307  0.08731519  1.0
  Cu  Cu5  1  0.58846664  0.83802551  0.12378083  1.0
  Cu  Cu6  1  0.87477193  0.40934164  0.84023948  1.0
  Cu  Cu7  1  0.83806312  0.37372686  0.91217138  1.0
  Cu  Cu8  1  0.91119630  0.33711882  0.87571227  1.0
  Cu  Cu9  1  0.12410966  0.08936164  0.34132204  1.0
  Cu  Cu10  1  0.16146335  0.12569214  0.41270583  1.0
  Cu  Cu11  1  0.08832963  0.16184371  0.37630176  1.0
  H  H12  1  0.32047628  0.52282709  0.67302805  1.0
  H  H13  1  0.26999853  0.57079935  0.57464475  1.0
  H  H14  1  0.47997050  0.67606710  0.67942775  1.0
  H  H15  1  0.42981112  0.57758185  0.72738782  1.0
  H  H16  1  0.32562547  0.68162545  0.51978679  1.0
  H  H17  1  0.42456243  0.73088528  0.56920125  1.0
  H  H18  1  0.68074117  0.97666038  0.17379511  1.0
  H  H19  1  0.72950721  0.92993041  0.07397311  1.0
  H  H20  1  0.51943792  0.82573943  0.17899939  1.0
  H  H21  1  0.57139085  0.92259086  0.22835848  1.0
  H  H22  1  0.67419178  0.81967954  0.01933059  1.0
  H  H23  1  0.57509911  0.77050802  0.06856816  1.0
  H  H24  1  0.82004017  0.47756834  0.82679341  1.0
  H  H25  1  0.76950708  0.42948022  0.92504066  1.0
  H  H26  1  0.97981711  0.32421652  0.82018346  1.0
  H  H27  1  0.92975470  0.42281783  0.77228978  1.0
  H  H28  1  0.82499305  0.31868036  0.97981925  1.0
  H  H29  1  0.92396519  0.26925479  0.93055335  1.0
  H  H30  1  0.17872693  0.02129810  0.32806999  1.0
  H  H31  1  0.23048766  0.07077454  0.42499668  1.0
  H  H32  1  0.01995531  0.17502219  0.32027160  1.0
  H  H33  1  0.06907498  0.07539360  0.27357504  1.0
  H  H34  1  0.17484503  0.18068665  0.48015928  1.0
  H  H35  1  0.07561291  0.22987885  0.43111247  1.0
  H  H36  1  0.82579894  0.12398687  0.07587940  1.0
  H  H37  1  0.92392466  0.17350483  0.12549109  1.0
  H  H38  1  0.87479270  0.07541045  0.17403852  1.0
  H  H39  1  0.17449004  0.37559810  0.57612436  1.0
  H  H40  1  0.07638667  0.32592664  0.62560069  1.0
  H  H41  1  0.12520117  0.42413477  0.67419378  1.0
  H  H42  1  0.32627289  0.87606435  0.42386753  1.0
  H  H43  1  0.42454021  0.82666756  0.37431958  1.0
  H  H44  1  0.37519801  0.92467152  0.32571126  1.0
  H  H45  1  0.62483815  0.57630666  0.82560926  1.0
  H  H46  1  0.57587903  0.67456669  0.87397737  1.0
  H  H47  1  0.67394221  0.62494262  0.92370318  1.0
  C  C48  1  0.31290977  0.53933816  0.64900391  1.0
  C  C49  1  0.28295511  0.53439863  0.62393175  1.0
  C  C50  1  0.28710185  0.56393461  0.59855492  1.0
  C  C51  1  0.46293066  0.65213066  0.68629133  1.0
  C  C52  1  0.46715460  0.62671831  0.71576015  1.0
  C  C53  1  0.43726841  0.60161423  0.71087642  1.0
  C  C54  1  0.34971772  0.68882030  0.53664300  1.0
  C  C55  1  0.37508741  0.71849242  0.53226536  1.0
  C  C56  1  0.40046300  0.71405769  0.56193562  1.0
  C  C57  1  0.68786442  0.96044502  0.14944899  1.0
  C  C58  1  0.71734463  0.96565632  0.12393175  1.0
  C  C59  1  0.71281646  0.93649028  0.09825148  1.0
  C  C60  1  0.53692815  0.84924629  0.18618859  1.0
  C  C61  1  0.53310499  0.87435974  0.21596202  1.0
  C  C62  1  0.56351713  0.89891771  0.21151916  1.0
  C  C63  1  0.65006746  0.81245435  0.03614658  1.0
  C  C64  1  0.62458463  0.78290363  0.03166177  1.0
  C  C65  1  0.59924359  0.78729041  0.06137803  1.0
  C  C66  1  0.81249782  0.46100199  0.85077454  1.0
  C  C67  1  0.78249567  0.46591266  0.87580504  1.0
  C  C68  1  0.78664373  0.43635599  0.90115782  1.0
  C  C69  1  0.96278812  0.34818327  0.81333206  1.0
  C  C70  1  0.96710104  0.37362431  0.78387927  1.0
  C  C71  1  0.93717886  0.39875112  0.78877748  1.0
  C  C72  1  0.84911769  0.31143801  0.96300437  1.0
  C  C73  1  0.87445121  0.28171082  0.96741633  1.0
  C  C74  1  0.89987239  0.28613459  0.93776602  1.0
  C  C75  1  0.18652884  0.03815858  0.35174925  1.0
  C  C76  1  0.21693301  0.03378729  0.37635417  1.0
  C  C77  1  0.21301427  0.06352394  0.40147128  1.0
  C  C78  1  0.03672470  0.15079644  0.31374821  1.0
  C  C79  1  0.03224101  0.12511854  0.28453131  1.0
  C  C80  1  0.06184147  0.09970201  0.28979447  1.0
  C  C81  1  0.15063163  0.18788945  0.46344144  1.0
  C  C82  1  0.12524673  0.21757232  0.46788043  1.0
  C  C83  1  0.09975201  0.21306893  0.43830402  1.0
  C  C84  1  0.84712246  0.09651548  0.12494470  1.0
  C  C85  1  0.84723670  0.12416991  0.09736977  1.0
  C  C86  1  0.87488116  0.15200395  0.09742994  1.0
  C  C87  1  0.90250878  0.15202744  0.12534284  1.0
  C  C88  1  0.90264767  0.12449117  0.15305607  1.0
  C  C89  1  0.87485258  0.09678579  0.15270698  1.0
  C  C90  1  0.15311628  0.40316804  0.62514965  1.0
  C  C91  1  0.15304382  0.37544718  0.59760660  1.0
  C  C92  1  0.12544783  0.34754021  0.59763081  1.0
  C  C93  1  0.09776235  0.34745643  0.62548563  1.0
  C  C94  1  0.09752800  0.37500755  0.65316723  1.0
  C  C95  1  0.12528008  0.40278445  0.65284630  1.0
  C  C96  1  0.34751301  0.90356462  0.37480217  1.0
  C  C97  1  0.34770082  0.87592213  0.40237452  1.0
  C  C98  1  0.37541494  0.84812602  0.40233139  1.0
  C  C99  1  0.40305426  0.84810635  0.37446435  1.0
  C  C100  1  0.40309805  0.87564901  0.34677537  1.0
  C  C101  1  0.37526083  0.90331810  0.34706146  1.0
  C  C102  1  0.65270052  0.59730164  0.87468043  1.0
  C  C103  1  0.62491644  0.59765948  0.84694797  1.0
  C  C104  1  0.59717404  0.62545142  0.84657604  1.0
  C  C105  1  0.59729418  0.65304637  0.87418489  1.0
  C  C106  1  0.62492891  0.65295698  0.90206147  1.0
  C  C107  1  0.65254827  0.62505410  0.90218171  1.0
  C  C108  1  0.74474333  0.99338330  0.12411163  1.0
  C  C109  1  0.76876046  0.01771003  0.12432104  1.0
  C  C110  1  0.79519225  0.04439278  0.12453183  1.0
  C  C111  1  0.81930162  0.06861763  0.12472768  1.0
  C  C112  1  0.25550540  0.50660040  0.62422957  1.0
  C  C113  1  0.23147480  0.48222969  0.62452790  1.0
  C  C114  1  0.20502703  0.45546875  0.62477709  1.0
  C  C115  1  0.18093144  0.43117791  0.62495995  1.0
  C  C116  1  0.24458921  0.00627071  0.37592396  1.0
  C  C117  1  0.26882595  0.98213109  0.37554307  1.0
  C  C118  1  0.29542029  0.95557816  0.37522381  1.0
  C  C119  1  0.31962529  0.93142201  0.37500052  1.0
  C  C120  1  0.75500317  0.49370101  0.87550125  1.0
  C  C121  1  0.73096426  0.51808262  0.87521441  1.0
  C  C122  1  0.70454695  0.54489791  0.87500136  1.0
  C  C123  1  0.68050316  0.56926011  0.87489846  1.0
  C  C124  1  0.00481550  0.12488181  0.25670486  1.0
  C  C125  1  0.98082867  0.12466285  0.23228051  1.0
  C  C126  1  0.95445931  0.12456158  0.20544817  1.0
  C  C127  1  0.93045759  0.12458844  0.18105952  1.0
  C  C128  1  0.49465003  0.62645029  0.74345135  1.0
  C  C129  1  0.51872736  0.62617662  0.76775438  1.0
  C  C130  1  0.54522346  0.62589961  0.79440764  1.0
  C  C131  1  0.56934873  0.62565616  0.81864578  1.0
  C  C132  1  0.99468679  0.37390111  0.75619691  1.0
  C  C133  1  0.01884467  0.37418924  0.73193627  1.0
  C  C134  1  0.04542959  0.37449207  0.70530886  1.0
  C  C135  1  0.06961476  0.37477095  0.68109406  1.0
  C  C136  1  0.50554121  0.87482952  0.24358185  1.0
  C  C137  1  0.48143932  0.87522789  0.26786151  1.0
  C  C138  1  0.45497226  0.87546587  0.29453939  1.0
  C  C139  1  0.43091148  0.87554559  0.31883993  1.0
  C  C140  1  0.87443728  0.25419034  0.99486119  1.0
  C  C141  1  0.87449165  0.23009327  0.01892960  1.0
  C  C142  1  0.87463961  0.20368237  0.04544555  1.0
  C  C143  1  0.87484311  0.17970912  0.06961549  1.0
  C  C144  1  0.37513077  0.74598157  0.50483107  1.0
  C  C145  1  0.37523398  0.77005329  0.48075508  1.0
  C  C146  1  0.37534969  0.79645091  0.45425733  1.0
  C  C147  1  0.37544851  0.82043583  0.43011727  1.0
  C  C148  1  0.62453519  0.75551446  0.00413782  1.0
  C  C149  1  0.62458246  0.73146295  0.98004974  1.0
  C  C150  1  0.62469470  0.70495436  0.95366901  1.0
  C  C151  1  0.62487036  0.68076963  0.92973676  1.0
  C  C152  1  0.12535919  0.24509988  0.49531313  1.0
  C  C153  1  0.12545923  0.26916760  0.51940399  1.0
  C  C154  1  0.12549743  0.29565069  0.54585085  1.0
  C  C155  1  0.12549716  0.31977054  0.56987339  1.0
  N  N156  1  0.31702984  0.58457243  0.60792209  1.0
  N  N157  1  0.33299866  0.56928921  0.63917503  1.0
  N  N158  1  0.41709123  0.61145483  0.68097110  1.0
  N  N159  1  0.43298892  0.64272460  0.66573310  1.0
  N  N160  1  0.39079776  0.68421491  0.58213137  1.0
  N  N161  1  0.35936288  0.66854234  0.56646870  1.0
  N  N162  1  0.68306498  0.91577332  0.10788724  1.0
  N  N163  1  0.66762469  0.93063188  0.13956863  1.0
  N  N164  1  0.58358449  0.88904489  0.18156186  1.0
  N  N165  1  0.56714274  0.85829695  0.16584292  1.0
  N  N166  1  0.60901822  0.81699746  0.08172420  1.0
  N  N167  1  0.64049422  0.83258259  0.06606698  1.0
  N  N168  1  0.81661037  0.41573759  0.89180923  1.0
  N  N169  1  0.83263255  0.43103776  0.86058771  1.0
  N  N170  1  0.91692622  0.38890428  0.81864262  1.0
  N  N171  1  0.93279768  0.35757822  0.83387778  1.0
  N  N172  1  0.89027962  0.31601107  0.91754593  1.0
  N  N173  1  0.85882327  0.33171583  0.93319889  1.0
  N  N174  1  0.18274324  0.08377720  0.39237316  1.0
  N  N175  1  0.16634514  0.06805367  0.36159579  1.0
  N  N176  1  0.08206558  0.10963347  0.31963705  1.0
  N  N177  1  0.06651993  0.14127769  0.33452294  1.0
  N  N178  1  0.10932705  0.18317927  0.41808964  1.0
  N  N179  1  0.14084878  0.16759106  0.43370392  1.0
