# generated using pymatgen
data_Cu2H7(C5N)4
_symmetry_space_group_name_H-M   'P 1'
_cell_length_a   33.80482491
_cell_length_b   33.96214465
_cell_length_c   34.92276111
_cell_angle_alpha   89.99585154
_cell_angle_beta   89.87937312
_cell_angle_gamma   89.92141274
_symmetry_Int_Tables_number   1
_chemical_formula_structural   Cu2H7(C5N)4
_chemical_formula_sum   'Cu12 H42 C120 N24'
_cell_volume   40094.14894079
_cell_formula_units_Z   6
loop_
 _symmetry_equiv_pos_site_id
 _symmetry_equiv_pos_as_xyz
  1  'x, y, z'
loop_
 _atom_site_type_symbol
 _atom_site_label
 _atom_site_symmetry_multiplicity
 _atom_site_fract_x
 _atom_site_fract_y
 _atom_site_fract_z
 _atom_site_occupancy
  Cu  Cu0  1  0.21733833  0.21792310  0.15534914  1.0
  Cu  Cu1  1  0.21740603  0.15146979  0.21932833  1.0
  Cu  Cu2  1  0.15018535  0.21755052  0.21897258  1.0
  Cu  Cu3  1  0.78287798  0.21788569  0.84516983  1.0
  Cu  Cu4  1  0.78289320  0.15130958  0.78120721  1.0
  Cu  Cu5  1  0.84962542  0.21765765  0.78125936  1.0
  Cu  Cu6  1  0.21693318  0.78258676  0.84510536  1.0
  Cu  Cu7  1  0.21730719  0.84896503  0.78083812  1.0
  Cu  Cu8  1  0.15034347  0.78280293  0.78139619  1.0
  Cu  Cu9  1  0.78288649  0.78249824  0.15510009  1.0
  Cu  Cu10  1  0.78296513  0.84914018  0.21902723  1.0
  Cu  Cu11  1  0.84950499  0.78239154  0.21890321  1.0
  H  H12  1  0.28694620  0.18769859  0.10185311  1.0
  H  H13  1  0.28694277  0.09646943  0.18872218  1.0
  H  H14  1  0.09484823  0.28666765  0.18838417  1.0
  H  H15  1  0.18751332  0.28775778  0.10235270  1.0
  H  H16  1  0.18769886  0.09799778  0.28806981  1.0
  H  H17  1  0.09598540  0.18739644  0.28716857  1.0
  H  H18  1  0.71397404  0.18733995  0.89916349  1.0
  H  H19  1  0.71368200  0.09626246  0.81213870  1.0
  H  H20  1  0.90465667  0.28705647  0.81134303  1.0
  H  H21  1  0.81242816  0.28805500  0.89782243  1.0
  H  H22  1  0.81268998  0.09797054  0.71224582  1.0
  H  H23  1  0.90398733  0.18752935  0.71318508  1.0
  H  H24  1  0.28503781  0.81379582  0.89938612  1.0
  H  H25  1  0.28617789  0.90428099  0.81178306  1.0
  H  H26  1  0.09542077  0.71316778  0.81144820  1.0
  H  H27  1  0.18785668  0.71166974  0.89733350  1.0
  H  H28  1  0.18820589  0.90168085  0.71125508  1.0
  H  H29  1  0.09581582  0.81326279  0.71379336  1.0
  H  H30  1  0.71388997  0.81322805  0.10146070  1.0
  H  H31  1  0.71371596  0.90436038  0.18842076  1.0
  H  H32  1  0.90431902  0.71256980  0.18885695  1.0
  H  H33  1  0.81252526  0.71224448  0.10231048  1.0
  H  H34  1  0.81294410  0.90257715  0.28763374  1.0
  H  H35  1  0.90391992  0.81242472  0.28673228  1.0
  H  H36  1  0.95572491  0.95395171  0.47402821  1.0
  H  H37  1  0.04427843  0.04517941  0.47418572  1.0
  H  H38  1  0.04423820  0.95387716  0.52573451  1.0
  H  H39  1  0.95575297  0.04540895  0.52569833  1.0
  H  H40  1  0.00044253  0.99958503  0.36699560  1.0
  H  H41  1  0.00021904  0.00012934  0.63283320  1.0
  H  H42  1  0.47308489  0.95657998  0.95463875  1.0
  H  H43  1  0.47339339  0.04292251  0.04509342  1.0
  H  H44  1  0.52670067  0.04300617  0.95474892  1.0
  H  H45  1  0.52650075  0.95652118  0.04507157  1.0
  H  H46  1  0.36255562  0.00021825  0.00017539  1.0
  H  H47  1  0.63728122  0.00046140  0.00069134  1.0
  H  H48  1  0.95740561  0.47334638  0.95396287  1.0
  H  H49  1  0.04261523  0.47320953  0.04559779  1.0
  H  H50  1  0.95748947  0.52646412  0.04580255  1.0
  H  H51  1  0.04261997  0.52635733  0.95377777  1.0
  H  H52  1  0.99998401  0.36310688  0.99976325  1.0
  H  H53  1  0.00022419  0.63658123  0.99992595  1.0
  C  C54  1  0.28194072  0.16909573  0.12663142  1.0
  C  C55  1  0.29998233  0.13294350  0.13620131  1.0
  C  C56  1  0.28192208  0.12232462  0.17115058  1.0
  C  C57  1  0.12104980  0.28191837  0.17100236  1.0
  C  C58  1  0.13209404  0.30027587  0.13636161  1.0
  C  C59  1  0.16855306  0.28247664  0.12690614  1.0
  C  C60  1  0.16889518  0.12333735  0.28289838  1.0
  C  C61  1  0.13288864  0.13377478  0.30070081  1.0
  C  C62  1  0.12188491  0.16915028  0.28240094  1.0
  C  C63  1  0.71886393  0.16876099  0.87433892  1.0
  C  C64  1  0.70081165  0.13265426  0.86479138  1.0
  C  C65  1  0.71872412  0.12207830  0.82974036  1.0
  C  C66  1  0.87856425  0.28229350  0.82885499  1.0
  C  C67  1  0.86759569  0.30066914  0.86351787  1.0
  C  C68  1  0.83129065  0.28278513  0.87318219  1.0
  C  C69  1  0.83137486  0.12333876  0.71743798  1.0
  C  C70  1  0.86733597  0.13383353  0.69962013  1.0
  C  C71  1  0.87818960  0.16921084  0.71794235  1.0
  C  C72  1  0.28035985  0.83221527  0.87442727  1.0
  C  C73  1  0.29853382  0.86824009  0.86472226  1.0
  C  C74  1  0.28096270  0.87858140  0.82951862  1.0
  C  C75  1  0.12153751  0.71786191  0.82883847  1.0
  C  C76  1  0.13262159  0.69922090  0.86329510  1.0
  C  C77  1  0.16892570  0.71709009  0.87285124  1.0
  C  C78  1  0.16921425  0.87661658  0.71686796  1.0
  C  C79  1  0.13306424  0.86635997  0.69943655  1.0
  C  C80  1  0.12188021  0.83128155  0.71817195  1.0
  C  C81  1  0.71881119  0.83180537  0.12625075  1.0
  C  C82  1  0.70077523  0.86797106  0.13587068  1.0
  C  C83  1  0.71873988  0.87852400  0.17080692  1.0
  C  C84  1  0.87833484  0.71751595  0.17132797  1.0
  C  C85  1  0.86748142  0.69924502  0.13663184  1.0
  C  C86  1  0.83127751  0.71735990  0.12697230  1.0
  C  C87  1  0.83155624  0.87708114  0.28246744  1.0
  C  C88  1  0.86746797  0.86642030  0.30019403  1.0
  C  C89  1  0.87819032  0.83088738  0.28198493  1.0
  C  C90  1  0.97520345  0.97391681  0.45848456  1.0
  C  C91  1  0.00001512  0.99953062  0.47856491  1.0
  C  C92  1  0.02493500  0.02520248  0.45857255  1.0
  C  C93  1  0.02536990  0.02542634  0.41815417  1.0
  C  C94  1  0.00032157  0.99957445  0.39818106  1.0
  C  C95  1  0.97507956  0.97374042  0.41805893  1.0
  C  C96  1  0.99995614  0.99958898  0.52125937  1.0
  C  C97  1  0.02485971  0.97396562  0.54130802  1.0
  C  C98  1  0.02523770  0.97394910  0.58172961  1.0
  C  C99  1  0.00015471  0.99997428  0.60164575  1.0
  C  C100  1  0.97496733  0.02579806  0.58170732  1.0
  C  C101  1  0.97515877  0.02541570  0.54128397  1.0
  C  C102  1  0.45709316  0.97561177  0.97447793  1.0
  C  C103  1  0.47787611  0.99975389  0.99985399  1.0
  C  C104  1  0.45723861  0.02404840  0.02533626  1.0
  C  C105  1  0.41547789  0.02450535  0.02564415  1.0
  C  C106  1  0.39477490  0.00007226  0.00009251  1.0
  C  C107  1  0.41531816  0.97548525  0.97441462  1.0
  C  C108  1  0.52196772  0.99974203  0.99988330  1.0
  C  C109  1  0.54273417  0.02410867  0.97461433  1.0
  C  C110  1  0.58449966  0.02465124  0.97470750  1.0
  C  C111  1  0.60506442  0.00025384  0.00044916  1.0
  C  C112  1  0.58438285  0.97554284  0.02585666  1.0
  C  C113  1  0.54261969  0.97557600  0.02538677  1.0
  C  C114  1  0.97614584  0.45733798  0.97399839  1.0
  C  C115  1  0.00002889  0.47791429  0.99976586  1.0
  C  C116  1  0.02388937  0.45725379  0.02554693  1.0
  C  C117  1  0.02423860  0.41568111  0.02566317  1.0
  C  C118  1  0.99999541  0.39518140  0.99976084  1.0
  C  C119  1  0.97576290  0.41577256  0.97386347  1.0
  C  C120  1  0.00004240  0.52178105  0.99978345  1.0
  C  C121  1  0.97620979  0.54244021  0.02568381  1.0
  C  C122  1  0.97590515  0.58401247  0.02586939  1.0
  C  C123  1  0.00017651  0.60450971  0.99988082  1.0
  C  C124  1  0.02437813  0.58394042  0.97383802  1.0
  C  C125  1  0.02392813  0.54236974  0.97392559  1.0
  C  C126  1  0.32763334  0.11146930  0.11473404  1.0
  C  C127  1  0.35032711  0.09191081  0.09487186  1.0
  C  C128  1  0.37371748  0.06965993  0.07219246  1.0
  C  C129  1  0.39411203  0.04906853  0.05104603  1.0
  C  C130  1  0.67313619  0.11126813  0.88625182  1.0
  C  C131  1  0.65022850  0.09186063  0.90596635  1.0
  C  C132  1  0.62664794  0.06972443  0.92851752  1.0
  C  C133  1  0.60603261  0.04923544  0.94951137  1.0
  C  C134  1  0.32620562  0.88957723  0.88610733  1.0
  C  C135  1  0.34914510  0.90886853  0.90579582  1.0
  C  C136  1  0.37291921  0.93078561  0.92826293  1.0
  C  C137  1  0.39369599  0.95111843  0.94916476  1.0
  C  C138  1  0.67303610  0.88934803  0.11452535  1.0
  C  C139  1  0.65011512  0.90868737  0.09479545  1.0
  C  C140  1  0.62647807  0.93073642  0.07226206  1.0
  C  C141  1  0.60585319  0.95112906  0.05122641  1.0
  C  C142  1  0.11071811  0.32798130  0.11501703  1.0
  C  C143  1  0.09120437  0.35064108  0.09519046  1.0
  C  C144  1  0.06907560  0.37399130  0.07244431  1.0
  C  C145  1  0.04856950  0.39429077  0.05120477  1.0
  C  C146  1  0.88892003  0.67148157  0.11532334  1.0
  C  C147  1  0.90859448  0.64886770  0.09551951  1.0
  C  C148  1  0.93091142  0.62558984  0.07278750  1.0
  C  C149  1  0.95153880  0.60536856  0.05150484  1.0
  C  C150  1  0.88898275  0.32835892  0.88478748  1.0
  C  C151  1  0.90855935  0.35096329  0.90454654  1.0
  C  C152  1  0.93077616  0.37422075  0.92722312  1.0
  C  C153  1  0.95136100  0.39448253  0.94836833  1.0
  C  C154  1  0.11127961  0.67136320  0.88450274  1.0
  C  C155  1  0.09169228  0.64867387  0.90424607  1.0
  C  C156  1  0.06941204  0.62539838  0.92695374  1.0
  C  C157  1  0.04882091  0.60520284  0.94824143  1.0
  C  C158  1  0.11194422  0.11280662  0.32868114  1.0
  C  C159  1  0.09278596  0.09361381  0.35201357  1.0
  C  C160  1  0.07075565  0.07159432  0.37608734  1.0
  C  C161  1  0.05030868  0.05090635  0.39705768  1.0
  C  C162  1  0.11211739  0.88720295  0.67139491  1.0
  C  C163  1  0.09285185  0.90621450  0.64803881  1.0
  C  C164  1  0.07074587  0.92808367  0.62393398  1.0
  C  C165  1  0.05021629  0.94857658  0.60288002  1.0
  C  C166  1  0.88851577  0.88722798  0.32814467  1.0
  C  C167  1  0.90775471  0.90618934  0.35150736  1.0
  C  C168  1  0.92977374  0.92797181  0.37570791  1.0
  C  C169  1  0.95018493  0.94841109  0.39685830  1.0
  C  C170  1  0.88835287  0.11296944  0.67155869  1.0
  C  C171  1  0.90757605  0.09390871  0.64813916  1.0
  C  C172  1  0.92963534  0.07196159  0.62396073  1.0
  C  C173  1  0.95006883  0.05133832  0.60286069  1.0
  N  N174  1  0.25522252  0.14985680  0.18118994  1.0
  N  N175  1  0.25523732  0.17881974  0.15361325  1.0
  N  N176  1  0.17805479  0.25563387  0.15366033  1.0
  N  N177  1  0.14863739  0.25528183  0.18097368  1.0
  N  N178  1  0.14911069  0.17865449  0.25585156  1.0
  N  N179  1  0.17821888  0.15027336  0.25615243  1.0
  N  N180  1  0.74531949  0.14960671  0.81960162  1.0
  N  N181  1  0.74539136  0.17851660  0.84722573  1.0
  N  N182  1  0.82178758  0.25588688  0.84651385  1.0
  N  N183  1  0.85106210  0.25557547  0.81905921  1.0
  N  N184  1  0.85093747  0.17865334  0.74450977  1.0
  N  N185  1  0.82194960  0.15023017  0.74421664  1.0
  N  N186  1  0.25447376  0.85097339  0.81942208  1.0
  N  N187  1  0.25412151  0.82225142  0.84723618  1.0
  N  N188  1  0.17829738  0.74425682  0.84634787  1.0
  N  N189  1  0.14894993  0.74473071  0.81908079  1.0
  N  N190  1  0.14914670  0.82176688  0.74459014  1.0
  N  N191  1  0.17846090  0.84985391  0.74379712  1.0
  N  N192  1  0.74536420  0.85093892  0.18081040  1.0
  N  N193  1  0.74540351  0.82200561  0.15320548  1.0
  N  N194  1  0.82173885  0.74429889  0.15366219  1.0
  N  N195  1  0.85087878  0.74439705  0.18113839  1.0
  N  N196  1  0.85090992  0.82150279  0.25555901  1.0
  N  N197  1  0.82203502  0.85012283  0.25584290  1.0
