# generated using pymatgen
data_Zn4H6C24Cl6O13
_symmetry_space_group_name_H-M   'P 1'
_cell_length_a   18.15157726
_cell_length_b   18.23171736
_cell_length_c   18.24217381
_cell_angle_alpha   61.50918065
_cell_angle_beta   61.29807906
_cell_angle_gamma   61.39084308
_symmetry_Int_Tables_number   1
_chemical_formula_structural   Zn4H6C24Cl6O13
_chemical_formula_sum   'Zn8 H12 C48 Cl12 O26'
_cell_volume   4402.93491633
_cell_formula_units_Z   2
loop_
 _symmetry_equiv_pos_site_id
 _symmetry_equiv_pos_as_xyz
  1  'x, y, z'
loop_
 _atom_site_type_symbol
 _atom_site_label
 _atom_site_symmetry_multiplicity
 _atom_site_fract_x
 _atom_site_fract_y
 _atom_site_fract_z
 _atom_site_occupancy
  Zn  Zn0  1  0.05114889  0.05803781  0.85533021  1.0
  Zn  Zn1  1  0.04982101  0.06507751  0.03022373  1.0
  Zn  Zn2  1  0.05641460  0.88730654  0.02570282  1.0
  Zn  Zn3  1  0.87813073  0.05608489  0.02776683  1.0
  Zn  Zn4  1  0.46670220  0.47351883  0.61394492  1.0
  Zn  Zn5  1  0.45913832  0.47659988  0.43979701  1.0
  Zn  Zn6  1  0.63980603  0.47032792  0.44257760  1.0
  Zn  Zn7  1  0.47179025  0.64593458  0.44160307  1.0
  H  H8  1  0.32268522  0.10832865  0.78865198  1.0
  H  H9  1  0.18479939  0.43380924  0.67829292  1.0
  H  H10  1  0.10010710  0.80980115  0.78096259  1.0
  H  H11  1  0.42872119  0.72408804  0.68509727  1.0
  H  H12  1  0.80890106  0.33111783  0.79003278  1.0
  H  H13  1  0.70812387  0.20323955  0.68091175  1.0
  H  H14  1  0.32823571  0.81986505  0.07019265  1.0
  H  H15  1  0.19227691  0.72944663  0.39696020  1.0
  H  H16  1  0.80560111  0.10045885  0.30584571  1.0
  H  H17  1  0.69330034  0.42629138  0.17201040  1.0
  H  H18  1  0.80437176  0.80867481  0.06951893  1.0
  H  H19  1  0.73204738  0.70834882  0.39495433  1.0
  C  C20  1  0.14322503  0.15844665  0.84913573  1.0
  C  C21  1  0.19994633  0.21735575  0.79052479  1.0
  C  C22  1  0.29223962  0.17961983  0.76518322  1.0
  C  C23  1  0.34572205  0.23318409  0.70942310  1.0
  C  C24  1  0.30763026  0.32490783  0.67793014  1.0
  C  C25  1  0.21532587  0.36258892  0.70260820  1.0
  C  C26  1  0.16184824  0.30900488  0.75889721  1.0
  C  C27  1  0.36510317  0.38310212  0.61998461  1.0
  C  C28  1  0.15124628  0.87823451  0.84489309  1.0
  C  C29  1  0.21037012  0.82058384  0.78710239  1.0
  C  C30  1  0.17203150  0.79083655  0.76054023  1.0
  C  C31  1  0.22589292  0.73668925  0.70760864  1.0
  C  C32  1  0.31840617  0.71225416  0.68020893  1.0
  C  C33  1  0.35678632  0.74239084  0.70629886  1.0
  C  C34  1  0.30292943  0.79607041  0.75976043  1.0
  C  C35  1  0.37670910  0.65422422  0.62281047  1.0
  C  C36  1  0.86924412  0.15234059  0.84745865  1.0
  C  C37  1  0.81161874  0.21146137  0.78978480  1.0
  C  C38  1  0.78685775  0.30286627  0.76636139  1.0
  C  C39  1  0.73400574  0.35817119  0.71227171  1.0
  C  C40  1  0.70538604  0.32283048  0.68118963  1.0
  C  C41  1  0.73015053  0.23142141  0.70465645  1.0
  C  C42  1  0.78304738  0.17613353  0.75863657  1.0
  C  C43  1  0.64797928  0.38101090  0.62327708  1.0
  C  C44  1  0.14856205  0.88676309  0.12212881  1.0
  C  C45  1  0.20607186  0.83043675  0.18018410  1.0
  C  C46  1  0.29819399  0.80081101  0.14172890  1.0
  C  C47  1  0.35202835  0.74617067  0.19490220  1.0
  C  C48  1  0.31448834  0.71990933  0.28696523  1.0
  C  C49  1  0.22236820  0.74950125  0.32541458  1.0
  C  C50  1  0.16856173  0.80465022  0.27225694  1.0
  C  C51  1  0.37175345  0.65993355  0.34508775  1.0
  C  C52  1  0.86594696  0.15237487  0.12673961  1.0
  C  C53  1  0.80599875  0.21008104  0.18456365  1.0
  C  C54  1  0.78152577  0.17180219  0.27621658  1.0
  C  C55  1  0.72620818  0.22497679  0.33014497  1.0
  C  C56  1  0.69439163  0.31675489  0.29316985  1.0
  C  C57  1  0.71788220  0.35497873  0.20155166  1.0
  C  C58  1  0.77365297  0.30185994  0.14761663  1.0
  C  C59  1  0.63800446  0.37527845  0.35024828  1.0
  C  C60  1  0.87721979  0.87239329  0.11713519  1.0
  C  C61  1  0.82162547  0.81264345  0.17671637  1.0
  C  C62  1  0.78910866  0.78650486  0.14068486  1.0
  C  C63  1  0.73656377  0.73196478  0.19602233  1.0
  C  C64  1  0.71546365  0.70366600  0.28770323  1.0
  C  C65  1  0.74814176  0.72968716  0.32372731  1.0
  C  C66  1  0.80126957  0.78366349  0.26834432  1.0
  C  C67  1  0.65614798  0.64755968  0.34743942  1.0
  Cl  Cl68  1  0.45998056  0.18530404  0.67823528  1.0
  Cl  Cl69  1  0.04754841  0.35652124  0.78937446  1.0
  Cl  Cl70  1  0.17753290  0.70041946  0.67497778  1.0
  Cl  Cl71  1  0.35127583  0.83283080  0.79190078  1.0
  Cl  Cl72  1  0.70392598  0.47137502  0.68351967  1.0
  Cl  Cl73  1  0.81311818  0.06294077  0.78734654  1.0
  Cl  Cl74  1  0.46610722  0.71026798  0.14636493  1.0
  Cl  Cl75  1  0.05444474  0.83987807  0.32086388  1.0
  Cl  Cl76  1  0.69630712  0.17654604  0.44364463  1.0
  Cl  Cl77  1  0.80311393  0.35020498  0.03414925  1.0
  Cl  Cl78  1  0.69629935  0.70012969  0.15074713  1.0
  Cl  Cl79  1  0.84124668  0.81583805  0.31357862  1.0
  O  O80  1  0.00886696  0.01696679  0.98521614  1.0
  O  O81  1  0.12174681  0.13940098  0.93185576  1.0
  O  O82  1  0.12398637  0.13237975  0.80916749  1.0
  O  O83  1  0.37887984  0.41051983  0.53754549  1.0
  O  O84  1  0.39339977  0.39973601  0.66010628  1.0
  O  O85  1  0.13246928  0.83861273  0.92749882  1.0
  O  O86  1  0.12474527  0.96061059  0.80547325  1.0
  O  O87  1  0.40285918  0.69377530  0.54040712  1.0
  O  O88  1  0.39443301  0.57170411  0.66253374  1.0
  O  O89  1  0.82922293  0.13220686  0.93017553  1.0
  O  O90  1  0.95238470  0.12946683  0.80745686  1.0
  O  O91  1  0.68837811  0.40179121  0.54063817  1.0
  O  O92  1  0.56472066  0.40190391  0.66290500  1.0
  O  O93  1  0.13035568  0.84460275  0.09757150  1.0
  O  O94  1  0.12516129  0.96982256  0.10239986  1.0
  O  O95  1  0.39758081  0.69758366  0.36738777  1.0
  O  O96  1  0.38730795  0.57779585  0.36716197  1.0
  O  O97  1  0.82745693  0.12532182  0.10665729  1.0
  O  O98  1  0.94885203  0.13563657  0.10463996  1.0
  O  O99  1  0.68048015  0.39266769  0.37527791  1.0
  O  O100  1  0.55462635  0.40259183  0.36633938  1.0
  O  O101  1  0.83481073  0.95440846  0.09405540  1.0
  O  O102  1  0.96079292  0.83489621  0.09528937  1.0
  O  O103  1  0.69379537  0.56459119  0.36645325  1.0
  O  O104  1  0.57377632  0.68937468  0.37354916  1.0
  O  O105  1  0.50912943  0.51625169  0.48407692  1.0
