# generated using pymatgen
data_Zn4H9C27O16F9
_symmetry_space_group_name_H-M   'P 1'
_cell_length_a   18.30187353
_cell_length_b   18.34734163
_cell_length_c   18.37372343
_cell_angle_alpha   60.62007046
_cell_angle_beta   60.61433125
_cell_angle_gamma   60.47085103
_symmetry_Int_Tables_number   1
_chemical_formula_structural   Zn4H9C27O16F9
_chemical_formula_sum   'Zn8 H18 C54 O32 F18'
_cell_volume   4418.65447954
_cell_formula_units_Z   2
loop_
 _symmetry_equiv_pos_site_id
 _symmetry_equiv_pos_as_xyz
  1  'x, y, z'
loop_
 _atom_site_type_symbol
 _atom_site_label
 _atom_site_symmetry_multiplicity
 _atom_site_fract_x
 _atom_site_fract_y
 _atom_site_fract_z
 _atom_site_occupancy
  Zn  Zn0  1  0.95760505  0.93146195  0.14726821  1.0
  Zn  Zn1  1  0.13181999  0.93097818  0.97620317  1.0
  Zn  Zn2  1  0.95810494  0.10427385  0.97572447  1.0
  Zn  Zn3  1  0.95718069  0.93067630  0.97330202  1.0
  Zn  Zn4  1  0.54437695  0.51672767  0.38745486  1.0
  Zn  Zn5  1  0.37060145  0.51543905  0.56579219  1.0
  Zn  Zn6  1  0.54772079  0.51577429  0.56190787  1.0
  Zn  Zn7  1  0.54333876  0.34594219  0.56048373  1.0
  H  H8  1  0.31970164  0.77316194  0.10891064  1.0
  H  H9  1  0.41212346  0.67422433  0.20898662  1.0
  H  H10  1  0.08310837  0.76737818  0.33680342  1.0
  H  H11  1  0.80629922  0.29240623  0.10642638  1.0
  H  H12  1  0.70938600  0.38569377  0.20569010  1.0
  H  H13  1  0.78699370  0.05856386  0.33462001  1.0
  H  H14  1  0.78737935  0.77741927  0.10413301  1.0
  H  H15  1  0.69198498  0.68069714  0.20475370  1.0
  H  H16  1  0.81690642  0.76092069  0.33073475  1.0
  H  H17  1  0.08773087  0.29269259  0.81320673  1.0
  H  H18  1  0.18634034  0.38642064  0.71759155  1.0
  H  H19  1  0.31926670  0.05915790  0.83152051  1.0
  H  H20  1  0.08968649  0.77211397  0.81039707  1.0
  H  H21  1  0.19057895  0.67481864  0.71553169  1.0
  H  H22  1  0.31896483  0.77732722  0.81676904  1.0
  H  H23  1  0.79307257  0.29414334  0.82183126  1.0
  H  H24  1  0.69958020  0.38769034  0.72252005  1.0
  H  H25  1  0.81299267  0.06001038  0.80283724  1.0
  C  C26  1  0.13941668  0.83565096  0.15798360  1.0
  C  C27  1  0.19580649  0.77679248  0.21655215  1.0
  C  C28  1  0.28869499  0.75026037  0.18038029  1.0
  C  C29  1  0.33984737  0.69535914  0.23584748  1.0
  C  C30  1  0.30076991  0.66504862  0.32821143  1.0
  C  C31  1  0.36095688  0.60626922  0.38344819  1.0
  C  C32  1  0.20721470  0.69248706  0.36294906  1.0
  C  C33  1  0.15522249  0.74750273  0.30827885  1.0
  C  C34  1  0.13323621  0.71094448  0.50391574  1.0
  C  C35  1  0.86160285  0.11296062  0.15677390  1.0
  C  C36  1  0.80285860  0.16990374  0.21443684  1.0
  C  C37  1  0.78064956  0.26228998  0.17775863  1.0
  C  C38  1  0.72694570  0.31382806  0.23274839  1.0
  C  C39  1  0.69360625  0.27548460  0.32490231  1.0
  C  C40  1  0.63819936  0.33522760  0.38018170  1.0
  C  C41  1  0.71543510  0.18257133  0.36002518  1.0
  C  C42  1  0.77000011  0.13025895  0.30582534  1.0
  C  C43  1  0.61368137  0.11522184  0.48529263  1.0
  C  C44  1  0.86372283  0.83429955  0.15314821  1.0
  C  C45  1  0.80769698  0.77558520  0.21111067  1.0
  C  C46  1  0.77294221  0.75253613  0.17538923  1.0
  C  C47  1  0.72010529  0.69885516  0.23121433  1.0
  C  C48  1  0.70089563  0.66620567  0.32331635  1.0
  C  C49  1  0.64098441  0.61091614  0.37961733  1.0
  C  C50  1  0.73830121  0.68872816  0.35740438  1.0
  C  C51  1  0.79005243  0.74338371  0.30251585  1.0
  C  C52  1  0.78268508  0.58561038  0.48237112  1.0
  C  C53  1  0.13989748  0.11303258  0.88360495  1.0
  C  C54  1  0.19731404  0.17027140  0.82792646  1.0
  C  C55  1  0.15966852  0.26267741  0.79627256  1.0
  C  C56  1  0.21438404  0.31452642  0.74336197  1.0
  C  C57  1  0.30735527  0.27631790  0.72074007  1.0
  C  C58  1  0.36245560  0.33602469  0.66044154  1.0
  C  C59  1  0.34353554  0.18338735  0.75486387  1.0
  C  C60  1  0.28955445  0.13085236  0.80708873  1.0
  C  C61  1  0.47328033  0.11689166  0.79340116  1.0
  C  C62  1  0.13942857  0.83746986  0.87766899  1.0
  C  C63  1  0.19797091  0.78069448  0.81958940  1.0
  C  C64  1  0.16162516  0.75198937  0.79082731  1.0
  C  C65  1  0.21764336  0.69795274  0.73832521  1.0
  C  C66  1  0.31068995  0.67099162  0.71292671  1.0
  C  C67  1  0.36641022  0.61095561  0.65772900  1.0
  C  C68  1  0.34562170  0.70161725  0.74179342  1.0
  C  C69  1  0.29028681  0.75530907  0.79465346  1.0
  C  C70  1  0.48186747  0.73007833  0.65355613  1.0
  C  C71  1  0.86280956  0.11419692  0.87895278  1.0
  C  C72  1  0.80789378  0.17144457  0.81915611  1.0
  C  C73  1  0.77662965  0.26396580  0.79599016  1.0
  C  C74  1  0.72496567  0.31569928  0.74095034  1.0
  C  C75  1  0.70341721  0.27714245  0.70745977  1.0
  C  C76  1  0.64338298  0.33655898  0.65246678  1.0
  C  C77  1  0.73779289  0.18419028  0.72960428  1.0
  C  C78  1  0.78840596  0.13177304  0.78552280  1.0
  C  C79  1  0.78073366  0.11848172  0.62580622  1.0
  O  O80  1  0.00127201  0.97413329  0.01758294  1.0
  O  O81  1  0.17995831  0.85697419  0.07475148  1.0
  O  O82  1  0.05544983  0.85941276  0.19646580  1.0
  O  O83  1  0.32569471  0.57306677  0.46619992  1.0
  O  O84  1  0.44378332  0.59455957  0.34145656  1.0
  O  O85  1  0.16305313  0.66050467  0.45391516  1.0
  O  O86  1  0.88656605  0.15280771  0.07360421  1.0
  O  O87  1  0.88186644  0.02926619  0.19568852  1.0
  O  O88  1  0.62518528  0.29930189  0.46279609  1.0
  O  O89  1  0.60975984  0.41810177  0.33886781  1.0
  O  O90  1  0.68654918  0.13896565  0.45131034  1.0
  O  O91  1  0.88316746  0.85759182  0.06975142  1.0
  O  O92  1  0.88733163  0.85596331  0.19252688  1.0
  O  O93  1  0.60867407  0.59845682  0.46212010  1.0
  O  O94  1  0.62633462  0.58223207  0.33880447  1.0
  O  O95  1  0.72154011  0.65998838  0.44868827  1.0
  O  O96  1  0.05611233  0.15277887  0.90308798  1.0
  O  O97  1  0.17962626  0.02935286  0.90683078  1.0
  O  O98  1  0.44407893  0.30080619  0.62146571  1.0
  O  O99  1  0.32185833  0.41837587  0.65184812  1.0
  O  O100  1  0.43569412  0.13988669  0.73392545  1.0
  O  O101  1  0.05566487  0.85887687  0.89867232  1.0
  O  O102  1  0.17854430  0.85928854  0.90156582  1.0
  O  O103  1  0.44917527  0.57525066  0.64689321  1.0
  O  O104  1  0.32472862  0.60000387  0.62682664  1.0
  O  O105  1  0.43747263  0.67464081  0.72318618  1.0
  O  O106  1  0.88312032  0.15384449  0.90359813  1.0
  O  O107  1  0.88476685  0.03053275  0.90017570  1.0
  O  O108  1  0.60470033  0.30120905  0.64365950  1.0
  O  O109  1  0.63439166  0.41884797  0.62073383  1.0
  O  O110  1  0.71919095  0.14045358  0.69922368  1.0
  O  O111  1  0.50091341  0.47594560  0.51697419  1.0
  F  F112  1  0.19298559  0.74659133  0.48506284  1.0
  F  F113  1  0.11495666  0.65887882  0.58956316  1.0
  F  F114  1  0.05680366  0.78045154  0.49419044  1.0
  F  F115  1  0.54276472  0.18431612  0.46187110  1.0
  F  F116  1  0.59131280  0.08422255  0.57373084  1.0
  F  F117  1  0.62895081  0.04997684  0.45807817  1.0
  F  F118  1  0.80588353  0.51676598  0.45656925  1.0
  F  F119  1  0.74793086  0.56112651  0.57119494  1.0
  F  F120  1  0.86024789  0.59882419  0.45782110  1.0
  F  F121  1  0.45470168  0.18712682  0.81486314  1.0
  F  F122  1  0.56165121  0.08258472  0.75795744  1.0
  F  F123  1  0.44530162  0.05441250  0.87173956  1.0
  F  F124  1  0.46909974  0.75406367  0.57662157  1.0
  F  F125  1  0.56896311  0.68772620  0.64331801  1.0
  F  F126  1  0.45705946  0.80738357  0.66701735  1.0
  F  F127  1  0.79886840  0.19009830  0.55451899  1.0
  F  F128  1  0.74881999  0.08079457  0.60609312  1.0
  F  F129  1  0.86069854  0.05946078  0.63779510  1.0
