# generated using pymatgen
data_AlH4C8O5
_symmetry_space_group_name_H-M   'P 1'
_cell_length_a   11.90981847
_cell_length_b   12.09535366
_cell_length_c   12.09544659
_cell_angle_alpha   75.97256371
_cell_angle_beta   60.50641531
_cell_angle_gamma   60.50606948
_symmetry_Int_Tables_number   1
_chemical_formula_structural   AlH4C8O5
_chemical_formula_sum   'Al4 H16 C32 O20'
_cell_volume   1320.05706898
_cell_formula_units_Z   4
loop_
 _symmetry_equiv_pos_site_id
 _symmetry_equiv_pos_as_xyz
  1  'x, y, z'
loop_
 _atom_site_type_symbol
 _atom_site_label
 _atom_site_symmetry_multiplicity
 _atom_site_fract_x
 _atom_site_fract_y
 _atom_site_fract_z
 _atom_site_occupancy
  Al  Al0  1  0.19212816  0.00000023  0.61574315  1.0
  Al  Al1  1  0.55791176  0.88417683  0.49999927  1.0
  Al  Al2  1  0.94208841  0.11582273  0.50000090  1.0
  Al  Al3  1  0.80787237  0.00000000  0.38425573  1.0
  H  H4  1  0.18907351  0.93591138  0.43589140  1.0
  H  H5  1  0.56087641  0.06408660  0.56410978  1.0
  H  H6  1  0.37503604  0.06408762  0.43589103  1.0
  H  H7  1  0.87501505  0.93591180  0.56410838  1.0
  H  H8  1  0.89049606  0.00000048  0.00000044  1.0
  H  H9  1  0.85962049  0.49999980  0.49999631  1.0
  H  H10  1  0.10950172  0.00000130  0.99999937  1.0
  H  H11  1  0.64038194  0.49999893  0.50000100  1.0
  H  H12  1  0.64806471  0.05846342  0.80322724  1.0
  H  H13  1  0.10206932  0.69675124  0.44143647  1.0
  H  H14  1  0.54870740  0.94153586  0.80322669  1.0
  H  H15  1  0.45649516  0.30324907  0.44143543  1.0
  H  H16  1  0.20117895  0.69675200  0.55856599  1.0
  H  H17  1  0.29347207  0.05846327  0.19677166  1.0
  H  H18  1  0.24025491  0.30324773  0.55856866  1.0
  H  H19  1  0.50975659  0.94153605  0.19677119  1.0
  C  C20  1  0.89190106  0.04769069  0.76549936  1.0
  C  C21  1  0.85819885  0.73448843  0.45223049  1.0
  C  C22  1  0.34259818  0.95230934  0.76549870  1.0
  C  C23  1  0.68957193  0.26551066  0.45223117  1.0
  C  C24  1  0.40731440  0.73448737  0.54776915  1.0
  C  C25  1  0.06040769  0.04769334  0.23450143  1.0
  C  C26  1  0.04491681  0.26551140  0.54776882  1.0
  C  C27  1  0.70509178  0.95230829  0.23450109  1.0
  C  C28  1  0.78185220  0.02668738  0.88867174  1.0
  C  C29  1  0.96828699  0.61131109  0.47320880  1.0
  C  C30  1  0.32947458  0.97331337  0.88867208  1.0
  C  C31  1  0.55850496  0.38868804  0.47321048  1.0
  C  C32  1  0.42040321  0.61131070  0.52679171  1.0
  C  C33  1  0.19146042  0.02668796  0.11132714  1.0
  C  C34  1  0.05280683  0.38868850  0.52678961  1.0
  C  C35  1  0.69721195  0.97331246  0.11132773  1.0
  C  C36  1  0.79908366  0.99999946  0.00000004  1.0
  C  C37  1  0.95103575  0.50000025  0.50000013  1.0
  C  C38  1  0.20091573  0.00000201  0.99999940  1.0
  C  C39  1  0.54896527  0.49999894  0.50000098  1.0
  C  C40  1  0.66196273  0.03051365  0.89002145  1.0
  C  C41  1  0.08814742  0.60996511  0.46940089  1.0
  C  C42  1  0.44801429  0.96948664  0.89002089  1.0
  C  C43  1  0.44245378  0.39003407  0.46940182  1.0
  C  C44  1  0.30188969  0.60996537  0.53060057  1.0
  C  C45  1  0.30752300  0.03051440  0.10997744  1.0
  C  C46  1  0.16751199  0.39003477  0.53059947  1.0
  C  C47  1  0.58249861  0.96948555  0.10997796  1.0
  C  C48  1  0.56187548  0.00000090  0.99999949  1.0
  C  C49  1  0.18816122  0.49999946  0.50000115  1.0
  C  C50  1  0.43812390  0.00000009  0.99999899  1.0
  C  C51  1  0.31184015  0.49999979  0.50000118  1.0
  O  O52  1  0.12410739  0.00093766  0.50086145  1.0
  O  O53  1  0.62590659  0.99906180  0.49913783  1.0
  O  O54  1  0.37503158  0.99906102  0.50086105  1.0
  O  O55  1  0.87495427  0.00093858  0.49913931  1.0
  O  O56  1  0.01872348  0.99982289  0.75403520  1.0
  O  O57  1  0.73138730  0.74592670  0.50009898  1.0
  O  O58  1  0.22723947  0.00017799  0.75403572  1.0
  O  O59  1  0.76851364  0.25407332  0.50010065  1.0
  O  O60  1  0.52268747  0.74592692  0.49989946  1.0
  O  O61  1  0.98145445  0.99982400  0.24596558  1.0
  O  O62  1  0.97741208  0.25407347  0.49990029  1.0
  O  O63  1  0.77258163  0.00017548  0.24596409  1.0
  O  O64  1  0.85017648  0.10910570  0.68020783  1.0
  O  O65  1  0.89987404  0.81982608  0.39086945  1.0
  O  O66  1  0.46961437  0.89089460  0.68020811  1.0
  O  O67  1  0.70925754  0.18017418  0.39087004  1.0
  O  O68  1  0.28030072  0.81982617  0.60913025  1.0
  O  O69  1  0.04071776  0.10910612  0.31979301  1.0
  O  O70  1  0.11056852  0.18017356  0.60912990  1.0
  O  O71  1  0.63949171  0.89089310  0.31979070  1.0
