# generated using pymatgen
data_Zn2H26C41N2O9
_symmetry_space_group_name_H-M   'P 1'
_cell_length_a   13.39476738
_cell_length_b   13.94062669
_cell_length_c   15.31693882
_cell_angle_alpha   89.03752000
_cell_angle_beta   88.32588087
_cell_angle_gamma   68.39210589
_symmetry_Int_Tables_number   1
_chemical_formula_structural   Zn2H26C41N2O9
_chemical_formula_sum   'Zn2 H26 C41 N2 O9'
_cell_volume   2657.96788456
_cell_formula_units_Z   1
loop_
 _symmetry_equiv_pos_site_id
 _symmetry_equiv_pos_as_xyz
  1  'x, y, z'
loop_
 _atom_site_type_symbol
 _atom_site_label
 _atom_site_symmetry_multiplicity
 _atom_site_fract_x
 _atom_site_fract_y
 _atom_site_fract_z
 _atom_site_occupancy
  Zn  Zn0  1  0.49409949  0.60298887  0.50229167  1.0
  Zn  Zn1  1  0.51003129  0.39912932  0.50569350  1.0
  H  H2  1  0.85628914  0.25722975  0.40871331  1.0
  H  H3  1  0.34754393  0.30418047  0.55197544  1.0
  H  H4  1  0.65838624  0.19416469  0.45111305  1.0
  H  H5  1  0.19928206  0.28824914  0.36008982  1.0
  H  H6  1  0.66245857  0.01301936  0.44465775  1.0
  H  H7  1  0.59309057  0.90074201  0.37895683  1.0
  H  H8  1  0.58793540  0.72257041  0.38660036  1.0
  H  H9  1  0.41276075  0.78429968  0.61897135  1.0
  H  H10  1  0.40900289  0.96564311  0.62212562  1.0
  H  H11  1  0.04705176  0.22791818  0.36695535  1.0
  H  H12  1  0.81192857  0.55621848  0.50440074  1.0
  H  H13  1  0.43764679  0.66945319  0.77944517  1.0
  H  H14  1  0.14295657  0.74990186  0.53429496  1.0
  H  H15  1  0.86532765  0.66872726  0.50491261  1.0
  H  H16  1  0.27843322  0.41440275  0.40274995  1.0
  H  H17  1  0.43400398  0.67116866  0.94234727  1.0
  H  H18  1  0.80155882  0.80098094  0.60087283  1.0
  H  H19  1  0.79032917  0.84293764  0.48907395  1.0
  H  H20  1  0.79275024  0.92964510  0.57397291  1.0
  H  H21  1  0.54693981  0.33959941  0.78212027  1.0
  H  H22  1  0.54626485  0.33912384  0.94525104  1.0
  H  H23  1  0.43132723  0.38208012  0.07004992  1.0
  H  H24  1  0.43904894  0.38197583  0.23272610  1.0
  H  H25  1  0.55530745  0.62993619  0.22018825  1.0
  H  H26  1  0.55275599  0.62865753  0.05744473  1.0
  H  H27  1  0.33718372  0.12811343  0.55090348  1.0
  C  C28  1  0.49634498  0.50409012  0.67337119  1.0
  C  C29  1  0.17458940  0.59718069  0.48701043  1.0
  C  C30  1  0.46014172  0.59801180  0.90760674  1.0
  C  C31  1  0.29340896  0.56793888  0.49663464  1.0
  C  C32  1  0.46129451  0.59764036  0.81679330  1.0
  C  C33  1  0.49275226  0.50447715  0.77117632  1.0
  C  C34  1  0.52190410  0.41161155  0.81834314  1.0
  C  C35  1  0.52059386  0.41200001  0.90921462  1.0
  C  C36  1  0.49029143  0.50510281  0.95556090  1.0
  C  C37  1  0.46030398  0.43560162  0.10243683  1.0
  C  C38  1  0.46352135  0.43562919  0.19314252  1.0
  C  C39  1  0.01744509  0.54985520  0.46918824  1.0
  C  C40  1  0.49750646  0.50591378  0.23591867  1.0
  C  C41  1  0.52832268  0.57611428  0.18625606  1.0
  C  C42  1  0.52574884  0.57561822  0.09557716  1.0
  C  C43  1  0.50096243  0.50566174  0.33341870  1.0
  C  C44  1  0.49168965  0.50544189  0.05192484  1.0
  C  C45  1  0.41084357  0.13851019  0.52939917  1.0
  C  C46  1  0.41544066  0.23650707  0.53015603  1.0
  C  C47  1  0.58954213  0.17481451  0.47218666  1.0
  C  C48  1  0.59061089  0.07497280  0.46871729  1.0
  C  C49  1  0.50034354  0.05485409  0.49904643  1.0
  C  C50  1  0.13031639  0.52433663  0.45860638  1.0
  C  C51  1  0.55275226  0.87831305  0.43387910  1.0
  C  C52  1  0.55012417  0.77958131  0.43717579  1.0
  C  C53  1  0.45039887  0.81477898  0.56707281  1.0
  C  C54  1  0.44870530  0.91499646  0.56797659  1.0
  C  C55  1  0.70974588  0.43073435  0.48612103  1.0
  C  C56  1  0.50037303  0.94891561  0.50000726  1.0
  C  C57  1  0.99550271  0.30026558  0.39724331  1.0
  C  C58  1  0.82427003  0.40966317  0.45954407  1.0
  C  C59  1  0.10837002  0.69443432  0.51429403  1.0
  C  C60  1  0.99613811  0.72132483  0.51867102  1.0
  C  C61  1  0.97270433  0.47197995  0.45112887  1.0
  C  C62  1  0.95155908  0.64924502  0.49866494  1.0
  C  C63  1  0.82442080  0.84917836  0.55252181  1.0
  C  C64  1  0.03980584  0.37615110  0.41320016  1.0
  C  C65  1  0.15001068  0.35919546  0.39359855  1.0
  C  C66  1  0.19397044  0.42914321  0.41705758  1.0
  C  C67  1  0.86566827  0.48585783  0.47323652  1.0
  C  C68  1  0.89010443  0.31591938  0.42021349  1.0
  N  N69  1  0.50376977  0.25384282  0.50292135  1.0
  N  N70  1  0.49954335  0.74862930  0.50251200  1.0
  O  O71  1  0.46990871  0.59137628  0.63451802  1.0
  O  O72  1  0.52586772  0.41655214  0.63611480  1.0
  O  O73  1  0.33299614  0.63694931  0.48166125  1.0
  O  O74  1  0.34520132  0.47616232  0.52276360  1.0
  O  O75  1  0.52206288  0.57786602  0.36913248  1.0
  O  O76  1  0.48240584  0.43314483  0.37404876  1.0
  O  O77  1  0.65598080  0.52038543  0.51594336  1.0
  O  O78  1  0.67270206  0.35927146  0.47661544  1.0
  O  O79  1  0.93798624  0.82016474  0.54530000  1.0
