# generated using pymatgen
data_ZnH9C15NO5
_symmetry_space_group_name_H-M   'P 1'
_cell_length_a   9.72259248
_cell_length_b   11.06976696
_cell_length_c   16.11180798
_cell_angle_alpha   95.19391670
_cell_angle_beta   91.89480709
_cell_angle_gamma   90.20794978
_symmetry_Int_Tables_number   1
_chemical_formula_structural   ZnH9C15NO5
_chemical_formula_sum   'Zn2 H18 C30 N2 O10'
_cell_volume   1725.96036326
_cell_formula_units_Z   2
loop_
 _symmetry_equiv_pos_site_id
 _symmetry_equiv_pos_as_xyz
  1  'x, y, z'
loop_
 _atom_site_type_symbol
 _atom_site_label
 _atom_site_symmetry_multiplicity
 _atom_site_fract_x
 _atom_site_fract_y
 _atom_site_fract_z
 _atom_site_occupancy
  Zn  Zn0  1  0.63216340  0.50775220  0.51120699  1.0
  Zn  Zn1  1  0.34668312  0.50331508  0.50382132  1.0
  H  H2  1  0.35546400  0.33310370  0.93725607  1.0
  H  H3  1  0.81160949  0.88783586  0.45658527  1.0
  H  H4  1  0.82648441  0.11727723  0.47836036  1.0
  H  H5  1  0.10945111  0.58890855  0.39391736  1.0
  H  H6  1  0.85008381  0.59184854  0.39851362  1.0
  H  H7  1  0.87735421  0.45663050  0.69976957  1.0
  H  H8  1  0.86911739  0.31187791  0.63991798  1.0
  H  H9  1  0.14010906  0.45219457  0.69387835  1.0
  H  H10  1  0.12817630  0.30745924  0.63482355  1.0
  H  H11  1  0.59108740  0.31321340  0.04380002  1.0
  H  H12  1  0.25068924  0.51451104  0.05430018  1.0
  H  H13  1  0.38485053  0.69478139  0.97071272  1.0
  H  H14  1  0.62121189  0.67493287  0.07679777  1.0
  H  H15  1  0.72556146  0.49292088  0.95993076  1.0
  H  H16  1  0.27149314  0.11977578  0.49252652  1.0
  H  H17  1  0.26553753  0.89472237  0.49016710  1.0
  H  H18  1  0.81697298  0.04781547  0.63869043  1.0
  H  H19  1  0.75176135  0.80457974  0.58885672  1.0
  C  C20  1  0.49115818  0.27130895  0.50723932  1.0
  C  C21  1  0.48900828  0.50924361  0.92227490  1.0
  C  C22  1  0.56229163  0.59908189  0.04495536  1.0
  C  C23  1  0.48738127  0.49918908  0.09213426  1.0
  C  C24  1  0.43059542  0.61003031  0.98786191  1.0
  C  C25  1  0.35601845  0.50997757  0.03252687  1.0
  C  C26  1  0.48816344  0.51484387  0.83489432  1.0
  C  C27  1  0.48848098  0.49442972  0.17962535  1.0
  C  C28  1  0.61186463  0.06822579  0.51032199  1.0
  C  C29  1  0.49157907  0.13615605  0.50489430  1.0
  C  C30  1  0.36728892  0.06942401  0.49650128  1.0
  C  C31  1  0.49108430  0.52173370  0.67014725  1.0
  C  C32  1  0.36385014  0.94292175  0.49451918  1.0
  C  C33  1  0.48552825  0.87524058  0.49962982  1.0
  C  C34  1  0.60758831  0.94212795  0.50526477  1.0
  C  C35  1  0.76200079  0.92839500  0.51304919  1.0
  C  C36  1  0.76859017  0.07310179  0.52478382  1.0
  C  C37  1  0.06615544  0.46054806  0.56407077  1.0
  C  C38  1  0.05588571  0.55242158  0.44459085  1.0
  C  C39  1  0.91281913  0.55495955  0.44739158  1.0
  C  C40  1  0.92280518  0.46359067  0.56724007  1.0
  C  C41  1  0.91968980  0.40144161  0.64672217  1.0
  C  C42  1  0.48569253  0.74154349  0.50428634  1.0
  C  C43  1  0.08318612  0.39839033  0.64332222  1.0
  C  C44  1  0.48836104  0.49296315  0.34483487  1.0
  C  C45  1  0.54562239  0.39801796  0.02657748  1.0
  C  C46  1  0.41410819  0.40896401  0.96933721  1.0
  C  C47  1  0.48848058  0.51988934  0.75958521  1.0
  C  C48  1  0.48910377  0.49207188  0.25516019  1.0
  C  C49  1  0.62031329  0.49790710  0.98184344  1.0
  N  N50  1  0.13599204  0.50423218  0.50392194  1.0
  N  N51  1  0.84301739  0.51015577  0.50989822  1.0
  O  O52  1  0.60558680  0.32290541  0.49628823  1.0
  O  O53  1  0.37625206  0.32424792  0.51914257  1.0
  O  O54  1  0.60754180  0.50283268  0.63725124  1.0
  O  O55  1  0.37744264  0.54114393  0.63205038  1.0
  O  O56  1  0.60019579  0.69500787  0.52672033  1.0
  O  O57  1  0.37393818  0.68367307  0.48682663  1.0
  O  O58  1  0.60216985  0.51872173  0.38445987  1.0
  O  O59  1  0.37431100  0.46898953  0.37667915  1.0
  O  O60  1  0.81879643  0.11794957  0.60542738  1.0
  O  O61  1  0.81225231  0.87524486  0.58541443  1.0
