# generated using pymatgen
data_AlH5C8SNO6
_symmetry_space_group_name_H-M   'P 1'
_cell_length_a   6.72090535
_cell_length_b   11.11309003
_cell_length_c   12.60268117
_cell_angle_alpha   76.44925964
_cell_angle_beta   76.93019556
_cell_angle_gamma   73.30857126
_symmetry_Int_Tables_number   1
_chemical_formula_structural   AlH5C8SNO6
_chemical_formula_sum   'Al2 H10 C16 S2 N2 O12'
_cell_volume   863.68850592
_cell_formula_units_Z   2
loop_
 _symmetry_equiv_pos_site_id
 _symmetry_equiv_pos_as_xyz
  1  'x, y, z'
loop_
 _atom_site_type_symbol
 _atom_site_label
 _atom_site_symmetry_multiplicity
 _atom_site_fract_x
 _atom_site_fract_y
 _atom_site_fract_z
 _atom_site_occupancy
  Al  Al0  1  0.49999855  0.50058863  0.49999157  1.0
  Al  Al1  1  0.99996999  0.50034130  0.50019806  1.0
  H  H2  1  0.26626641  0.36589831  0.61176625  1.0
  H  H3  1  0.73781323  0.63123430  0.38516552  1.0
  H  H4  1  0.38150615  0.89099531  0.47289240  1.0
  H  H5  1  0.61806892  0.10953517  0.52712502  1.0
  H  H6  1  0.23428613  0.22366651  0.46467438  1.0
  H  H7  1  0.76536572  0.77690220  0.53496159  1.0
  H  H8  1  0.92111130  0.42465689  0.12858816  1.0
  H  H9  1  0.75767343  0.44118457  0.25543144  1.0
  H  H10  1  0.07865292  0.57417376  0.87165355  1.0
  H  H11  1  0.24234498  0.55789803  0.74479024  1.0
  C  C12  1  0.66549043  0.48888163  0.69828671  1.0
  C  C13  1  0.86404122  0.27122035  0.49960061  1.0
  C  C14  1  0.33447215  0.51166712  0.30182733  1.0
  C  C15  1  0.13568340  0.72936090  0.50066854  1.0
  C  C16  1  0.93561622  0.13269997  0.49871119  1.0
  C  C17  1  0.06399531  0.86791391  0.50137690  1.0
  C  C18  1  0.15456959  0.06996742  0.48151787  1.0
  C  C19  1  0.84503744  0.93062495  0.51843689  1.0
  C  C20  1  0.21436132  0.93860806  0.48373881  1.0
  C  C21  1  0.78522176  0.06199455  0.51628675  1.0
  C  C22  1  0.60163897  0.46965368  0.12877976  1.0
  C  C23  1  0.39813563  0.52936862  0.87156746  1.0
  C  C24  1  0.39335611  0.50653637  0.18538729  1.0
  C  C25  1  0.60650253  0.49292477  0.81492616  1.0
  C  C26  1  0.39929084  0.52060700  0.98632407  1.0
  C  C27  1  0.60039335  0.47822178  0.01408404  1.0
  S  S28  1  0.20417368  0.55134054  0.09878018  1.0
  S  S29  1  0.79559066  0.44781538  0.90162459  1.0
  N  N30  1  0.77675482  0.42841783  0.17608302  1.0
  N  N31  1  0.22305124  0.57042566  0.82423544  1.0
  O  O32  1  0.51119979  0.50608767  0.64672085  1.0
  O  O33  1  0.01039849  0.33135528  0.48460318  1.0
  O  O34  1  0.13950873  0.53208246  0.34748502  1.0
  O  O35  1  0.33133433  0.67562559  0.48488272  1.0
  O  O36  1  0.48887431  0.49521218  0.35314016  1.0
  O  O37  1  0.98950586  0.66907477  0.51593373  1.0
  O  O38  1  0.86046175  0.46872391  0.65270703  1.0
  O  O39  1  0.66838302  0.32511866  0.51527308  1.0
  O  O40  1  0.25772129  0.43775059  0.55078581  1.0
  O  O41  1  0.74251435  0.56308493  0.44927093  1.0
  O  O42  1  0.30890015  0.13243678  0.46266507  1.0
  O  O43  1  0.69080917  0.86814389  0.53705770  1.0
