# generated using pymatgen
data_ZnH15C11N2ClO2
_symmetry_space_group_name_H-M   'P 1'
_cell_length_a   10.52511166
_cell_length_b   17.58827924
_cell_length_c   17.58750171
_cell_angle_alpha   60.00020348
_cell_angle_beta   90.00002201
_cell_angle_gamma   89.99996767
_symmetry_Int_Tables_number   1
_chemical_formula_structural   ZnH15C11N2ClO2
_chemical_formula_sum   'Zn6 H90 C66 N12 Cl6 O12'
_cell_volume   2819.58855347
_cell_formula_units_Z   6
loop_
 _symmetry_equiv_pos_site_id
 _symmetry_equiv_pos_as_xyz
  1  'x, y, z'
loop_
 _atom_site_type_symbol
 _atom_site_label
 _atom_site_symmetry_multiplicity
 _atom_site_fract_x
 _atom_site_fract_y
 _atom_site_fract_z
 _atom_site_occupancy
  Zn  Zn0  1  0.12156601  0.46420503  0.45960220  1.0
  Zn  Zn1  1  0.28812081  0.54037755  0.92380075  1.0
  Zn  Zn2  1  0.45485673  0.07620612  0.46425794  1.0
  Zn  Zn3  1  0.62156513  0.53579460  0.54039774  1.0
  Zn  Zn4  1  0.78812129  0.45962230  0.07619863  1.0
  Zn  Zn5  1  0.95485737  0.92379340  0.53574086  1.0
  H  H6  1  0.01426230  0.54395598  0.53011417  1.0
  H  H7  1  0.18082892  0.46991628  0.07410950  1.0
  H  H8  1  0.34753650  0.92587574  0.54398372  1.0
  H  H9  1  0.51426209  0.45604314  0.46988572  1.0
  H  H10  1  0.68082924  0.53008453  0.92588917  1.0
  H  H11  1  0.84753569  0.07412343  0.45601699  1.0
  H  H12  1  0.82130256  0.77686857  0.53397093  1.0
  H  H13  1  0.98795392  0.46601784  0.31090434  1.0
  H  H14  1  0.15457437  0.68910171  0.77667161  1.0
  H  H15  1  0.32130178  0.22313118  0.46602978  1.0
  H  H16  1  0.48795425  0.53398336  0.68909449  1.0
  H  H17  1  0.65457413  0.31090083  0.22332703  1.0
  H  H18  1  0.16693317  0.89808412  0.43474769  1.0
  H  H19  1  0.33345536  0.56540642  0.33287269  1.0
  H  H20  1  0.49989712  0.66706639  0.89825591  1.0
  H  H21  1  0.66693336  0.10191548  0.56525228  1.0
  H  H22  1  0.83345466  0.43459308  0.66712737  1.0
  H  H23  1  0.99989774  0.33293358  0.10174424  1.0
  H  H24  1  0.22236635  0.79222130  0.38396768  1.0
  H  H25  1  0.38887228  0.61627423  0.17621017  1.0
  H  H26  1  0.55550592  0.82368441  0.79244169  1.0
  H  H27  1  0.72236741  0.20777803  0.61603166  1.0
  H  H28  1  0.88887267  0.38372613  0.82378927  1.0
  H  H29  1  0.05550691  0.17631493  0.20755888  1.0
  H  H30  1  0.86021620  0.66609568  0.48777814  1.0
  H  H31  1  0.02698732  0.51211024  0.15397622  1.0
  H  H32  1  0.19357432  0.84608955  0.66602059  1.0
  H  H33  1  0.36021629  0.33390348  0.51222258  1.0
  H  H34  1  0.52698858  0.48789148  0.84602302  1.0
  H  H35  1  0.69357430  0.15391231  0.33397939  1.0
  H  H36  1  0.00051129  0.63695675  0.37840666  1.0
  H  H37  1  0.16698669  0.62159064  0.01545978  1.0
  H  H38  1  0.33352810  0.98450497  0.63701197  1.0
  H  H39  1  0.50051126  0.36304295  0.62159322  1.0
  H  H40  1  0.66698909  0.37840839  0.98454020  1.0
  H  H41  1  0.83352824  0.01549510  0.36298809  1.0
  H  H42  1  0.16516321  0.66251011  0.37417304  1.0
  H  H43  1  0.33165383  0.62589969  0.03665859  1.0
  H  H44  1  0.49819146  0.96334827  0.66258298  1.0
  H  H45  1  0.66516416  0.33749006  0.62582693  1.0
  H  H46  1  0.83165528  0.37410160  0.96334016  1.0
  H  H47  1  0.99819156  0.03665202  0.33741652  1.0
  H  H48  1  0.23281861  0.62991958  0.52888464  1.0
  H  H49  1  0.39941570  0.47119840  0.15881112  1.0
  H  H50  1  0.56618033  0.84121460  0.62994121  1.0
  H  H51  1  0.73281849  0.37007998  0.47111537  1.0
  H  H52  1  0.89941692  0.52880229  0.84118765  1.0
  H  H53  1  0.06618049  0.15878506  0.37005871  1.0
  H  H54  1  0.26599366  0.51878522  0.68003706  1.0
  H  H55  1  0.43261828  0.32007020  0.19900195  1.0
  H  H56  1  0.59935716  0.80118006  0.51885290  1.0
  H  H57  1  0.76599428  0.48121432  0.31996296  1.0
  H  H58  1  0.93261838  0.67993037  0.80099817  1.0
  H  H59  1  0.09935736  0.19881957  0.48114704  1.0
  H  H60  1  0.12389739  0.39297718  0.76058903  1.0
  H  H61  1  0.29107491  0.23939397  0.15356333  1.0
  H  H62  1  0.45753627  0.84650913  0.39289314  1.0
  H  H63  1  0.62389689  0.60702245  0.23941092  1.0
  H  H64  1  0.79107496  0.76060613  0.84643670  1.0
  H  H65  1  0.95753739  0.15349087  0.60710698  1.0
  H  H66  1  0.20566657  0.38279424  0.67774997  1.0
  H  H67  1  0.37291436  0.32231293  0.06064319  1.0
  H  H68  1  0.53931968  0.93947310  0.38282521  1.0
  H  H69  1  0.70566611  0.61720590  0.32225003  1.0
  H  H70  1  0.87291455  0.67768622  0.93935754  1.0
  H  H71  1  0.03932010  0.06052625  0.61717535  1.0
  H  H72  1  0.04472954  0.41473987  0.66200179  1.0
  H  H73  1  0.21183673  0.33790732  0.07666586  1.0
  H  H74  1  0.37830573  0.92336324  0.41457501  1.0
  H  H75  1  0.54473008  0.58525947  0.33799877  1.0
  H  H76  1  0.71183692  0.66209282  0.92333413  1.0
  H  H77  1  0.87830595  0.07663647  0.58542573  1.0
  H  H78  1  0.98427009  0.57023486  0.64498753  1.0
  H  H79  1  0.15072292  0.35498098  0.21511880  1.0
  H  H80  1  0.31756445  0.78475185  0.57016391  1.0
  H  H81  1  0.48427094  0.42976512  0.35501261  1.0
  H  H82  1  0.65072304  0.64501854  0.78488248  1.0
  H  H83  1  0.81756539  0.21524856  0.42983548  1.0
  H  H84  1  0.10981472  0.64012188  0.64008075  1.0
  H  H85  1  0.27607743  0.35987937  0.28023032  1.0
  H  H86  1  0.44308811  0.71976959  0.64005264  1.0
  H  H87  1  0.60981548  0.35987743  0.35991984  1.0
  H  H88  1  0.77607847  0.64012040  0.71977037  1.0
  H  H89  1  0.94308895  0.28023131  0.35994682  1.0
  H  H90  1  0.07477574  0.54339309  0.74074271  1.0
  H  H91  1  0.24122369  0.25924255  0.28407600  1.0
  H  H92  1  0.40814973  0.71589689  0.54328624  1.0
  H  H93  1  0.57477730  0.45660567  0.25925786  1.0
  H  H94  1  0.74122273  0.74075724  0.71592467  1.0
  H  H95  1  0.90815158  0.28410289  0.45671320  1.0
  C  C96  1  0.90919711  0.77680616  0.50142313  1.0
  C  C97  1  0.07585146  0.49857498  0.27829642  1.0
  C  C98  1  0.24242710  0.72169337  0.77672603  1.0
  C  C99  1  0.40919729  0.22319296  0.49857763  1.0
  C  C100  1  0.57585073  0.50142557  0.72170284  1.0
  C  C101  1  0.74242785  0.27830732  0.22327399  1.0
  C  C102  1  0.10239612  0.84544093  0.44480843  1.0
  C  C103  1  0.26893347  0.55535539  0.29026831  1.0
  C  C104  1  0.43546831  0.70968310  0.84554284  1.0
  C  C105  1  0.60239624  0.15455781  0.55519217  1.0
  C  C106  1  0.76893374  0.44464448  0.70973106  1.0
  C  C107  1  0.93546900  0.29031715  0.15445792  1.0
  C  C108  1  0.13208798  0.78611303  0.41703077  1.0
  C  C109  1  0.29862908  0.58314168  0.20316229  1.0
  C  C110  1  0.46522755  0.79678120  0.78624666  1.0
  C  C111  1  0.63208902  0.21388602  0.58296918  1.0
  C  C112  1  0.79862943  0.41685873  0.79683710  1.0
  C  C113  1  0.96522742  0.20321870  0.21375478  1.0
  C  C114  1  0.04687752  0.71844834  0.43381234  1.0
  C  C115  1  0.21349268  0.56624460  0.15231020  1.0
  C  C116  1  0.38008827  0.84767210  0.71850858  1.0
  C  C117  1  0.54687754  0.28155101  0.56618821  1.0
  C  C118  1  0.71349399  0.43375587  0.84768914  1.0
  C  C119  1  0.88008917  0.15232818  0.28149216  1.0
  C  C120  1  0.93225722  0.71552513  0.47545949  1.0
  C  C121  1  0.09895616  0.52449850  0.19107022  1.0
  C  C122  1  0.26553653  0.80894395  0.71549762  1.0
  C  C123  1  0.43225736  0.28447365  0.52454194  1.0
  C  C124  1  0.59895646  0.47550294  0.80892840  1.0
  C  C125  1  0.76553645  0.19105729  0.28450241  1.0
  C  C126  1  0.07866629  0.64641044  0.41431620  1.0
  C  C127  1  0.24522342  0.58571357  0.06076445  1.0
  C  C128  1  0.41182278  0.93922021  0.64647541  1.0
  C  C129  1  0.57866625  0.35358888  0.58568438  1.0
  C  C130  1  0.74522386  0.41428768  0.93923557  1.0
  C  C131  1  0.91182192  0.06078013  0.35352405  1.0
  C  C132  1  0.32587706  0.52128125  0.53406105  1.0
  C  C133  1  0.49241136  0.46595008  0.05534400  1.0
  C  C134  1  0.65906477  0.94475803  0.52123073  1.0
  C  C135  1  0.82587588  0.47871882  0.46593900  1.0
  C  C136  1  0.99241358  0.53405022  0.94465549  1.0
  C  C137  1  0.15906415  0.05524190  0.47876859  1.0
  C  C138  1  0.20612250  0.56143567  0.55034086  1.0
  C  C139  1  0.37270149  0.44970515  0.11181948  1.0
  C  C140  1  0.53939672  0.88823417  0.56146511  1.0
  C  C141  1  0.70612324  0.43856391  0.44965913  1.0
  C  C142  1  0.87270176  0.55029547  0.88818059  1.0
  C  C143  1  0.03939793  0.11176518  0.43853545  1.0
  C  C144  1  0.17554520  0.51784610  0.64923825  1.0
  C  C145  1  0.34221256  0.35081229  0.16713217  1.0
  C  C146  1  0.50891060  0.83294433  0.51784101  1.0
  C  C147  1  0.67554679  0.48215406  0.35076173  1.0
  C  C148  1  0.84221271  0.64918810  0.83286723  1.0
  C  C149  1  0.00890988  0.16705593  0.48215889  1.0
  C  C150  1  0.13505828  0.42186367  0.68932231  1.0
  C  C151  1  0.30211038  0.31066964  0.11120719  1.0
  C  C152  1  0.46861073  0.88886166  0.42182015  1.0
  C  C153  1  0.63505880  0.57813619  0.31067830  1.0
  C  C154  1  0.80210957  0.68933012  0.88879350  1.0
  C  C155  1  0.96861091  0.11113832  0.57817999  1.0
  C  C156  1  0.08025498  0.57113599  0.66931380  1.0
  C  C157  1  0.24670387  0.33067584  0.24041530  1.0
  C  C158  1  0.41357199  0.75956181  0.57106103  1.0
  C  C159  1  0.58025566  0.42886366  0.33068612  1.0
  C  C160  1  0.74670490  0.66932452  0.75958537  1.0
  C  C161  1  0.91357291  0.24043821  0.42893908  1.0
  N  N162  1  0.99364178  0.84031509  0.48749157  1.0
  N  N163  1  0.16023822  0.51259038  0.32785374  1.0
  N  N164  1  0.32678539  0.67212407  0.84031867  1.0
  N  N165  1  0.49364109  0.15968431  0.51250858  1.0
  N  N166  1  0.66023842  0.48740979  0.67214622  1.0
  N  N167  1  0.82678605  0.32787681  0.15968205  1.0
  N  N168  1  0.09873835  0.56094072  0.49611765  1.0
  N  N169  1  0.26530401  0.50391746  0.05708837  1.0
  N  N170  1  0.43197836  0.94290094  0.56100182  1.0
  N  N171  1  0.59873818  0.43905892  0.50388228  1.0
  N  N172  1  0.76530342  0.49608208  0.94291166  1.0
  N  N173  1  0.93197756  0.05709850  0.43899829  1.0
  Cl  Cl174  1  0.11516048  0.31990776  0.55081759  1.0
  Cl  Cl175  1  0.28176841  0.44915157  0.87071385  1.0
  Cl  Cl176  1  0.44822775  0.12927622  0.31994778  1.0
  Cl  Cl177  1  0.61516130  0.68009250  0.44918564  1.0
  Cl  Cl178  1  0.78177169  0.55084919  0.12928487  1.0
  Cl  Cl179  1  0.94822949  0.87072126  0.68005169  1.0
  O  O180  1  0.32073919  0.49092657  0.48169628  1.0
  O  O181  1  0.48721421  0.51821220  0.97260378  1.0
  O  O182  1  0.65383707  0.02745599  0.49091049  1.0
  O  O183  1  0.82073832  0.50907351  0.51830377  1.0
  O  O184  1  0.98721559  0.48178834  0.02739636  1.0
  O  O185  1  0.15383781  0.97254428  0.50908816  1.0
  O  O186  1  0.42397105  0.52270202  0.57476656  1.0
  O  O187  1  0.59054811  0.42528978  0.09745315  1.0
  O  O188  1  0.75722147  0.90271178  0.52253855  1.0
  O  O189  1  0.92397079  0.47729880  0.42523421  1.0
  O  O190  1  0.09054759  0.57471076  0.90254612  1.0
  O  O191  1  0.25722081  0.09728719  0.47746147  1.0
