# generated using pymatgen
data_ZnH21C23NO6
_symmetry_space_group_name_H-M   'P 1'
_cell_length_a   11.89516232
_cell_length_b   13.06703391
_cell_length_c   16.04248330
_cell_angle_alpha   88.38927685
_cell_angle_beta   84.64788367
_cell_angle_gamma   82.70043564
_symmetry_Int_Tables_number   1
_chemical_formula_structural   ZnH21C23NO6
_chemical_formula_sum   'Zn2 H42 C46 N2 O12'
_cell_volume   2462.22913045
_cell_formula_units_Z   2
loop_
 _symmetry_equiv_pos_site_id
 _symmetry_equiv_pos_as_xyz
  1  'x, y, z'
loop_
 _atom_site_type_symbol
 _atom_site_label
 _atom_site_symmetry_multiplicity
 _atom_site_fract_x
 _atom_site_fract_y
 _atom_site_fract_z
 _atom_site_occupancy
  Zn  Zn0  1  0.62182043  0.50203494  0.48064010  1.0
  Zn  Zn1  1  0.37816201  0.49796643  0.51937067  1.0
  H  H2  1  0.30491495  0.57996974  0.04003809  1.0
  H  H3  1  0.73517457  0.95979335  0.48340917  1.0
  H  H4  1  0.80723203  0.42449620  0.57874644  1.0
  H  H5  1  0.19275607  0.57548697  0.42122684  1.0
  H  H6  1  0.88065649  0.03120008  0.53430133  1.0
  H  H7  1  0.88386866  0.03187989  0.42350435  1.0
  H  H8  1  0.95424393  0.12125917  0.47339655  1.0
  H  H9  1  0.77441658  0.21280385  0.42772002  1.0
  H  H10  1  0.77184095  0.21215796  0.53562541  1.0
  H  H11  1  0.11611471  0.96813559  0.57647931  1.0
  H  H12  1  0.11936136  0.96880259  0.46567524  1.0
  H  H13  1  0.69506769  0.42000158  0.95997502  1.0
  H  H14  1  0.04574124  0.87875561  0.52657766  1.0
  H  H15  1  0.22815383  0.78782467  0.46439231  1.0
  H  H16  1  0.22555922  0.78721758  0.57229772  1.0
  H  H17  1  0.84470624  0.71585916  0.27392679  1.0
  H  H18  1  0.77573189  0.76108862  0.37250591  1.0
  H  H19  1  0.58763056  0.72919155  0.32784561  1.0
  H  H20  1  0.65310954  0.81559539  0.25591408  1.0
  H  H21  1  0.65417793  0.68353475  0.22951175  1.0
  H  H22  1  0.22421340  0.23889076  0.62753265  1.0
  H  H23  1  0.15526465  0.28418926  0.72609520  1.0
  H  H24  1  0.47477370  0.67596958  0.94198452  1.0
  H  H25  1  0.34582493  0.31651596  0.77045880  1.0
  H  H26  1  0.34685688  0.18444754  0.74412576  1.0
  H  H27  1  0.41235005  0.27077619  0.67214276  1.0
  H  H28  1  0.03587128  0.21175608  0.62426773  1.0
  H  H29  1  0.90766207  0.27188991  0.58567341  1.0
  H  H30  1  0.81208237  0.28095525  0.73274189  1.0
  H  H31  1  0.86511272  0.15147841  0.70543663  1.0
  H  H32  1  0.94053373  0.22038453  0.77127089  1.0
  H  H33  1  0.09240696  0.72809543  0.41425760  1.0
  H  H34  1  0.96410569  0.78821170  0.37580192  1.0
  H  H35  1  0.52521317  0.32400168  0.05802768  1.0
  H  H36  1  0.05921517  0.77974157  0.22873425  1.0
  H  H37  1  0.13470262  0.84861536  0.29453526  1.0
  H  H38  1  0.18774178  0.71918799  0.26711639  1.0
  H  H39  1  0.36501653  0.39938394  0.94324152  1.0
  H  H40  1  0.63496742  0.60058352  0.05677032  1.0
  H  H41  1  0.37101804  0.19248038  0.51108032  1.0
  H  H42  1  0.62896337  0.80751573  0.48891937  1.0
  H  H43  1  0.26482301  0.04020858  0.51659869  1.0
  C  C44  1  0.45950256  0.70063899  0.49811180  1.0
  C  C45  1  0.44715667  0.03277326  0.50401764  1.0
  C  C46  1  0.03897554  0.41827276  0.59379876  1.0
  C  C47  1  0.96101403  0.58172660  0.40616980  1.0
  C  C48  1  0.15416785  0.43122462  0.59142088  1.0
  C  C49  1  0.84582572  0.56876237  0.40854698  1.0
  C  C50  1  0.14438532  0.53588595  0.47018119  1.0
  C  C51  1  0.85560270  0.46410487  0.52979821  1.0
  C  C52  1  0.02670256  0.53072245  0.46835760  1.0
  C  C53  1  0.97329093  0.46926534  0.53160713  1.0
  C  C54  1  0.47213665  0.49607904  0.34018724  1.0
  C  C55  1  0.54046467  0.29936274  0.50188814  1.0
  C  C56  1  0.52787071  0.50392580  0.65982242  1.0
  C  C57  1  0.48557392  0.59793792  0.96893225  1.0
  C  C58  1  0.51441775  0.40203555  0.03108271  1.0
  C  C59  1  0.39165897  0.54441419  0.02180672  1.0
  C  C60  1  0.60833091  0.45556009  0.97820648  1.0
  C  C61  1  0.46471682  0.49929414  0.25057125  1.0
  C  C62  1  0.53530275  0.50070746  0.74943389  1.0
  C  C63  1  0.57543143  0.55582933  0.03049719  1.0
  C  C64  1  0.42455855  0.44414422  0.96951165  1.0
  C  C65  1  0.48106989  0.50248536  0.08579780  1.0
  C  C66  1  0.34419943  0.98791361  0.51058199  1.0
  C  C67  1  0.51892413  0.49748275  0.91420961  1.0
  C  C68  1  0.46744507  0.50189202  0.17436798  1.0
  C  C69  1  0.53254680  0.49808685  0.82564564  1.0
  C  C70  1  0.55152291  0.18325110  0.49916915  1.0
  C  C71  1  0.44847298  0.81674404  0.50082710  1.0
  C  C72  1  0.77146311  0.16057529  0.48266693  1.0
  C  C73  1  0.87770473  0.08163782  0.47833647  1.0
  C  C74  1  0.22853429  0.83942821  0.51733843  1.0
  C  C75  1  0.12228961  0.91837051  0.52165218  1.0
  C  C76  1  0.77086143  0.71028454  0.31957427  1.0
  C  C77  1  0.65579336  0.01208615  0.48941937  1.0
  C  C78  1  0.65940855  0.73606874  0.28082935  1.0
  C  C79  1  0.22911268  0.28973010  0.68043248  1.0
  C  C80  1  0.34056587  0.26395059  0.71916919  1.0
  C  C81  1  0.95751696  0.26480091  0.64040094  1.0
  C  C82  1  0.88977155  0.22761800  0.71713571  1.0
  C  C83  1  0.04245171  0.73520321  0.35958826  1.0
  C  C84  1  0.11005981  0.77247650  0.28281451  1.0
  C  C85  1  0.34128759  0.88236865  0.50962632  1.0
  C  C86  1  0.65870264  0.11763101  0.49038956  1.0
  C  C87  1  0.54971184  0.85981314  0.49464026  1.0
  C  C88  1  0.45027981  0.14018885  0.50537112  1.0
  C  C89  1  0.55283489  0.96722952  0.49599186  1.0
  N  N90  1  0.79651067  0.51115378  0.47057071  1.0
  N  N91  1  0.20348103  0.48883473  0.52940162  1.0
  O  O92  1  0.56050424  0.65445808  0.48423885  1.0
  O  O93  1  0.22600207  0.39501887  0.64826341  1.0
  O  O94  1  0.98931640  0.36510017  0.65897228  1.0
  O  O95  1  0.01067017  0.63490312  0.34099392  1.0
  O  O96  1  0.43945192  0.34554835  0.51561277  1.0
  O  O97  1  0.36993550  0.65633149  0.50935615  1.0
  O  O98  1  0.63004948  0.34367988  0.49081075  1.0
  O  O99  1  0.57272643  0.48913210  0.36252160  1.0
  O  O100  1  0.42729785  0.51069528  0.63749666  1.0
  O  O101  1  0.37977065  0.50078937  0.38765174  1.0
  O  O102  1  0.62022926  0.49941971  0.61234822  1.0
  O  O103  1  0.77399209  0.60497048  0.35169752  1.0
