# generated using pymatgen
data_ZnH11C21(NO2)3
_symmetry_space_group_name_H-M   'P 1'
_cell_length_a   12.60969704
_cell_length_b   13.93662996
_cell_length_c   23.76663274
_cell_angle_alpha   89.81864182
_cell_angle_beta   88.75438135
_cell_angle_gamma   85.29485692
_symmetry_Int_Tables_number   1
_chemical_formula_structural   ZnH11C21(NO2)3
_chemical_formula_sum   'Zn2 H22 C42 N6 O12'
_cell_volume   4161.60625336
_cell_formula_units_Z   2
loop_
 _symmetry_equiv_pos_site_id
 _symmetry_equiv_pos_as_xyz
  1  'x, y, z'
loop_
 _atom_site_type_symbol
 _atom_site_label
 _atom_site_symmetry_multiplicity
 _atom_site_fract_x
 _atom_site_fract_y
 _atom_site_fract_z
 _atom_site_occupancy
  Zn  Zn0  1  0.60971565  0.50537697  0.49838450  1.0
  Zn  Zn1  1  0.39030057  0.49460189  0.50161418  1.0
  H  H2  1  0.33424801  0.49079661  0.78746958  1.0
  H  H3  1  0.55311516  0.73246864  0.94533942  1.0
  H  H4  1  0.45074793  0.26616603  0.94817494  1.0
  H  H5  1  0.54919044  0.73398172  0.05181324  1.0
  H  H6  1  0.62166049  0.97565079  0.49655720  1.0
  H  H7  1  0.37834827  0.02432378  0.50344625  1.0
  H  H8  1  0.90784614  0.43226627  0.57035961  1.0
  H  H9  1  0.00566908  0.35110348  0.64081903  1.0
  H  H10  1  0.07076037  0.46056834  0.63755033  1.0
  H  H11  1  0.12562240  0.35562419  0.60081303  1.0
  H  H12  1  0.09216203  0.56776440  0.42964842  1.0
  H  H13  1  0.66574618  0.50921113  0.21253748  1.0
  H  H14  1  0.99434335  0.64889054  0.35917423  1.0
  H  H15  1  0.87437497  0.64432539  0.39916036  1.0
  H  H16  1  0.92931595  0.53939219  0.36244260  1.0
  H  H17  1  0.33321074  0.49130705  0.68187680  1.0
  H  H18  1  0.66678999  0.50864093  0.31812893  1.0
  H  H19  1  0.67146485  0.50621407  0.67660558  1.0
  H  H20  1  0.32852051  0.49383116  0.32339571  1.0
  H  H21  1  0.67369556  0.50597717  0.78218821  1.0
  H  H22  1  0.32629274  0.49413642  0.21781002  1.0
  H  H23  1  0.44686451  0.26763421  0.05465856  1.0
  C  C24  1  0.54118783  0.31314084  0.49908939  1.0
  C  C25  1  0.40173589  0.49754315  0.29857411  1.0
  C  C26  1  0.59943214  0.50226920  0.75998671  1.0
  C  C27  1  0.40056129  0.49782061  0.24001060  1.0
  C  C28  1  0.50403316  0.49810729  0.79035774  1.0
  C  C29  1  0.49596246  0.50195945  0.20964965  1.0
  C  C30  1  0.44865250  0.79087605  0.50125939  1.0
  C  C31  1  0.55137517  0.20910056  0.49874496  1.0
  C  C32  1  0.45314413  0.97869530  0.50130532  1.0
  C  C33  1  0.54687405  0.02128930  0.49869583  1.0
  C  C34  1  0.55087055  0.12154689  0.49867449  1.0
  C  C35  1  0.45883572  0.68683652  0.50091167  1.0
  C  C36  1  0.44914807  0.87843266  0.50132750  1.0
  C  C37  1  0.97071127  0.52668772  0.47982601  1.0
  C  C38  1  0.02930755  0.47331703  0.52017301  1.0
  C  C39  1  0.50175204  0.49858705  0.61003218  1.0
  C  C40  1  0.49824355  0.50139264  0.38996941  1.0
  C  C41  1  0.14090496  0.47069078  0.51371129  1.0
  C  C42  1  0.85910154  0.52930901  0.48628587  1.0
  C  C43  1  0.51540192  0.58862591  0.12115570  1.0
  C  C44  1  0.48458284  0.41149273  0.87884469  1.0
  C  C45  1  0.47636996  0.41461101  0.12219243  1.0
  C  C46  1  0.40783511  0.49421172  0.76289796  1.0
  C  C47  1  0.52359712  0.58550267  0.87781419  1.0
  C  C48  1  0.47884707  0.41544287  0.05975844  1.0
  C  C49  1  0.52110364  0.58469609  0.94024888  1.0
  C  C50  1  0.49887243  0.50046674  0.02999914  1.0
  C  C51  1  0.50104643  0.49966591  0.97001426  1.0
  C  C52  1  0.51676318  0.58630186  0.05872323  1.0
  C  C53  1  0.48315627  0.41382940  0.94127795  1.0
  C  C54  1  0.46180666  0.33202022  0.03058327  1.0
  C  C55  1  0.53813583  0.66811955  0.96941579  1.0
  C  C56  1  0.46402694  0.33119455  0.97147323  1.0
  C  C57  1  0.59216240  0.50582985  0.23710142  1.0
  C  C58  1  0.53591636  0.66893443  0.02852245  1.0
  C  C59  1  0.05101281  0.39703022  0.61350224  1.0
  C  C60  1  0.94900754  0.60295298  0.38648625  1.0
  C  C61  1  0.40724273  0.49425826  0.70434643  1.0
  C  C62  1  0.59276285  0.50573291  0.29564864  1.0
  C  C63  1  0.50239486  0.49834655  0.67318945  1.0
  C  C64  1  0.49761073  0.50165610  0.32681277  1.0
  C  C65  1  0.59826354  0.50250416  0.70142607  1.0
  N  N66  1  0.49564756  0.50180442  0.14885822  1.0
  N  N67  1  0.50434036  0.49830769  0.85115137  1.0
  N  N68  1  0.76796798  0.52719412  0.49454388  1.0
  N  N69  1  0.23203960  0.47279342  0.50545579  1.0
  N  N70  1  0.98796392  0.42219818  0.56416097  1.0
  N  N71  1  0.01204287  0.57782821  0.43584120  1.0
  O  O72  1  0.62622080  0.35666594  0.49803001  1.0
  O  O73  1  0.46963319  0.33880525  0.85205729  1.0
  O  O74  1  0.45927818  0.34270874  0.14985986  1.0
  O  O75  1  0.54071667  0.65740194  0.85013697  1.0
  O  O76  1  0.37380092  0.64331715  0.50198034  1.0
  O  O77  1  0.44569594  0.35130023  0.50047102  1.0
  O  O78  1  0.55432869  0.64868005  0.49952034  1.0
  O  O79  1  0.59126357  0.50121863  0.58435535  1.0
  O  O80  1  0.40873070  0.49878697  0.41564834  1.0
  O  O81  1  0.41172455  0.49618075  0.58700256  1.0
  O  O82  1  0.58827403  0.50377159  0.41299605  1.0
  O  O83  1  0.53036479  0.66129309  0.14795928  1.0
