# generated using pymatgen
data_AlH5C8SNO5
_symmetry_space_group_name_H-M   'P 1'
_cell_length_a   6.70201500
_cell_length_b   11.01125669
_cell_length_c   12.76087353
_cell_angle_alpha   104.17124219
_cell_angle_beta   105.22129148
_cell_angle_gamma   105.94566888
_symmetry_Int_Tables_number   1
_chemical_formula_structural   AlH5C8SNO5
_chemical_formula_sum   'Al2 H10 C16 S2 N2 O10'
_cell_volume   821.15780924
_cell_formula_units_Z   2
loop_
 _symmetry_equiv_pos_site_id
 _symmetry_equiv_pos_as_xyz
  1  'x, y, z'
loop_
 _atom_site_type_symbol
 _atom_site_label
 _atom_site_symmetry_multiplicity
 _atom_site_fract_x
 _atom_site_fract_y
 _atom_site_fract_z
 _atom_site_occupancy
  Al  Al0  1  0.99941550  0.49964909  0.49940711  1.0
  Al  Al1  1  0.49952854  0.49936532  0.49956256  1.0
  H  H2  1  0.37725929  0.63541402  0.63204789  1.0
  H  H3  1  0.62537457  0.38041541  0.35954574  1.0
  H  H4  1  0.73279406  0.10654690  0.43797756  1.0
  H  H5  1  0.27094733  0.89703144  0.56771580  1.0
  H  H6  1  0.74737239  0.48556820  0.14177740  1.0
  H  H7  1  0.24955494  0.51126393  0.85535661  1.0
  H  H8  1  0.49324280  0.77527442  0.45305471  1.0
  H  H9  1  0.43833687  0.89680709  0.39888768  1.0
  H  H10  1  0.51118242  0.21991423  0.54377865  1.0
  H  H11  1  0.55666714  0.08472020  0.57900957  1.0
  C  C12  1  0.85948659  0.51485617  0.69957880  1.0
  C  C13  1  0.86547238  0.73577967  0.51825254  1.0
  C  C14  1  0.13814152  0.48310111  0.29829800  1.0
  C  C15  1  0.13614700  0.26540819  0.48389899  1.0
  C  C16  1  0.92856842  0.87326082  0.51248280  1.0
  C  C17  1  0.07463957  0.13037376  0.49440409  1.0
  C  C18  1  0.76892641  0.93177918  0.47613992  1.0
  C  C19  1  0.23511962  0.07378577  0.53419758  1.0
  C  C20  1  0.84905312  0.05878724  0.46689930  1.0
  C  C21  1  0.15400789  0.94487665  0.54042021  1.0
  C  C22  1  0.88667740  0.48924501  0.11252326  1.0
  C  C23  1  0.11050750  0.50762422  0.88482991  1.0
  C  C24  1  0.08386513  0.48792800  0.18060492  1.0
  C  C25  1  0.91337950  0.50918760  0.81701657  1.0
  C  C26  1  0.10114363  0.50044452  0.99238643  1.0
  C  C27  1  0.89578357  0.49610276  0.00483985  1.0
  S  S28  1  0.28133646  0.49584517  0.11449216  1.0
  S  S29  1  0.71567032  0.50079273  0.88282054  1.0
  N  N30  1  0.54482294  0.87151297  0.45415969  1.0
  N  N31  1  0.46040487  0.14097931  0.57044221  1.0
  O  O32  1  0.00449040  0.51134146  0.65256575  1.0
  O  O33  1  0.66710171  0.67883846  0.51409458  1.0
  O  O34  1  0.32721493  0.47619534  0.34388809  1.0
  O  O35  1  0.98910059  0.31918553  0.47240230  1.0
  O  O36  1  0.99299041  0.48690481  0.34525572  1.0
  O  O37  1  0.33321707  0.32088478  0.48595136  1.0
  O  O38  1  0.67120757  0.52265857  0.65438898  1.0
  O  O39  1  0.01152696  0.68121190  0.52708775  1.0
  O  O40  1  0.30873125  0.56673423  0.55623490  1.0
  O  O41  1  0.68952132  0.43236875  0.44131328  1.0
