# generated using pymatgen
data_Zn2H17C22Br(N4Cl)2
_symmetry_space_group_name_H-M   'P 1'
_cell_length_a   14.95416132
_cell_length_b   15.21585479
_cell_length_c   15.39422294
_cell_angle_alpha   67.41108691
_cell_angle_beta   64.21253236
_cell_angle_gamma   101.52157792
_symmetry_Int_Tables_number   1
_chemical_formula_structural   Zn2H17C22Br(N4Cl)2
_chemical_formula_sum   'Zn4 H34 C44 Br2 N16 Cl4'
_cell_volume   2613.17645105
_cell_formula_units_Z   2
loop_
 _symmetry_equiv_pos_site_id
 _symmetry_equiv_pos_as_xyz
  1  'x, y, z'
loop_
 _atom_site_type_symbol
 _atom_site_label
 _atom_site_symmetry_multiplicity
 _atom_site_fract_x
 _atom_site_fract_y
 _atom_site_fract_z
 _atom_site_occupancy
  Zn  Zn0  1  0.99663944  0.13089023  0.36726495  1.0
  Zn  Zn1  1  0.99495489  0.85282723  0.63198940  1.0
  Zn  Zn2  1  0.14742864  0.00299282  0.35074151  1.0
  Zn  Zn3  1  0.85149534  0.99038856  0.64944380  1.0
  H  H4  1  0.81275172  0.00453680  0.34822349  1.0
  H  H5  1  0.29611485  0.94888555  0.68194608  1.0
  H  H6  1  0.84396346  0.66493652  0.63454710  1.0
  H  H7  1  0.32735443  0.07192721  0.67226331  1.0
  H  H8  1  0.55907767  0.23654082  0.52584764  1.0
  H  H9  1  0.42877351  0.24415689  0.47985860  1.0
  H  H10  1  0.63687846  0.11718776  0.34797036  1.0
  H  H11  1  0.57679902  0.98607731  0.46344425  1.0
  H  H12  1  0.47313494  0.07512152  0.36084075  1.0
  H  H13  1  0.65006778  0.27151492  0.38467258  1.0
  H  H14  1  0.50803479  0.24379935  0.35563254  1.0
  H  H15  1  0.14272542  0.96767980  0.68731144  1.0
  H  H16  1  0.32183551  0.49265047  0.89749098  1.0
  H  H17  1  0.24557140  0.83796936  0.29361072  1.0
  H  H18  1  0.48374404  0.40449242  0.92008018  1.0
  H  H19  1  0.48204120  0.66317552  0.76550585  1.0
  H  H20  1  0.62268884  0.54031834  0.74854544  1.0
  H  H21  1  0.25014599  0.67253366  0.29933821  1.0
  H  H22  1  0.11692075  0.53753785  0.56145698  1.0
  H  H23  1  0.23574769  0.51207676  0.30098643  1.0
  H  H24  1  0.07804542  0.39496329  0.56204619  1.0
  H  H25  1  0.82744654  0.77666585  0.11224743  1.0
  H  H26  1  0.37807550  0.19198074  0.08859547  1.0
  H  H27  1  0.05060451  0.97757900  0.06920882  1.0
  H  H28  1  0.60808238  0.00280336  0.69843611  1.0
  H  H29  1  0.79737705  0.88232161  0.23108726  1.0
  H  H30  1  0.64129139  0.83202263  0.68551425  1.0
  H  H31  1  0.18343902  0.33240745  0.30670438  1.0
  H  H32  1  0.79730312  0.96325028  0.89412957  1.0
  H  H33  1  0.95038872  0.75112675  0.88792702  1.0
  H  H34  1  0.16128757  0.34485672  0.10356522  1.0
  H  H35  1  0.35676925  0.15094422  0.31817057  1.0
  H  H36  1  0.46884846  0.04868302  0.69170754  1.0
  H  H37  1  0.45699113  0.94548891  0.66423968  1.0
  C  C38  1  0.87602333  0.97663856  0.33694412  1.0
  C  C39  1  0.20010445  0.29234097  0.11665356  1.0
  C  C40  1  0.00443569  0.20676858  0.58273381  1.0
  C  C41  1  0.80957844  0.72064768  0.63998632  1.0
  C  C42  1  0.28954308  0.10047153  0.40812230  1.0
  C  C43  1  0.09121976  0.30515293  0.48357329  1.0
  C  C44  1  0.29200555  0.07246841  0.50511293  1.0
  C  C45  1  0.30936762  0.30930504  0.04612727  1.0
  C  C46  1  0.87085640  0.85118215  0.93514285  1.0
  C  C47  1  0.46381939  0.02648045  0.63331511  1.0
  C  C48  1  0.36162197  0.02982218  0.63238387  1.0
  C  C49  1  0.70099276  0.70809873  0.67672266  1.0
  C  C50  1  0.56975261  0.21166209  0.46505748  1.0
  C  C51  1  0.56705931  0.05957377  0.43724626  1.0
  C  C52  1  0.57089927  0.10235104  0.51252866  1.0
  C  C53  1  0.19401990  0.80495442  0.38469016  1.0
  C  C54  1  0.39233200  0.08643662  0.50937014  1.0
  C  C55  1  0.47481911  0.20391743  0.44709483  1.0
  C  C56  1  0.45794940  0.03967009  0.44572933  1.0
  C  C57  1  0.40208362  0.49280329  0.87518127  1.0
  C  C58  1  0.40349847  0.40368035  0.94128435  1.0
  C  C59  1  0.49864051  0.59360219  0.78540433  1.0
  C  C60  1  0.15447920  0.70203514  0.47564476  1.0
  C  C61  1  0.60576680  0.60952169  0.73456165  1.0
  C  C62  1  0.20538471  0.60014651  0.38366629  1.0
  C  C63  1  0.16039259  0.60852369  0.47643121  1.0
  C  C64  1  0.19223161  0.50278604  0.38463492  1.0
  C  C65  1  0.67533065  0.05148840  0.60857810  1.0
  C  C66  1  0.12313325  0.40339737  0.47896447  1.0
  C  C67  1  0.95039631  0.93124633  0.01366774  1.0
  C  C68  1  0.87855281  0.84935845  0.02732360  1.0
  C  C69  1  0.96469612  0.93937873  0.09790442  1.0
  C  C70  1  0.88385755  0.91108432  0.20331981  1.0
  C  C71  1  0.67132319  0.10619241  0.51416803  1.0
  C  C72  1  0.09182115  0.70768254  0.57152563  1.0
  C  C73  1  0.78291565  0.15425776  0.42307731  1.0
  C  C74  1  0.70572375  0.80546697  0.66673717  1.0
  C  C75  1  0.99699994  0.91297148  0.29019082  1.0
  C  C76  1  0.91194775  0.92677027  0.27736584  1.0
  C  C77  1  0.12089297  0.28132844  0.39795202  1.0
  C  C78  1  0.18071018  0.00710766  0.59605086  1.0
  C  C79  1  0.31056169  0.21449822  0.11009105  1.0
  C  C80  1  0.83454886  0.91269362  0.87655369  1.0
  C  C81  1  0.91194922  0.80391338  0.87418568  1.0
  Br  Br82  1  0.05753041  0.05728500  0.86311088  1.0
  Br  Br83  1  0.85387247  0.24516221  0.26447983  1.0
  N  N84  1  0.93708940  0.99328854  0.37779712  1.0
  N  N85  1  0.15668874  0.86398210  0.42370212  1.0
  N  N86  1  0.77926632  0.06564462  0.57592166  1.0
  N  N87  1  0.09258839  0.80327644  0.54101311  1.0
  N  N88  1  0.84680044  0.12980925  0.45936253  1.0
  N  N89  1  0.80763356  0.86800229  0.63028992  1.0
  N  N90  1  0.01099079  0.95218749  0.35050417  1.0
  N  N91  1  0.05627780  0.17898854  0.44362370  1.0
  N  N92  1  0.11754992  0.99493515  0.55586627  1.0
  N  N93  1  0.21105560  0.14743366  0.20930235  1.0
  N  N94  1  0.85333038  0.90357459  0.78736067  1.0
  N  N95  1  0.90209133  0.83601316  0.78553513  1.0
  N  N96  1  0.14246305  0.19620809  0.21366978  1.0
  N  N97  1  0.98435073  0.13215650  0.55854394  1.0
  N  N98  1  0.18496438  0.05223868  0.43994905  1.0
  N  N99  1  0.87164980  0.81604491  0.61369959  1.0
  Cl  Cl100  1  0.92613678  0.18182415  0.71718436  1.0
  Cl  Cl101  1  0.37535400  0.89911543  0.51285058  1.0
  Cl  Cl102  1  0.01709179  0.61025095  0.71280883  1.0
  Cl  Cl103  1  0.07404488  0.85257600  0.24239979  1.0
