# generated using pymatgen
data_ZnH12C18NO4
_symmetry_space_group_name_H-M   'P 1'
_cell_length_a   13.12574276
_cell_length_b   13.12575642
_cell_length_c   13.90699235
_cell_angle_alpha   106.77761561
_cell_angle_beta   106.77722044
_cell_angle_gamma   91.43740737
_symmetry_Int_Tables_number   1
_chemical_formula_structural   ZnH12C18NO4
_chemical_formula_sum   'Zn4 H48 C72 N4 O16'
_cell_volume   2180.92239769
_cell_formula_units_Z   4
loop_
 _symmetry_equiv_pos_site_id
 _symmetry_equiv_pos_as_xyz
  1  'x, y, z'
loop_
 _atom_site_type_symbol
 _atom_site_label
 _atom_site_symmetry_multiplicity
 _atom_site_fract_x
 _atom_site_fract_y
 _atom_site_fract_z
 _atom_site_occupancy
  Zn  Zn0  1  0.13378181  0.81333086  0.13555854  1.0
  Zn  Zn1  1  0.18667489  0.86621904  0.36444355  1.0
  Zn  Zn2  1  0.86621472  0.18667000  0.86444081  1.0
  Zn  Zn3  1  0.81332463  0.13378022  0.63555545  1.0
  H  H4  1  0.09530863  0.46527999  0.04898904  1.0
  H  H5  1  0.09774078  0.27312417  0.03663381  1.0
  H  H6  1  0.19402715  0.55470744  0.38783342  1.0
  H  H7  1  0.13499360  0.13267858  0.12625082  1.0
  H  H8  1  0.07630486  0.95824701  0.01606832  1.0
  H  H9  1  0.08683409  0.99002088  0.85113425  1.0
  H  H10  1  0.20338756  0.68074166  0.77321001  1.0
  H  H11  1  0.11965271  0.59039225  0.95142713  1.0
  H  H12  1  0.22155806  0.57685334  0.88829417  1.0
  H  H13  1  0.25141641  0.65150348  0.02542738  1.0
  H  H14  1  0.21307164  0.21909318  0.46380203  1.0
  H  H15  1  0.21688770  0.41191204  0.47698237  1.0
  H  H16  1  0.53471787  0.90469724  0.45100840  1.0
  H  H17  1  0.72687501  0.90225911  0.46336965  1.0
  H  H18  1  0.44529530  0.80597501  0.11216574  1.0
  H  H19  1  0.86732343  0.86500414  0.37375656  1.0
  H  H20  1  0.04175477  0.92369651  0.48393423  1.0
  H  H21  1  0.00997804  0.91316517  0.64886516  1.0
  H  H22  1  0.31925828  0.79661100  0.72679170  1.0
  H  H23  1  0.40960545  0.88034794  0.54857452  1.0
  H  H24  1  0.42314850  0.77844147  0.61170719  1.0
  H  H25  1  0.34849872  0.74858252  0.47457305  1.0
  H  H26  1  0.78090949  0.78692770  0.03620095  1.0
  H  H27  1  0.58809166  0.78311398  0.02301853  1.0
  H  H28  1  0.90469061  0.53471685  0.95100781  1.0
  H  H29  1  0.90225555  0.72687507  0.96336361  1.0
  H  H30  1  0.80597503  0.44529422  0.61216550  1.0
  H  H31  1  0.86500365  0.86732150  0.87375139  1.0
  H  H32  1  0.92369634  0.04175305  0.98393063  1.0
  H  H33  1  0.91316435  0.00997596  0.14886237  1.0
  H  H34  1  0.79661109  0.31925681  0.22679070  1.0
  H  H35  1  0.88034733  0.40960459  0.04856992  1.0
  H  H36  1  0.77844244  0.42314751  0.11170337  1.0
  H  H37  1  0.74858320  0.34849657  0.97457114  1.0
  H  H38  1  0.78692976  0.78090849  0.53619957  1.0
  H  H39  1  0.78311191  0.58808802  0.52301543  1.0
  H  H40  1  0.46528505  0.09530366  0.54899555  1.0
  H  H41  1  0.27312833  0.09773858  0.53663283  1.0
  H  H42  1  0.55470497  0.19403068  0.88783807  1.0
  H  H43  1  0.13267894  0.13499196  0.62624739  1.0
  H  H44  1  0.95824724  0.07630357  0.51606638  1.0
  H  H45  1  0.99002176  0.08683649  0.35113384  1.0
  H  H46  1  0.68074364  0.20338827  0.27320867  1.0
  H  H47  1  0.59039727  0.11965135  0.45142751  1.0
  H  H48  1  0.57685413  0.22155701  0.38829387  1.0
  H  H49  1  0.65150559  0.25141676  0.52542868  1.0
  H  H50  1  0.21909129  0.21307556  0.96379946  1.0
  H  H51  1  0.41191091  0.21689091  0.97698495  1.0
  C  C52  1  0.14936252  0.63733113  0.22745045  1.0
  C  C53  1  0.14660804  0.52114551  0.22013288  1.0
  C  C54  1  0.11819949  0.44106184  0.12016620  1.0
  C  C55  1  0.11986995  0.33451806  0.11362164  1.0
  C  C56  1  0.17303187  0.49211562  0.31171362  1.0
  C  C57  1  0.14798741  0.30283405  0.20650756  1.0
  C  C58  1  0.15102521  0.19417647  0.20238475  1.0
  C  C59  1  0.10222815  0.89820628  0.95840605  1.0
  C  C60  1  0.10925102  0.91561717  0.86666854  1.0
  C  C61  1  0.14847788  0.83752981  0.79855298  1.0
  C  C62  1  0.17531921  0.74469050  0.82558876  1.0
  C  C63  1  0.16464134  0.73108124  0.91829607  1.0
  C  C64  1  0.19133526  0.63150923  0.94699805  1.0
  C  C65  1  0.17287635  0.16408463  0.29318763  1.0
  C  C66  1  0.16910341  0.04760702  0.28480197  1.0
  C  C67  1  0.19572913  0.24382703  0.39302809  1.0
  C  C68  1  0.19733770  0.35065129  0.40001664  1.0
  C  C69  1  0.17312885  0.38331552  0.30773678  1.0
  C  C70  1  0.36267141  0.85065021  0.27255262  1.0
  C  C71  1  0.47885589  0.85339777  0.27986838  1.0
  C  C72  1  0.55893748  0.88180555  0.37983484  1.0
  C  C73  1  0.66548143  0.88013394  0.38637951  1.0
  C  C74  1  0.50788242  0.82697321  0.18828708  1.0
  C  C75  1  0.69716656  0.85201052  0.29349641  1.0
  C  C76  1  0.80582481  0.84896934  0.29761670  1.0
  C  C77  1  0.10179543  0.89777046  0.54159431  1.0
  C  C78  1  0.08438051  0.89075059  0.63332942  1.0
  C  C79  1  0.16247267  0.85151928  0.70144972  1.0
  C  C80  1  0.25530956  0.82467987  0.67441342  1.0
  C  C81  1  0.26891951  0.83535789  0.58170704  1.0
  C  C82  1  0.36849022  0.80866264  0.55300395  1.0
  C  C83  1  0.83591890  0.82711406  0.20682033  1.0
  C  C84  1  0.95238909  0.83088595  0.21519040  1.0
  C  C85  1  0.75617639  0.80426778  0.10697529  1.0
  C  C86  1  0.64935113  0.80266144  0.09998885  1.0
  C  C87  1  0.61668610  0.82687180  0.19226694  1.0
  C  C88  1  0.85063366  0.36266724  0.77253519  1.0
  C  C89  1  0.85339159  0.47885456  0.77986781  1.0
  C  C90  1  0.88179940  0.55893900  0.87983018  1.0
  C  C91  1  0.88012781  0.66547960  0.88637718  1.0
  C  C92  1  0.82696675  0.50788282  0.68828277  1.0
  C  C93  1  0.85200796  0.69716360  0.79349134  1.0
  C  C94  1  0.84896777  0.80582117  0.79761279  1.0
  C  C95  1  0.89776880  0.10179136  0.04159111  1.0
  C  C96  1  0.89074680  0.08438126  0.13332619  1.0
  C  C97  1  0.85151828  0.16246784  0.20144541  1.0
  C  C98  1  0.82468120  0.25530956  0.17441069  1.0
  C  C99  1  0.83535738  0.26891802  0.08170200  1.0
  C  C100  1  0.80866338  0.36848922  0.05299978  1.0
  C  C101  1  0.82711938  0.83591622  0.70681223  1.0
  C  C102  1  0.83089496  0.95238257  0.71518550  1.0
  C  C103  1  0.80426917  0.75617542  0.60697072  1.0
  C  C104  1  0.80266025  0.64934797  0.59998410  1.0
  C  C105  1  0.82686660  0.61668293  0.69226164  1.0
  C  C106  1  0.63732536  0.14935302  0.72744240  1.0
  C  C107  1  0.52114460  0.14660955  0.72014095  1.0
  C  C108  1  0.44106534  0.11819454  0.62016814  1.0
  C  C109  1  0.33451952  0.11986373  0.61362161  1.0
  C  C110  1  0.49211458  0.17303167  0.81171635  1.0
  C  C111  1  0.30283528  0.14798797  0.70650660  1.0
  C  C112  1  0.19417515  0.15102672  0.70238157  1.0
  C  C113  1  0.89820755  0.10223121  0.45840627  1.0
  C  C114  1  0.91562089  0.10925108  0.36667073  1.0
  C  C115  1  0.83752855  0.14848080  0.29855139  1.0
  C  C116  1  0.74469095  0.17532099  0.32558628  1.0
  C  C117  1  0.73108030  0.16464378  0.41829412  1.0
  C  C118  1  0.63151321  0.19133584  0.44699805  1.0
  C  C119  1  0.16408111  0.17288205  0.79318587  1.0
  C  C120  1  0.04760336  0.16910761  0.78479439  1.0
  C  C121  1  0.24382510  0.19573469  0.89302510  1.0
  C  C122  1  0.35064853  0.19734585  0.90001594  1.0
  C  C123  1  0.38331639  0.17313230  0.80773847  1.0
  N  N124  1  0.12919904  0.80914367  0.98447803  1.0
  N  N125  1  0.19085731  0.87079888  0.51552157  1.0
  N  N126  1  0.87079879  0.19085478  0.01551887  1.0
  N  N127  1  0.80914539  0.12920038  0.48447684  1.0
  O  O128  1  0.10711713  0.66074644  0.14282098  1.0
  O  O129  1  0.19489252  0.70421216  0.31833387  1.0
  O  O130  1  0.16582532  0.02251833  0.36643374  1.0
  O  O131  1  0.16730914  0.98167486  0.19695714  1.0
  O  O132  1  0.33925276  0.89289364  0.35717873  1.0
  O  O133  1  0.29578878  0.80511847  0.18166694  1.0
  O  O134  1  0.97748110  0.83417783  0.13356891  1.0
  O  O135  1  0.01833292  0.83267432  0.30304559  1.0
  O  O136  1  0.89289187  0.33925207  0.85718325  1.0
  O  O137  1  0.80511047  0.29578952  0.68166887  1.0
  O  O138  1  0.83418183  0.97747779  0.63357150  1.0
  O  O139  1  0.83268815  0.01833243  0.80304773  1.0
  O  O140  1  0.66074330  0.10711685  0.64282667  1.0
  O  O141  1  0.70421525  0.19489207  0.81834277  1.0
  O  O142  1  0.02251280  0.16582782  0.86643174  1.0
  O  O143  1  0.98167443  0.16730977  0.69695360  1.0
