# generated using pymatgen
data_MnH17C19SN3O7
_symmetry_space_group_name_H-M   'P 1'
_cell_length_a   8.44974966
_cell_length_b   11.61114868
_cell_length_c   28.22148528
_cell_angle_alpha   90.00048312
_cell_angle_beta   90.00051571
_cell_angle_gamma   73.73722860
_symmetry_Int_Tables_number   1
_chemical_formula_structural   MnH17C19SN3O7
_chemical_formula_sum   'Mn4 H68 C76 S4 N12 O28'
_cell_volume   2658.05800078
_cell_formula_units_Z   4
loop_
 _symmetry_equiv_pos_site_id
 _symmetry_equiv_pos_as_xyz
  1  'x, y, z'
loop_
 _atom_site_type_symbol
 _atom_site_label
 _atom_site_symmetry_multiplicity
 _atom_site_fract_x
 _atom_site_fract_y
 _atom_site_fract_z
 _atom_site_occupancy
  Mn  Mn0  1  0.18610573  0.63719874  0.19972109  1.0
  Mn  Mn1  1  0.31389790  0.36279576  0.69972175  1.0
  Mn  Mn2  1  0.81389443  0.36280237  0.80028020  1.0
  Mn  Mn3  1  0.68610387  0.63720087  0.30027848  1.0
  H  H4  1  0.83987609  0.66420108  0.19545009  1.0
  H  H5  1  0.66012530  0.33580133  0.69545060  1.0
  H  H6  1  0.16012773  0.33579641  0.80454979  1.0
  H  H7  1  0.33987582  0.66419709  0.30454927  1.0
  H  H8  1  0.93008857  0.67204162  0.14450996  1.0
  H  H9  1  0.56991072  0.32795913  0.64450984  1.0
  H  H10  1  0.06990976  0.32796130  0.85549027  1.0
  H  H11  1  0.43008825  0.67204201  0.35549003  1.0
  H  H12  1  0.41627348  0.51951399  0.12175506  1.0
  H  H13  1  0.08372880  0.48048108  0.62175552  1.0
  H  H14  1  0.58372407  0.48048449  0.87824446  1.0
  H  H15  1  0.91627177  0.51951557  0.37824436  1.0
  H  H16  1  0.65205142  0.61045316  0.12730627  1.0
  H  H17  1  0.84795707  0.38954360  0.62731208  1.0
  H  H18  1  0.34795090  0.38954524  0.87269219  1.0
  H  H19  1  0.15205192  0.61044935  0.37269027  1.0
  H  H20  1  0.76454578  0.47678051  0.15573984  1.0
  H  H21  1  0.73546427  0.52321757  0.65574263  1.0
  H  H22  1  0.23545599  0.52321612  0.84425826  1.0
  H  H23  1  0.26453941  0.47677368  0.34425831  1.0
  H  H24  1  0.46430003  0.31433810  0.01914110  1.0
  H  H25  1  0.03569918  0.68566697  0.51914214  1.0
  H  H26  1  0.53569487  0.68567112  0.98085877  1.0
  H  H27  1  0.96429631  0.31433065  0.48085702  1.0
  H  H28  1  0.57471958  0.32804948  0.93750435  1.0
  H  H29  1  0.92527632  0.67195866  0.43750551  1.0
  H  H30  1  0.42527358  0.67195799  0.06249552  1.0
  H  H31  1  0.07471995  0.32804341  0.56249401  1.0
  H  H32  1  0.01269091  0.38821143  0.99702502  1.0
  H  H33  1  0.48731048  0.61178427  0.49702578  1.0
  H  H34  1  0.98730815  0.61178614  0.00297308  1.0
  H  H35  1  0.51268803  0.38821152  0.50297303  1.0
  H  H36  1  0.90277805  0.37758735  0.07848382  1.0
  H  H37  1  0.59723346  0.62240681  0.57848446  1.0
  H  H38  1  0.09722632  0.62241192  0.92151499  1.0
  H  H39  1  0.40276729  0.37758271  0.42151400  1.0
  H  H40  1  0.05047327  0.46283339  0.13962809  1.0
  H  H41  1  0.44952968  0.53716463  0.63962547  1.0
  H  H42  1  0.94953404  0.53716761  0.86037108  1.0
  H  H43  1  0.55045976  0.46283666  0.36037122  1.0
  H  H44  1  0.03832273  0.25257129  0.13821354  1.0
  H  H45  1  0.46167694  0.74742586  0.63821274  1.0
  H  H46  1  0.96168577  0.74742969  0.86178598  1.0
  H  H47  1  0.53831521  0.25257449  0.36178607  1.0
  H  H48  1  0.35017846  0.19061949  0.26293549  1.0
  H  H49  1  0.14981970  0.80938234  0.76293159  1.0
  H  H50  1  0.64981447  0.80938530  0.73706757  1.0
  H  H51  1  0.85018326  0.19061427  0.23706934  1.0
  H  H52  1  0.35483980  0.40153737  0.25713815  1.0
  H  H53  1  0.14515876  0.59846616  0.75713351  1.0
  H  H54  1  0.64515345  0.59846654  0.74286420  1.0
  H  H55  1  0.85484474  0.40153223  0.24286494  1.0
  H  H56  1  0.02076354  0.87504520  0.14520253  1.0
  H  H57  1  0.47923652  0.12495473  0.64520140  1.0
  H  H58  1  0.97924614  0.12495576  0.85479805  1.0
  H  H59  1  0.52076016  0.87504287  0.35479883  1.0
  H  H60  1  0.00901859  0.08989184  0.14405132  1.0
  H  H61  1  0.49098415  0.91010714  0.64405011  1.0
  H  H62  1  0.99099110  0.91010912  0.85594820  1.0
  H  H63  1  0.50902031  0.08988856  0.35594977  1.0
  H  H64  1  0.37018150  0.01398233  0.25741920  1.0
  H  H65  1  0.12981794  0.98602208  0.75741622  1.0
  H  H66  1  0.62980983  0.98602695  0.74258386  1.0
  H  H67  1  0.87018699  0.01397896  0.24258436  1.0
  H  H68  1  0.36177399  0.80447195  0.25449974  1.0
  H  H69  1  0.13822235  0.19553424  0.75449758  1.0
  H  H70  1  0.63822123  0.19553638  0.74550474  1.0
  H  H71  1  0.86177717  0.80446867  0.24550442  1.0
  C  C72  1  0.57923055  0.59086841  0.19930518  1.0
  C  C73  1  0.92078298  0.40914012  0.69930842  1.0
  C  C74  1  0.42077208  0.40912910  0.80069327  1.0
  C  C75  1  0.07922226  0.59086002  0.30069322  1.0
  C  C76  1  0.64012556  0.53727555  0.15081871  1.0
  C  C77  1  0.85988524  0.46272333  0.65082232  1.0
  C  C78  1  0.35987556  0.46272287  0.84918010  1.0
  C  C79  1  0.14011923  0.53727237  0.34917968  1.0
  C  C80  1  0.67739196  0.34450135  0.05321725  1.0
  C  C81  1  0.82261108  0.65549788  0.55321860  1.0
  C  C82  1  0.32260390  0.65550518  0.94678156  1.0
  C  C83  1  0.17738514  0.34449438  0.44677985  1.0
  C  C84  1  0.58321535  0.33180607  0.01388076  1.0
  C  C85  1  0.91678339  0.66819528  0.51388206  1.0
  C  C86  1  0.41677662  0.66820142  0.98611840  1.0
  C  C87  1  0.08321457  0.33179873  0.48611711  1.0
  C  C88  1  0.64507338  0.33979269  0.96859000  1.0
  C  C89  1  0.85492702  0.66020874  0.46859129  1.0
  C  C90  1  0.35492431  0.66021203  0.03140987  1.0
  C  C91  1  0.14506879  0.33978798  0.53140823  1.0
  C  C92  1  0.79996914  0.35970005  0.96241197  1.0
  C  C93  1  0.70003112  0.64030128  0.46241277  1.0
  C  C94  1  0.20002713  0.64030202  0.03758755  1.0
  C  C95  1  0.29996914  0.35969627  0.53758639  1.0
  C  C96  1  0.89204991  0.37358296  0.00227910  1.0
  C  C97  1  0.60795363  0.62641724  0.50228012  1.0
  C  C98  1  0.10794723  0.62641999  0.99771971  1.0
  C  C99  1  0.39204369  0.37357857  0.49771833  1.0
  C  C100  1  0.83089344  0.36682021  0.04761432  1.0
  C  C101  1  0.66911311  0.63317532  0.54761518  1.0
  C  C102  1  0.16910434  0.63318095  0.95238449  1.0
  C  C103  1  0.33088453  0.36681960  0.45238434  1.0
  C  C104  1  0.87088769  0.36280707  0.91374844  1.0
  C  C105  1  0.62911693  0.63719788  0.41374833  1.0
  C  C106  1  0.12911532  0.63719935  0.08625108  1.0
  C  C107  1  0.37088062  0.36280060  0.58625119  1.0
  C  C108  1  0.11503574  0.39886861  0.16636975  1.0
  C  C109  1  0.38496635  0.60113074  0.66637037  1.0
  C  C110  1  0.88496704  0.60113514  0.83362765  1.0
  C  C111  1  0.61502992  0.39887133  0.33362774  1.0
  C  C112  1  0.10991815  0.28053810  0.16564881  1.0
  C  C113  1  0.39008511  0.71946122  0.66564737  1.0
  C  C114  1  0.89009273  0.71946284  0.83435071  1.0
  C  C115  1  0.60991363  0.28053725  0.33435392  1.0
  C  C116  1  0.19500960  0.20002988  0.20026319  1.0
  C  C117  1  0.30498306  0.79997551  0.70026003  1.0
  C  C118  1  0.80498952  0.79997749  0.79973881  1.0
  C  C119  1  0.69501202  0.20002658  0.29974090  1.0
  C  C120  1  0.28307510  0.24563811  0.23424034  1.0
  C  C121  1  0.21691998  0.75436332  0.73423749  1.0
  C  C122  1  0.71692547  0.75435854  0.76576025  1.0
  C  C123  1  0.78307748  0.24563873  0.26576203  1.0
  C  C124  1  0.28399421  0.36494989  0.23188029  1.0
  C  C125  1  0.21600645  0.63505230  0.73187632  1.0
  C  C126  1  0.71600770  0.63505298  0.76812136  1.0
  C  C127  1  0.78398625  0.36494983  0.26812143  1.0
  C  C128  1  0.09680588  0.90991034  0.16941262  1.0
  C  C129  1  0.40319683  0.09009083  0.66941045  1.0
  C  C130  1  0.90320197  0.09009243  0.83058903  1.0
  C  C131  1  0.59680365  0.90990939  0.33058801  1.0
  C  C132  1  0.09218147  0.03053078  0.16880516  1.0
  C  C133  1  0.40781765  0.96947044  0.66880358  1.0
  C  C134  1  0.90782075  0.96947119  0.83119507  1.0
  C  C135  1  0.59218347  0.03052799  0.33119629  1.0
  C  C136  1  0.19215064  0.07315622  0.20030690  1.0
  C  C137  1  0.30784211  0.92684560  0.70030313  1.0
  C  C138  1  0.80784348  0.92684856  0.79969616  1.0
  C  C139  1  0.69215814  0.07315195  0.29969851  1.0
  C  C140  1  0.28977222  0.98894002  0.23169358  1.0
  C  C141  1  0.21021946  0.01106410  0.73168955  1.0
  C  C142  1  0.71022071  0.01106478  0.76831019  1.0
  C  C143  1  0.78977951  0.98893703  0.26831103  1.0
  C  C144  1  0.28631312  0.87010495  0.23023915  1.0
  C  C145  1  0.21368543  0.12989636  0.73023591  1.0
  C  C146  1  0.71368544  0.12990065  0.76976462  1.0
  C  C147  1  0.78631625  0.87010384  0.26976468  1.0
  S  S148  1  0.60020745  0.33488011  0.11143590  1.0
  S  S149  1  0.89979232  0.66511654  0.61143820  1.0
  S  S150  1  0.39977582  0.66511860  0.88856079  1.0
  S  S151  1  0.10021159  0.33487738  0.38855990  1.0
  N  N152  1  0.53515815  0.47094730  0.13076706  1.0
  N  N153  1  0.96484740  0.52905135  0.63076907  1.0
  N  N154  1  0.46484297  0.52905113  0.86923246  1.0
  N  N155  1  0.03515436  0.47094528  0.36923187  1.0
  N  N156  1  0.20022964  0.44158336  0.19888913  1.0
  N  N157  1  0.29978014  0.55841370  0.69888831  1.0
  N  N158  1  0.79977322  0.55841682  0.80111145  1.0
  N  N159  1  0.70021590  0.44158569  0.30110979  1.0
  N  N160  1  0.19222124  0.82979514  0.19946312  1.0
  N  N161  1  0.30777711  0.17020747  0.69946061  1.0
  N  N162  1  0.80778153  0.17020861  0.80054030  1.0
  N  N163  1  0.69222456  0.82979273  0.30053926  1.0
  O  O164  1  0.44367299  0.58375239  0.21541470  1.0
  O  O165  1  0.05632915  0.41625755  0.71542018  1.0
  O  O166  1  0.55632827  0.41625228  0.78458446  1.0
  O  O167  1  0.94367157  0.58374534  0.28458182  1.0
  O  O168  1  0.67544350  0.63974129  0.22172272  1.0
  O  O169  1  0.82456132  0.36025703  0.72172659  1.0
  O  O170  1  0.32457250  0.36024530  0.77827893  1.0
  O  O171  1  0.17544378  0.63973687  0.27827506  1.0
  O  O172  1  0.45781274  0.29012731  0.10713961  1.0
  O  O173  1  0.04219721  0.70986829  0.60714394  1.0
  O  O174  1  0.54219933  0.70987361  0.89285778  1.0
  O  O175  1  0.95779805  0.29012666  0.39285310  1.0
  O  O176  1  0.74063456  0.27291176  0.14024913  1.0
  O  O177  1  0.75936980  0.72708438  0.64025021  1.0
  O  O178  1  0.25937205  0.72708122  0.85975180  1.0
  O  O179  1  0.24062729  0.27290876  0.35975002  1.0
  O  O180  1  0.77217969  0.36866451  0.87837491  1.0
  O  O181  1  0.72781931  0.63133996  0.37837576  1.0
  O  O182  1  0.22781800  0.63134021  0.12162460  1.0
  O  O183  1  0.27217801  0.36865585  0.62162376  1.0
  O  O184  1  0.02161580  0.35869511  0.91008661  1.0
  O  O185  1  0.47838496  0.64131170  0.41008781  1.0
  O  O186  1  0.97838189  0.64130961  0.08991114  1.0
  O  O187  1  0.52161250  0.35869035  0.58991171  1.0
  O  O188  1  0.93022646  0.69020238  0.17963500  1.0
  O  O189  1  0.56977263  0.30980517  0.67963624  1.0
  O  O190  1  0.06977155  0.30980144  0.82036488  1.0
  O  O191  1  0.43022387  0.69019957  0.32036399  1.0
