# generated using pymatgen
data_Zr3H16C45(Br5O4)4
_symmetry_space_group_name_H-M   'P 1'
_cell_length_a   11.60504328
_cell_length_b   20.55514782
_cell_length_c   34.71064623
_cell_angle_alpha   91.07061767
_cell_angle_beta   99.52769214
_cell_angle_gamma   90.20126842
_symmetry_Int_Tables_number   1
_chemical_formula_structural   Zr3H16C45(Br5O4)4
_chemical_formula_sum   'Zr6 H32 C90 Br40 O32'
_cell_volume   8164.16953376
_cell_formula_units_Z   2
loop_
 _symmetry_equiv_pos_site_id
 _symmetry_equiv_pos_as_xyz
  1  'x, y, z'
loop_
 _atom_site_type_symbol
 _atom_site_label
 _atom_site_symmetry_multiplicity
 _atom_site_fract_x
 _atom_site_fract_y
 _atom_site_fract_z
 _atom_site_occupancy
  Zr  Zr0  1  0.05606409  0.89891452  0.04257365  1.0
  Zr  Zr1  1  0.01449003  0.08992882  0.96238315  1.0
  Zr  Zr2  1  0.91413222  0.04877626  0.04906593  1.0
  Zr  Zr3  1  0.16558911  0.94242260  0.95720909  1.0
  Zr  Zr4  1  0.85322447  0.94190422  0.95991352  1.0
  Zr  Zr5  1  0.22602291  0.04486614  0.04222823  1.0
  H  H6  1  0.00787945  0.83704053  0.96899592  1.0
  H  H7  1  0.77824143  0.06982491  0.96566279  1.0
  H  H8  1  0.25658717  0.06988102  0.96278911  1.0
  H  H9  1  0.11057936  0.99603399  0.10353231  1.0
  H  H10  1  0.65724762  0.91677622  0.99462702  1.0
  H  H11  1  0.96811648  0.08920045  0.12405694  1.0
  H  H12  1  0.25531233  0.10398718  0.11494047  1.0
  H  H13  1  0.82069461  0.87537611  0.89176052  1.0
  H  H14  1  0.12453219  0.82892763  0.91314914  1.0
  H  H15  1  0.38766435  0.95848455  0.93832157  1.0
  H  H16  1  0.39138854  0.99544913  0.99638078  1.0
  H  H17  1  0.76945018  0.99000906  0.89010267  1.0
  H  H18  1  0.86968632  0.18071491  0.92000615  1.0
  H  H19  1  0.23494312  0.83163985  0.09240643  1.0
  H  H20  1  0.33140423  0.98023872  0.10635304  1.0
  H  H21  1  0.00011970  0.87053882  0.90740910  1.0
  H  H22  1  0.93564322  0.14030378  0.89032744  1.0
  H  H23  1  0.68679002  0.08044540  0.03683958  1.0
  H  H24  1  0.69427069  0.99066272  0.00863558  1.0
  H  H25  1  0.44150283  0.00448726  0.04313354  1.0
  H  H26  1  0.11386094  0.11392792  0.09871506  1.0
  H  H27  1  0.14206260  0.85371803  0.11909480  1.0
  H  H28  1  0.31900696  0.49242355  0.99922661  1.0
  H  H29  1  0.74931612  0.49619251  0.02111913  1.0
  H  H30  1  0.65388113  0.94076728  0.27528407  1.0
  H  H31  1  0.87578020  0.98146253  0.38496970  1.0
  H  H32  1  0.02888414  0.94594770  0.28238720  1.0
  H  H33  1  0.24862615  0.06516133  0.71071433  1.0
  H  H34  1  0.01949491  0.05544765  0.60000576  1.0
  H  H35  1  0.87484069  0.05898021  0.70606551  1.0
  H  H36  1  0.24104939  0.02125699  0.49606950  1.0
  H  H37  1  0.65992669  0.01945612  0.48791866  1.0
  C  C38  1  0.83964158  0.80356760  0.00936645  1.0
  C  C39  1  0.22907443  0.80302214  0.00233465  1.0
  C  C40  1  0.90560196  0.93143604  0.11296730  1.0
  C  C41  1  0.86012947  0.19120105  0.00888633  1.0
  C  C42  1  0.22747986  0.18472506  0.00027164  1.0
  C  C43  1  0.12151824  0.04561517  0.88356919  1.0
  C  C44  1  0.47137055  0.55336940  0.00723741  1.0
  C  C45  1  0.59501655  0.55416401  0.01298839  1.0
  C  C46  1  0.65424224  0.49518902  0.01617692  1.0
  C  C47  1  0.59701787  0.43487371  0.01230231  1.0
  C  C48  1  0.47310333  0.43383272  0.00595919  1.0
  C  C49  1  0.41402107  0.49322881  0.00382012  1.0
  C  C50  1  0.84009507  0.94145028  0.27423668  1.0
  C  C51  1  0.74080292  0.94777984  0.29220055  1.0
  C  C52  1  0.75403714  0.96415280  0.33190536  1.0
  C  C53  1  0.86598316  0.97004096  0.35379167  1.0
  C  C54  1  0.96535787  0.96227391  0.33654273  1.0
  C  C55  1  0.95205248  0.94976045  0.29651195  1.0
  C  C56  1  0.06350305  0.06231965  0.71293647  1.0
  C  C57  1  0.16087614  0.06396015  0.69376718  1.0
  C  C58  1  0.14496353  0.06314356  0.65301226  1.0
  C  C59  1  0.03184480  0.05840115  0.63181915  1.0
  C  C60  1  0.93446040  0.05602462  0.65046818  1.0
  C  C61  1  0.95026197  0.05977446  0.69114151  1.0
  C  C62  1  0.36679098  0.00848651  0.45789167  1.0
  C  C63  1  0.48681324  0.00953154  0.45543279  1.0
  C  C64  1  0.56711927  0.01987689  0.48975836  1.0
  C  C65  1  0.53424719  0.02988351  0.52636963  1.0
  C  C66  1  0.41403904  0.03193499  0.52848366  1.0
  C  C67  1  0.33384380  0.02079290  0.49424082  1.0
  C  C68  1  0.74802322  0.10055061  0.61292769  1.0
  C  C69  1  0.82080575  0.04744533  0.62390399  1.0
  C  C70  1  0.79542158  0.98778172  0.60356861  1.0
  C  C71  1  0.70391288  0.98238545  0.57173529  1.0
  C  C72  1  0.62985097  0.03571646  0.56073703  1.0
  C  C73  1  0.65492590  0.09498586  0.58157439  1.0
  C  C74  1  0.24025213  0.11108748  0.60049905  1.0
  C  C75  1  0.23780928  0.06200308  0.62821086  1.0
  C  C76  1  0.30529682  0.00614184  0.62515235  1.0
  C  C77  1  0.36659850  0.99762955  0.59379806  1.0
  C  C78  1  0.36308017  0.04468926  0.56459781  1.0
  C  C79  1  0.29711279  0.10145260  0.56824311  1.0
  C  C80  1  0.14609609  0.02660928  0.36400917  1.0
  C  C81  1  0.07862556  0.96970392  0.36328789  1.0
  C  C82  1  0.10983789  0.92440360  0.39311534  1.0
  C  C83  1  0.20156384  0.93739063  0.42406264  1.0
  C  C84  1  0.27109478  0.99410073  0.42450791  1.0
  C  C85  1  0.24042378  0.03872008  0.39421996  1.0
  C  C86  1  0.65242436  0.04026972  0.37141001  1.0
  C  C87  1  0.65992219  0.97727361  0.35527913  1.0
  C  C88  1  0.59869142  0.92661656  0.36953215  1.0
  C  C89  1  0.53806899  0.93760907  0.40083062  1.0
  C  C90  1  0.53687792  0.99961454  0.41886758  1.0
  C  C91  1  0.59690312  0.05080470  0.40388101  1.0
  C  C92  1  0.31742109  0.63150355  0.97351797  1.0
  C  C93  1  0.40203401  0.61442883  0.00584219  1.0
  C  C94  1  0.41736747  0.65748623  0.03854483  1.0
  C  C95  1  0.36973318  0.72004903  0.03604124  1.0
  C  C96  1  0.28826956  0.73740949  0.00354708  1.0
  C  C97  1  0.25771286  0.69090158  0.97345344  1.0
  C  C98  1  0.71443234  0.26476261  0.03633972  1.0
  C  C99  1  0.79754076  0.25585052  0.01107006  1.0
  C  C100  1  0.81969368  0.30972953  0.98830457  1.0
  C  C101  1  0.75204285  0.36649314  0.98759535  1.0
  C  C102  1  0.67085781  0.37556030  0.01340500  1.0
  C  C103  1  0.66289945  0.32585412  0.04013547  1.0
  C  C104  1  0.32214115  0.35990360  0.02821860  1.0
  C  C105  1  0.40258000  0.37266603  0.00264079  1.0
  C  C106  1  0.41557134  0.32422134  0.97434810  1.0
  C  C107  1  0.36587351  0.26230858  0.97577254  1.0
  C  C108  1  0.28591305  0.25066320  0.00079537  1.0
  C  C109  1  0.26102406  0.30050315  0.02615422  1.0
  C  C110  1  0.73728601  0.64067597  0.04604888  1.0
  C  C111  1  0.66464639  0.61512950  0.01270233  1.0
  C  C112  1  0.66501684  0.64752875  0.97723579  1.0
  C  C113  1  0.72779964  0.70560539  0.97582869  1.0
  C  C114  1  0.78243715  0.73711027  0.01064846  1.0
  C  C115  1  0.78670234  0.70325984  0.04588588  1.0
  C  C116  1  0.03436432  0.00771073  0.81510250  1.0
  C  C117  1  0.10636404  0.05198050  0.83933548  1.0
  C  C118  1  0.16129945  0.10152222  0.82168094  1.0
  C  C119  1  0.14352944  0.10690182  0.78084484  1.0
  C  C120  1  0.07887549  0.05951330  0.75625004  1.0
  C  C121  1  0.02717956  0.00865301  0.77439163  1.0
  C  C122  1  0.90346437  0.87830861  0.21891359  1.0
  C  C123  1  0.83388307  0.92780358  0.23179026  1.0
  C  C124  1  0.76677401  0.96504400  0.20265331  1.0
  C  C125  1  0.77362449  0.95519712  0.16294465  1.0
  C  C126  1  0.86534815  0.91746503  0.15169270  1.0
  C  C127  1  0.92575288  0.87661532  0.18030524  1.0
  Br  Br128  1  0.57073800  0.17009314  0.56372350  1.0
  Br  Br129  1  0.78412469  0.18132082  0.63953871  1.0
  Br  Br130  1  0.68539975  0.90340773  0.54189427  1.0
  Br  Br131  1  0.89004090  0.91493057  0.61978610  1.0
  Br  Br132  1  0.27440673  0.16273044  0.52736842  1.0
  Br  Br133  1  0.16102528  0.19015654  0.60712878  1.0
  Br  Br134  1  0.44114627  0.91748617  0.58731579  1.0
  Br  Br135  1  0.30284361  0.93914215  0.66185982  1.0
  Br  Br136  1  0.31885895  0.11977768  0.39720961  1.0
  Br  Br137  1  0.10152200  0.08941557  0.32504275  1.0
  Br  Br138  1  0.22556466  0.88002755  0.46691437  1.0
  Br  Br139  1  0.02352363  0.84535796  0.39075560  1.0
  Br  Br140  1  0.61472024  0.13307027  0.43013046  1.0
  Br  Br141  1  0.72457719  0.11013699  0.34919412  1.0
  Br  Br142  1  0.47134898  0.86621708  0.42289348  1.0
  Br  Br143  1  0.60964907  0.84168641  0.34818644  1.0
  Br  Br144  1  0.12713740  0.70726245  0.93388930  1.0
  Br  Br145  1  0.27984571  0.57324861  0.93018845  1.0
  Br  Br146  1  0.41998095  0.78231041  0.07674533  1.0
  Br  Br147  1  0.48993676  0.62736649  0.08766871  1.0
  Br  Br148  1  0.58723268  0.34447274  0.08344547  1.0
  Br  Br149  1  0.65746126  0.19648166  0.06442770  1.0
  Br  Br150  1  0.76651109  0.43096424  0.94994905  1.0
  Br  Br151  1  0.94293786  0.30955735  0.95834217  1.0
  Br  Br152  1  0.14833489  0.28310380  0.05834001  1.0
  Br  Br153  1  0.29869375  0.42161425  0.06758224  1.0
  Br  Br154  1  0.40975498  0.19189238  0.94532284  1.0
  Br  Br155  1  0.49121856  0.34442538  0.93169670  1.0
  Br  Br156  1  0.85397390  0.74145020  0.09443426  1.0
  Br  Br157  1  0.77711145  0.58801436  0.09069732  1.0
  Br  Br158  1  0.74819713  0.73758088  0.92666187  1.0
  Br  Br159  1  0.58762138  0.60732477  0.93043520  1.0
  Br  Br160  1  0.95232707  0.93776352  0.74404669  1.0
  Br  Br161  1  0.94161484  0.94923947  0.83838699  1.0
  Br  Br162  1  0.20304659  0.18101944  0.75854183  1.0
  Br  Br163  1  0.25916423  0.16110956  0.85433355  1.0
  Br  Br164  1  0.04351505  0.81720969  0.16970359  1.0
  Br  Br165  1  0.96403397  0.81276438  0.25458743  1.0
  Br  Br166  1  0.65545557  0.99003254  0.12503329  1.0
  Br  Br167  1  0.67140872  0.03346526  0.21699254  1.0
  O  O168  1  0.18774419  0.86835231  0.09931671  1.0
  O  O169  1  0.93796292  0.81200899  0.03137807  1.0
  O  O170  1  0.96187331  0.88895798  0.09676788  1.0
  O  O171  1  0.24024988  0.83935526  0.97435468  1.0
  O  O172  1  0.88569873  0.98882093  0.10123473  1.0
  O  O173  1  0.17220356  0.81449018  0.03004889  1.0
  O  O174  1  0.78764355  0.84519854  0.98630662  1.0
  O  O175  1  0.92085755  0.95629281  0.02285366  1.0
  O  O176  1  0.01900631  0.88175032  0.97851235  1.0
  O  O177  1  0.09876519  0.99226218  0.07528557  1.0
  O  O178  1  0.17979587  0.95156022  0.01761589  1.0
  O  O179  1  0.34473412  0.95230361  0.95969640  1.0
  O  O180  1  0.68086845  0.95816522  0.98506412  1.0
  O  O181  1  0.00411073  0.99224276  0.94755464  1.0
  O  O182  1  0.85176766  0.05125896  0.97805990  1.0
  O  O183  1  0.05330841  0.07783256  0.02109228  1.0
  O  O184  1  0.19606797  0.04867721  0.97443934  1.0
  O  O185  1  0.73258105  0.04091340  0.04140834  1.0
  O  O186  1  0.86195624  0.15337144  0.03713001  1.0
  O  O187  1  0.90528539  0.17863581  0.97865468  1.0
  O  O188  1  0.34773064  0.01223287  0.08777361  1.0
  O  O189  1  0.13823233  0.17525792  0.97403608  1.0
  O  O190  1  0.98902023  0.10337591  0.09960242  1.0
  O  O191  1  0.19928322  0.11566513  0.09212866  1.0
  O  O192  1  0.40116094  0.02698311  0.02020602  1.0
  O  O193  1  0.27459236  0.14533389  0.02557805  1.0
  O  O194  1  0.88451912  0.13708973  0.91010030  1.0
  O  O195  1  0.09385907  0.87278482  0.90844682  1.0
  O  O196  1  0.07628856  0.09077966  0.90192512  1.0
  O  O197  1  0.17501558  0.99653430  0.89829099  1.0
  O  O198  1  0.88293508  0.87302848  0.91411872  1.0
  O  O199  1  0.74351008  0.97920212  0.91442654  1.0
