# generated using pymatgen
data_AlH21C45(NO3)6
_symmetry_space_group_name_H-M   'P 1'
_cell_length_a   4.04603989
_cell_length_b   23.42725113
_cell_length_c   23.47399839
_cell_angle_alpha   60.17280275
_cell_angle_beta   88.12489451
_cell_angle_gamma   87.64126304
_symmetry_Int_Tables_number   1
_chemical_formula_structural   AlH21C45(NO3)6
_chemical_formula_sum   'Al1 H21 C45 N6 O18'
_cell_volume   1928.46291528
_cell_formula_units_Z   1
loop_
 _symmetry_equiv_pos_site_id
 _symmetry_equiv_pos_as_xyz
  1  'x, y, z'
loop_
 _atom_site_type_symbol
 _atom_site_label
 _atom_site_symmetry_multiplicity
 _atom_site_fract_x
 _atom_site_fract_y
 _atom_site_fract_z
 _atom_site_occupancy
  Al  Al0  1  0.87376008  0.50075332  0.50038026  1.0
  H  H1  1  0.51289531  0.33129700  0.66989804  1.0
  H  H2  1  0.57500748  0.21180784  0.74061273  1.0
  H  H3  1  0.34770559  0.97989962  0.85028957  1.0
  H  H4  1  0.37843212  0.74045539  0.18812500  1.0
  H  H5  1  0.76334658  0.76178973  0.11350516  1.0
  H  H6  1  0.81950384  0.82632279  0.99436671  1.0
  H  H7  1  0.60797596  0.88848174  0.90002489  1.0
  H  H8  1  0.51236175  0.49860358  0.33063225  1.0
  H  H9  1  0.58153604  0.54714276  0.21147216  1.0
  H  H10  1  0.35376618  0.67183336  0.97954814  1.0
  H  H11  1  0.27298294  0.57787703  0.73850819  1.0
  H  H12  1  0.71820152  0.62223555  0.76083651  1.0
  H  H13  1  0.79574456  0.67589689  0.82589555  1.0
  H  H14  1  0.57825230  0.71094891  0.88899758  1.0
  H  H15  1  0.52376318  0.66851143  0.50122638  1.0
  H  H16  1  0.57071908  0.73934378  0.55012497  1.0
  H  H17  1  0.29984535  0.85065338  0.67588993  1.0
  H  H18  1  0.39798456  0.18688298  0.57349911  1.0
  H  H19  1  0.78728813  0.11132709  0.62450378  1.0
  H  H20  1  0.84034608  0.99142663  0.67918037  1.0
  H  H21  1  0.58353033  0.89901123  0.71214761  1.0
  C  C22  1  0.39176014  0.40100174  0.54232184  1.0
  C  C23  1  0.35549194  0.54331525  0.55775927  1.0
  C  C24  1  0.38223091  0.55768107  0.40085167  1.0
  C  C25  1  0.48824633  0.29917748  0.64911138  1.0
  C  C26  1  0.52045551  0.23134130  0.68912704  1.0
  C  C27  1  0.41663834  0.07552224  0.76858179  1.0
  C  C28  1  0.44874258  0.00721024  0.80062386  1.0
  C  C29  1  0.38479803  0.65908533  0.28562235  1.0
  C  C30  1  0.41491675  0.68731729  0.21777528  1.0
  C  C31  1  0.66385068  0.74270083  0.08389709  1.0
  C  C32  1  0.69696657  0.77932530  0.01600984  1.0
  C  C33  1  0.42531004  0.32739788  0.58195529  1.0
  C  C34  1  0.48855936  0.18876808  0.66359444  1.0
  C  C35  1  0.52288050  0.11612662  0.70308434  1.0
  C  C36  1  0.59047873  0.97466439  0.76911845  1.0
  C  C37  1  0.60066415  0.90199035  0.80228603  1.0
  C  C38  1  0.60461119  0.86390705  0.87101138  1.0
  C  C39  1  0.48342831  0.55172654  0.29890937  1.0
  C  C40  1  0.51894663  0.57943270  0.23126344  1.0
  C  C41  1  0.41672380  0.65708220  0.07535318  1.0
  C  C42  1  0.44876318  0.69327221  0.00731200  1.0
  C  C43  1  0.30557039  0.55986225  0.65797592  1.0
  C  C44  1  0.33144383  0.59934895  0.68639809  1.0
  C  C45  1  0.61998643  0.67222569  0.74278582  1.0
  C  C46  1  0.66431281  0.70278593  0.77962562  1.0
  C  C47  1  0.41336589  0.59113023  0.32745985  1.0
  C  C48  1  0.48048361  0.64780966  0.18919338  1.0
  C  C49  1  0.51433653  0.68082396  0.11675721  1.0
  C  C50  1  0.58338388  0.75587755  0.97565210  1.0
  C  C51  1  0.59701468  0.79504018  0.90314316  1.0
  C  C52  1  0.58766123  0.76438887  0.86490606  1.0
  C  C53  1  0.46759487  0.64902520  0.55328851  1.0
  C  C54  1  0.49223750  0.68908200  0.58098073  1.0
  C  C55  1  0.35515323  0.76941886  0.65945238  1.0
  C  C56  1  0.39896357  0.80057926  0.69587400  1.0
  C  C57  1  0.40044599  0.28496124  0.55665553  1.0
  C  C58  1  0.42967622  0.21692083  0.59630185  1.0
  C  C59  1  0.68126995  0.08229214  0.67363984  1.0
  C  C60  1  0.71304429  0.01412414  0.70487959  1.0
  C  C61  1  0.37272687  0.58344866  0.59133899  1.0
  C  C62  1  0.42379573  0.66485023  0.64817223  1.0
  C  C63  1  0.45985031  0.70359766  0.68175130  1.0
  C  C64  1  0.55100936  0.76795197  0.75711688  1.0
  C  C65  1  0.58145075  0.80106515  0.79621825  1.0
  C  C66  1  0.59062446  0.86986176  0.76553610  1.0
  N  N67  1  0.19391029  0.49209423  0.70033005  1.0
  N  N68  1  0.32945771  0.31133885  0.48661466  1.0
  N  N69  1  0.30826768  0.70337977  0.31229445  1.0
  N  N70  1  0.17210720  0.80975955  0.59772640  1.0
  N  N71  1  0.24672463  0.10111640  0.80837099  1.0
  N  N72  1  0.25729078  0.59322140  0.09956793  1.0
  O  O73  1  0.60505304  0.56688480  0.43204856  1.0
  O  O74  1  0.62369183  0.43215986  0.50239936  1.0
  O  O75  1  0.59370497  0.50302239  0.56618797  1.0
  O  O76  1  0.14431429  0.51857508  0.42563007  1.0
  O  O77  1  0.11623819  0.55792140  0.51879441  1.0
  O  O78  1  0.14121387  0.42586563  0.55689565  1.0
  O  O79  1  0.13013465  0.46014972  0.67307882  1.0
  O  O80  1  0.16694878  0.47153968  0.76015336  1.0
  O  O81  1  0.21111111  0.36822571  0.45606483  1.0
  O  O82  1  0.38997761  0.27494388  0.46305446  1.0
  O  O83  1  0.16786935  0.67931441  0.36677396  1.0
  O  O84  1  0.38696808  0.76162695  0.27831830  1.0
  O  O85  1  0.00783946  0.78069077  0.57682279  1.0
  O  O86  1  0.18664147  0.87032540  0.57162895  1.0
  O  O87  1  0.04597988  0.14785939  0.78050043  1.0
  O  O88  1  0.31037434  0.07279560  0.86758116  1.0
  O  O89  1  0.06138310  0.57491666  0.14672000  1.0
  O  O90  1  0.32379260  0.56292607  0.06977488  1.0
