# generated using pymatgen
data_Zn4H40C53O16
_symmetry_space_group_name_H-M   'P 1'
_cell_length_a   15.04081693
_cell_length_b   15.08318060
_cell_length_c   17.82865649
_cell_angle_alpha   98.20011975
_cell_angle_beta   99.27453996
_cell_angle_gamma   90.01083940
_symmetry_Int_Tables_number   1
_chemical_formula_structural   Zn4H40C53O16
_chemical_formula_sum   'Zn4 H40 C53 O16'
_cell_volume   3949.87008836
_cell_formula_units_Z   1
loop_
 _symmetry_equiv_pos_site_id
 _symmetry_equiv_pos_as_xyz
  1  'x, y, z'
loop_
 _atom_site_type_symbol
 _atom_site_label
 _atom_site_symmetry_multiplicity
 _atom_site_fract_x
 _atom_site_fract_y
 _atom_site_fract_z
 _atom_site_occupancy
  Zn  Zn0  1  0.55836461  0.55408853  0.42503955  1.0
  Zn  Zn1  1  0.44670567  0.59448760  0.56400101  1.0
  Zn  Zn2  1  0.58706961  0.43528366  0.56366394  1.0
  Zn  Zn3  1  0.40557114  0.41807193  0.44229100  1.0
  H  H4  1  0.37035652  0.29051701  0.93755650  1.0
  H  H5  1  0.32836022  0.01120961  0.53979701  1.0
  H  H6  1  0.50472611  0.45051283  0.80058619  1.0
  H  H7  1  0.34177290  0.17502593  0.53499165  1.0
  H  H8  1  0.61452280  0.14381505  0.49176122  1.0
  H  H9  1  0.64888315  0.69230244  0.78963674  1.0
  H  H10  1  0.65677310  0.68775594  0.05808260  1.0
  H  H11  1  0.33858385  0.25982472  0.06278198  1.0
  H  H12  1  0.52120106  0.52636400  0.19605848  1.0
  H  H13  1  0.44478575  0.38020135  0.86118170  1.0
  H  H14  1  0.58607175  0.59606323  0.13548510  1.0
  H  H15  1  0.67967681  0.72400898  0.93264096  1.0
  H  H16  1  0.97020372  0.70477980  0.62041523  1.0
  H  H17  1  0.08273075  0.71960972  0.67164081  1.0
  H  H18  1  0.91451880  0.69018847  0.74334995  1.0
  H  H19  1  0.02584547  0.70548663  0.79397249  1.0
  H  H20  1  0.03376409  0.86037310  0.75432485  1.0
  H  H21  1  0.94339725  0.85084343  0.80575931  1.0
  H  H22  1  0.92153916  0.84488964  0.70433956  1.0
  H  H23  1  0.62456981  0.01937014  0.34782057  1.0
  H  H24  1  0.68963218  0.92048976  0.34997654  1.0
  H  H25  1  0.76647432  0.11332979  0.38876393  1.0
  H  H26  1  0.12902847  0.44521275  0.40912652  1.0
  H  H27  1  0.83079320  0.01527092  0.38914101  1.0
  H  H28  1  0.77342792  0.97118054  0.24644202  1.0
  H  H29  1  0.82913987  0.07761606  0.26528330  1.0
  H  H30  1  0.70966639  0.07023415  0.24649125  1.0
  H  H31  1  0.46917672  0.24964849  0.27378185  1.0
  H  H32  1  0.42998898  0.17173142  0.18938839  1.0
  H  H33  1  0.34588528  0.20445102  0.33669349  1.0
  H  H34  1  0.29713625  0.13366801  0.25201299  1.0
  H  H35  1  0.43392031  0.03701844  0.26059494  1.0
  H  H36  1  0.39046887  0.04651928  0.34836411  1.0
  H  H37  1  0.19208783  0.58655625  0.63928756  1.0
  H  H38  1  0.48705497  0.11035592  0.34247868  1.0
  H  H39  1  0.96864126  0.41196897  0.34993979  1.0
  H  H40  1  0.80528480  0.42133452  0.35994445  1.0
  H  H41  1  0.87164280  0.53696582  0.59785732  1.0
  H  H42  1  0.39431240  0.85928297  0.52538789  1.0
  H  H43  1  0.65368316  0.82559821  0.45363136  1.0
  C  C44  1  0.26652110  0.51449752  0.51550370  1.0
  C  C45  1  0.57539575  0.57753698  0.07334008  1.0
  C  C46  1  0.61521521  0.62918569  0.03025111  1.0
  C  C47  1  0.73206507  0.48301674  0.48596488  1.0
  C  C48  1  0.60286822  0.60882468  0.94870501  1.0
  C  C49  1  0.55066520  0.53077101  0.91194726  1.0
  C  C50  1  0.63951020  0.66505580  0.90355069  1.0
  C  C51  1  0.62351221  0.64730701  0.82445295  1.0
  C  C52  1  0.54108373  0.51077885  0.83113790  1.0
  C  C53  1  0.16933477  0.51442137  0.52311686  1.0
  C  C54  1  0.82972129  0.47907814  0.48012403  1.0
  C  C55  1  0.38971677  0.33787345  0.17018606  1.0
  C  C56  1  0.94696793  0.44076144  0.40358297  1.0
  C  C57  1  0.85683225  0.44494636  0.40910073  1.0
  C  C58  1  0.89294018  0.51158935  0.54341334  1.0
  C  C59  1  0.51321776  0.73493860  0.48847363  1.0
  C  C60  1  0.98540321  0.51391144  0.53744694  1.0
  C  C61  1  0.01367102  0.47559471  0.46692881  1.0
  C  C62  1  0.10640773  0.47530169  0.46186621  1.0
  C  C63  1  0.14181403  0.55513283  0.59209125  1.0
  C  C64  1  0.05196194  0.55434552  0.59921772  1.0
  C  C65  1  0.52297086  0.83373085  0.49072242  1.0
  C  C66  1  0.48256874  0.46790270  0.16461784  1.0
  C  C67  1  0.47985253  0.16863583  0.51416845  1.0
  C  C68  1  0.39026413  0.04036588  0.52811460  1.0
  C  C69  1  0.39775053  0.13093400  0.52633998  1.0
  C  C70  1  0.55166895  0.11452931  0.50097655  1.0
  C  C71  1  0.48701266  0.26661974  0.51136771  1.0
  C  C72  1  0.54299279  0.02059528  0.49661828  1.0
  C  C73  1  0.46188871  0.98249803  0.51284079  1.0
  C  C74  1  0.45458120  0.88884051  0.51131315  1.0
  C  C75  1  0.60145366  0.87025811  0.47101957  1.0
  C  C76  1  0.61163488  0.96166118  0.47457883  1.0
  C  C77  1  0.47553063  0.44783260  0.08427605  1.0
  C  C78  1  0.55525472  0.54806579  0.70259110  1.0
  C  C79  1  0.45330270  0.44520253  0.29306741  1.0
  C  C80  1  0.44147376  0.41563205  0.20842743  1.0
  C  C81  1  0.57479564  0.56847970  0.78810028  1.0
  C  C82  1  0.37944395  0.31859654  0.09106989  1.0
  C  C83  1  0.01597052  0.68892786  0.67158411  1.0
  C  C84  1  0.97972442  0.72396737  0.74442589  1.0
  C  C85  1  0.96904224  0.82554091  0.75261886  1.0
  C  C86  1  0.68794209  0.99181308  0.37482903  1.0
  C  C87  1  0.76880670  0.04348657  0.36103236  1.0
  C  C88  1  0.42125145  0.37139526  0.04685188  1.0
  C  C89  1  0.77031362  0.04043369  0.27513177  1.0
  C  C90  1  0.40860964  0.21532320  0.23836077  1.0
  C  C91  1  0.36162435  0.16056965  0.28596461  1.0
  C  C92  1  0.42135919  0.08432583  0.31054308  1.0
  C  C93  1  0.52004547  0.50094196  0.03883686  1.0
  C  C94  1  0.50854972  0.47658895  0.95788293  1.0
  C  C95  1  0.45383785  0.39954212  0.92318578  1.0
  C  C96  1  0.41183004  0.34903243  0.96558164  1.0
  O  O97  1  0.50066122  0.50100920  0.49928270  1.0
  O  O98  1  0.52177099  0.61129642  0.66708839  1.0
  O  O99  1  0.41902850  0.39583160  0.33405167  1.0
  O  O100  1  0.57204587  0.46922958  0.67209327  1.0
  O  O101  1  0.49755670  0.51885893  0.31887995  1.0
  O  O102  1  0.02397568  0.59274307  0.66625040  1.0
  O  O103  1  0.68813592  0.99869530  0.45668893  1.0
  O  O104  1  0.34814909  0.28098327  0.20827714  1.0
  O  O105  1  0.56657127  0.68543072  0.45263032  1.0
  O  O106  1  0.41449422  0.30398454  0.48519450  1.0
  O  O107  1  0.32085316  0.56272333  0.56838217  1.0
  O  O108  1  0.70936630  0.46786572  0.54913588  1.0
  O  O109  1  0.28791393  0.46646409  0.45634121  1.0
  O  O110  1  0.67930974  0.50190372  0.42697626  1.0
  O  O111  1  0.45207520  0.70766799  0.52243105  1.0
  O  O112  1  0.56433778  0.30505497  0.53413890  1.0
