# generated using pymatgen
data_Zn2H5(C4O3)3
_symmetry_space_group_name_H-M   'P 1'
_cell_length_a   13.07624699
_cell_length_b   13.07718896
_cell_length_c   16.09362563
_cell_angle_alpha   79.56449682
_cell_angle_beta   80.63982314
_cell_angle_gamma   89.41598850
_symmetry_Int_Tables_number   1
_chemical_formula_structural   Zn2H5(C4O3)3
_chemical_formula_sum   'Zn4 H10 C24 O18'
_cell_volume   2669.93666690
_cell_formula_units_Z   2
loop_
 _symmetry_equiv_pos_site_id
 _symmetry_equiv_pos_as_xyz
  1  'x, y, z'
loop_
 _atom_site_type_symbol
 _atom_site_label
 _atom_site_symmetry_multiplicity
 _atom_site_fract_x
 _atom_site_fract_y
 _atom_site_fract_z
 _atom_site_occupancy
  Zn  Zn0  1  0.42371186  0.41030535  0.44536213  1.0
  Zn  Zn1  1  0.58591484  0.41398749  0.57385275  1.0
  Zn  Zn2  1  0.39539791  0.57166703  0.57454291  1.0
  Zn  Zn3  1  0.58267344  0.60410277  0.41443272  1.0
  H  H4  1  0.41845255  0.91550279  0.53405846  1.0
  H  H5  1  0.55047913  0.09689468  0.65642157  1.0
  H  H6  1  0.43334129  0.40301929  0.02967780  1.0
  H  H7  1  0.10991247  0.39256942  0.42183370  1.0
  H  H8  1  0.06250552  0.52314321  0.56483625  1.0
  H  H9  1  0.61384868  0.92749285  0.39588587  1.0
  H  H10  1  0.61467386  0.65861532  0.99758569  1.0
  H  H11  1  0.82063820  0.34142137  0.44808788  1.0
  H  H12  1  0.87600954  0.69902823  0.44358033  1.0
  H  H13  1  0.58661566  0.22064680  0.35876683  1.0
  C  C14  1  0.77671971  0.52231902  0.47198864  1.0
  C  C15  1  0.55640361  0.95580109  0.44321955  1.0
  C  C16  1  0.54971119  0.10857576  0.51839092  1.0
  C  C17  1  0.21987154  0.47665535  0.51971158  1.0
  C  C18  1  0.55760285  0.06674528  0.44553053  1.0
  C  C19  1  0.53252122  0.22244700  0.51611339  1.0
  C  C20  1  0.48068104  0.77795988  0.48550442  1.0
  C  C21  1  0.48136913  0.47835575  0.73042613  1.0
  C  C22  1  0.51960257  0.51799864  0.27317492  1.0
  C  C23  1  0.47779412  0.47382844  0.82075680  1.0
  C  C24  1  0.47653982  0.46630285  0.98459437  1.0
  C  C25  1  0.52519299  0.52833660  0.10618582  1.0
  C  C26  1  0.52792530  0.53633437  0.01740512  1.0
  C  C27  1  0.90287239  0.33941071  0.45791556  1.0
  C  C28  1  0.93526110  0.63888974  0.43340585  1.0
  C  C29  1  0.57544359  0.13637849  0.35926667  1.0
  C  C30  1  0.56609186  0.05015944  0.60455939  1.0
  C  C31  1  0.47748444  0.47114635  0.89704349  1.0
  C  C32  1  0.52476655  0.52487543  0.18252727  1.0
  C  C33  1  0.10697015  0.48086678  0.51904107  1.0
  C  C34  1  0.06263293  0.43890557  0.46298498  1.0
  C  C35  1  0.89284116  0.52916238  0.45805702  1.0
  C  C36  1  0.95147104  0.44163100  0.46133996  1.0
  C  C37  1  0.48121843  0.89007346  0.48943120  1.0
  O  O38  1  0.49854000  0.49990204  0.50189206  1.0
  O  O39  1  0.54730255  0.41954441  0.69526336  1.0
  O  O40  1  0.56783898  0.58887583  0.29742587  1.0
  O  O41  1  0.41915524  0.54014545  0.69426906  1.0
  O  O42  1  0.46685742  0.44093730  0.32025933  1.0
  O  O43  1  0.58404843  0.61657605  0.96344982  1.0
  O  O44  1  0.95133095  0.25873128  0.46193329  1.0
  O  O45  1  0.02467069  0.66320352  0.40113685  1.0
  O  O46  1  0.58172381  0.10260776  0.29264249  1.0
  O  O47  1  0.59803843  0.96177112  0.61846770  1.0
  O  O48  1  0.46164010  0.26324500  0.47592181  1.0
  O  O49  1  0.55044584  0.74531587  0.43161696  1.0
  O  O50  1  0.73297837  0.45745283  0.53659357  1.0
  O  O51  1  0.25344033  0.53000164  0.56923178  1.0
  O  O52  1  0.73287221  0.58568079  0.41941068  1.0
  O  O53  1  0.27414544  0.42272007  0.47060916  1.0
  O  O54  1  0.58790412  0.26690392  0.55816835  1.0
  O  O55  1  0.41021312  0.72295962  0.53874904  1.0
