# generated using pymatgen
data_ZnH32C33NO4F
_symmetry_space_group_name_H-M   'P 1'
_cell_length_a   12.95725823
_cell_length_b   18.39011347
_cell_length_c   19.38292520
_cell_angle_alpha   89.97537124
_cell_angle_beta   89.13582138
_cell_angle_gamma   80.02851084
_symmetry_Int_Tables_number   1
_chemical_formula_structural   ZnH32C33NO4F
_chemical_formula_sum   'Zn2 H64 C66 N2 O8 F2'
_cell_volume   4548.37103922
_cell_formula_units_Z   2
loop_
 _symmetry_equiv_pos_site_id
 _symmetry_equiv_pos_as_xyz
  1  'x, y, z'
loop_
 _atom_site_type_symbol
 _atom_site_label
 _atom_site_symmetry_multiplicity
 _atom_site_fract_x
 _atom_site_fract_y
 _atom_site_fract_z
 _atom_site_occupancy
  Zn  Zn0  1  0.47822584  0.58410457  0.50323680  1.0
  Zn  Zn1  1  0.50956064  0.42190147  0.49896809  1.0
  H  H2  1  0.18725916  0.40604521  0.51196845  1.0
  H  H3  1  0.80251512  0.59107510  0.47091316  1.0
  H  H4  1  0.35202578  0.85963371  0.57876710  1.0
  H  H5  1  0.67057357  0.14481611  0.45395644  1.0
  H  H6  1  0.61750588  0.81027755  0.43854526  1.0
  H  H7  1  0.35835347  0.19391632  0.54261689  1.0
  H  H8  1  0.59329843  0.67966165  0.44211156  1.0
  H  H9  1  0.37333086  0.32710214  0.53711597  1.0
  H  H10  1  0.56869181  0.92107315  0.40514910  1.0
  H  H11  1  0.43252707  0.08504851  0.60140303  1.0
  H  H12  1  0.58303254  0.05267419  0.40135090  1.0
  H  H13  1  0.42134627  0.95296720  0.60664638  1.0
  H  H14  1  0.15686491  0.62117458  0.41832699  1.0
  H  H15  1  0.83322543  0.37735619  0.56678921  1.0
  H  H16  1  0.58453706  0.38672411  0.84088498  1.0
  H  H17  1  0.62500423  0.57096451  0.14344450  1.0
  H  H18  1  0.38221947  0.59833811  0.71884855  1.0
  H  H19  1  0.45172190  0.41917990  0.30255921  1.0
  H  H20  1  0.33239844  0.51302324  0.94899642  1.0
  H  H21  1  0.68399085  0.46258897  0.05474820  1.0
  H  H22  1  0.34805358  0.51111060  0.07588186  1.0
  H  H23  1  0.66834398  0.46783834  0.92735671  1.0
  H  H24  1  0.13501329  0.82673138  0.58439089  1.0
  H  H25  1  0.19574530  0.81993289  0.50128603  1.0
  H  H26  1  0.07838254  0.78451768  0.51550840  1.0
  H  H27  1  0.23253216  0.67993692  0.51254876  1.0
  H  H28  1  0.16880979  0.68707015  0.59334747  1.0
  H  H29  1  0.35383981  0.66375843  0.61276973  1.0
  H  H30  1  0.30461472  0.75576475  0.63964021  1.0
  H  H31  1  0.78175554  0.38914113  0.36030337  1.0
  H  H32  1  0.87017989  0.30366281  0.35948612  1.0
  H  H33  1  0.79885515  0.33445662  0.28416063  1.0
  H  H34  1  0.71307824  0.23787828  0.34167032  1.0
  H  H35  1  0.62969332  0.32508232  0.34728072  1.0
  H  H36  1  0.70259734  0.34157095  0.46690601  1.0
  H  H37  1  0.77145516  0.24979102  0.46118554  1.0
  H  H38  1  0.62563151  0.23982816  0.61755186  1.0
  H  H39  1  0.67340670  0.21089387  0.70010744  1.0
  H  H40  1  0.55977991  0.18107969  0.66824760  1.0
  H  H41  1  0.50937436  0.28346938  0.75561851  1.0
  H  H42  1  0.46180328  0.31270505  0.67335645  1.0
  H  H43  1  0.61400008  0.37597782  0.65280620  1.0
  H  H44  1  0.66622466  0.34463630  0.73351305  1.0
  H  H45  1  0.69346419  0.73099043  0.34417190  1.0
  H  H46  1  0.71495413  0.74678640  0.25549957  1.0
  H  H47  1  0.60406036  0.79813078  0.29887246  1.0
  H  H48  1  0.55383446  0.69610212  0.22510762  1.0
  H  H49  1  0.52418477  0.68426891  0.31315814  1.0
  H  H50  1  0.68647905  0.59261161  0.32661879  1.0
  H  H51  1  0.72393539  0.60633404  0.24004594  1.0
  H  H52  1  0.36400504  0.78423179  0.85026402  1.0
  H  H53  1  0.41319401  0.75408933  0.93233182  1.0
  H  H54  1  0.49394553  0.79254605  0.87257069  1.0
  H  H55  1  0.54539988  0.65414833  0.87430261  1.0
  H  H56  1  0.49699709  0.68435867  0.79290157  1.0
  H  H57  1  0.31965353  0.65522410  0.82800327  1.0
  H  H58  1  0.37306167  0.62178054  0.90767080  1.0
  H  H59  1  0.35825160  0.24646464  0.17924538  1.0
  H  H60  1  0.38665759  0.26430091  0.09166981  1.0
  H  H61  1  0.47146478  0.19563920  0.13793328  1.0
  H  H62  1  0.54963479  0.31201750  0.12780811  1.0
  H  H63  1  0.52244672  0.29378650  0.21496539  1.0
  H  H64  1  0.35228276  0.38257878  0.20860312  1.0
  H  H65  1  0.38027448  0.40031807  0.12145025  1.0
  C  C66  1  0.54169900  0.51136745  0.37120956  1.0
  C  C67  1  0.45915253  0.49253341  0.63155748  1.0
  C  C68  1  0.48921347  0.49385502  0.85279816  1.0
  C  C69  1  0.52676060  0.48829219  0.15079822  1.0
  C  C70  1  0.43232137  0.55547913  0.81825022  1.0
  C  C71  1  0.47653707  0.44437201  0.19575181  1.0
  C  C72  1  0.42455972  0.55109425  0.74673322  1.0
  C  C73  1  0.48878254  0.45286556  0.26658487  1.0
  C  C74  1  0.47100441  0.48931499  0.70820923  1.0
  C  C75  1  0.54461360  0.50451680  0.29419021  1.0
  C  C76  1  0.40983610  0.50268313  0.97206419  1.0
  C  C77  1  0.60662929  0.47408095  0.03156715  1.0
  C  C78  1  0.41864492  0.50035272  0.04349046  1.0
  C  C79  1  0.59780674  0.47656431  0.95991929  1.0
  C  C80  1  0.51729125  0.48619508  0.07470466  1.0
  C  C81  1  0.49926909  0.49148895  0.92885093  1.0
  C  C82  1  0.40107135  0.74661862  0.54958480  1.0
  C  C83  1  0.60581493  0.25919054  0.47081248  1.0
  C  C84  1  0.40849264  0.82157570  0.54816826  1.0
  C  C85  1  0.60203512  0.18360553  0.47183712  1.0
  C  C86  1  0.48518683  0.84774662  0.50808441  1.0
  C  C87  1  0.51391111  0.15772204  0.49807213  1.0
  C  C88  1  0.69052078  0.49577028  0.52625005  1.0
  C  C89  1  0.29979973  0.50653604  0.46802835  1.0
  C  C90  1  0.55390870  0.79507329  0.46955607  1.0
  C  C91  1  0.42971507  0.21039138  0.52244989  1.0
  C  C92  1  0.54171667  0.72183488  0.47171293  1.0
  C  C93  1  0.43717873  0.28442369  0.51925278  1.0
  C  C94  1  0.54042349  0.95630266  0.44908814  1.0
  C  C95  1  0.46176709  0.04911705  0.55805998  1.0
  C  C96  1  0.54847363  0.03065820  0.44674883  1.0
  C  C97  1  0.45516738  0.97454778  0.56078448  1.0
  C  C98  1  0.50859890  0.07842770  0.50100529  1.0
  C  C99  1  0.49369474  0.92669425  0.50614665  1.0
  C  C100  1  0.18321643  0.51214334  0.46570746  1.0
  C  C101  1  0.80732316  0.48636497  0.51972242  1.0
  C  C102  1  0.97629289  0.41098505  0.53309147  1.0
  C  C103  1  0.01367986  0.58473152  0.44661131  1.0
  C  C104  1  0.86990214  0.41997569  0.54243347  1.0
  C  C105  1  0.12041043  0.57752009  0.44094044  1.0
  C  C106  1  0.85250138  0.54083267  0.48808674  1.0
  C  C107  1  0.13765743  0.45595259  0.49372172  1.0
  C  C108  1  0.96209391  0.53099227  0.47812525  1.0
  C  C109  1  0.02772903  0.46465714  0.50137206  1.0
  C  C110  1  0.53198215  0.42898525  0.74186351  1.0
  C  C111  1  0.59533010  0.54821819  0.24991635  1.0
  C  C112  1  0.53862129  0.43320890  0.81372271  1.0
  C  C113  1  0.58639224  0.53760117  0.17892587  1.0
  C  C114  1  0.32025141  0.71915407  0.59430374  1.0
  C  C115  1  0.21592214  0.71569497  0.55816619  1.0
  C  C116  1  0.15318094  0.79080466  0.53879905  1.0
  C  C117  1  0.70078259  0.28723047  0.44395646  1.0
  C  C118  1  0.70456687  0.29345831  0.36470791  1.0
  C  C119  1  0.79400088  0.33213896  0.34074523  1.0
  C  C120  1  0.59250537  0.36198326  0.70555377  1.0
  C  C121  1  0.53383983  0.29623879  0.70290878  1.0
  C  C122  1  0.60153673  0.22822559  0.67049897  1.0
  C  C123  1  0.65568359  0.60613378  0.27473132  1.0
  C  C124  1  0.58930186  0.68409026  0.27607607  1.0
  C  C125  1  0.65366051  0.74328831  0.29466151  1.0
  C  C126  1  0.39236973  0.62863601  0.85297843  1.0
  C  C127  1  0.47401838  0.68015235  0.84753058  1.0
  C  C128  1  0.43427743  0.75692574  0.87731000  1.0
  C  C129  1  0.41665569  0.38585600  0.17152650  1.0
  C  C130  1  0.48535206  0.30903819  0.16499946  1.0
  C  C131  1  0.42230054  0.25052935  0.14224888  1.0
  N  N132  1  0.46721113  0.69750737  0.51038091  1.0
  N  N133  1  0.52284077  0.30864340  0.49418310  1.0
  O  O134  1  0.51958706  0.57541171  0.39778554  1.0
  O  O135  1  0.45457497  0.43302417  0.59909254  1.0
  O  O136  1  0.55761172  0.45043468  0.40436237  1.0
  O  O137  1  0.45533864  0.55598115  0.60380341  1.0
  O  O138  1  0.63885989  0.56015845  0.51721174  1.0
  O  O139  1  0.35502197  0.44235048  0.46694095  1.0
  O  O140  1  0.65238925  0.43744352  0.53847681  1.0
  O  O141  1  0.33293015  0.56757387  0.47358905  1.0
  F  F142  1  0.03747434  0.34735749  0.55530065  1.0
  F  F143  1  0.95246354  0.64732666  0.42229643  1.0
