# generated using pymatgen
data_Zn5H60C75(N3O2)6
_symmetry_space_group_name_H-M   'P 1'
_cell_length_a   19.13112823
_cell_length_b   20.84041121
_cell_length_c   23.74192218
_cell_angle_alpha   113.95976843
_cell_angle_beta   112.57527565
_cell_angle_gamma   93.57311911
_symmetry_Int_Tables_number   1
_chemical_formula_structural   Zn5H60C75(N3O2)6
_chemical_formula_sum   'Zn10 H120 C150 N36 O24'
_cell_volume   7715.70449780
_cell_formula_units_Z   2
loop_
 _symmetry_equiv_pos_site_id
 _symmetry_equiv_pos_as_xyz
  1  'x, y, z'
loop_
 _atom_site_type_symbol
 _atom_site_label
 _atom_site_symmetry_multiplicity
 _atom_site_fract_x
 _atom_site_fract_y
 _atom_site_fract_z
 _atom_site_occupancy
  Zn  Zn0  1  0.19905885  0.83150303  0.41725099  1.0
  Zn  Zn1  1  0.31198301  0.79644273  0.32459838  1.0
  Zn  Zn2  1  0.25240079  0.02171946  0.53479432  1.0
  Zn  Zn3  1  0.99876342  0.77566032  0.29998255  1.0
  Zn  Zn4  1  0.23582426  0.73689739  0.51937302  1.0
  Zn  Zn5  1  0.80094163  0.16849401  0.58274688  1.0
  Zn  Zn6  1  0.68801663  0.20355346  0.67539866  1.0
  Zn  Zn7  1  0.74759271  0.97827974  0.46520246  1.0
  Zn  Zn8  1  0.00123334  0.22433724  0.70001696  1.0
  Zn  Zn9  1  0.76418311  0.26310342  0.48062965  1.0
  H  H10  1  0.43984437  0.69439205  0.35233407  1.0
  H  H11  1  0.51432880  0.62520769  0.40905430  1.0
  H  H12  1  0.38110804  0.64725755  0.52464248  1.0
  H  H13  1  0.48190546  0.58397895  0.53871866  1.0
  H  H14  1  0.49071023  0.53429235  0.46172020  1.0
  H  H15  1  0.56196459  0.61612573  0.52801814  1.0
  H  H16  1  0.21368846  0.72353298  0.14270161  1.0
  H  H17  1  0.09603357  0.67736132  0.03030581  1.0
  H  H18  1  0.94157929  0.70859933  0.12692434  1.0
  H  H19  1  0.07724700  0.62261351  0.49400816  1.0
  H  H20  1  0.93473544  0.56229931  0.44238500  1.0
  H  H21  1  0.87293800  0.65547651  0.30256119  1.0
  H  H22  1  0.80238381  0.53697231  0.36701280  1.0
  H  H23  1  0.77538468  0.60906789  0.34863316  1.0
  H  H24  1  0.78441035  0.53181151  0.28609963  1.0
  H  H25  1  0.10817152  0.11265714  0.52427871  1.0
  H  H26  1  0.86362886  0.01789163  0.37623068  1.0
  H  H27  1  0.88742647  0.89698012  0.32202335  1.0
  H  H28  1  0.01673309  0.18689666  0.52539529  1.0
  H  H29  1  0.93938632  0.16268730  0.44280892  1.0
  H  H30  1  0.92088834  0.13847931  0.49988750  1.0
  H  H31  1  0.29138296  0.82984861  0.69357576  1.0
  H  H32  1  0.32515611  0.93978783  0.80406669  1.0
  H  H33  1  0.30316400  0.07938633  0.70745754  1.0
  H  H34  1  0.77174906  0.57193824  0.09191229  1.0
  H  H35  1  0.63697106  0.54066151  0.99939936  1.0
  H  H36  1  0.64012848  0.76822019  0.08241643  1.0
  H  H37  1  0.77597348  0.79797436  0.17596570  1.0
  H  H38  1  0.53484000  0.54087029  0.90661464  1.0
  H  H39  1  0.50983944  0.54073085  0.97198388  1.0
  H  H40  1  0.22823017  0.23754006  0.71889498  1.0
  H  H41  1  0.28349765  0.36890167  0.80190246  1.0
  H  H42  1  0.45001622  0.37953565  0.72240451  1.0
  H  H43  1  0.39420938  0.24647819  0.63978343  1.0
  H  H44  1  0.42349890  0.64782475  0.21145169  1.0
  H  H45  1  0.44333022  0.57451663  0.10801330  1.0
  H  H46  1  0.35231063  0.71634319  0.02261693  1.0
  H  H47  1  0.33741109  0.79035910  0.12772722  1.0
  H  H48  1  0.33317551  0.61330521  0.92250693  1.0
  H  H49  1  0.42871965  0.67508384  0.97580092  1.0
  H  H50  1  0.31406040  0.49226440  0.82836336  1.0
  H  H51  1  0.37635941  0.46789499  0.89088029  1.0
  H  H52  1  0.44988950  0.57167408  0.81943275  1.0
  H  H53  1  0.46702453  0.66052872  0.88714785  1.0
  H  H54  1  0.18305692  0.64354981  0.64478564  1.0
  H  H55  1  0.21437871  0.60729575  0.73855819  1.0
  H  H56  1  0.45934910  0.65655947  0.78680073  1.0
  H  H57  1  0.42679350  0.69369882  0.69467698  1.0
  H  H58  1  0.39829105  0.13162033  0.54381660  1.0
  H  H59  1  0.50075572  0.16304904  0.51159772  1.0
  H  H60  1  0.44886729  0.93958097  0.35933484  1.0
  H  H61  1  0.55317720  0.03069737  0.38008506  1.0
  H  H62  1  0.52838219  0.11519512  0.39629057  1.0
  H  H63  1  0.60005977  0.10584709  0.46430979  1.0
  H  H64  1  0.35129517  0.06460083  0.87238332  1.0
  H  H65  1  0.38477195  0.12372876  0.84572693  1.0
  H  H66  1  0.28496855  0.10319129  0.82807511  1.0
  H  H67  1  0.88742451  0.65991844  0.00419437  1.0
  H  H68  1  0.94764045  0.69882472  0.97874471  1.0
  H  H69  1  0.94231962  0.60850884  0.96570902  1.0
  H  H70  1  0.56015829  0.30559997  0.64766099  1.0
  H  H71  1  0.48567491  0.37478768  0.59094244  1.0
  H  H72  1  0.61890096  0.35274639  0.47535892  1.0
  H  H73  1  0.51809566  0.41602563  0.46128561  1.0
  H  H74  1  0.50929449  0.46570569  0.53828301  1.0
  H  H75  1  0.43804004  0.38387468  0.47198633  1.0
  H  H76  1  0.78631688  0.27646017  0.85730275  1.0
  H  H77  1  0.90397304  0.32263365  0.96969652  1.0
  H  H78  1  0.05842184  0.29138974  0.87307435  1.0
  H  H79  1  0.92275044  0.37738703  0.50599649  1.0
  H  H80  1  0.06525956  0.43770518  0.55761867  1.0
  H  H81  1  0.12706193  0.34452753  0.69744091  1.0
  H  H82  1  0.19760542  0.46303556  0.63298716  1.0
  H  H83  1  0.22461417  0.39094209  0.65136829  1.0
  H  H84  1  0.21558587  0.46819730  0.71390177  1.0
  H  H85  1  0.89182520  0.88734564  0.47571342  1.0
  H  H86  1  0.13636170  0.98209988  0.62377268  1.0
  H  H87  1  0.11256771  0.10301425  0.67797846  1.0
  H  H88  1  0.98326135  0.81309893  0.47459954  1.0
  H  H89  1  0.06060877  0.83731180  0.55718776  1.0
  H  H90  1  0.07910548  0.86151901  0.50011004  1.0
  H  H91  1  0.70861060  0.17015534  0.30642465  1.0
  H  H92  1  0.67483196  0.06021586  0.19593404  1.0
  H  H93  1  0.69682945  0.92061583  0.29254110  1.0
  H  H94  1  0.22825444  0.42806590  0.90809153  1.0
  H  H95  1  0.36303491  0.45933935  0.00060064  1.0
  H  H96  1  0.35987586  0.23178233  0.91757922  1.0
  H  H97  1  0.22402941  0.20202801  0.82403417  1.0
  H  H98  1  0.46516321  0.45912546  0.09338740  1.0
  H  H99  1  0.49016852  0.45927436  0.02802098  1.0
  H  H100  1  0.77176865  0.76246360  0.28110730  1.0
  H  H101  1  0.71650439  0.63110240  0.19810020  1.0
  H  H102  1  0.54998355  0.62046393  0.27759371  1.0
  H  H103  1  0.60578620  0.75352043  0.36021332  1.0
  H  H104  1  0.57651126  0.35217868  0.78854919  1.0
  H  H105  1  0.55668343  0.42549040  0.89198787  1.0
  H  H106  1  0.64768241  0.28365500  0.97737885  1.0
  H  H107  1  0.66257440  0.20963274  0.87226612  1.0
  H  H108  1  0.66683182  0.38669717  0.07749129  1.0
  H  H109  1  0.57128652  0.32491905  0.02419782  1.0
  H  H110  1  0.68594341  0.50773792  0.17163700  1.0
  H  H111  1  0.62364358  0.53210547  0.10912042  1.0
  H  H112  1  0.55012500  0.42832130  0.18056940  1.0
  H  H113  1  0.53298263  0.33947014  0.11285070  1.0
  H  H114  1  0.81695142  0.35645570  0.35522115  1.0
  H  H115  1  0.78563078  0.39270199  0.26144470  1.0
  H  H116  1  0.54065974  0.34344209  0.21319831  1.0
  H  H117  1  0.57321114  0.30630892  0.30532549  1.0
  H  H118  1  0.60169505  0.86837490  0.45618010  1.0
  H  H119  1  0.49923716  0.83695073  0.48840564  1.0
  H  H120  1  0.55113321  0.06042069  0.64066817  1.0
  H  H121  1  0.44682271  0.96930761  0.61992125  1.0
  H  H122  1  0.47161817  0.88480926  0.60371733  1.0
  H  H123  1  0.39993784  0.89415481  0.53569839  1.0
  H  H124  1  0.64869494  0.93540480  0.12761714  1.0
  H  H125  1  0.61521891  0.87627546  0.15427049  1.0
  H  H126  1  0.71502538  0.89681350  0.17192395  1.0
  H  H127  1  0.11258141  0.34008438  0.99580866  1.0
  H  H128  1  0.05236786  0.30117917  0.02126266  1.0
  H  H129  1  0.05768108  0.39149438  0.03429062  1.0
  C  C130  1  0.35214563  0.69494885  0.45511744  1.0
  C  C131  1  0.36903955  0.70893803  0.40748610  1.0
  C  C132  1  0.42774758  0.68369768  0.38939262  1.0
  C  C133  1  0.46779366  0.64536406  0.42098278  1.0
  C  C134  1  0.45161866  0.63105642  0.46932760  1.0
  C  C135  1  0.39336658  0.65562339  0.48660694  1.0
  C  C136  1  0.49890917  0.58926511  0.50130269  1.0
  C  C137  1  0.06690544  0.73773556  0.19396074  1.0
  C  C138  1  0.14344492  0.74171553  0.19908259  1.0
  C  C139  1  0.15532129  0.71977201  0.13969741  1.0
  C  C140  1  0.08917352  0.69468246  0.07749295  1.0
  C  C141  1  0.01169205  0.69043371  0.07165867  1.0
  C  C142  1  0.00014929  0.71194024  0.13020641  1.0
  C  C143  1  0.99600656  0.68235779  0.37347715  1.0
  C  C144  1  0.05364921  0.67326554  0.42685931  1.0
  C  C145  1  0.03287883  0.62911656  0.45261678  1.0
  C  C146  1  0.95375306  0.59642892  0.42348117  1.0
  C  C147  1  0.89503204  0.60541977  0.36991305  1.0
  C  C148  1  0.91617459  0.64830439  0.34405779  1.0
  C  C149  1  0.81004028  0.56887788  0.34175735  1.0
  C  C150  1  0.01274401  0.93847851  0.39132890  1.0
  C  C151  1  0.07421729  0.99889491  0.44805570  1.0
  C  C152  1  0.06077971  0.06719734  0.47934576  1.0
  C  C153  1  0.98456716  0.07317218  0.45194733  1.0
  C  C154  1  0.92308410  0.01144625  0.39508838  1.0
  C  C155  1  0.93516525  0.94395448  0.36403854  1.0
  C  C156  1  0.96478987  0.14418167  0.48183991  1.0
  C  C157  1  0.27879641  0.89367263  0.63824433  1.0
  C  C158  1  0.29425777  0.88347664  0.69646319  1.0
  C  C159  1  0.31311166  0.94522072  0.75759597  1.0
  C  C160  1  0.31715612  0.01614873  0.76289331  1.0
  C  C161  1  0.30259800  0.02608334  0.70531715  1.0
  C  C162  1  0.28337676  0.96387081  0.64286778  1.0
  C  C163  1  0.86082342  0.70302379  0.19575039  1.0
  C  C164  1  0.78156485  0.68646328  0.13940263  1.0
  C  C165  1  0.74215027  0.61445339  0.08926436  1.0
  C  C166  1  0.66656299  0.59716982  0.03745296  1.0
  C  C167  1  0.63047151  0.65340781  0.03579065  1.0
  C  C168  1  0.66991066  0.72593924  0.08516376  1.0
  C  C169  1  0.74474494  0.74210589  0.13658442  1.0
  C  C170  1  0.51039704  0.56951525  0.94209138  1.0
  C  C171  1  0.27507075  0.15456144  0.62699165  1.0
  C  C172  1  0.30762713  0.23385207  0.67427612  1.0
  C  C173  1  0.27674038  0.26906968  0.71985318  1.0
  C  C174  1  0.30763595  0.34290540  0.76623798  1.0
  C  C175  1  0.37046259  0.38200228  0.76695733  1.0
  C  C176  1  0.40131281  0.34766020  0.72088804  1.0
  C  C177  1  0.37014606  0.27410582  0.67516524  1.0
  C  C178  1  0.37950693  0.72384523  0.17594174  1.0
  C  C179  1  0.40888542  0.66250100  0.16996665  1.0
  C  C180  1  0.41891184  0.62117053  0.11218784  1.0
  C  C181  1  0.39811078  0.63985454  0.05843184  1.0
  C  C182  1  0.36901116  0.70115854  0.06381676  1.0
  C  C183  1  0.36042523  0.74278305  0.12267166  1.0
  C  C184  1  0.39586916  0.61793004  0.95082788  1.0
  C  C185  1  0.42663328  0.57118213  0.90140537  1.0
  C  C186  1  0.37513023  0.49297033  0.85771557  1.0
  C  C187  1  0.42796830  0.60505532  0.85525532  1.0
  C  C188  1  0.28684382  0.69350093  0.60949084  1.0
  C  C189  1  0.30319690  0.67005525  0.66352451  1.0
  C  C190  1  0.24321483  0.64589320  0.67617703  1.0
  C  C191  1  0.26032199  0.62587703  0.72810569  1.0
  C  C192  1  0.33816349  0.62886801  0.76786229  1.0
  C  C193  1  0.39867039  0.65317364  0.75601171  1.0
  C  C194  1  0.38062103  0.67382735  0.70422574  1.0
  C  C195  1  0.38199523  0.96395467  0.41819055  1.0
  C  C196  1  0.36730973  0.01746909  0.46946861  1.0
  C  C197  1  0.40987724  0.09077826  0.50437496  1.0
  C  C198  1  0.46615345  0.10693547  0.48579525  1.0
  C  C199  1  0.48155292  0.05352319  0.43400066  1.0
  C  C200  1  0.43924000  0.98141550  0.39964368  1.0
  C  C201  1  0.54396451  0.07717993  0.41757774  1.0
  C  C202  1  0.36322029  0.76576164  0.23513533  1.0
  C  C203  1  0.33575806  0.08020471  0.83103412  1.0
  C  C204  1  0.94347910  0.66297160  0.00155654  1.0
  C  C205  1  0.64786302  0.30505276  0.54488438  1.0
  C  C206  1  0.63096679  0.29106058  0.59251221  1.0
  C  C207  1  0.57225694  0.31630000  0.61060587  1.0
  C  C208  1  0.53221394  0.35463166  0.57901374  1.0
  C  C209  1  0.54839100  0.36894277  0.53067344  1.0
  C  C210  1  0.60664096  0.34438094  0.51339540  1.0
  C  C211  1  0.50109629  0.41073668  0.49869933  1.0
  C  C212  1  0.93309906  0.26225628  0.80604069  1.0
  C  C213  1  0.85655844  0.25827742  0.80091994  1.0
  C  C214  1  0.84468162  0.28022154  0.86030353  1.0
  C  C215  1  0.91083150  0.30530950  0.92250914  1.0
  C  C216  1  0.98831327  0.30956047  0.92834452  1.0
  C  C217  1  0.99985266  0.28805116  0.86979404  1.0
  C  C218  1  0.00399573  0.31764365  0.62652836  1.0
  C  C219  1  0.94635408  0.32673658  0.57314577  1.0
  C  C220  1  0.96711662  0.37088170  0.54738452  1.0
  C  C221  1  0.04624253  0.40357227  0.57651921  1.0
  C  C222  1  0.10496266  0.39458562  0.63008988  1.0
  C  C223  1  0.08382489  0.35169762  0.65594448  1.0
  C  C224  1  0.18995402  0.43113030  0.65824398  1.0
  C  C225  1  0.98725097  0.06152136  0.60866963  1.0
  C  C226  1  0.92577945  0.00110376  0.55193726  1.0
  C  C227  1  0.93921510  0.93280070  0.52064713  1.0
  C  C228  1  0.01542575  0.92682525  0.54804551  1.0
  C  C229  1  0.07690808  0.98854941  0.60491254  1.0
  C  C230  1  0.06482724  0.05603981  0.63596102  1.0
  C  C231  1  0.03520772  0.85581568  0.51815774  1.0
  C  C232  1  0.72119520  0.10633010  0.36175543  1.0
  C  C233  1  0.70573271  0.11652720  0.30353768  1.0
  C  C234  1  0.68687508  0.05478467  0.24240537  1.0
  C  C235  1  0.68283276  0.98385520  0.23710766  1.0
  C  C236  1  0.69739364  0.97391791  0.29468168  1.0
  C  C237  1  0.71661467  0.03613103  0.35713055  1.0
  C  C238  1  0.13917940  0.29697786  0.80425041  1.0
  C  C239  1  0.21843682  0.31354049  0.86059810  1.0
  C  C240  1  0.25785240  0.38554843  0.91073770  1.0
  C  C241  1  0.33344313  0.40283032  0.96254905  1.0
  C  C242  1  0.36953429  0.34659376  0.96420733  1.0
  C  C243  1  0.33009167  0.27406194  0.91483275  1.0
  C  C244  1  0.25525471  0.25789756  0.86341600  1.0
  C  C245  1  0.48960658  0.43048249  0.05790663  1.0
  C  C246  1  0.72492424  0.84543890  0.37300899  1.0
  C  C247  1  0.69237157  0.76614773  0.32572287  1.0
  C  C248  1  0.72325872  0.73093203  0.28014716  1.0
  C  C249  1  0.69236443  0.65709240  0.23376175  1.0
  C  C250  1  0.62953842  0.61799845  0.23304366  1.0
  C  C251  1  0.59868532  0.65233936  0.27911180  1.0
  C  C252  1  0.62985060  0.72589467  0.32483226  1.0
  C  C253  1  0.62049139  0.27615165  0.82405708  1.0
  C  C254  1  0.59111949  0.33749914  0.83002991  1.0
  C  C255  1  0.58109868  0.37883420  0.88781379  1.0
  C  C256  1  0.60189081  0.36015020  0.94156384  1.0
  C  C257  1  0.63098390  0.29883997  0.93617933  1.0
  C  C258  1  0.63956663  0.25721405  0.87732523  1.0
  C  C259  1  0.60413771  0.38207132  0.04916933  1.0
  C  C260  1  0.57337158  0.42881835  0.09859481  1.0
  C  C261  1  0.62487469  0.50702975  0.14228638  1.0
  C  C262  1  0.57204189  0.39494351  0.14474428  1.0
  C  C263  1  0.71315634  0.30650357  0.39051445  1.0
  C  C264  1  0.69681045  0.32994912  0.33648061  1.0
  C  C265  1  0.75678987  0.35410895  0.32382535  1.0
  C  C266  1  0.73968320  0.37412155  0.27189641  1.0
  C  C267  1  0.66184449  0.37112801  0.23213616  1.0
  C  C268  1  0.60133886  0.34682673  0.24398833  1.0
  C  C269  1  0.61938443  0.32617755  0.29577663  1.0
  C  C270  1  0.61799987  0.03604180  0.58180789  1.0
  C  C271  1  0.63268355  0.98252599  0.53052791  1.0
  C  C272  1  0.59011347  0.90921833  0.49562362  1.0
  C  C273  1  0.53384010  0.89306424  0.51420751  1.0
  C  C274  1  0.51844167  0.94647779  0.56600226  1.0
  C  C275  1  0.56075742  0.01858352  0.60035617  1.0
  C  C276  1  0.45603459  0.92282170  0.58242798  1.0
  C  C277  1  0.63677154  0.23423439  0.76485886  1.0
  C  C278  1  0.66423095  0.91980008  0.16896442  1.0
  C  C279  1  0.05652710  0.33702973  0.99844665  1.0
  N  N280  1  0.29371909  0.72716393  0.46174210  1.0
  N  N281  1  0.27680850  0.75957186  0.42152082  1.0
  N  N282  1  0.32060300  0.74944413  0.38825735  1.0
  N  N283  1  0.19376105  0.76913189  0.26762159  1.0
  N  N284  1  0.15118678  0.78149500  0.30228112  1.0
  N  N285  1  0.07508097  0.76314827  0.25957436  1.0
  N  N286  1  0.03442274  0.72961773  0.36212822  1.0
  N  N287  1  0.11037376  0.74857760  0.40561785  1.0
  N  N288  1  0.12393313  0.71529446  0.44471455  1.0
  N  N289  1  0.14067108  0.97501877  0.46221987  1.0
  N  N290  1  0.12139663  0.90449664  0.41740271  1.0
  N  N291  1  0.04522442  0.88135421  0.37431815  1.0
  N  N292  1  0.30923872  0.98258652  0.47492992  1.0
  N  N293  1  0.28962072  0.91241979  0.43035658  1.0
  N  N294  1  0.33226661  0.89943255  0.39549323  1.0
  N  N295  1  0.26408799  0.95470020  0.57784485  1.0
  N  N296  1  0.24801952  0.88381619  0.53594928  1.0
  N  N297  1  0.25664395  0.84607737  0.57078226  1.0
  N  N298  1  0.70628906  0.27283607  0.53825812  1.0
  N  N299  1  0.72319914  0.24042652  0.57847780  1.0
  N  N300  1  0.67940433  0.25055355  0.61174111  1.0
  N  N301  1  0.80624074  0.23086276  0.73238046  1.0
  N  N302  1  0.84881350  0.21850047  0.69772011  1.0
  N  N303  1  0.92492065  0.23684550  0.74042627  1.0
  N  N304  1  0.96558050  0.27038171  0.63787475  1.0
  N  N305  1  0.88962673  0.25141888  0.59438329  1.0
  N  N306  1  0.87606912  0.28470384  0.55528675  1.0
  N  N307  1  0.85932305  0.02498241  0.53777396  1.0
  N  N308  1  0.87859883  0.09550123  0.58259110  1.0
  N  N309  1  0.95477119  0.11864603  0.62567802  1.0
  N  N310  1  0.69075719  0.01741020  0.52506876  1.0
  N  N311  1  0.71037328  0.08757585  0.56963994  1.0
  N  N312  1  0.66772793  0.10056322  0.60450396  1.0
  N  N313  1  0.73590697  0.04530116  0.42215461  1.0
  N  N314  1  0.75198044  0.11618590  0.46404979  1.0
  N  N315  1  0.74335410  0.15392410  0.42921675  1.0
  O  O316  1  0.30589493  0.12509529  0.58517725  1.0
  O  O317  1  0.22130116  0.11770663  0.62781730  1.0
  O  O318  1  0.40617982  0.45417480  0.81138626  1.0
  O  O319  1  0.33750272  0.82117253  0.24091345  1.0
  O  O320  1  0.37163797  0.74022724  0.27858237  1.0
  O  O321  1  0.40787253  0.59501035  0.00244357  1.0
  O  O322  1  0.34232399  0.72264388  0.60411456  1.0
  O  O323  1  0.21426865  0.68506060  0.56885681  1.0
  O  O324  1  0.34973991  0.60693090  0.81709693  1.0
  O  O325  1  0.55659596  0.64285046  0.98774939  1.0
  O  O326  1  0.89457106  0.65410990  0.19888969  1.0
  O  O327  1  0.89273557  0.77169268  0.24128856  1.0
  O  O328  1  0.69409412  0.87490237  0.41481639  1.0
  O  O329  1  0.77869597  0.88229527  0.37218870  1.0
  O  O330  1  0.59382346  0.54582579  0.18861403  1.0
  O  O331  1  0.66248891  0.17881884  0.75908376  1.0
  O  O332  1  0.62836285  0.25976225  0.72141346  1.0
  O  O333  1  0.59212992  0.40499261  0.99755471  1.0
  O  O334  1  0.65767521  0.27736063  0.39588637  1.0
  O  O335  1  0.78572892  0.31494079  0.43114540  1.0
  O  O336  1  0.65026936  0.39306074  0.18289880  1.0
  O  O337  1  0.44341147  0.35714700  0.01224394  1.0
  O  O338  1  0.10543521  0.34589786  0.80111116  1.0
  O  O339  1  0.10726432  0.22831077  0.75871295  1.0
