# generated using pymatgen
data_ZnH6C12S2(NO2)2
_symmetry_space_group_name_H-M   'P 1'
_cell_length_a   11.09068201
_cell_length_b   12.82291330
_cell_length_c   12.82291867
_cell_angle_alpha   62.46413249
_cell_angle_beta   84.60767375
_cell_angle_gamma   84.60778797
_symmetry_Int_Tables_number   1
_chemical_formula_structural   ZnH6C12S2(NO2)2
_chemical_formula_sum   'Zn4 H24 C48 S8 N8 O16'
_cell_volume   1607.23872197
_cell_formula_units_Z   4
loop_
 _symmetry_equiv_pos_site_id
 _symmetry_equiv_pos_as_xyz
  1  'x, y, z'
loop_
 _atom_site_type_symbol
 _atom_site_label
 _atom_site_symmetry_multiplicity
 _atom_site_fract_x
 _atom_site_fract_y
 _atom_site_fract_z
 _atom_site_occupancy
  Zn  Zn0  1  0.13275388  0.97556753  0.50112396  1.0
  Zn  Zn1  1  0.36724486  0.49887614  0.02443573  1.0
  Zn  Zn2  1  0.86724592  0.02443442  0.49887543  1.0
  Zn  Zn3  1  0.63275494  0.50112581  0.97556366  1.0
  H  H4  1  0.24786454  0.30675824  0.20226690  1.0
  H  H5  1  0.25213417  0.79773984  0.69323839  1.0
  H  H6  1  0.75213798  0.69324373  0.79773303  1.0
  H  H7  1  0.74786897  0.20226653  0.30675787  1.0
  H  H8  1  0.87284034  0.39876269  0.25872258  1.0
  H  H9  1  0.62715114  0.74127801  0.60124393  1.0
  H  H10  1  0.12716038  0.60123927  0.74127907  1.0
  H  H11  1  0.37284876  0.25872308  0.39876209  1.0
  H  H12  1  0.90558528  0.60275156  0.09811147  1.0
  H  H13  1  0.59441233  0.90188347  0.39725331  1.0
  H  H14  1  0.09441547  0.39724951  0.90188669  1.0
  H  H15  1  0.40558974  0.09811144  0.60274993  1.0
  H  H16  1  0.80408097  0.97108134  0.18253076  1.0
  H  H17  1  0.69591625  0.81746990  0.02891179  1.0
  H  H18  1  0.19591446  0.02891796  0.81746869  1.0
  H  H19  1  0.30408195  0.18252762  0.97108200  1.0
  H  H20  1  0.16135463  0.81114125  0.28065740  1.0
  H  H21  1  0.33864233  0.71934464  0.18885653  1.0
  H  H22  1  0.83863454  0.18885714  0.71934612  1.0
  H  H23  1  0.66135785  0.28065115  0.81114492  1.0
  H  H24  1  0.16838291  0.75376519  0.11604644  1.0
  H  H25  1  0.33161870  0.88395368  0.24623779  1.0
  H  H26  1  0.83161595  0.24623765  0.88395573  1.0
  H  H27  1  0.66838042  0.11604475  0.75376330  1.0
  C  C28  1  0.04393251  0.21441201  0.33982203  1.0
  C  C29  1  0.45606925  0.66017435  0.78559194  1.0
  C  C30  1  0.95606829  0.78558908  0.66018235  1.0
  C  C31  1  0.54395151  0.33982592  0.21440875  1.0
  C  C32  1  0.05914745  0.33762406  0.24466984  1.0
  C  C33  1  0.44085163  0.75533123  0.66237952  1.0
  C  C34  1  0.94085878  0.66237705  0.75533406  1.0
  C  C35  1  0.55915182  0.24467074  0.33762267  1.0
  C  C36  1  0.17000638  0.36981931  0.18183355  1.0
  C  C37  1  0.32999422  0.81817154  0.63018097  1.0
  C  C38  1  0.82999713  0.63018178  0.81816981  1.0
  C  C39  1  0.67001177  0.18183309  0.36981898  1.0
  C  C40  1  0.96186777  0.42243920  0.21357275  1.0
  C  C41  1  0.53812845  0.78642888  0.57756384  1.0
  C  C42  1  0.03813483  0.57756188  0.78642992  1.0
  C  C43  1  0.46187331  0.21357133  0.42244009  1.0
  C  C44  1  0.97967118  0.53530909  0.12446162  1.0
  C  C45  1  0.52032699  0.87553716  0.46469705  1.0
  C  C46  1  0.02033038  0.46469375  0.87553720  1.0
  C  C47  1  0.47967572  0.12446217  0.53530721  1.0
  C  C48  1  0.09435464  0.56108354  0.06572032  1.0
  C  C49  1  0.40564374  0.93427951  0.43891683  1.0
  C  C50  1  0.90564522  0.43891753  0.93427947  1.0
  C  C51  1  0.59435984  0.06571981  0.56108190  1.0
  C  C52  1  0.98883669  0.83477915  0.06630597  1.0
  C  C53  1  0.51115903  0.93369649  0.16521872  1.0
  C  C54  1  0.01115764  0.16522367  0.93369505  1.0
  C  C55  1  0.48883733  0.06630192  0.83477794  1.0
  C  C56  1  0.88649880  0.92312395  0.17078627  1.0
  C  C57  1  0.61349707  0.82921870  0.07687001  1.0
  C  C58  1  0.11349297  0.07687621  0.82921543  1.0
  C  C59  1  0.38650469  0.17078061  0.92312732  1.0
  C  C60  1  0.98315515  0.89602024  0.24379691  1.0
  C  C61  1  0.51684278  0.75620483  0.10397589  1.0
  C  C62  1  0.01683837  0.10398081  0.75620345  1.0
  C  C63  1  0.48315839  0.24378918  0.89602316  1.0
  C  C64  1  0.08568044  0.83334855  0.22446039  1.0
  C  C65  1  0.41431886  0.77554016  0.16664764  1.0
  C  C66  1  0.91431392  0.16665338  0.77553792  1.0
  C  C67  1  0.58568497  0.22445475  0.83334999  1.0
  C  C68  1  0.98182698  0.93682316  0.33605444  1.0
  C  C69  1  0.51817387  0.66394900  0.06316837  1.0
  C  C70  1  0.01815654  0.06317874  0.66394795  1.0
  C  C71  1  0.48184522  0.33604771  0.93682398  1.0
  C  C72  1  0.08965900  0.80102649  0.13476269  1.0
  C  C73  1  0.41033672  0.86523654  0.19897175  1.0
  C  C74  1  0.91033638  0.19897369  0.86523635  1.0
  C  C75  1  0.58966071  0.13475923  0.80102526  1.0
  S  S76  1  0.97602757  0.80374371  0.94557860  1.0
  S  S77  1  0.52397232  0.05441939  0.19625617  1.0
  S  S78  1  0.02397329  0.19625560  0.05442115  1.0
  S  S79  1  0.47602686  0.94557725  0.80373950  1.0
  S  S80  1  0.12860976  0.70160800  0.94906144  1.0
  S  S81  1  0.37138781  0.05093920  0.29838669  1.0
  S  S82  1  0.87139210  0.29839044  0.05094252  1.0
  S  S83  1  0.62861411  0.94905746  0.70161107  1.0
  N  N84  1  0.88946960  0.89361145  0.08303684  1.0
  N  N85  1  0.61052771  0.91696780  0.10638610  1.0
  N  N86  1  0.11052755  0.10638961  0.91696475  1.0
  N  N87  1  0.38946923  0.08303589  0.89360805  1.0
  N  N88  1  0.18819640  0.47908472  0.09391705  1.0
  N  N89  1  0.31180283  0.90608203  0.52091508  1.0
  N  N90  1  0.81180521  0.52091724  0.90608218  1.0
  N  N91  1  0.68819978  0.09391817  0.47908254  1.0
  O  O92  1  0.88056454  0.97341128  0.36671163  1.0
  O  O93  1  0.61943028  0.63329458  0.02657765  1.0
  O  O94  1  0.11942440  0.02659063  0.63328872  1.0
  O  O95  1  0.38056940  0.36670823  0.97341355  1.0
  O  O96  1  0.08448410  0.93237983  0.37559453  1.0
  O  O97  1  0.41551128  0.62441101  0.06760854  1.0
  O  O98  1  0.91550350  0.06761505  0.62441389  1.0
  O  O99  1  0.58449085  0.37558213  0.93239006  1.0
  O  O100  1  0.93562561  0.18513551  0.37375039  1.0
  O  O101  1  0.56437018  0.62624670  0.81486969  1.0
  O  O102  1  0.06438158  0.81486472  0.62625383  1.0
  O  O103  1  0.43562539  0.37375084  0.18513446  1.0
  O  O104  1  0.14023429  0.14981804  0.37807029  1.0
  O  O105  1  0.35976026  0.62192228  0.85018740  1.0
  O  O106  1  0.85977099  0.85018305  0.62192746  1.0
  O  O107  1  0.64023916  0.37808674  0.14981576  1.0
