# generated using pymatgen
data_Zn2H38C45(N3O4)2
_symmetry_space_group_name_H-M   'P 1'
_cell_length_a   9.86086868
_cell_length_b   10.92499282
_cell_length_c   18.93838187
_cell_angle_alpha   88.06160133
_cell_angle_beta   89.53451588
_cell_angle_gamma   89.20382180
_symmetry_Int_Tables_number   1
_chemical_formula_structural   Zn2H38C45(N3O4)2
_chemical_formula_sum   'Zn2 H38 C45 N6 O8'
_cell_volume   2038.80620661
_cell_formula_units_Z   1
loop_
 _symmetry_equiv_pos_site_id
 _symmetry_equiv_pos_as_xyz
  1  'x, y, z'
loop_
 _atom_site_type_symbol
 _atom_site_label
 _atom_site_symmetry_multiplicity
 _atom_site_fract_x
 _atom_site_fract_y
 _atom_site_fract_z
 _atom_site_occupancy
  Zn  Zn0  1  0.65548494  0.51117567  0.49739772  1.0
  Zn  Zn1  1  0.36275406  0.50649727  0.50057104  1.0
  H  H2  1  0.72574966  0.43817690  0.72557353  1.0
  H  H3  1  0.27971865  0.42672093  0.85041530  1.0
  H  H4  1  0.29190133  0.47180824  0.71967488  1.0
  H  H5  1  0.67291343  0.48531212  0.13355410  1.0
  H  H6  1  0.69136186  0.55073474  0.25795942  1.0
  H  H7  1  0.29233828  0.41419227  0.30108418  1.0
  H  H8  1  0.29919223  0.12832999  0.48829201  1.0
  H  H9  1  0.63441035  0.75867430  0.63490149  1.0
  H  H10  1  0.77938337  0.69147738  0.59687428  1.0
  H  H11  1  0.79758200  0.79829632  0.66438399  1.0
  H  H12  1  0.32887697  0.07565107  0.78635305  1.0
  H  H13  1  0.77770011  0.20263545  0.46681928  1.0
  H  H14  1  0.32807694  0.96279139  0.72091484  1.0
  H  H15  1  0.47197643  0.05635727  0.73021117  1.0
  H  H16  1  0.33778757  0.13025608  0.62557748  1.0
  H  H17  1  0.33822343  0.24180261  0.69054632  1.0
  H  H18  1  0.11057735  0.16469902  0.73521975  1.0
  H  H19  1  0.10868468  0.06041169  0.66744334  1.0
  H  H20  1  0.73969421  0.19370204  0.67784863  1.0
  H  H21  1  0.86659847  0.07730827  0.67221846  1.0
  H  H22  1  0.87546908  0.18550925  0.73931808  1.0
  H  H23  1  0.81627642  0.74348895  0.44685930  1.0
  H  H24  1  0.98428840  0.08350183  0.49977483  1.0
  H  H25  1  0.95055217  0.73002158  0.38357798  1.0
  H  H26  1  0.80232932  0.63713885  0.37958894  1.0
  H  H27  1  0.01961261  0.26529256  0.08927183  1.0
  H  H28  1  0.96208849  0.26305936  0.17838345  1.0
  H  H29  1  0.90718319  0.38133071  0.11835140  1.0
  H  H30  1  0.08950724  0.46167791  0.19632795  1.0
  H  H31  1  0.14837707  0.45760555  0.10798758  1.0
  H  H32  1  0.25956813  0.25267005  0.13589980  1.0
  H  H33  1  0.20739079  0.26471846  0.22514408  1.0
  H  H34  1  0.96179173  0.89393551  0.57624019  1.0
  H  H35  1  0.29169323  0.89757208  0.50090881  1.0
  H  H36  1  0.14637072  0.63875061  0.43010852  1.0
  H  H37  1  0.25715436  0.31958190  0.58570821  1.0
  H  H38  1  0.75447730  0.34540330  0.59185904  1.0
  H  H39  1  0.71431220  0.38731711  0.85583882  1.0
  C  C40  1  0.50952585  0.27115982  0.48778513  1.0
  C  C41  1  0.47263177  0.41127040  0.14715786  1.0
  C  C42  1  0.76948309  0.11259392  0.49225586  1.0
  C  C43  1  0.51430139  0.47857527  0.63674195  1.0
  C  C44  1  0.88412913  0.04668022  0.51176329  1.0
  C  C45  1  0.87161746  0.93719372  0.55256491  1.0
  C  C46  1  0.74657413  0.88376603  0.56501380  1.0
  C  C47  1  0.62889761  0.93990398  0.53280889  1.0
  C  C48  1  0.63838179  0.06457404  0.50615907  1.0
  C  C49  1  0.51458252  0.13355196  0.49430716  1.0
  C  C50  1  0.39139949  0.07398413  0.49679012  1.0
  C  C51  1  0.50926676  0.45654415  0.71519901  1.0
  C  C52  1  0.38614260  0.94635627  0.50753414  1.0
  C  C53  1  0.50180832  0.87895266  0.52486311  1.0
  C  C54  1  0.14723584  0.32405793  0.58803486  1.0
  C  C55  1  0.49446488  0.74245558  0.51808310  1.0
  C  C56  1  0.07557576  0.24633713  0.63319051  1.0
  C  C57  1  0.93026054  0.25640843  0.63520346  1.0
  C  C58  1  0.86426374  0.34108326  0.59138406  1.0
  C  C59  1  0.93551637  0.42169764  0.54524142  1.0
  C  C60  1  0.08073067  0.41379958  0.54482611  1.0
  C  C61  1  0.08591221  0.57599607  0.46300279  1.0
  C  C62  1  0.47504793  0.37696184  0.07304491  1.0
  C  C63  1  0.94233885  0.58360986  0.46130177  1.0
  C  C64  1  0.50174393  0.51947593  0.36266422  1.0
  C  C65  1  0.62873041  0.43454851  0.75349428  1.0
  C  C66  1  0.62252488  0.40700628  0.82564904  1.0
  C  C67  1  0.49629015  0.40330005  0.86072238  1.0
  C  C68  1  0.37677160  0.42850191  0.82256228  1.0
  C  C69  1  0.38350026  0.45387448  0.75030876  1.0
  C  C70  1  0.73846846  0.77714560  0.61737030  1.0
  C  C71  1  0.14608106  0.15189818  0.68042692  1.0
  C  C72  1  0.30098705  0.15021957  0.67901050  1.0
  C  C73  1  0.48848098  0.37551341  0.93684102  1.0
  C  C74  1  0.36059060  0.05608894  0.73200389  1.0
  C  C75  1  0.84842254  0.17426842  0.68365255  1.0
  C  C76  1  0.87498111  0.67898348  0.41492524  1.0
  C  C77  1  0.23750972  0.31821517  0.17730230  1.0
  C  C78  1  0.11664794  0.39958138  0.15359543  1.0
  C  C79  1  0.99466196  0.32351718  0.13395397  1.0
  C  C80  1  0.58943809  0.47052147  0.17075502  1.0
  C  C81  1  0.59968158  0.50776771  0.23963782  1.0
  C  C82  1  0.49065337  0.48887482  0.28643392  1.0
  C  C83  1  0.37449815  0.43100666  0.26319622  1.0
  C  C84  1  0.36285446  0.38866290  0.19455576  1.0
  N  N85  1  0.36522678  0.35956011  0.96759779  1.0
  N  N86  1  0.35870632  0.36307408  0.03703229  1.0
  N  N87  1  0.59773441  0.35175063  0.04280993  1.0
  N  N88  1  0.60416443  0.35414207  0.97341411  1.0
  N  N89  1  0.15284678  0.49429450  0.50299849  1.0
  N  N90  1  0.86908650  0.50636112  0.50204497  1.0
  O  O91  1  0.61857401  0.32860259  0.49941955  1.0
  O  O92  1  0.39525420  0.32256042  0.47542964  1.0
  O  O93  1  0.62701126  0.50758329  0.60853169  1.0
  O  O94  1  0.40356805  0.46384419  0.60401899  1.0
  O  O95  1  0.60421369  0.69040678  0.49825461  1.0
  O  O96  1  0.38061322  0.69022002  0.52666177  1.0
  O  O97  1  0.62011232  0.51189368  0.38908731  1.0
  O  O98  1  0.39236922  0.54598234  0.39556794  1.0
