# generated using pymatgen
data_Sr2H23C31N5O19
_symmetry_space_group_name_H-M   'P 1'
_cell_length_a   13.66155255
_cell_length_b   16.19110374
_cell_length_c   26.85977726
_cell_angle_alpha   107.53855143
_cell_angle_beta   103.23938016
_cell_angle_gamma   90.01012921
_symmetry_Int_Tables_number   1
_chemical_formula_structural   Sr2H23C31N5O19
_chemical_formula_sum   'Sr8 H92 C124 N20 O76'
_cell_volume   5499.16993669
_cell_formula_units_Z   4
loop_
 _symmetry_equiv_pos_site_id
 _symmetry_equiv_pos_as_xyz
  1  'x, y, z'
loop_
 _atom_site_type_symbol
 _atom_site_label
 _atom_site_symmetry_multiplicity
 _atom_site_fract_x
 _atom_site_fract_y
 _atom_site_fract_z
 _atom_site_occupancy
  Sr  Sr0  1  0.29642049  0.19310518  0.23376621  1.0
  Sr  Sr1  1  0.79613313  0.04043756  0.23377163  1.0
  Sr  Sr2  1  0.31880925  0.38670626  0.81253361  1.0
  Sr  Sr3  1  0.81889560  0.42626406  0.81255255  1.0
  Sr  Sr4  1  0.52236209  0.42134390  0.73094427  1.0
  Sr  Sr5  1  0.02230614  0.30994762  0.73080900  1.0
  Sr  Sr6  1  0.02548507  0.06231902  0.16134118  1.0
  Sr  Sr7  1  0.52540197  0.09873634  0.16126751  1.0
  H  H8  1  0.33680720  0.98327948  0.04544251  1.0
  H  H9  1  0.83688217  0.06195439  0.04545496  1.0
  H  H10  1  0.15299333  0.88654964  0.12892525  1.0
  H  H11  1  0.65293767  0.24202001  0.12888617  1.0
  H  H12  1  0.12372684  0.74398833  0.05685265  1.0
  H  H13  1  0.62374415  0.31257515  0.05684569  1.0
  H  H14  1  0.00767368  0.60968043  0.84969425  1.0
  H  H15  1  0.50757182  0.24013569  0.84969986  1.0
  H  H16  1  0.06721351  0.74996578  0.92156634  1.0
  H  H17  1  0.56696581  0.17149595  0.92145625  1.0
  H  H18  1  0.23853631  0.48249431  0.93087964  1.0
  H  H19  1  0.73894142  0.44809816  0.93093325  1.0
  H  H20  1  0.38519344  0.11450124  0.80749292  1.0
  H  H21  1  0.88559662  0.69321339  0.80746575  1.0
  H  H22  1  0.40952548  0.96945342  0.81995375  1.0
  H  H23  1  0.90994310  0.85075336  0.82002246  1.0
  H  H24  1  0.09432441  0.01949388  0.70152822  1.0
  H  H25  1  0.59459818  0.68246714  0.70164389  1.0
  H  H26  1  0.41299613  0.81756757  0.74120725  1.0
  H  H27  1  0.91357684  0.92419061  0.74139283  1.0
  H  H28  1  0.46298589  0.67733116  0.75592082  1.0
  H  H29  1  0.96337480  0.07917290  0.75612407  1.0
  H  H30  1  0.22006186  0.67464682  0.83210147  1.0
  H  H31  1  0.72015702  0.15774179  0.83208011  1.0
  H  H32  1  0.90541903  0.34280316  0.12804958  1.0
  H  H33  1  0.40499621  0.78510083  0.12808802  1.0
  H  H34  1  0.91076278  0.50168387  0.14195279  1.0
  H  H35  1  0.41055082  0.63995347  0.14179210  1.0
  H  H36  1  0.19881315  0.37421243  0.23448684  1.0
  H  H37  1  0.69820983  0.86031128  0.23468329  1.0
  H  H38  1  0.07217644  0.39096358  0.63045089  1.0
  H  H39  1  0.57195460  0.23963857  0.63038505  1.0
  H  H40  1  0.27805364  0.19750150  0.52069616  1.0
  H  H41  1  0.77825842  0.32299224  0.52068026  1.0
  H  H42  1  0.34192627  0.25514217  0.61962626  1.0
  H  H43  1  0.84186529  0.36462907  0.61963151  1.0
  H  H44  1  0.96257395  0.07749714  0.34832974  1.0
  H  H45  1  0.46322059  0.27083874  0.34826336  1.0
  H  H46  1  0.19749180  0.26055088  0.35628627  1.0
  H  H47  1  0.69763137  0.09531957  0.35624199  1.0
  H  H48  1  0.22638501  0.31489503  0.45568068  1.0
  H  H49  1  0.72641111  0.14035622  0.45565396  1.0
  H  H50  1  0.88682828  0.77724352  0.24353483  1.0
  H  H51  1  0.38712163  0.46578310  0.24347290  1.0
  H  H52  1  0.93064921  0.62858248  0.24492599  1.0
  H  H53  1  0.43081467  0.61585023  0.24484358  1.0
  H  H54  1  0.11345403  0.78771008  0.15841826  1.0
  H  H55  1  0.61378746  0.37042604  0.15834719  1.0
  H  H56  1  0.66008344  0.55619372  0.02465599  1.0
  H  H57  1  0.16011977  0.46825394  0.02450222  1.0
  H  H58  1  0.57563704  0.49882381  0.04632346  1.0
  H  H59  1  0.07607673  0.54752094  0.04638029  1.0
  H  H60  1  0.55986331  0.61027759  0.05133844  1.0
  H  H61  1  0.05983720  0.44099891  0.05121366  1.0
  H  H62  1  0.50390778  0.64536964  0.96404302  1.0
  H  H63  1  0.00344260  0.31899822  0.96390346  1.0
  H  H64  1  0.44895884  0.55778893  0.90506096  1.0
  H  H65  1  0.94841031  0.34780281  0.90500935  1.0
  H  H66  1  0.58325234  0.57711157  0.92714252  1.0
  H  H67  1  0.08269392  0.35020657  0.92689557  1.0
  H  H68  1  0.46489313  0.41165599  0.98564231  1.0
  H  H69  1  0.96526890  0.57445639  0.98581451  1.0
  H  H70  1  0.99240902  0.90652244  0.98954823  1.0
  H  H71  1  0.49228633  0.08281446  0.98946038  1.0
  H  H72  1  0.13537906  0.13818692  0.99928494  1.0
  H  H73  1  0.63532379  0.86089407  0.99896132  1.0
  H  H74  1  0.04170312  0.14749422  0.03732369  1.0
  H  H75  1  0.54137191  0.88900442  0.03686948  1.0
  H  H76  1  0.16187649  0.11232488  0.06095593  1.0
  H  H77  1  0.66136061  0.94817330  0.06073049  1.0
  H  H78  1  0.15587290  0.98642941  0.93746438  1.0
  H  H79  1  0.65557826  0.95093978  0.93733512  1.0
  H  H80  1  0.04376295  0.91793164  0.92153941  1.0
  H  H81  1  0.54352147  0.00358827  0.92144829  1.0
  H  H82  1  0.03541649  0.02324125  0.91389477  1.0
  H  H83  1  0.53506647  0.89056728  0.91364694  1.0
  H  H84  1  0.43150265  0.23770508  0.71466651  1.0
  H  H85  1  0.93124837  0.47717844  0.71463029  1.0
  H  H86  1  0.54150056  0.21319123  0.71437228  1.0
  H  H87  1  0.04108315  0.50135779  0.71410122  1.0
  H  H88  1  0.48881564  0.42976116  0.59803300  1.0
  H  H89  1  0.98856439  0.16839592  0.59793097  1.0
  H  H90  1  0.55272281  0.49403781  0.65260043  1.0
  H  H91  1  0.05255853  0.15879567  0.65250963  1.0
  H  H92  1  0.24769869  0.10390869  0.29935563  1.0
  H  H93  1  0.74788666  0.19555828  0.29930489  1.0
  H  H94  1  0.34347257  0.05036260  0.29803931  1.0
  H  H95  1  0.84373045  0.24761221  0.29787985  1.0
  H  H96  1  0.30034348  0.39302274  0.31189337  1.0
  H  H97  1  0.80054882  0.91864395  0.31186845  1.0
  H  H98  1  0.33711238  0.34490934  0.35464253  1.0
  H  H99  1  0.83693032  0.00955823  0.35468180  1.0
  C  C100  1  0.28935987  0.93140755  0.04803404  1.0
  C  C101  1  0.78934114  0.11632869  0.04801851  1.0
  C  C102  1  0.26682702  0.02778519  0.13742517  1.0
  C  C103  1  0.76670838  0.10936597  0.13738390  1.0
  C  C104  1  0.24793810  0.94345689  0.09234586  1.0
  C  C105  1  0.74782518  0.14853989  0.09229628  1.0
  C  C106  1  0.18751501  0.87578672  0.09490271  1.0
  C  C107  1  0.68742254  0.21876320  0.09485887  1.0
  C  C108  1  0.17076993  0.79625359  0.05437921  1.0
  C  C109  1  0.67065603  0.25776643  0.05432951  1.0
  C  C110  1  0.21415817  0.78135900  0.01033526  1.0
  C  C111  1  0.71403887  0.22860863  0.01029071  1.0
  C  C112  1  0.27194512  0.85131517  0.00782625  1.0
  C  C113  1  0.77193960  0.15621491  0.00781119  1.0
  C  C114  1  0.08687350  0.45456582  0.83986389  1.0
  C  C115  1  0.58707007  0.38559238  0.83999990  1.0
  C  C116  1  0.11990354  0.53743102  0.88508176  1.0
  C  C117  1  0.62009111  0.34758005  0.88506139  1.0
  C  C118  1  0.07125617  0.61292545  0.88336467  1.0
  C  C119  1  0.57128643  0.27039592  0.88332648  1.0
  C  C120  1  0.10463488  0.69128200  0.92370470  1.0
  C  C121  1  0.60456290  0.23226052  0.92362260  1.0
  C  C122  1  0.18707854  0.69690516  0.96691478  1.0
  C  C123  1  0.68701518  0.26970949  0.96687085  1.0
  C  C124  1  0.23129131  0.61919670  0.96896737  1.0
  C  C125  1  0.73142945  0.34943983  0.96894312  1.0
  C  C126  1  0.19963070  0.54046776  0.92868898  1.0
  C  C127  1  0.69991786  0.38794005  0.92867687  1.0
  C  C128  1  0.22067109  0.16771184  0.75010567  1.0
  C  C129  1  0.72085769  0.58273795  0.75006423  1.0
  C  C130  1  0.23741509  0.07784659  0.75472882  1.0
  C  C131  1  0.73776211  0.67721090  0.75473550  1.0
  C  C132  1  0.32654938  0.06184580  0.78721966  1.0
  C  C133  1  0.82698948  0.72561547  0.78719244  1.0
  C  C134  1  0.34008809  0.98035495  0.79397234  1.0
  C  C135  1  0.84056011  0.81388208  0.79399080  1.0
  C  C136  1  0.26582502  0.91133017  0.76839417  1.0
  C  C137  1  0.76628055  0.85740500  0.76847416  1.0
  C  C138  1  0.17859014  0.92778681  0.73404550  1.0
  C  C139  1  0.67901402  0.80662680  0.73411695  1.0
  C  C140  1  0.16360200  0.00953027  0.72781876  1.0
  C  C141  1  0.66399292  0.71866149  0.72785094  1.0
  C  C142  1  0.28817506  0.82716945  0.77842015  1.0
  C  C143  1  0.78861696  0.95160585  0.77852706  1.0
  C  C144  1  0.37129555  0.78716240  0.76192280  1.0
  C  C145  1  0.87182060  0.97523100  0.76212190  1.0
  C  C146  1  0.39879996  0.70815506  0.76947570  1.0
  C  C147  1  0.89919490  0.06181198  0.76965932  1.0
  C  C148  1  0.34385803  0.66634496  0.79411872  1.0
  C  C149  1  0.84416411  0.12823789  0.79421203  1.0
  C  C150  1  0.26189348  0.70560725  0.81180301  1.0
  C  C151  1  0.76217986  0.10657806  0.81186030  1.0
  C  C152  1  0.23528826  0.78485283  0.80431047  1.0
  C  C153  1  0.73563204  0.01979564  0.80435399  1.0
  C  C154  1  0.05238842  0.25124003  0.16703529  1.0
  C  C155  1  0.55176134  0.91582507  0.16725723  1.0
  C  C156  1  0.05292580  0.34796276  0.17911462  1.0
  C  C157  1  0.55248684  0.83107792  0.17918152  1.0
  C  C158  1  0.97054775  0.38490315  0.15473265  1.0
  C  C159  1  0.47021456  0.76963280  0.15468705  1.0
  C  C160  1  0.97338017  0.47410999  0.16323711  1.0
  C  C161  1  0.47318498  0.68882267  0.16306453  1.0
  C  C162  1  0.05613434  0.52961286  0.19801395  1.0
  C  C163  1  0.55596298  0.66805636  0.19779697  1.0
  C  C164  1  0.13399339  0.49159661  0.22600283  1.0
  C  C165  1  0.63369876  0.73415665  0.22588775  1.0
  C  C166  1  0.13438796  0.40196376  0.21518453  1.0
  C  C167  1  0.63392174  0.81313961  0.21523633  1.0
  C  C168  1  0.24688644  0.35797279  0.69198864  1.0
  C  C169  1  0.74678561  0.33429662  0.69199052  1.0
  C  C170  1  0.21112276  0.32630799  0.63194452  1.0
  C  C171  1  0.71100384  0.30583306  0.63195633  1.0
  C  C172  1  0.11865143  0.34909079  0.60701795  1.0
  C  C173  1  0.61852902  0.25809597  0.60699514  1.0
  C  C174  1  0.08434473  0.31751282  0.55130080  1.0
  C  C175  1  0.58437977  0.23376989  0.55126081  1.0
  C  C176  1  0.13935290  0.26076690  0.51892852  1.0
  C  C177  1  0.63951503  0.25795982  0.51887496  1.0
  C  C178  1  0.23331761  0.24051559  0.54485280  1.0
  C  C179  1  0.73343157  0.30421524  0.54483098  1.0
  C  C180  1  0.26922813  0.27286601  0.60042939  1.0
  C  C181  1  0.76919613  0.32762623  0.60043251  1.0
  C  C182  1  0.06164275  0.13404522  0.28577792  1.0
  C  C183  1  0.56207470  0.15159090  0.28574982  1.0
  C  C184  1  0.11206665  0.22689200  0.45926809  1.0
  C  C185  1  0.61229436  0.23208331  0.45920599  1.0
  C  C186  1  0.03835827  0.15907504  0.42757385  1.0
  C  C187  1  0.53883052  0.26839921  0.42751444  1.0
  C  C188  1  0.02005610  0.12970380  0.37170080  1.0
  C  C189  1  0.52059928  0.24196565  0.37165157  1.0
  C  C190  1  0.07791912  0.16581880  0.34584960  1.0
  C  C191  1  0.57834372  0.17987380  0.34581970  1.0
  C  C192  1  0.15264504  0.23219175  0.37655900  1.0
  C  C193  1  0.65289414  0.14405910  0.37651985  1.0
  C  C194  1  0.16860934  0.26250002  0.43229882  1.0
  C  C195  1  0.66875814  0.16943061  0.43225736  1.0
  C  C196  1  0.96353449  0.87920737  0.19594182  1.0
  C  C197  1  0.46396544  0.31627351  0.19576767  1.0
  C  C198  1  0.99572468  0.79167247  0.20009961  1.0
  C  C199  1  0.49602361  0.40802795  0.20000358  1.0
  C  C200  1  0.94629232  0.74655715  0.22526736  1.0
  C  C201  1  0.44654579  0.47823363  0.22519232  1.0
  C  C202  1  0.97174100  0.66377811  0.22634023  1.0
  C  C203  1  0.47188644  0.56209380  0.22622265  1.0
  C  C204  1  0.04787898  0.62297781  0.20283350  1.0
  C  C205  1  0.54784766  0.57946591  0.20261329  1.0
  C  C206  1  0.09851738  0.67036130  0.17868001  1.0
  C  C207  1  0.59857783  0.50799244  0.17848545  1.0
  C  C208  1  0.07318809  0.75330423  0.17754168  1.0
  C  C209  1  0.57343527  0.42391791  0.17743057  1.0
  C  C210  1  0.37144535  0.57939887  0.80074355  1.0
  C  C211  1  0.87170545  0.22177345  0.80075131  1.0
  C  C212  1  0.58146139  0.54864317  0.02692133  1.0
  C  C213  1  0.08157894  0.47828367  0.02685605  1.0
  C  C214  1  0.51259888  0.57862248  0.94038857  1.0
  C  C215  1  0.01217290  0.36211789  0.94026032  1.0
  C  C216  1  0.45544859  0.44753796  0.95592592  1.0
  C  C217  1  0.95566506  0.50893968  0.95602036  1.0
  C  C218  1  0.01953496  0.97315167  0.01603462  1.0
  C  C219  1  0.51927483  0.04260754  0.01592558  1.0
  C  C220  1  0.10338763  0.10960670  0.02468690  1.0
  C  C221  1  0.60303229  0.91462797  0.02437675  1.0
  C  C222  1  0.07612595  0.98531918  0.93871608  1.0
  C  C223  1  0.57579547  0.95326232  0.93854703  1.0
  N  N224  1  0.14962932  0.82309102  0.82455616  1.0
  N  N225  1  0.64987078  0.00175167  0.82450541  1.0
  N  N226  1  0.31856546  0.84103026  0.96248544  1.0
  N  N227  1  0.81862255  0.12121877  0.96248249  1.0
  N  N228  1  0.31647029  0.61876992  0.01328972  1.0
  N  N229  1  0.81656494  0.39427316  0.01327860  1.0
  N  N230  1  0.09850787  0.85847948  0.70296088  1.0
  N  N231  1  0.59899245  0.84486519  0.70303448  1.0
  N  N232  1  0.21787075  0.54475167  0.26744938  1.0
  N  N233  1  0.71755392  0.72247785  0.26735371  1.0
  N  N234  1  0.98672422  0.34546350  0.52822800  1.0
  N  N235  1  0.48681028  0.18263138  0.52812583  1.0
  N  N236  1  0.17777649  0.63333670  0.15174729  1.0
  N  N237  1  0.67779277  0.51819193  0.15153956  1.0
  N  N238  1  0.51433118  0.52150565  0.97335097  1.0
  N  N239  1  0.01430130  0.45217899  0.97331775  1.0
  N  N240  1  0.06613099  0.01995268  0.99384550  1.0
  N  N241  1  0.56572535  0.97358532  0.99366025  1.0
  N  N242  1  0.97731160  0.11809308  0.45314528  1.0
  N  N243  1  0.47775631  0.33491226  0.45310728  1.0
  O  O244  1  0.09126282  0.77541694  0.83533404  1.0
  O  O245  1  0.59136871  0.06012791  0.83511752  1.0
  O  O246  1  0.21412242  0.03823920  0.17217501  1.0
  O  O247  1  0.71394053  0.13362422  0.17209995  1.0
  O  O248  1  0.11794439  0.78206577  0.69853937  1.0
  O  O249  1  0.61863246  0.91668111  0.69841833  1.0
  O  O250  1  0.33242932  0.08538606  0.13968702  1.0
  O  O251  1  0.83242438  0.05414704  0.13971792  1.0
  O  O252  1  0.32604019  0.55151202  0.02665019  1.0
  O  O253  1  0.82593611  0.47490658  0.02668521  1.0
  O  O254  1  0.33422715  0.90718849  0.95006727  1.0
  O  O255  1  0.83465315  0.04272442  0.95016879  1.0
  O  O256  1  0.34039024  0.76731565  0.93912011  1.0
  O  O257  1  0.84011348  0.17154109  0.93901383  1.0
  O  O258  1  0.99885534  0.44833034  0.80956454  1.0
  O  O259  1  0.49893922  0.36183555  0.80978622  1.0
  O  O260  1  0.14744870  0.39488082  0.83248078  1.0
  O  O261  1  0.64776185  0.43788706  0.83267321  1.0
  O  O262  1  0.29219510  0.22597034  0.77534895  1.0
  O  O263  1  0.79233917  0.54958818  0.77523438  1.0
  O  O264  1  0.13877403  0.90157925  0.83073146  1.0
  O  O265  1  0.63904161  0.92950059  0.83076730  1.0
  O  O266  1  0.13599046  0.17987413  0.72246169  1.0
  O  O267  1  0.63610342  0.54306330  0.72243268  1.0
  O  O268  1  0.37536152  0.68493008  0.03429929  1.0
  O  O269  1  0.87562071  0.34919741  0.03424372  1.0
  O  O270  1  0.01546941  0.88024672  0.68245871  1.0
  O  O271  1  0.51581320  0.80276500  0.68269622  1.0
  O  O272  1  0.31988817  0.54603359  0.82472076  1.0
  O  O273  1  0.81996762  0.27909333  0.82460478  1.0
  O  O274  1  0.44377225  0.54506075  0.78150976  1.0
  O  O275  1  0.94413597  0.23687498  0.78159824  1.0
  O  O276  1  0.01474989  0.91770695  0.17445233  1.0
  O  O277  1  0.51514125  0.25640607  0.17413007  1.0
  O  O278  1  0.96866070  0.20702042  0.14670039  1.0
  O  O279  1  0.46790112  0.93968803  0.14713099  1.0
  O  O280  1  0.13666010  0.21831636  0.17820274  1.0
  O  O281  1  0.63595524  0.95999686  0.17825819  1.0
  O  O282  1  0.22950798  0.62268449  0.27174508  1.0
  O  O283  1  0.72936377  0.64880263  0.27155369  1.0
  O  O284  1  0.27476971  0.50928251  0.29736091  1.0
  O  O285  1  0.77423073  0.78793837  0.29737279  1.0
  O  O286  1  0.34115948  0.36282276  0.71258517  1.0
  O  O287  1  0.84109222  0.34973012  0.71255582  1.0
  O  O288  1  0.18205878  0.37736129  0.72016912  1.0
  O  O289  1  0.68198517  0.34347739  0.72020453  1.0
  O  O290  1  0.95578114  0.41132074  0.55604966  1.0
  O  O291  1  0.45570889  0.14472322  0.55597316  1.0
  O  O292  1  0.97563961  0.10102742  0.25668456  1.0
  O  O293  1  0.47611976  0.15567363  0.25668116  1.0
  O  O294  1  0.13667500  0.14172970  0.26620235  1.0
  O  O295  1  0.63707480  0.12425830  0.26618110  1.0
  O  O296  1  0.88740355  0.90659926  0.21383036  1.0
  O  O297  1  0.38795834  0.30656882  0.21370699  1.0
  O  O298  1  0.20311419  0.55976715  0.15196730  1.0
  O  O299  1  0.70300588  0.59201692  0.15175770  1.0
  O  O300  1  0.21580187  0.67735347  0.12904162  1.0
  O  O301  1  0.71589969  0.45153960  0.12883076  1.0
  O  O302  1  0.39425633  0.41887168  0.91119128  1.0
  O  O303  1  0.89449481  0.49313922  0.91129283  1.0
  O  O304  1  0.49789821  0.44752671  0.63683510  1.0
  O  O305  1  0.99778998  0.18956903  0.63673889  1.0
  O  O306  1  0.48723947  0.24305340  0.69840093  1.0
  O  O307  1  0.98670741  0.45561365  0.69811373  1.0
  O  O308  1  0.32223656  0.10905745  0.30858392  1.0
  O  O309  1  0.82241169  0.19970914  0.30862474  1.0
  O  O310  1  0.30376348  0.33538149  0.31670951  1.0
  O  O311  1  0.80383944  0.98111646  0.31671120  1.0
  O  O312  1  0.00654374  0.00044096  0.06259771  1.0
  O  O313  1  0.50626327  0.06185827  0.06247918  1.0
  O  O314  1  0.00628452  0.12919051  0.50206940  1.0
  O  O315  1  0.50670837  0.37267292  0.50204191  1.0
  O  O316  1  0.93920159  0.30110144  0.48245834  1.0
  O  O317  1  0.43949430  0.18099434  0.48227337  1.0
  O  O318  1  0.89781144  0.07395412  0.42491483  1.0
  O  O319  1  0.39824954  0.35078405  0.42488365  1.0
