# generated using pymatgen
data_AlH12C27(NO4)3
_symmetry_space_group_name_H-M   'P 1'
_cell_length_a   4.11172904
_cell_length_b   27.78839770
_cell_length_c   27.80766314
_cell_angle_alpha   60.20281194
_cell_angle_beta   90.30889119
_cell_angle_gamma   90.08158033
_symmetry_Int_Tables_number   1
_chemical_formula_structural   AlH12C27(NO4)3
_chemical_formula_sum   'Al3 H36 C81 N9 O36'
_cell_volume   2757.14929826
_cell_formula_units_Z   3
loop_
 _symmetry_equiv_pos_site_id
 _symmetry_equiv_pos_as_xyz
  1  'x, y, z'
loop_
 _atom_site_type_symbol
 _atom_site_label
 _atom_site_symmetry_multiplicity
 _atom_site_fract_x
 _atom_site_fract_y
 _atom_site_fract_z
 _atom_site_occupancy
  Al  Al0  1  0.99143366  0.49958343  0.50064024  1.0
  Al  Al1  1  0.94849924  0.83238502  0.83250461  1.0
  Al  Al2  1  0.06409200  0.16638006  0.16787301  1.0
  H  H3  1  0.51259148  0.07686087  0.92236632  1.0
  H  H4  1  0.51579538  0.25507380  0.83436164  1.0
  H  H5  1  0.52295704  0.16625707  0.74428940  1.0
  H  H6  1  0.72878847  0.92698635  0.90418251  1.0
  H  H7  1  0.76542317  0.01368313  0.90777091  1.0
  H  H8  1  0.19673753  0.09699891  0.75685810  1.0
  H  H9  1  0.24624730  0.08954749  0.98248125  1.0
  H  H10  1  0.82185593  0.23760992  0.99903569  1.0
  H  H11  1  0.81383317  0.24037189  0.90907496  1.0
  H  H12  1  0.78005134  0.31567229  0.76333009  1.0
  H  H13  1  0.24133410  0.33109323  0.59674970  1.0
  H  H14  1  0.25000144  0.24047819  0.68323007  1.0
  H  H15  1  0.50739571  0.50155910  0.07707276  1.0
  H  H16  1  0.49806308  0.58939527  0.16791774  1.0
  H  H17  1  0.50139886  0.41095825  0.25511317  1.0
  H  H18  1  0.28655596  0.33415227  0.09301750  1.0
  H  H19  1  0.25232013  0.42384522  0.09065959  1.0
  H  H20  1  0.82732474  0.35562196  0.24107848  1.0
  H  H21  1  0.77732888  0.57372506  0.01903105  1.0
  H  H22  1  0.19364198  0.73724129  0.00265021  1.0
  H  H23  1  0.20005064  0.65029143  0.09241303  1.0
  H  H24  1  0.22935241  0.57714573  0.23885086  1.0
  H  H25  1  0.76698452  0.42637890  0.40487157  1.0
  H  H26  1  0.77224778  0.42380569  0.31726539  1.0
  H  H27  1  0.48597235  0.92312557  0.49817668  1.0
  H  H28  1  0.49000582  0.83238617  0.41023594  1.0
  H  H29  1  0.48850989  0.74493995  0.58855324  1.0
  H  H30  1  0.71632783  0.90639294  0.66588703  1.0
  H  H31  1  0.73805701  0.90962874  0.57574224  1.0
  H  H32  1  0.17197184  0.75868874  0.64428585  1.0
  H  H33  1  0.22461688  0.98245369  0.42529068  1.0
  H  H34  1  0.81530034  0.99658851  0.26359800  1.0
  H  H35  1  0.79386016  0.90658367  0.35025753  1.0
  H  H36  1  0.75843901  0.76199959  0.42217551  1.0
  H  H37  1  0.23400567  0.59483539  0.57260574  1.0
  H  H38  1  0.22675205  0.68199551  0.57600601  1.0
  C  C39  1  0.49225481  0.57367665  0.49830139  1.0
  C  C40  1  0.49367664  0.42718389  0.57536826  1.0
  C  C41  1  0.49227743  0.49818406  0.42793904  1.0
  C  C42  1  0.44335751  0.90818404  0.82891407  1.0
  C  C43  1  0.45878952  0.75908668  0.90605373  1.0
  C  C44  1  0.44294979  0.82950405  0.76093448  1.0
  C  C45  1  0.55723544  0.16348094  0.09530355  1.0
  C  C46  1  0.57111333  0.23964165  0.16848752  1.0
  C  C47  1  0.56041665  0.09455789  0.24178865  1.0
  C  C48  1  0.52467403  0.16600104  0.88443126  1.0
  C  C49  1  0.51503306  0.11605836  0.88338562  1.0
  C  C50  1  0.50572643  0.11556654  0.83327519  1.0
  C  C51  1  0.51411313  0.16631578  0.78343598  1.0
  C  C52  1  0.52194844  0.21694628  0.78305547  1.0
  C  C53  1  0.52477912  0.21605866  0.83397920  1.0
  C  C54  1  0.61104015  0.96448039  0.87210947  1.0
  C  C55  1  0.62954302  0.01348911  0.87409985  1.0
  C  C56  1  0.48607158  0.06276771  0.83256763  1.0
  C  C57  1  0.32056617  0.06081588  0.78948403  1.0
  C  C58  1  0.30685008  0.01182652  0.78757748  1.0
  C  C59  1  0.45086143  0.96270427  0.82839248  1.0
  C  C60  1  0.37902687  0.12238686  0.98451283  1.0
  C  C61  1  0.39217374  0.12070384  0.03525197  1.0
  C  C62  1  0.54761538  0.16187290  0.04189524  1.0
  C  C63  1  0.69449985  0.20534225  0.99500169  1.0
  C  C64  1  0.68731847  0.20695499  0.94415885  1.0
  C  C65  1  0.52920849  0.16543385  0.93790345  1.0
  C  C66  1  0.66465449  0.31750408  0.72712011  1.0
  C  C67  1  0.66236181  0.36792488  0.67787495  1.0
  C  C68  1  0.51492267  0.37396613  0.62946399  1.0
  C  C69  1  0.36795985  0.32654957  0.63329960  1.0
  C  C70  1  0.37392358  0.27573992  0.68203263  1.0
  C  C71  1  0.52315381  0.27015075  0.73019338  1.0
  C  C72  1  0.49318083  0.55156280  0.11655763  1.0
  C  C73  1  0.50470449  0.50114843  0.11646284  1.0
  C  C74  1  0.51568263  0.45033974  0.16597107  1.0
  C  C75  1  0.50820069  0.45037351  0.21637759  1.0
  C  C76  1  0.49717921  0.50003886  0.21781143  1.0
  C  C77  1  0.49189545  0.55039162  0.16747953  1.0
  C  C78  1  0.40740984  0.33935455  0.12512538  1.0
  C  C79  1  0.39009711  0.39005276  0.12381136  1.0
  C  C80  1  0.53574015  0.39745858  0.16555896  1.0
  C  C81  1  0.70223047  0.35250499  0.20816351  1.0
  C  C82  1  0.71343611  0.30200958  0.20945467  1.0
  C  C83  1  0.56787306  0.29390681  0.16846402  1.0
  C  C84  1  0.64311277  0.60833438  0.01715740  1.0
  C  C85  1  0.62986256  0.65707895  0.96660526  1.0
  C  C86  1  0.47239479  0.70468175  0.95982856  1.0
  C  C87  1  0.32369809  0.70123961  0.00667797  1.0
  C  C88  1  0.32989206  0.65211713  0.05746365  1.0
  C  C89  1  0.48957873  0.60462596  0.06362752  1.0
  C  C90  1  0.34438170  0.54283377  0.27495501  1.0
  C  C91  1  0.33847673  0.54325196  0.32467009  1.0
  C  C92  1  0.48416965  0.50066561  0.37300677  1.0
  C  C93  1  0.64014498  0.45821581  0.36841387  1.0
  C  C94  1  0.64233440  0.45700457  0.31909993  1.0
  C  C95  1  0.49254375  0.49947246  0.27119561  1.0
  C  C96  1  0.49784927  0.88365252  0.44814700  1.0
  C  C97  1  0.48666271  0.88372313  0.49855062  1.0
  C  C98  1  0.47505029  0.83417525  0.54929989  1.0
  C  C99  1  0.48108262  0.78373722  0.54919742  1.0
  C  C100  1  0.49144851  0.78232526  0.49955353  1.0
  C  C101  1  0.49658498  0.83272991  0.44926295  1.0
  C  C102  1  0.59731070  0.87409348  0.66080979  1.0
  C  C103  1  0.60650446  0.87596508  0.60980978  1.0
  C  C104  1  0.45982195  0.83436694  0.60231164  1.0
  C  C105  1  0.29878181  0.79139964  0.64745352  1.0
  C  C106  1  0.29618195  0.78944554  0.69824761  1.0
  C  C107  1  0.44458028  0.83012396  0.70646504  1.0
  C  C108  1  0.36133219  0.98386455  0.39122193  1.0
  C  C109  1  0.38433617  0.03450658  0.34280507  1.0
  C  C110  1  0.54568082  0.04068994  0.29588410  1.0
  C  C111  1  0.68663505  0.99317082  0.29936099  1.0
  C  C112  1  0.67066627  0.94224715  0.34826657  1.0
  C  C113  1  0.50858302  0.93667554  0.39520721  1.0
  C  C114  1  0.64551870  0.72569779  0.45629113  1.0
  C  C115  1  0.65187504  0.67622217  0.45535373  1.0
  C  C116  1  0.50809014  0.62772641  0.49755439  1.0
  C  C117  1  0.35641081  0.63159702  0.54066234  1.0
  C  C118  1  0.35372924  0.68070520  0.54236559  1.0
  C  C119  1  0.49863343  0.72897263  0.49993134  1.0
  N  N120  1  0.13696035  0.01344614  0.73993392  1.0
  N  N121  1  0.23920589  0.07277659  0.08293422  1.0
  N  N122  1  0.80037022  0.41481675  0.68289650  1.0
  N  N123  1  0.87655075  0.25557084  0.25730814  1.0
  N  N124  1  0.77881911  0.65643675  0.91879214  1.0
  N  N125  1  0.19035389  0.59449022  0.31972420  1.0
  N  N126  1  0.13864992  0.74138688  0.74486227  1.0
  N  N127  1  0.24137361  0.08304485  0.34290486  1.0
  N  N128  1  0.79731732  0.68133322  0.40405663  1.0
  O  O129  1  0.72872608  0.47222512  0.46061987  1.0
  O  O130  1  0.71909849  0.56261598  0.47445508  1.0
  O  O131  1  0.72120846  0.46195961  0.56413925  1.0
  O  O132  1  0.25895603  0.52118266  0.43852274  1.0
  O  O133  1  0.25051817  0.43291710  0.54432500  1.0
  O  O134  1  0.25274740  0.54197173  0.52375868  1.0
  O  O135  1  0.68606401  0.80817313  0.79259597  1.0
  O  O136  1  0.68343869  0.89778921  0.80734729  1.0
  O  O137  1  0.68760050  0.79332832  0.89805344  1.0
  O  O138  1  0.20836017  0.85480332  0.76845429  1.0
  O  O139  1  0.21015477  0.76818024  0.87590886  1.0
  O  O140  1  0.20920621  0.87586171  0.85515554  1.0
  O  O141  1  0.80808542  0.12493868  0.23226752  1.0
  O  O142  1  0.80334183  0.14234324  0.12617831  1.0
  O  O143  1  0.80339902  0.23209848  0.14269145  1.0
  O  O144  1  0.32947719  0.10268495  0.20793714  1.0
  O  O145  1  0.32817781  0.20848757  0.18978509  1.0
  O  O146  1  0.32659711  0.19005799  0.10196326  1.0
  O  O147  1  0.18373517  0.97423576  0.73165595  1.0
  O  O148  1  0.95972640  0.05403583  0.71114424  1.0
  O  O149  1  0.31399066  0.06418416  0.12963551  1.0
  O  O150  1  0.04831388  0.04402656  0.07310606  1.0
  O  O151  1  0.04639609  0.43844544  0.65669896  1.0
  O  O152  1  0.65826272  0.42488942  0.71609121  1.0
  O  O153  1  0.82110323  0.20880006  0.26472331  1.0
  O  O154  1  0.05301618  0.26655041  0.28696955  1.0
  O  O155  1  0.69845868  0.69411891  0.87258331  1.0
  O  O156  1  0.96781996  0.61782951  0.92829963  1.0
  O  O157  1  0.94124096  0.59062229  0.34573544  1.0
  O  O158  1  0.32569744  0.63821562  0.28631873  1.0
  O  O159  1  0.20265088  0.73330063  0.79168007  1.0
  O  O160  1  0.95762917  0.71211494  0.73413592  1.0
  O  O161  1  0.32975347  0.12891717  0.30569047  1.0
  O  O162  1  0.04916926  0.07464013  0.38056415  1.0
  O  O163  1  0.04741029  0.65534988  0.40780584  1.0
  O  O164  1  0.65917556  0.71462810  0.36038645  1.0
