# generated using pymatgen
data_ZnH9C11N5
_symmetry_space_group_name_H-M   'P 1'
_cell_length_a   14.49578975
_cell_length_b   16.76118732
_cell_length_c   17.04857769
_cell_angle_alpha   90.04247098
_cell_angle_beta   71.30445819
_cell_angle_gamma   90.11164451
_symmetry_Int_Tables_number   1
_chemical_formula_structural   ZnH9C11N5
_chemical_formula_sum   'Zn8 H72 C88 N40'
_cell_volume   3923.66413350
_cell_formula_units_Z   8
loop_
 _symmetry_equiv_pos_site_id
 _symmetry_equiv_pos_as_xyz
  1  'x, y, z'
loop_
 _atom_site_type_symbol
 _atom_site_label
 _atom_site_symmetry_multiplicity
 _atom_site_fract_x
 _atom_site_fract_y
 _atom_site_fract_z
 _atom_site_occupancy
  Zn  Zn0  1  0.53575227  0.10303941  0.48930935  1.0
  Zn  Zn1  1  0.50131370  0.84480156  0.53801622  1.0
  Zn  Zn2  1  0.99332948  0.65997841  0.04859021  1.0
  Zn  Zn3  1  0.04219083  0.40112155  0.98542293  1.0
  Zn  Zn4  1  0.70369845  0.96304931  0.46212996  1.0
  Zn  Zn5  1  0.31851630  0.99866913  0.51719939  1.0
  Zn  Zn6  1  0.19771077  0.54546717  0.97322805  1.0
  Zn  Zn7  1  0.82230583  0.50125058  0.02268602  1.0
  H  H8  1  0.60876551  0.19011741  0.32751312  1.0
  H  H9  1  0.22687209  0.92912610  0.67830829  1.0
  H  H10  1  0.49560908  0.17647285  0.65940758  1.0
  H  H11  1  0.50861120  0.78710766  0.36761581  1.0
  H  H12  1  0.01250710  0.74612876  0.88814663  1.0
  H  H13  1  0.01181746  0.32565667  0.15273394  1.0
  H  H14  1  0.71868454  0.57152467  0.18434627  1.0
  H  H15  1  0.10198582  0.33436674  0.80755684  1.0
  H  H16  1  0.35691309  0.69694095  0.51983038  1.0
  H  H17  1  0.63038123  0.23044535  0.59246119  1.0
  H  H18  1  0.50641183  0.80686654  0.72614801  1.0
  H  H19  1  0.46571612  0.25387215  0.38297769  1.0
  H  H20  1  0.97595527  0.24950139  0.87962570  1.0
  H  H21  1  0.98792862  0.68415295  0.24245034  1.0
  H  H22  1  0.14705622  0.26558883  0.06985435  1.0
  H  H23  1  0.84512150  0.80302866  0.02386711  1.0
  H  H24  1  0.29936304  0.05304904  0.34173878  1.0
  H  H25  1  0.75760951  0.96026093  0.62710291  1.0
  H  H26  1  0.86629024  0.06041341  0.53799667  1.0
  H  H27  1  0.28836676  0.89485089  0.38574320  1.0
  H  H28  1  0.80324512  0.60106784  0.88083968  1.0
  H  H29  1  0.36132893  0.44966391  0.05452712  1.0
  H  H30  1  0.24255140  0.53675539  0.13923431  1.0
  H  H31  1  0.78443169  0.43951352  0.85731577  1.0
  H  H32  1  0.79845728  0.75572554  0.68454280  1.0
  H  H33  1  0.19074071  0.24337262  0.32875520  1.0
  H  H34  1  0.14599539  0.63303382  0.47636185  1.0
  H  H35  1  0.96856738  0.24027119  0.58350193  1.0
  H  H36  1  0.47468881  0.26056885  0.07716513  1.0
  H  H37  1  0.65066204  0.86310972  0.96447738  1.0
  H  H38  1  0.68560215  0.25157604  0.83645706  1.0
  H  H39  1  0.27998567  0.73628658  0.19340532  1.0
  H  H40  1  0.38779912  0.11714155  0.15495415  1.0
  H  H41  1  0.75639528  0.95340437  0.82306707  1.0
  H  H42  1  0.77365232  0.10938400  0.75430925  1.0
  H  H43  1  0.18116087  0.82873856  0.33647624  1.0
  H  H44  1  0.69330483  0.66529562  0.82673557  1.0
  H  H45  1  0.27746103  0.38753802  0.24983755  1.0
  H  H46  1  0.24491881  0.54096410  0.33435646  1.0
  H  H47  1  0.88002715  0.38193206  0.66453658  1.0
  H  H48  1  0.20077062  0.18001626  0.17132040  1.0
  H  H49  1  0.90158672  0.83387679  0.78046178  1.0
  H  H50  1  0.96010741  0.17423562  0.73837170  1.0
  H  H51  1  0.03732588  0.70845410  0.38778897  1.0
  H  H52  1  0.54901154  0.78517992  0.87045810  1.0
  H  H53  1  0.46441047  0.32419087  0.23395734  1.0
  H  H54  1  0.39007448  0.66107596  0.28447548  1.0
  H  H55  1  0.69377885  0.31747734  0.68041248  1.0
  H  H56  1  0.54591626  0.75400450  0.20920636  1.0
  H  H57  1  0.39733761  0.32511871  0.71625133  1.0
  H  H58  1  0.25527336  0.79030077  0.70804219  1.0
  H  H59  1  0.73379114  0.28799624  0.29396806  1.0
  H  H60  1  0.20567374  0.23223108  0.75753359  1.0
  H  H61  1  0.75404284  0.71057169  0.20271042  1.0
  H  H62  1  0.88580851  0.17232576  0.18577834  1.0
  H  H63  1  0.04154193  0.75268600  0.72695468  1.0
  H  H64  1  0.88268320  0.81874948  0.32806221  1.0
  H  H65  1  0.86350223  0.79482304  0.23897784  1.0
  H  H66  1  0.16002186  0.05939324  0.64328456  1.0
  H  H67  1  0.13997294  0.13481237  0.71698382  1.0
  H  H68  1  0.96859277  0.78550145  0.60027474  1.0
  H  H69  1  0.99040588  0.84269622  0.51564041  1.0
  H  H70  1  0.85969940  0.95301201  0.27526199  1.0
  H  H71  1  0.91747211  0.03934139  0.23637636  1.0
  H  H72  1  0.38986852  0.46440280  0.87027513  1.0
  H  H73  1  0.42748490  0.45398094  0.76863929  1.0
  H  H74  1  0.51240824  0.65430329  0.99327441  1.0
  H  H75  1  0.48459170  0.71572862  0.07560068  1.0
  H  H76  1  0.66061453  0.35484007  0.21180030  1.0
  H  H77  1  0.66983801  0.44033369  0.15529079  1.0
  H  H78  1  0.35303605  0.60262785  0.80778806  1.0
  H  H79  1  0.34272160  0.66445981  0.73398473  1.0
  C  C80  1  0.65617468  0.14039719  0.32838901  1.0
  C  C81  1  0.18367200  0.91345052  0.63881299  1.0
  C  C82  1  0.43153178  0.14906293  0.65104940  1.0
  C  C83  1  0.58225514  0.80433997  0.36371151  1.0
  C  C84  1  0.08255545  0.71882437  0.88139261  1.0
  C  C85  1  0.94647495  0.35495599  0.14936899  1.0
  C  C86  1  0.68159065  0.58551411  0.13980214  1.0
  C  C87  1  0.15373838  0.37608214  0.81863947  1.0
  C  C88  1  0.25931254  0.21216109  0.18563111  1.0
  C  C89  1  0.82297365  0.82290068  0.79955607  1.0
  C  C90  1  0.90044121  0.20614375  0.72576624  1.0
  C  C91  1  0.11604228  0.69826665  0.36362792  1.0
  C  C92  1  0.62771547  0.79571649  0.84979474  1.0
  C  C93  1  0.40548398  0.29212164  0.22010815  1.0
  C  C94  1  0.31133296  0.67155500  0.30638797  1.0
  C  C95  1  0.75286908  0.28552245  0.69385766  1.0
  C  C96  1  0.61452183  0.72059435  0.19169980  1.0
  C  C97  1  0.31917849  0.31271432  0.74151008  1.0
  C  C98  1  0.18280395  0.76433483  0.73695868  1.0
  C  C99  1  0.79996291  0.27103043  0.24393635  1.0
  C  C100  1  0.28468812  0.23973741  0.73051349  1.0
  C  C101  1  0.68344379  0.74075522  0.22693980  1.0
  C  C102  1  0.82014332  0.19201696  0.23463903  1.0
  C  C103  1  0.11190163  0.78350009  0.70372066  1.0
  C  C104  1  0.34792991  0.75403797  0.49306925  1.0
  C  C105  1  0.67953254  0.18025434  0.57209233  1.0
  C  C106  1  0.56392012  0.84633057  0.68997838  1.0
  C  C107  1  0.42833085  0.19744555  0.38379313  1.0
  C  C108  1  0.93289781  0.30340714  0.88453682  1.0
  C  C109  1  0.04669709  0.64682438  0.20479918  1.0
  C  C110  1  0.19176492  0.31912709  0.05846128  1.0
  C  C111  1  0.84254757  0.74538681  0.99543179  1.0
  C  C112  1  0.74082803  0.82182675  0.33181733  1.0
  C  C113  1  0.28327073  0.11111869  0.65548929  1.0
  C  C114  1  0.08392303  0.86136451  0.57852266  1.0
  C  C115  1  0.77647958  0.05374919  0.30594896  1.0
  C  C116  1  0.28156281  0.44562069  0.82212638  1.0
  C  C117  1  0.59276818  0.63536759  0.06821076  1.0
  C  C118  1  0.79693610  0.39759859  0.16643111  1.0
  C  C119  1  0.23514360  0.67645889  0.84075907  1.0
  C  C120  1  0.34401187  0.09512651  0.36223147  1.0
  C  C121  1  0.69229097  0.92423357  0.63874262  1.0
  C  C122  1  0.80025187  0.09411685  0.54433348  1.0
  C  C123  1  0.31542191  0.85535484  0.42376079  1.0
  C  C124  1  0.82298084  0.64203523  0.92215071  1.0
  C  C125  1  0.30122466  0.41260621  0.05062283  1.0
  C  C126  1  0.17651203  0.57170538  0.15169561  1.0
  C  C127  1  0.83592663  0.40033716  0.87250830  1.0
  C  C128  1  0.75598922  0.13196325  0.28518314  1.0
  C  C129  1  0.12368527  0.84702028  0.64401750  1.0
  C  C130  1  0.33356207  0.17137921  0.68468190  1.0
  C  C131  1  0.66944945  0.78951358  0.29996674  1.0
  C  C132  1  0.16755872  0.72075186  0.81337181  1.0
  C  C133  1  0.84910282  0.33645975  0.19132115  1.0
  C  C134  1  0.62641037  0.65293150  0.13671940  1.0
  C  C135  1  0.25610527  0.37533836  0.78808617  1.0
  C  C136  1  0.30373772  0.77227913  0.43327771  1.0
  C  C137  1  0.76647220  0.16467061  0.58865601  1.0
  C  C138  1  0.64607198  0.87519862  0.70717836  1.0
  C  C139  1  0.37822658  0.17066846  0.33068540  1.0
  C  C140  1  0.87387988  0.32672526  0.83757927  1.0
  C  C141  1  0.12886604  0.61802220  0.22176150  1.0
  C  C142  1  0.27260430  0.33646287  0.08381106  1.0
  C  C143  1  0.80729014  0.72483425  0.93061238  1.0
  C  C144  1  0.36265890  0.17745482  0.17598799  1.0
  C  C145  1  0.74259337  0.88906485  0.82368809  1.0
  C  C146  1  0.79747988  0.17050686  0.73542252  1.0
  C  C147  1  0.19583878  0.76464552  0.33514888  1.0
  C  C148  1  0.70774986  0.72949699  0.82523413  1.0
  C  C149  1  0.30222213  0.32687933  0.22988218  1.0
  C  C150  1  0.23111224  0.60522277  0.33447679  1.0
  C  C151  1  0.85590076  0.32104665  0.68420169  1.0
  C  C152  1  0.76705407  0.77878549  0.74773841  1.0
  C  C153  1  0.25305707  0.24802088  0.27196023  1.0
  C  C154  1  0.17631784  0.65591839  0.41316573  1.0
  C  C155  1  0.90547942  0.24288535  0.63989402  1.0
  C  C156  1  0.41150089  0.25666424  0.13342665  1.0
  C  C157  1  0.68406388  0.83931789  0.90198527  1.0
  C  C158  1  0.74769778  0.24841608  0.77933848  1.0
  C  C159  1  0.25161381  0.71448260  0.25727989  1.0
  C  C160  1  0.68535826  0.84546493  0.77109459  1.0
  C  C161  1  0.35704781  0.21276958  0.26329959  1.0
  C  C162  1  0.25650003  0.72350956  0.38541103  1.0
  C  C163  1  0.80153806  0.20720737  0.64873950  1.0
  C  C164  1  0.30716046  0.29157591  0.14255800  1.0
  C  C165  1  0.76430809  0.77185076  0.87836764  1.0
  C  C166  1  0.85137669  0.28446263  0.77075528  1.0
  C  C167  1  0.17003810  0.64770625  0.28458008  1.0
  N  N168  1  0.61995685  0.07448659  0.37301603  1.0
  N  N169  1  0.18153287  0.96152955  0.57529732  1.0
  N  N170  1  0.44102340  0.08225075  0.60389634  1.0
  N  N171  1  0.60016687  0.84028443  0.42803215  1.0
  N  N172  1  0.09730406  0.67881112  0.94478909  1.0
  N  N173  1  0.95377804  0.42133583  0.10168358  1.0
  N  N174  1  0.68272064  0.53370204  0.07813068  1.0
  N  N175  1  0.12090372  0.43971439  0.86911811  1.0
  N  N176  1  0.38112825  0.82228955  0.51803748  1.0
  N  N177  1  0.66162416  0.12309267  0.52317717  1.0
  N  N178  1  0.56348326  0.87508973  0.61579300  1.0
  N  N179  1  0.42493141  0.14219474  0.44229956  1.0
  N  N180  1  0.93111819  0.35894810  0.94253425  1.0
  N  N181  1  0.04756081  0.62086011  0.12916806  1.0
  N  N182  1  0.17249216  0.38028278  0.01469261  1.0
  N  N183  1  0.87464896  0.67879089  0.02413033  1.0
  N  N184  1  0.69992269  0.85149649  0.40875800  1.0
  N  N185  1  0.34779428  0.05822881  0.60800834  1.0
  N  N186  1  0.11947545  0.92842400  0.53688553  1.0
  N  N187  1  0.69535467  0.02055529  0.35971070  1.0
  N  N188  1  0.20061464  0.48344841  0.86926651  1.0
  N  N189  1  0.62712947  0.56540788  0.03276344  1.0
  N  N190  1  0.85954152  0.44760826  0.11263939  1.0
  N  N191  1  0.19359855  0.65301931  0.92033697  1.0
  N  N192  1  0.37216272  0.07875595  0.42846969  1.0
  N  N193  1  0.64300933  0.92309500  0.58379914  1.0
  N  N194  1  0.73715303  0.06974660  0.50573512  1.0
  N  N195  1  0.36219557  0.88519044  0.47367659  1.0
  N  N196  1  0.86365798  0.61453541  0.97733413  1.0
  N  N197  1  0.24107953  0.43844251  0.00989317  1.0
  N  N198  1  0.12820251  0.57464352  0.09610587  1.0
  N  N199  1  0.87059511  0.41898989  0.93464052  1.0
  N  N200  1  0.84098807  0.82887491  0.29104184  1.0
  N  N201  1  0.18582002  0.10781944  0.66649715  1.0
  N  N202  1  0.02079015  0.81232001  0.55287711  1.0
  N  N203  1  0.86439727  0.01333428  0.28345768  1.0
  N  N204  1  0.37366022  0.47732469  0.81743413  1.0
  N  N205  1  0.53817458  0.68444955  0.03376556  1.0
  N  N206  1  0.69729724  0.40663934  0.19287038  1.0
  N  N207  1  0.33051317  0.65818591  0.79581710  1.0
