# generated using pymatgen
data_Zn4H42C61N16
_symmetry_space_group_name_H-M   'P 1'
_cell_length_a   13.52626189
_cell_length_b   15.04884006
_cell_length_c   16.87808892
_cell_angle_alpha   110.58199195
_cell_angle_beta   102.18965784
_cell_angle_gamma   108.66091731
_symmetry_Int_Tables_number   1
_chemical_formula_structural   Zn4H42C61N16
_chemical_formula_sum   'Zn4 H42 C61 N16'
_cell_volume   2837.13856675
_cell_formula_units_Z   1
loop_
 _symmetry_equiv_pos_site_id
 _symmetry_equiv_pos_as_xyz
  1  'x, y, z'
loop_
 _atom_site_type_symbol
 _atom_site_label
 _atom_site_symmetry_multiplicity
 _atom_site_fract_x
 _atom_site_fract_y
 _atom_site_fract_z
 _atom_site_occupancy
  Zn  Zn0  1  0.51658950  0.88303539  0.89721262  1.0
  Zn  Zn1  1  0.47576521  0.12642878  0.12131935  1.0
  Zn  Zn2  1  0.65510663  0.13182380  0.01557452  1.0
  Zn  Zn3  1  0.33509045  0.86910951  0.99732613  1.0
  H  H4  1  0.68431942  0.80048401  0.95606172  1.0
  H  H5  1  0.19970714  0.29671625  0.99623300  1.0
  H  H6  1  0.65463619  0.13913172  0.28449590  1.0
  H  H7  1  0.33511419  0.38350020  0.08380796  1.0
  H  H8  1  0.17965351  0.44978317  0.98155013  1.0
  H  H9  1  0.31527534  0.53623215  0.06825459  1.0
  H  H10  1  0.60633187  0.86161172  0.58066620  1.0
  H  H11  1  0.75699304  0.20066833  0.72716992  1.0
  H  H12  1  0.56199843  0.77519825  0.41413828  1.0
  H  H13  1  0.75617243  0.21295091  0.58568837  1.0
  H  H14  1  0.53805598  0.78775741  0.27057008  1.0
  H  H15  1  0.32236023  0.20280517  0.01550975  1.0
  H  H16  1  0.68872858  0.12654675  0.41840941  1.0
  H  H17  1  0.77554607  0.55792999  0.40947545  1.0
  H  H18  1  0.86489545  0.35604263  0.16404644  1.0
  H  H19  1  0.00903061  0.47397589  0.29622429  1.0
  H  H20  1  0.84987879  0.71841590  0.55853019  1.0
  H  H21  1  0.16771335  0.62617580  0.42788203  1.0
  H  H22  1  0.00969906  0.84992288  0.70225046  1.0
  H  H23  1  0.23730044  0.75907132  0.58614770  1.0
  H  H24  1  0.03426359  0.10520413  0.07482375  1.0
  H  H25  1  0.15447047  0.12214664  0.97175334  1.0
  H  H26  1  0.75703982  0.19037359  0.86035509  1.0
  H  H27  1  0.76833237  0.86674687  0.72012621  1.0
  H  H28  1  0.81968856  0.76808656  0.69290479  1.0
  H  H29  1  0.69672972  0.80787799  0.82482188  1.0
  H  H30  1  0.24916093  0.61484371  0.95603430  1.0
  H  H31  1  0.74872804  0.70960187  0.79964936  1.0
  H  H32  1  0.63936143  0.36608672  0.31104129  1.0
  H  H33  1  0.49634952  0.64132900  0.82891441  1.0
  H  H34  1  0.45597809  0.80103660  0.13854060  1.0
  H  H35  1  0.88910705  0.13710377  0.09067193  1.0
  H  H36  1  0.38720299  0.89117196  0.72312105  1.0
  H  H37  1  0.26422102  0.17983900  0.14379728  1.0
  H  H38  1  0.99519994  0.78919592  0.99777797  1.0
  H  H39  1  0.02459510  0.78799985  0.90059720  1.0
  H  H40  1  0.10709258  0.75918420  0.97651486  1.0
  H  H41  1  0.56348024  0.85300253  0.70541943  1.0
  H  H42  1  0.13486667  0.86762163  0.84536756  1.0
  H  H43  1  0.55257851  0.20376327  0.87182106  1.0
  H  H44  1  0.44952251  0.45188972  0.78735573  1.0
  H  H45  1  0.47057645  0.30383687  0.80322764  1.0
  C  C46  1  0.71885006  0.88572707  0.98904771  1.0
  C  C47  1  0.60927198  0.93480889  0.75623294  1.0
  C  C48  1  0.20977233  0.87687926  0.82909651  1.0
  C  C49  1  0.59833383  0.05770464  0.23680132  1.0
  C  C50  1  0.50209124  0.19450414  0.91309209  1.0
  C  C51  1  0.22340790  0.86360618  0.74590699  1.0
  C  C52  1  0.42026438  0.23081001  0.92697849  1.0
  C  C53  1  0.66807107  0.02399269  0.74683424  1.0
  C  C54  1  0.12868256  0.01530691  0.05436280  1.0
  C  C55  1  0.32115772  0.44075686  0.93599374  1.0
  C  C56  1  0.36542437  0.48319043  0.88295667  1.0
  C  C57  1  0.57574513  0.96587719  0.24810998  1.0
  C  C58  1  0.41609903  0.42678555  0.83328567  1.0
  C  C59  1  0.42811127  0.34154666  0.84229016  1.0
  C  C60  1  0.39059008  0.30465487  0.90188798  1.0
  C  C61  1  0.79621630  0.34266219  0.18870794  1.0
  C  C62  1  0.33290711  0.35581333  0.94483444  1.0
  C  C63  1  0.27951268  0.36395784  0.01628074  1.0
  C  C64  1  0.26669915  0.46055785  0.00651584  1.0
  C  C65  1  0.67851930  0.02940115  0.66399701  1.0
  C  C66  1  0.60896591  0.95889271  0.33333333  1.0
  C  C67  1  0.58996124  0.85226490  0.41499928  1.0
  C  C68  1  0.79001667  0.40587442  0.26991686  1.0
  C  C69  1  0.57646867  0.85956852  0.33467438  1.0
  C  C70  1  0.66223059  0.04900650  0.41643532  1.0
  C  C71  1  0.67657586  0.04423908  0.49995563  1.0
  C  C72  1  0.63646632  0.94367539  0.49989833  1.0
  C  C73  1  0.31159217  0.63804302  0.92709412  1.0
  C  C74  1  0.63945661  0.93909133  0.58260238  1.0
  C  C75  1  0.72361518  0.12882455  0.66366748  1.0
  C  C76  1  0.72314021  0.13597178  0.58460971  1.0
  C  C77  1  0.88019169  0.50337252  0.34463754  1.0
  C  C78  1  0.13468170  0.80965290  0.65604740  1.0
  C  C79  1  0.36828307  0.58222031  0.88687255  1.0
  C  C80  1  0.93497420  0.72695977  0.56509838  1.0
  C  C81  1  0.02360051  0.79966195  0.64523293  1.0
  C  C82  1  0.15319953  0.75286064  0.58038209  1.0
  C  C83  1  0.06408170  0.67742740  0.49769527  1.0
  C  C84  1  0.95104309  0.65923102  0.49062809  1.0
  C  C85  1  0.68074703  0.34841446  0.26289419  1.0
  C  C86  1  0.86129748  0.57227524  0.41325858  1.0
  C  C87  1  0.99301563  0.52662907  0.35013726  1.0
  C  C88  1  0.08181930  0.61125891  0.42366812  1.0
  C  C89  1  0.88057959  0.87313218  0.89049816  1.0
  C  C90  1  0.33799380  0.88823983  0.76605963  1.0
  C  C91  1  0.91512001  0.94755673  0.97995158  1.0
  C  C92  1  0.02959602  0.03602693  0.01944385  1.0
  C  C93  1  0.06806402  0.06289374  0.94324956  1.0
  C  C94  1  0.01120907  0.99826829  0.85520140  1.0
  C  C95  1  0.92152455  0.90507581  0.82792787  1.0
  C  C96  1  0.81263302  0.82851408  0.74836148  1.0
  C  C97  1  0.43686911  0.65097079  0.86167811  1.0
  C  C98  1  0.76824702  0.79195838  0.81520537  1.0
  C  C99  1  0.49731743  0.88541772  0.16216053  1.0
  C  C100  1  0.82374041  0.05733202  0.05969993  1.0
  C  C101  1  0.38490329  0.19387384  0.98663140  1.0
  C  C102  1  0.82940729  0.96088359  0.01591573  1.0
  C  C103  1  0.06363845  0.80893259  0.97253428  1.0
  C  C104  1  0.70675539  0.10669573  0.83488115  1.0
  C  C105  1  0.14450548  0.92223435  0.02746660  1.0
  C  C106  1  0.23751667  0.09540126  0.10842869  1.0
  N  N107  1  0.65212372  0.93382316  0.00939906  1.0
  N  N108  1  0.69920723  0.25580030  0.13792934  1.0
  N  N109  1  0.34407461  0.73181302  0.92584549  1.0
  N  N110  1  0.62699623  0.25892684  0.18399295  1.0
  N  N111  1  0.42239038  0.73988964  0.88528579  1.0
  N  N112  1  0.47361536  0.92731805  0.10612124  1.0
  N  N113  1  0.71760445  0.04031546  0.05290586  1.0
  N  N114  1  0.38676222  0.91111460  0.85343761  1.0
  N  N115  1  0.44221332  0.14175625  0.00725708  1.0
  N  N116  1  0.67352803  0.06941673  0.89121366  1.0
  N  N117  1  0.25507544  0.94767368  0.06280432  1.0
  N  N118  1  0.31329836  0.05537912  0.11290445  1.0
  N  N119  1  0.61306986  0.96224855  0.84220680  1.0
  N  N120  1  0.30791600  0.90350778  0.89220896  1.0
  N  N121  1  0.51447810  0.14223039  0.96230043  1.0
  N  N122  1  0.53582220  0.03334371  0.15203459  1.0
