# generated using pymatgen
data_Zn4H3C24S4BrCl4O13
_symmetry_space_group_name_H-M   'P 1'
_cell_length_a   19.66236853
_cell_length_b   19.74825318
_cell_length_c   33.36197697
_cell_angle_alpha   78.97863584
_cell_angle_beta   79.23193198
_cell_angle_gamma   63.98863000
_symmetry_Int_Tables_number   1
_chemical_formula_structural   Zn4H3C24S4BrCl4O13
_chemical_formula_sum   'Zn16 H12 C96 S16 Br4 Cl16 O52'
_cell_volume   11349.29801887
_cell_formula_units_Z   4
loop_
 _symmetry_equiv_pos_site_id
 _symmetry_equiv_pos_as_xyz
  1  'x, y, z'
loop_
 _atom_site_type_symbol
 _atom_site_label
 _atom_site_symmetry_multiplicity
 _atom_site_fract_x
 _atom_site_fract_y
 _atom_site_fract_z
 _atom_site_occupancy
  Zn  Zn0  1  0.05512358  0.40010268  0.47786796  1.0
  Zn  Zn1  1  0.98581506  0.48380769  0.56062168  1.0
  Zn  Zn2  1  0.05825472  0.56093395  0.48199464  1.0
  Zn  Zn3  1  0.90041267  0.55498732  0.48008679  1.0
  Zn  Zn4  1  0.69320246  0.34909232  0.27164885  1.0
  Zn  Zn5  1  0.69088685  0.18770791  0.26599231  1.0
  Zn  Zn6  1  0.76964646  0.26629230  0.19033447  1.0
  Zn  Zn7  1  0.84798132  0.19631093  0.27268749  1.0
  Zn  Zn8  1  0.26594157  0.76585069  0.69013609  1.0
  Zn  Zn9  1  0.34980511  0.69707691  0.77173722  1.0
  Zn  Zn10  1  0.19205059  0.84851229  0.77094268  1.0
  Zn  Zn11  1  0.19136668  0.68726757  0.76686356  1.0
  Zn  Zn12  1  0.55872583  0.06164707  0.98323108  1.0
  Zn  Zn13  1  0.40234815  0.05336457  0.97782221  1.0
  Zn  Zn14  1  0.55637483  0.90041650  0.97851800  1.0
  Zn  Zn15  1  0.48206155  0.98481572  0.06055045  1.0
  H  H16  1  0.95367852  0.25030190  0.35175379  1.0
  H  H17  1  0.74616798  0.45421074  0.34976137  1.0
  H  H18  1  0.99827833  0.30136917  0.39980735  1.0
  H  H19  1  0.09631245  0.59578353  0.69954829  1.0
  H  H20  1  0.20206369  0.70144666  0.59896506  1.0
  H  H21  1  0.05035399  0.55109000  0.64896999  1.0
  H  H22  1  0.55007816  0.05118227  0.15367187  1.0
  H  H23  1  0.65077816  0.15209641  0.04816896  1.0
  H  H24  1  0.60151575  0.10005591  0.19934343  1.0
  H  H25  1  0.50151282  0.79390378  0.89789203  1.0
  H  H26  1  0.29840822  0.00208434  0.90023006  1.0
  H  H27  1  0.44822234  0.75171686  0.84981256  1.0
  C  C28  1  0.06169821  0.31645959  0.56178490  1.0
  C  C29  1  0.06930821  0.57067661  0.56853613  1.0
  C  C30  1  0.18333542  0.43970383  0.43840485  1.0
  C  C31  1  0.93601352  0.68402303  0.43874774  1.0
  C  C32  1  0.93041863  0.43070117  0.43105859  1.0
  C  C33  1  0.81745127  0.56090939  0.56293332  1.0
  C  C34  1  0.56605087  0.30947315  0.31103289  1.0
  C  C35  1  0.68268391  0.17989106  0.18043332  1.0
  C  C36  1  0.68973333  0.43329364  0.18826424  1.0
  C  C37  1  0.93560177  0.18821592  0.19001676  1.0
  C  C38  1  0.81853832  0.32040328  0.31934704  1.0
  C  C39  1  0.81303802  0.06590473  0.31131742  1.0
  C  C40  1  0.43313456  0.68954382  0.68804433  1.0
  C  C41  1  0.31797969  0.82078958  0.81887877  1.0
  C  C42  1  0.18815281  0.93286590  0.68795820  1.0
  C  C43  1  0.06545960  0.80871007  0.81090607  1.0
  C  C44  1  0.18047584  0.67923186  0.68124563  1.0
  C  C45  1  0.31424656  0.56596069  0.81112988  1.0
  C  C46  1  0.43702659  0.18388656  0.93857993  1.0
  C  C47  1  0.43259301  0.92860599  0.93059898  1.0
  C  C48  1  0.68362699  0.94060121  0.93884497  1.0
  C  C49  1  0.56062935  0.81707924  0.06212129  1.0
  C  C50  1  0.56787175  0.07036180  0.06969062  1.0
  C  C51  1  0.31530074  0.06189698  0.06045492  1.0
  C  C52  1  0.89822179  0.40598361  0.40210803  1.0
  C  C53  1  0.84698242  0.34945178  0.34792515  1.0
  C  C54  1  0.82637922  0.44915083  0.38758431  1.0
  C  C55  1  0.91846222  0.30584719  0.36191915  1.0
  C  C56  1  0.80153598  0.42074749  0.36079614  1.0
  C  C57  1  0.94298680  0.33428684  0.38852347  1.0
  C  C58  1  0.09978601  0.60048684  0.59573032  1.0
  C  C59  1  0.15199470  0.65142537  0.65210912  1.0
  C  C60  1  0.14317769  0.64336950  0.58175092  1.0
  C  C61  1  0.10912655  0.60889394  0.66657614  1.0
  C  C62  1  0.16871649  0.66839710  0.60984499  1.0
  C  C63  1  0.08378573  0.58420218  0.63853626  1.0
  C  C64  1  0.30516795  0.45384545  0.40072645  1.0
  C  C65  1  0.44483506  0.29487458  0.34949624  1.0
  C  C66  1  0.25851486  0.41535818  0.41386798  1.0
  C  C67  1  0.49138378  0.33337174  0.33612032  1.0
  C  C68  1  0.37702127  0.33882681  0.37307622  1.0
  C  C69  1  0.37316897  0.40981046  0.37725221  1.0
  C  C70  1  0.72573814  0.57543220  0.63072823  1.0
  C  C71  1  0.52473261  0.67380310  0.62023170  1.0
  C  C72  1  0.74310337  0.58500111  0.58816920  1.0
  C  C73  1  0.50750615  0.66451645  0.66283891  1.0
  C  C74  1  0.60441906  0.64125005  0.60853337  1.0
  C  C75  1  0.64606779  0.60783984  0.64238650  1.0
  C  C76  1  0.07642307  0.22474432  0.62975548  1.0
  C  C77  1  0.17425895  0.02436064  0.62002087  1.0
  C  C78  1  0.08607848  0.24209040  0.58714856  1.0
  C  C79  1  0.16436196  0.00713378  0.66262975  1.0
  C  C80  1  0.14213691  0.10378791  0.60805000  1.0
  C  C81  1  0.10864030  0.14531170  0.64169687  1.0
  C  C82  1  0.84217544  0.80169296  0.39694502  1.0
  C  C83  1  0.90699566  0.94804804  0.35296704  1.0
  C  C84  1  0.91059703  0.75849793  0.41367754  1.0
  C  C85  1  0.83852795  0.99122532  0.33622286  1.0
  C  C86  1  0.90835726  0.87879720  0.37505095  1.0
  C  C87  1  0.84102437  0.87076319  0.37472476  1.0
  C  C88  1  0.65490743  0.15349252  0.15010292  1.0
  C  C89  1  0.59752709  0.09875455  0.09801845  1.0
  C  C90  1  0.66849739  0.16810453  0.10688390  1.0
  C  C91  1  0.58332975  0.08381026  0.14080060  1.0
  C  C92  1  0.63999524  0.14076055  0.08140176  1.0
  C  C93  1  0.61186096  0.11098350  0.16602974  1.0
  C  C94  1  0.67379924  0.52492011  0.12026325  1.0
  C  C95  1  0.57575239  0.72531079  0.13009903  1.0
  C  C96  1  0.66470144  0.50761915  0.16289098  1.0
  C  C97  1  0.58501017  0.74274428  0.08749164  1.0
  C  C98  1  0.60812064  0.64586347  0.14200982  1.0
  C  C99  1  0.64126811  0.60438090  0.10833322  1.0
  C  C100  1  0.08304745  0.12299968  0.17810210  1.0
  C  C101  1  0.16781900  0.12620396  0.07235564  1.0
  C  C102  1  0.01055913  0.16248898  0.16544188  1.0
  C  C103  1  0.24033109  0.08700864  0.08502842  1.0
  C  C104  1  0.11045029  0.13931412  0.10634531  1.0
  C  C105  1  0.14039227  0.10980108  0.14411031  1.0
  C  C106  1  0.34389144  0.85209713  0.84771080  1.0
  C  C107  1  0.40292438  0.90091656  0.90191942  1.0
  C  C108  1  0.30157625  0.92341681  0.86234072  1.0
  C  C109  1  0.44567985  0.82991374  0.88782675  1.0
  C  C110  1  0.33118884  0.94709759  0.88909505  1.0
  C  C111  1  0.41605661  0.80661645  0.86118981  1.0
  C  C112  1  0.40816277  0.44803549  0.85294225  1.0
  C  C113  1  0.34294460  0.30194453  0.89703411  1.0
  C  C114  1  0.33985642  0.49127170  0.83610583  1.0
  C  C115  1  0.41141985  0.25862385  0.91373863  1.0
  C  C116  1  0.34181798  0.37104402  0.87483558  1.0
  C  C117  1  0.40922726  0.37896845  0.87515503  1.0
  C  C118  1  0.94409683  0.79463044  0.84955503  1.0
  C  C119  1  0.80531968  0.95433736  0.90052773  1.0
  C  C120  1  0.99080218  0.83290085  0.83595203  1.0
  C  C121  1  0.75848061  0.91616028  0.91403484  1.0
  C  C122  1  0.87299058  0.90994076  0.87699392  1.0
  C  C123  1  0.87642877  0.83897834  0.87309987  1.0
  S  S124  1  0.29805436  0.32555962  0.39768946  1.0
  S  S125  1  0.45207299  0.42307009  0.35246974  1.0
  S  S126  1  0.66212518  0.63332149  0.56252782  1.0
  S  S127  1  0.58848454  0.61600650  0.68841862  1.0
  S  S128  1  0.13443610  0.16134562  0.56189668  1.0
  S  S129  1  0.11599981  0.08788576  0.68786635  1.0
  S  S130  1  0.97323590  0.80225758  0.40221762  1.0
  S  S131  1  0.77616298  0.94720551  0.34750275  1.0
  S  S132  1  0.61634320  0.58832936  0.18817190  1.0
  S  S133  1  0.63314572  0.66201424  0.06219020  1.0
  S  S134  1  0.01262997  0.18319179  0.11214643  1.0
  S  S135  1  0.23821872  0.06620155  0.13832212  1.0
  S  S136  1  0.27715838  0.44756245  0.84751866  1.0
  S  S137  1  0.47398383  0.30246292  0.90239980  1.0
  S  S138  1  0.95194422  0.92278225  0.85198215  1.0
  S  S139  1  0.79739035  0.82621921  0.89804972  1.0
  Br  Br140  1  0.75617279  0.54720880  0.40143521  1.0
  Br  Br141  1  0.17242128  0.67145962  0.52563165  1.0
  Br  Br142  1  0.72439072  0.22442084  0.07836820  1.0
  Br  Br143  1  0.20313200  0.99430122  0.84862214  1.0
  Cl  Cl144  1  0.28696417  0.54229978  0.41045782  1.0
  Cl  Cl145  1  0.46303180  0.20631829  0.33989102  1.0
  Cl  Cl146  1  0.78895530  0.53105088  0.66620450  1.0
  Cl  Cl147  1  0.46156451  0.71807240  0.58474112  1.0
  Cl  Cl148  1  0.03214237  0.28763688  0.66501185  1.0
  Cl  Cl149  1  0.21839557  0.96134501  0.58483884  1.0
  Cl  Cl150  1  0.76719545  0.77814302  0.40106376  1.0
  Cl  Cl151  1  0.98218280  0.97137194  0.34870651  1.0
  Cl  Cl152  1  0.71726023  0.46194435  0.08503027  1.0
  Cl  Cl153  1  0.53197808  0.78823032  0.16535915  1.0
  Cl  Cl154  1  0.10458154  0.09263358  0.22746078  1.0
  Cl  Cl155  1  0.14617891  0.15653564  0.02302238  1.0
  Cl  Cl156  1  0.48336815  0.47130590  0.84868471  1.0
  Cl  Cl157  1  0.26778479  0.27859210  0.90130710  1.0
  Cl  Cl158  1  0.96199865  0.70603445  0.84017578  1.0
  Cl  Cl159  1  0.78761258  0.04286502  0.90990540  1.0
  O  O160  1  0.00076833  0.49821015  0.50016564  1.0
  O  O161  1  0.07798566  0.31504235  0.52282203  1.0
  O  O162  1  0.03323798  0.53071400  0.58655759  1.0
  O  O163  1  0.15423533  0.50623005  0.44904461  1.0
  O  O164  1  0.02694504  0.37497760  0.58060904  1.0
  O  O165  1  0.15399871  0.39136437  0.44667554  1.0
  O  O166  1  0.08116520  0.58713621  0.52993991  1.0
  O  O167  1  0.00384585  0.65696799  0.44856571  1.0
  O  O168  1  0.88935261  0.49469181  0.44381710  1.0
  O  O169  1  0.88931355  0.65321818  0.44854302  1.0
  O  O170  1  0.99691020  0.38522700  0.44077415  1.0
  O  O171  1  0.87680694  0.52593789  0.58146524  1.0
  O  O172  1  0.81507525  0.57791104  0.52400184  1.0
  O  O173  1  0.74937448  0.25011768  0.25060050  1.0
  O  O174  1  0.59503537  0.35813958  0.30307467  1.0
  O  O175  1  0.66476988  0.16186845  0.21855950  1.0
  O  O176  1  0.72733486  0.37475299  0.16963976  1.0
  O  O177  1  0.59503384  0.24360231  0.29955221  1.0
  O  O178  1  0.67122225  0.43462655  0.22713831  1.0
  O  O179  1  0.72171193  0.21794486  0.16619330  1.0
  O  O180  1  0.87827287  0.22420615  0.16950396  1.0
  O  O181  1  0.86267099  0.25479732  0.30881830  1.0
  O  O182  1  0.93393268  0.17294519  0.22893168  1.0
  O  O183  1  0.75294144  0.36333468  0.30796375  1.0
  O  O184  1  0.74671997  0.09166814  0.29962370  1.0
  O  O185  1  0.85853132  0.09812403  0.30363354  1.0
  O  O186  1  0.25005192  0.74913159  0.75045480  1.0
  O  O187  1  0.37419902  0.72422109  0.66912876  1.0
  O  O188  1  0.36445192  0.75564193  0.80821535  1.0
  O  O189  1  0.16989459  0.93428038  0.72684125  1.0
  O  O190  1  0.43480576  0.67393008  0.72705453  1.0
  O  O191  1  0.22438898  0.87419816  0.66933367  1.0
  O  O192  1  0.25241591  0.86072420  0.80724818  1.0
  O  O193  1  0.09405490  0.85766427  0.80237536  1.0
  O  O194  1  0.16497372  0.66143547  0.71957518  1.0
  O  O195  1  0.09487963  0.74234406  0.80003701  1.0
  O  O196  1  0.21792905  0.71853898  0.66516353  1.0
  O  O197  1  0.35959354  0.59834992  0.80278764  1.0
  O  O198  1  0.24742205  0.59144426  0.80011028  1.0
  O  O199  1  0.50077218  0.99905718  0.00011296  1.0
  O  O200  1  0.50365012  0.15802892  0.94991854  1.0
  O  O201  1  0.38928893  0.99404133  0.94156643  1.0
  O  O202  1  0.65437597  0.89216629  0.94701465  1.0
  O  O203  1  0.39159934  0.15157811  0.94658718  1.0
  O  O204  1  0.65467482  0.00682874  0.94987077  1.0
  O  O205  1  0.49830199  0.88484462  0.94164058  1.0
  O  O206  1  0.57847814  0.81542541  0.02322181  1.0
  O  O207  1  0.52921136  0.03248183  0.08640052  1.0
  O  O208  1  0.52438355  0.87580604  0.08070442  1.0
  O  O209  1  0.58379527  0.08646915  0.03121440  1.0
  O  O210  1  0.31664996  0.07663908  0.02152042  1.0
  O  O211  1  0.37285145  0.02712149  0.08087803  1.0
