# generated using pymatgen
data_Zn2H22C27(NO2)4
_symmetry_space_group_name_H-M   'P 1'
_cell_length_a   9.88266420
_cell_length_b   10.97381073
_cell_length_c   13.99122463
_cell_angle_alpha   88.32936926
_cell_angle_beta   80.65935024
_cell_angle_gamma   89.17513665
_symmetry_Int_Tables_number   1
_chemical_formula_structural   Zn2H22C27(NO2)4
_chemical_formula_sum   'Zn2 H22 C27 N4 O8'
_cell_volume   1496.52795832
_cell_formula_units_Z   1
loop_
 _symmetry_equiv_pos_site_id
 _symmetry_equiv_pos_as_xyz
  1  'x, y, z'
loop_
 _atom_site_type_symbol
 _atom_site_label
 _atom_site_symmetry_multiplicity
 _atom_site_fract_x
 _atom_site_fract_y
 _atom_site_fract_z
 _atom_site_occupancy
  Zn  Zn0  1  0.35862444  0.50823549  0.50855864  1.0
  Zn  Zn1  1  0.65364160  0.50492850  0.49718039  1.0
  H  H2  1  0.35355961  0.47722558  0.03549009  1.0
  H  H3  1  0.28308429  0.56076381  0.32849769  1.0
  H  H4  1  0.13560769  0.57496404  0.27278530  1.0
  H  H5  1  0.04457718  0.54934767  0.82749822  1.0
  H  H6  1  0.18530294  0.59375390  0.73819102  1.0
  H  H7  1  0.01877036  0.65751221  0.73429180  1.0
  H  H8  1  0.72846535  0.31083392  0.69216946  1.0
  H  H9  1  0.89921561  0.25346773  0.66530373  1.0
  H  H10  1  0.83076002  0.29537203  0.78577972  1.0
  H  H11  1  0.77782981  0.52963873  0.97905767  1.0
  H  H12  1  0.69046471  0.51077197  0.88236835  1.0
  H  H13  1  0.09853880  0.38621780  0.70619631  1.0
  H  H14  1  0.24093827  0.23132536  0.67132914  1.0
  H  H15  1  0.10734547  0.12566293  0.71399330  1.0
  H  H16  1  0.28081322  0.08881722  0.72367800  1.0
  H  H17  1  0.81862468  0.51550083  0.72903074  1.0
  H  H18  1  0.71617673  0.89472393  0.43493711  1.0
  H  H19  1  0.71358372  0.12138027  0.43380426  1.0
  H  H20  1  0.16494336  0.12044679  0.53237903  1.0
  H  H21  1  0.21890503  0.88785903  0.64858218  1.0
  H  H22  1  0.16698692  0.89275484  0.53218607  1.0
  H  H23  1  0.90685870  0.54765170  0.35315815  1.0
  C  C24  1  0.50595442  0.73978040  0.49898612  1.0
  C  C25  1  0.23578778  0.93323590  0.57659112  1.0
  C  C26  1  0.91794424  0.48560948  0.57983753  1.0
  C  C27  1  0.47183930  0.49179647  0.69098901  1.0
  C  C28  1  0.94979228  0.53187908  0.41960395  1.0
  C  C29  1  0.09457426  0.53935335  0.41792777  1.0
  C  C30  1  0.05706724  0.49590879  0.57974741  1.0
  C  C31  1  0.04424144  0.46970282  0.68826272  1.0
  C  C32  1  0.88476174  0.44873170  0.68605612  1.0
  C  C33  1  0.49844924  0.27371582  0.49393258  1.0
  C  C34  1  0.56479278  0.51311171  0.30751846  1.0
  C  C35  1  0.45587500  0.48563367  0.79494313  1.0
  C  C36  1  0.57295394  0.50805080  0.20341561  1.0
  C  C37  1  0.57080466  0.49676305  0.01583360  1.0
  C  C38  1  0.44701225  0.48525539  0.98268680  1.0
  C  C39  1  0.44393259  0.48369447  0.88359180  1.0
  C  C40  1  0.57348145  0.50189910  0.11652116  1.0
  C  C41  1  0.07530137  0.57435338  0.75038316  1.0
  C  C42  1  0.83264765  0.31950035  0.70875711  1.0
  C  C43  1  0.21418339  0.13423251  0.67741665  1.0
  C  C44  1  0.38451880  0.94241710  0.52897289  1.0
  C  C45  1  0.50302693  0.87547356  0.49607957  1.0
  C  C46  1  0.62155428  0.94401619  0.46123970  1.0
  C  C47  1  0.62002167  0.07116648  0.46050346  1.0
  C  C48  1  0.49928480  0.13798060  0.49373426  1.0
  C  C49  1  0.38281370  0.06959592  0.52739906  1.0
  C  C50  1  0.23460555  0.07787799  0.57780060  1.0
  N  N51  1  0.86111356  0.50381347  0.49976506  1.0
  N  N52  1  0.15035390  0.52011350  0.50097694  1.0
  N  N53  1  0.17744759  0.56631843  0.33396158  1.0
  N  N54  1  0.69362830  0.50057615  0.95437994  1.0
  O  O55  1  0.39023465  0.68717183  0.52218674  1.0
  O  O56  1  0.62199600  0.68634234  0.47877406  1.0
  O  O57  1  0.36547071  0.47160645  0.65293237  1.0
  O  O58  1  0.59147031  0.51720281  0.64603990  1.0
  O  O59  1  0.38567630  0.32758726  0.48489578  1.0
  O  O60  1  0.60997159  0.32518084  0.50382703  1.0
  O  O61  1  0.44582842  0.53620092  0.35510563  1.0
  O  O62  1  0.67371167  0.49410290  0.34260032  1.0
