# generated using pymatgen
data_Zn4H8C22N4O17
_symmetry_space_group_name_H-M   'P 1'
_cell_length_a   13.09599832
_cell_length_b   13.09694273
_cell_length_c   13.29269448
_cell_angle_alpha   85.77954390
_cell_angle_beta   87.41189669
_cell_angle_gamma   107.16490489
_symmetry_Int_Tables_number   1
_chemical_formula_structural   Zn4H8C22N4O17
_chemical_formula_sum   'Zn4 H8 C22 N4 O17'
_cell_volume   2167.11641353
_cell_formula_units_Z   1
loop_
 _symmetry_equiv_pos_site_id
 _symmetry_equiv_pos_as_xyz
  1  'x, y, z'
loop_
 _atom_site_type_symbol
 _atom_site_label
 _atom_site_symmetry_multiplicity
 _atom_site_fract_x
 _atom_site_fract_y
 _atom_site_fract_z
 _atom_site_occupancy
  Zn  Zn0  1  0.55399501  0.40877800  0.60641690  1.0
  Zn  Zn1  1  0.41434540  0.56720699  0.59044915  1.0
  Zn  Zn2  1  0.38439606  0.38967941  0.43016973  1.0
  Zn  Zn3  1  0.60847265  0.57936644  0.42143843  1.0
  H  H4  1  0.90997871  0.47434539  0.58802121  1.0
  H  H5  1  0.67030200  0.08929635  0.43836379  1.0
  H  H6  1  0.87328729  0.64886989  0.39507235  1.0
  H  H7  1  0.63517109  0.42989949  0.98415084  1.0
  H  H8  1  0.68893615  0.48941452  0.17345319  1.0
  H  H9  1  0.35925744  0.03491455  0.53846474  1.0
  H  H10  1  0.39004508  0.43437627  0.09287544  1.0
  H  H11  1  0.35257129  0.47225495  0.92150486  1.0
  C  C12  1  0.55574341  0.76762730  0.47895001  1.0
  C  C13  1  0.49558996  0.43946138  0.95905434  1.0
  C  C14  1  0.44824263  0.20720507  0.51414753  1.0
  C  C15  1  0.77891967  0.52325953  0.52671365  1.0
  C  C16  1  0.44286468  0.46631379  0.78226206  1.0
  C  C17  1  0.52089619  0.46738483  0.24539190  1.0
  C  C18  1  0.89033649  0.52569202  0.52893946  1.0
  C  C19  1  0.21691605  0.48455528  0.48490935  1.0
  C  C20  1  0.43802876  0.09124610  0.51702873  1.0
  C  C21  1  0.96765577  0.58662974  0.45846541  1.0
  C  C22  1  0.52177162  0.05362217  0.49350899  1.0
  C  C23  1  0.10370821  0.48818069  0.47388588  1.0
  C  C24  1  0.57359515  0.88634932  0.46187152  1.0
  C  C25  1  0.07942341  0.58299020  0.46077574  1.0
  C  C26  1  0.50715961  0.93739642  0.50612239  1.0
  C  C27  1  0.54531032  0.45576238  0.13703178  1.0
  C  C28  1  0.16058036  0.68383338  0.44341359  1.0
  C  C29  1  0.41719432  0.87814414  0.57295142  1.0
  C  C30  1  0.02469415  0.38670540  0.47505831  1.0
  C  C31  1  0.66213650  0.94209891  0.39328439  1.0
  C  C32  1  0.47183995  0.44107958  0.06663258  1.0
  C  C33  1  0.42431206  0.45601671  0.89166835  1.0
  N  N34  1  0.22238510  0.76876053  0.42439149  1.0
  N  N35  1  0.34235550  0.83979428  0.62950788  1.0
  N  N36  1  0.96350245  0.30099086  0.47634423  1.0
  N  N37  1  0.73677143  0.98805610  0.33842262  1.0
  O  O38  1  0.48806791  0.48725286  0.50829477  1.0
  O  O39  1  0.71152859  0.45947744  0.59137059  1.0
  O  O40  1  0.38739566  0.51684986  0.73178879  1.0
  O  O41  1  0.42490515  0.43460563  0.28291024  1.0
  O  O42  1  0.60493715  0.51121980  0.29158021  1.0
  O  O43  1  0.27637762  0.55938406  0.52979349  1.0
  O  O44  1  0.49968762  0.71960045  0.55805613  1.0
  O  O45  1  0.75517108  0.58685815  0.45696587  1.0
  O  O46  1  0.38414071  0.24084575  0.46036054  1.0
  O  O47  1  0.51163941  0.42606358  0.74299977  1.0
  O  O48  1  0.95170048  0.65467405  0.38531531  1.0
  O  O49  1  0.61674466  0.12410405  0.45827064  1.0
  O  O50  1  0.60048287  0.72773810  0.41112481  1.0
  O  O51  1  0.58977647  0.42633654  0.92691265  1.0
  O  O52  1  0.65111749  0.46846081  0.11229846  1.0
  O  O53  1  0.23949579  0.40595338  0.44893525  1.0
  O  O54  1  0.51807217  0.26125937  0.56852247  1.0
