# generated using pymatgen
data_Zn4H21C39N3O16
_symmetry_space_group_name_H-M   'P 1'
_cell_length_a   17.70585225
_cell_length_b   17.77863326
_cell_length_c   18.26619357
_cell_angle_alpha   63.52510147
_cell_angle_beta   63.40764914
_cell_angle_gamma   62.25370451
_symmetry_Int_Tables_number   1
_chemical_formula_structural   Zn4H21C39N3O16
_chemical_formula_sum   'Zn8 H42 C78 N6 O32'
_cell_volume   4340.90302103
_cell_formula_units_Z   2
loop_
 _symmetry_equiv_pos_site_id
 _symmetry_equiv_pos_as_xyz
  1  'x, y, z'
loop_
 _atom_site_type_symbol
 _atom_site_label
 _atom_site_symmetry_multiplicity
 _atom_site_fract_x
 _atom_site_fract_y
 _atom_site_fract_z
 _atom_site_occupancy
  Zn  Zn0  1  0.95733253  0.14634227  0.96808881  1.0
  Zn  Zn1  1  0.95371743  0.97432641  0.13299469  1.0
  Zn  Zn2  1  0.12976761  0.97127314  0.97733246  1.0
  Zn  Zn3  1  0.95395903  0.96775379  0.96115636  1.0
  Zn  Zn4  1  0.54159403  0.38728975  0.54651807  1.0
  Zn  Zn5  1  0.53328392  0.55729587  0.38436924  1.0
  Zn  Zn6  1  0.55049845  0.56604614  0.54705330  1.0
  Zn  Zn7  1  0.36705114  0.56024586  0.55401149  1.0
  H  H8  1  0.90009098  0.07182016  0.33877688  1.0
  H  H9  1  0.81276157  0.86985182  0.41214365  1.0
  H  H10  1  0.65729213  0.94153393  0.37151034  1.0
  H  H11  1  0.62968172  0.12032906  0.29851521  1.0
  H  H12  1  0.66342262  0.20065436  0.40830121  1.0
  H  H13  1  0.72990301  0.42635312  0.20414096  1.0
  H  H14  1  0.82741991  0.33030662  0.10701483  1.0
  H  H15  1  0.32050205  0.08560695  0.71131282  1.0
  H  H16  1  0.46009868  0.87382240  0.86588686  1.0
  H  H17  1  0.44912076  0.93326629  0.98452421  1.0
  H  H18  1  0.34601836  0.11002596  0.94780257  1.0
  H  H19  1  0.41684414  0.20296413  0.73262756  1.0
  H  H20  1  0.17775097  0.42540410  0.69876632  1.0
  H  H21  1  0.08605725  0.32629931  0.80279050  1.0
  H  H22  1  0.67818097  0.11844949  0.78012026  1.0
  H  H23  1  0.87835190  0.89872845  0.72815960  1.0
  H  H24  1  0.03351637  0.91685890  0.70350283  1.0
  H  H25  1  0.98701552  0.08024581  0.71670938  1.0
  H  H26  1  0.74842909  0.21318689  0.64846152  1.0
  H  H27  1  0.68614564  0.42742598  0.73817604  1.0
  H  H28  1  0.78388267  0.32309886  0.83312906  1.0
  H  H29  1  0.42054708  0.77837157  0.11253341  1.0
  H  H30  1  0.45513015  0.70156306  0.92108432  1.0
  H  H31  1  0.30308004  0.67197223  0.95535615  1.0
  H  H32  1  0.19620507  0.69660794  0.11261551  1.0
  H  H33  1  0.38728449  0.63985588  0.22338119  1.0
  H  H34  1  0.17199407  0.75041231  0.42167468  1.0
  H  H35  1  0.07911874  0.84311045  0.32200620  1.0
  H  H36  1  0.78922812  0.68884973  0.10262222  1.0
  H  H37  1  0.69734467  0.88025369  0.90637093  1.0
  H  H38  1  0.65047409  0.03839550  0.93089285  1.0
  H  H39  1  0.67911438  0.99739479  0.08098702  1.0
  H  H40  1  0.63753098  0.75414442  0.20529548  1.0
  H  H41  1  0.74173872  0.70273631  0.40116016  1.0
  H  H42  1  0.83102173  0.80417177  0.29619003  1.0
  H  H43  1  0.09873673  0.76450488  0.72261079  1.0
  H  H44  1  0.92494363  0.66860817  0.93875003  1.0
  H  H45  1  0.96513623  0.65576624  0.07310430  1.0
  H  H46  1  0.11480029  0.70346765  0.00150710  1.0
  H  H47  1  0.22249199  0.63948190  0.77021344  1.0
  H  H48  1  0.40830145  0.77876606  0.67194249  1.0
  H  H49  1  0.30618355  0.86842786  0.77236548  1.0
  C  C50  1  0.89277814  0.00537316  0.36068746  1.0
  C  C51  1  0.81212358  0.00789947  0.35642932  1.0
  C  C52  1  0.77978221  0.93906120  0.38160190  1.0
  C  C53  1  0.69962975  0.97630790  0.36090325  1.0
  C  C54  1  0.68384390  0.06753449  0.32326661  1.0
  C  C55  1  0.75398877  0.17543720  0.28840905  1.0
  C  C56  1  0.70006124  0.22900081  0.34248670  1.0
  C  C57  1  0.69201571  0.31901469  0.31252169  1.0
  C  C58  1  0.73763317  0.35593500  0.22734523  1.0
  C  C59  1  0.79170656  0.30254311  0.17345195  1.0
  C  C60  1  0.80157795  0.21185525  0.20298191  1.0
  C  C61  1  0.86340827  0.15756226  0.14243634  1.0
  C  C62  1  0.63354784  0.37620455  0.37075635  1.0
  C  C63  1  0.36049167  0.01778054  0.74385021  1.0
  C  C64  1  0.37673070  0.01227375  0.81673705  1.0
  C  C65  1  0.42419119  0.94058152  0.87187262  1.0
  C  C66  1  0.41792562  0.97143661  0.93370817  1.0
  C  C67  1  0.36653800  0.06153663  0.91604815  1.0
  C  C68  1  0.29341786  0.17538813  0.80615855  1.0
  C  C69  1  0.34423629  0.23058644  0.74760909  1.0
  C  C70  1  0.30310327  0.32038308  0.70863712  1.0
  C  C71  1  0.20960899  0.35527596  0.72874356  1.0
  C  C72  1  0.15877942  0.30019545  0.78672402  1.0
  C  C73  1  0.19911680  0.20973552  0.82641013  1.0
  C  C74  1  0.13978472  0.15409403  0.88677051  1.0
  C  C75  1  0.35962810  0.37811958  0.64684236  1.0
  C  C76  1  0.72130216  0.05531780  0.76238291  1.0
  C  C77  1  0.81656055  0.03362336  0.74191032  1.0
  C  C78  1  0.88645867  0.95573337  0.72797950  1.0
  C  C79  1  0.96648368  0.96466401  0.71628232  1.0
  C  C80  1  0.94482399  0.04728708  0.72354308  1.0
  C  C81  1  0.80837177  0.17769515  0.74420949  1.0
  C  C82  1  0.75429270  0.23647947  0.69096950  1.0
  C  C83  1  0.70907997  0.32535067  0.68989910  1.0
  C  C84  1  0.72035487  0.35760682  0.74041005  1.0
  C  C85  1  0.77467482  0.29960659  0.79290704  1.0
  C  C86  1  0.81785554  0.20894641  0.79741024  1.0
  C  C87  1  0.86864581  0.15076380  0.86169146  1.0
  C  C88  1  0.64923169  0.38424923  0.63430675  1.0
  C  C89  1  0.44756226  0.75402336  0.05592032  1.0
  C  C90  1  0.38818932  0.72623436  0.04662828  1.0
  C  C91  1  0.39713302  0.70435366  0.97791513  1.0
  C  C92  1  0.31812625  0.68989095  0.99563010  1.0
  C  C93  1  0.26179204  0.70328956  0.07467968  1.0
  C  C94  1  0.26901860  0.73741826  0.18795408  1.0
  C  C95  1  0.32060389  0.68608335  0.24392667  1.0
  C  C96  1  0.28671729  0.69256879  0.32712242  1.0
  C  C97  1  0.19876541  0.74742855  0.35612143  1.0
  C  C98  1  0.14691988  0.79869401  0.30046515  1.0
  C  C99  1  0.18240092  0.79648996  0.21529093  1.0
  C  C100  1  0.12838036  0.86224905  0.15534427  1.0
  C  C101  1  0.34624244  0.64067196  0.38314162  1.0
  C  C102  1  0.76349547  0.72668968  0.04581304  1.0
  C  C103  1  0.72684802  0.82227145  0.02929743  1.0
  C  C104  1  0.69884077  0.89033310  0.96003056  1.0
  C  C105  1  0.67588091  0.97218237  0.97213343  1.0
  C  C106  1  0.69052476  0.95353134  0.04796261  1.0
  C  C107  1  0.73229374  0.81885938  0.16571672  1.0
  C  C108  1  0.68176505  0.76323144  0.22476818  1.0
  C  C109  1  0.68574010  0.72077476  0.30885693  1.0
  C  C110  1  0.73973626  0.73527515  0.33521586  1.0
  C  C111  1  0.78921433  0.79139508  0.27689563  1.0
  C  C112  1  0.78755190  0.83302640  0.19133257  1.0
  C  C113  1  0.84675377  0.88907025  0.13276416  1.0
  C  C114  1  0.63045012  0.66184054  0.36961613  1.0
  C  C115  1  0.04647622  0.73415426  0.77251222  1.0
  C  C116  1  0.04329319  0.71037823  0.86048322  1.0
  C  C117  1  0.98024929  0.68155969  0.93637164  1.0
  C  C118  1  0.00085188  0.67584770  0.00524338  1.0
  C  C119  1  0.07626538  0.70103720  0.97067544  1.0
  C  C120  1  0.18140173  0.74186677  0.82579578  1.0
  C  C121  1  0.23955385  0.69123452  0.76952011  1.0
  C  C122  1  0.31988775  0.70572216  0.71252292  1.0
  C  C123  1  0.34492577  0.76839414  0.71497437  1.0
  C  C124  1  0.28737176  0.81858373  0.77157377  1.0
  C  C125  1  0.20405269  0.80813033  0.82563199  1.0
  C  C126  1  0.14201046  0.87081846  0.87831761  1.0
  C  C127  1  0.37570127  0.65383525  0.64959132  1.0
  N  N128  1  0.75180608  0.08665791  0.32040451  1.0
  N  N129  1  0.34167539  0.08612247  0.84571675  1.0
  N  N130  1  0.85426957  0.08931304  0.73943748  1.0
  N  N131  1  0.30380454  0.72547566  0.10565262  1.0
  N  N132  1  0.72152349  0.86297304  0.08276511  1.0
  N  N133  1  0.10211792  0.72206784  0.88315627  1.0
  O  O134  1  0.99829756  0.01574375  0.00735990  1.0
  O  O135  1  0.95108059  0.93641615  0.38579707  1.0
  O  O136  1  0.90612034  0.07663683  0.17496436  1.0
  O  O137  1  0.87015188  0.19742989  0.06296439  1.0
  O  O138  1  0.62196499  0.45937034  0.33632138  1.0
  O  O139  1  0.60006342  0.33761152  0.44960763  1.0
  O  O140  1  0.38667473  0.95465465  0.71650248  1.0
  O  O141  1  0.17717452  0.06998781  0.90894402  1.0
  O  O142  1  0.05579904  0.19605029  0.91006109  1.0
  O  O143  1  0.31865469  0.46096022  0.61847178  1.0
  O  O144  1  0.44435923  0.33926313  0.62797814  1.0
  O  O145  1  0.68673899  0.00919408  0.76215935  1.0
  O  O146  1  0.87477313  0.06888393  0.89448884  1.0
  O  O147  1  0.89964951  0.19031020  0.87968853  1.0
  O  O148  1  0.62039778  0.46773627  0.62356282  1.0
  O  O149  1  0.63192890  0.34500212  0.60272620  1.0
  O  O150  1  0.52265102  0.75329819  0.00520213  1.0
  O  O151  1  0.16993205  0.90093307  0.08022227  1.0
  O  O152  1  0.04410175  0.87648366  0.18604361  1.0
  O  O153  1  0.31138888  0.63875284  0.46185745  1.0
  O  O154  1  0.42844127  0.60273103  0.34676303  1.0
  O  O155  1  0.76915595  0.68690822  0.00201352  1.0
  O  O156  1  0.88347660  0.89085175  0.05427207  1.0
  O  O157  1  0.85687507  0.92908210  0.16919860  1.0
  O  O158  1  0.63019151  0.62906862  0.44768636  1.0
  O  O159  1  0.58764410  0.64936630  0.33769252  1.0
  O  O160  1  0.99581004  0.72385176  0.75123914  1.0
  O  O161  1  0.05849090  0.89811048  0.88782074  1.0
  O  O162  1  0.17990141  0.89296848  0.90690616  1.0
  O  O163  1  0.45769990  0.64910372  0.61285801  1.0
  O  O164  1  0.33518240  0.61866499  0.63767171  1.0
  O  O165  1  0.49840048  0.51777585  0.50987063  1.0
