# generated using pymatgen
data_ZnH14C15(NO)4
_symmetry_space_group_name_H-M   'P 1'
_cell_length_a   9.68448660
_cell_length_b   11.07881852
_cell_length_c   17.24865970
_cell_angle_alpha   91.11089482
_cell_angle_beta   93.63886865
_cell_angle_gamma   91.08197649
_symmetry_Int_Tables_number   1
_chemical_formula_structural   ZnH14C15(NO)4
_chemical_formula_sum   'Zn2 H28 C30 N8 O8'
_cell_volume   1846.20129783
_cell_formula_units_Z   2
loop_
 _symmetry_equiv_pos_site_id
 _symmetry_equiv_pos_as_xyz
  1  'x, y, z'
loop_
 _atom_site_type_symbol
 _atom_site_label
 _atom_site_symmetry_multiplicity
 _atom_site_fract_x
 _atom_site_fract_y
 _atom_site_fract_z
 _atom_site_occupancy
  Zn  Zn0  1  0.35330985  0.49982389  0.49316023  1.0
  Zn  Zn1  1  0.64625210  0.50232028  0.50682798  1.0
  H  H2  1  0.32656984  0.57173078  0.90101937  1.0
  H  H3  1  0.67529770  0.41410224  0.10026092  1.0
  H  H4  1  0.26199470  0.54164772  0.11482140  1.0
  H  H5  1  0.73338157  0.43144824  0.88249519  1.0
  H  H6  1  0.29210180  0.53231625  0.26053846  1.0
  H  H7  1  0.70421603  0.45112423  0.73733938  1.0
  H  H8  1  0.71465335  0.11711646  0.47614536  1.0
  H  H9  1  0.28512358  0.88473353  0.52427246  1.0
  H  H10  1  0.70778708  0.89088474  0.46284440  1.0
  H  H11  1  0.29198211  0.11094424  0.53752475  1.0
  H  H12  1  0.15828915  0.66902672  0.53552925  1.0
  H  H13  1  0.84115757  0.33366993  0.46458123  1.0
  H  H14  1  0.22576959  0.65610505  0.79723330  1.0
  H  H15  1  0.12148948  0.45959701  0.76024289  1.0
  H  H16  1  0.19646365  0.47770200  0.66867771  1.0
  H  H17  1  0.06821764  0.57934643  0.69768788  1.0
  H  H18  1  0.77960377  0.33949673  0.20596649  1.0
  H  H19  1  0.87506591  0.54075895  0.23839578  1.0
  H  H20  1  0.93379655  0.42612302  0.30354236  1.0
  H  H21  1  0.80133494  0.52495186  0.33048161  1.0
  H  H22  1  0.78025585  0.71610561  0.54218501  1.0
  H  H23  1  0.89690753  0.88414334  0.59764211  1.0
  H  H24  1  0.01180033  0.85549237  0.52273808  1.0
  H  H25  1  0.04912527  0.80056248  0.61835293  1.0
  H  H26  1  0.21911249  0.28633781  0.45812942  1.0
  H  H27  1  0.10229926  0.11858898  0.40242925  1.0
  H  H28  1  0.95011960  0.20235563  0.38184258  1.0
  H  H29  1  0.98746443  0.14710773  0.47738297  1.0
  C  C30  1  0.50694595  0.26229312  0.51213484  1.0
  C  C31  1  0.49255864  0.73957634  0.48807709  1.0
  C  C32  1  0.61748756  0.93983312  0.47979138  1.0
  C  C33  1  0.38220868  0.06197930  0.52058848  1.0
  C  C34  1  0.49611443  0.87467819  0.49331160  1.0
  C  C35  1  0.50353542  0.12716090  0.50702546  1.0
  C  C36  1  0.94226631  0.60614926  0.52731885  1.0
  C  C37  1  0.05721933  0.39650465  0.47288846  1.0
  C  C38  1  0.08551670  0.59509272  0.52010510  1.0
  C  C39  1  0.91396142  0.40756189  0.48006132  1.0
  C  C40  1  0.50213351  0.47210102  0.34985835  1.0
  C  C41  1  0.49770261  0.52549104  0.65024355  1.0
  C  C42  1  0.49995480  0.47117242  0.26282593  1.0
  C  C43  1  0.49938032  0.51927995  0.73699839  1.0
  C  C44  1  0.61097641  0.43458162  0.21743069  1.0
  C  C45  1  0.38984100  0.55597324  0.78335132  1.0
  C  C46  1  0.59132637  0.43911080  0.13632065  1.0
  C  C47  1  0.40906192  0.54578252  0.86414740  1.0
  C  C48  1  0.46804297  0.47923401  0.09945128  1.0
  C  C49  1  0.53047559  0.49973935  0.89975794  1.0
  C  C50  1  0.35803343  0.51177829  0.14408705  1.0
  C  C51  1  0.63877310  0.46599003  0.85417280  1.0
  C  C52  1  0.37564547  0.50749472  0.22436850  1.0
  C  C53  1  0.62161470  0.47604337  0.77415297  1.0
  C  C54  1  0.62126952  0.06518397  0.48678547  1.0
  C  C55  1  0.37842923  0.93666733  0.51360593  1.0
  C  C56  1  0.15712568  0.52586054  0.71830673  1.0
  C  C57  1  0.84254522  0.47568723  0.28186055  1.0
  C  C58  1  0.96518075  0.81689034  0.57392979  1.0
  C  C59  1  0.03408716  0.18581919  0.42623141  1.0
  N  N60  1  0.44573459  0.49399625  0.01850691  1.0
  N  N61  1  0.55269487  0.48257518  0.98050203  1.0
  N  N62  1  0.14039705  0.49353083  0.49381427  1.0
  N  N63  1  0.85906180  0.50911362  0.50632167  1.0
  N  N64  1  0.26588508  0.60825955  0.75311418  1.0
  N  N65  1  0.73736707  0.38828677  0.24895372  1.0
  N  N66  1  0.88447922  0.70775104  0.55534790  1.0
  N  N67  1  0.11494053  0.29485309  0.44490601  1.0
  O  O68  1  0.39024121  0.31465617  0.51009427  1.0
  O  O69  1  0.60919824  0.68707318  0.49015464  1.0
  O  O70  1  0.62448040  0.31541164  0.51747509  1.0
  O  O71  1  0.37500442  0.68654108  0.48259312  1.0
  O  O72  1  0.38419593  0.47350843  0.37928532  1.0
  O  O73  1  0.61574521  0.52675263  0.62095600  1.0
  O  O74  1  0.61798104  0.47381203  0.38904052  1.0
  O  O75  1  0.38200729  0.52644661  0.61099748  1.0
