# generated using pymatgen
data_FeH6C10(NO2)4
_symmetry_space_group_name_H-M   'P 1'
_cell_length_a   6.96976977
_cell_length_b   11.13648558
_cell_length_c   11.56319547
_cell_angle_alpha   89.99988907
_cell_angle_beta   89.99963857
_cell_angle_gamma   100.63707980
_symmetry_Int_Tables_number   1
_chemical_formula_structural   FeH6C10(NO2)4
_chemical_formula_sum   'Fe2 H12 C20 N8 O16'
_cell_volume   882.09776042
_cell_formula_units_Z   2
loop_
 _symmetry_equiv_pos_site_id
 _symmetry_equiv_pos_as_xyz
  1  'x, y, z'
loop_
 _atom_site_type_symbol
 _atom_site_label
 _atom_site_symmetry_multiplicity
 _atom_site_fract_x
 _atom_site_fract_y
 _atom_site_fract_z
 _atom_site_occupancy
  Fe  Fe0  1  0.99999978  0.99999909  0.00000000  1.0
  Fe  Fe1  1  0.49999838  0.49999948  0.50000065  1.0
  H  H2  1  0.50209875  0.19420968  0.81356304  1.0
  H  H3  1  0.00209247  0.69420223  0.68644194  1.0
  H  H4  1  0.49790279  0.80579119  0.18643652  1.0
  H  H5  1  0.99790762  0.30579861  0.31355676  1.0
  H  H6  1  0.90962475  0.28467673  0.73285018  1.0
  H  H7  1  0.40962931  0.78467651  0.76715072  1.0
  H  H8  1  0.09037678  0.71532414  0.26715024  1.0
  H  H9  1  0.59037367  0.21532439  0.23284970  1.0
  H  H10  1  0.00796662  0.44458131  0.58110450  1.0
  H  H11  1  0.50796574  0.94458561  0.91889047  1.0
  H  H12  1  0.99203325  0.55541861  0.41889506  1.0
  H  H13  1  0.49203246  0.05541338  0.08110995  1.0
  C  C14  1  0.11079999  0.39748476  0.62369988  1.0
  C  C15  1  0.61080066  0.89748741  0.87629573  1.0
  C  C16  1  0.88919776  0.60251240  0.37629969  1.0
  C  C17  1  0.38919754  0.10251158  0.12370383  1.0
  C  C18  1  0.21677019  0.26966877  0.74427549  1.0
  C  C19  1  0.71676943  0.76966542  0.75572866  1.0
  C  C20  1  0.78322846  0.73033204  0.25572407  1.0
  C  C21  1  0.28323066  0.23033542  0.24427004  1.0
  C  C22  1  0.37120970  0.33123150  0.67814900  1.0
  C  C23  1  0.87121086  0.83123342  0.82185281  1.0
  C  C24  1  0.62879183  0.66876937  0.32185143  1.0
  C  C25  1  0.12878756  0.16876648  0.17814675  1.0
  C  C26  1  0.21460661  0.17722897  0.83357356  1.0
  C  C27  1  0.71460125  0.67722581  0.66642904  1.0
  C  C28  1  0.78539303  0.82277004  0.16642600  1.0
  C  C29  1  0.28540006  0.32277414  0.33357139  1.0
  C  C30  1  0.57953090  0.32641661  0.67096034  1.0
  C  C31  1  0.07953397  0.82641343  0.82904068  1.0
  C  C32  1  0.42046852  0.67358149  0.32903922  1.0
  C  C33  1  0.92046756  0.17358744  0.17095888  1.0
  N  N34  1  0.30224924  0.40992809  0.60351655  1.0
  N  N35  1  0.80225475  0.90992805  0.89648360  1.0
  N  N36  1  0.69775351  0.59007189  0.39648301  1.0
  N  N37  1  0.19774534  0.09007279  0.10351683  1.0
  N  N38  1  0.05503481  0.31346537  0.70743555  1.0
  N  N39  1  0.55503401  0.81346372  0.79256472  1.0
  N  N40  1  0.94496628  0.68653367  0.29256574  1.0
  N  N41  1  0.44496541  0.18653438  0.20743398  1.0
  O  O42  1  0.05433275  0.13084111  0.87955597  1.0
  O  O43  1  0.55433510  0.63084371  0.62045157  1.0
  O  O44  1  0.94566689  0.86915790  0.12044446  1.0
  O  O45  1  0.44566621  0.36915625  0.37954799  1.0
  O  O46  1  0.38125135  0.14630350  0.86231538  1.0
  O  O47  1  0.88124524  0.64629588  0.63769107  1.0
  O  O48  1  0.61875019  0.85369737  0.13768591  1.0
  O  O49  1  0.11875507  0.35370588  0.36230763  1.0
  O  O50  1  0.67493749  0.39166655  0.59217568  1.0
  O  O51  1  0.17493878  0.89167762  0.90782319  1.0
  O  O52  1  0.32506238  0.60833337  0.40782561  1.0
  O  O53  1  0.82506108  0.10832230  0.09217637  1.0
  O  O54  1  0.65481721  0.25933732  0.74213179  1.0
  O  O55  1  0.15481689  0.75933430  0.75786912  1.0
  O  O56  1  0.34518288  0.74066352  0.25786950  1.0
  O  O57  1  0.84518487  0.24066748  0.24212958  1.0
