# generated using pymatgen
data_CdH16C20N2(ClO)2
_symmetry_space_group_name_H-M   'P 1'
_cell_length_a   12.21317231
_cell_length_b   13.16265461
_cell_length_c   16.09853837
_cell_angle_alpha   84.94349306
_cell_angle_beta   67.71902799
_cell_angle_gamma   89.95905231
_symmetry_Int_Tables_number   1
_chemical_formula_structural   CdH16C20N2(ClO)2
_chemical_formula_sum   'Cd4 H64 C80 N8 Cl8 O8'
_cell_volume   2383.91490974
_cell_formula_units_Z   4
loop_
 _symmetry_equiv_pos_site_id
 _symmetry_equiv_pos_as_xyz
  1  'x, y, z'
loop_
 _atom_site_type_symbol
 _atom_site_label
 _atom_site_symmetry_multiplicity
 _atom_site_fract_x
 _atom_site_fract_y
 _atom_site_fract_z
 _atom_site_occupancy
  Cd  Cd0  1  0.58378268  0.05894866  0.38019908  1.0
  Cd  Cd1  1  0.96371285  0.44112161  0.61981248  1.0
  Cd  Cd2  1  0.41622151  0.94105044  0.61979835  1.0
  Cd  Cd3  1  0.03628781  0.55887895  0.38018214  1.0
  H  H4  1  0.70798793  0.11057877  0.16994206  1.0
  H  H5  1  0.87750957  0.38978448  0.83033648  1.0
  H  H6  1  0.29200836  0.88941977  0.83006274  1.0
  H  H7  1  0.12249821  0.61021749  0.16965403  1.0
  H  H8  1  0.35470215  0.03353653  0.31461435  1.0
  H  H9  1  0.66910638  0.46633759  0.68529402  1.0
  H  H10  1  0.64529683  0.96646487  0.68538318  1.0
  H  H11  1  0.33089146  0.53365922  0.31470364  1.0
  H  H12  1  0.67604661  0.14515863  0.02583251  1.0
  H  H13  1  0.70138206  0.35494153  0.97424592  1.0
  H  H14  1  0.32395334  0.85484216  0.97417100  1.0
  H  H15  1  0.29862960  0.64506372  0.02575247  1.0
  H  H16  1  0.30509795  0.06288814  0.17759242  1.0
  H  H17  1  0.48239089  0.43699999  0.82211787  1.0
  H  H18  1  0.69490355  0.93711021  0.82240525  1.0
  H  H19  1  0.51761006  0.56300378  0.17788259  1.0
  H  H20  1  0.36551033  0.12587960  0.01994381  1.0
  H  H21  1  0.38509539  0.37424919  0.98008910  1.0
  H  H22  1  0.63448851  0.87411805  0.98005658  1.0
  H  H23  1  0.61490903  0.62575305  0.01991108  1.0
  H  H24  1  0.63522083  0.13658591  0.91186653  1.0
  H  H25  1  0.54703878  0.36352022  0.08802856  1.0
  H  H26  1  0.36478264  0.86341697  0.08812891  1.0
  H  H27  1  0.45296115  0.63647982  0.91197502  1.0
  H  H28  1  0.70540853  0.18763305  0.75663911  1.0
  H  H29  1  0.46208620  0.31239287  0.24340639  1.0
  H  H30  1  0.29459408  0.81236915  0.24335975  1.0
  H  H31  1  0.53791772  0.68760017  0.75659290  1.0
  H  H32  1  0.32480925  0.14906400  0.89896098  1.0
  H  H33  1  0.22382687  0.35071097  0.10093471  1.0
  H  H34  1  0.67519052  0.85093514  0.10103776  1.0
  H  H35  1  0.77617559  0.64928820  0.89906509  1.0
  H  H36  1  0.67102051  0.25267893  0.62097655  1.0
  H  H37  1  0.29218564  0.24724277  0.37902024  1.0
  H  H38  1  0.32897398  0.74732100  0.37902307  1.0
  H  H39  1  0.70781645  0.75275021  0.62097711  1.0
  H  H40  1  0.30422423  0.21327713  0.75595345  1.0
  H  H41  1  0.06039065  0.28639385  0.24388488  1.0
  H  H42  1  0.69577473  0.78672281  0.24404670  1.0
  H  H43  1  0.93960894  0.71360220  0.75611295  1.0
  H  H44  1  0.38618650  0.25718506  0.60468364  1.0
  H  H45  1  0.99107932  0.24272480  0.39500662  1.0
  H  H46  1  0.61381146  0.74281403  0.39531315  1.0
  H  H47  1  0.00892031  0.75727130  0.60499305  1.0
  H  H48  1  0.54186704  0.27041576  0.54684463  1.0
  H  H49  1  0.08870067  0.22977631  0.45313672  1.0
  H  H50  1  0.45812840  0.72958494  0.45315525  1.0
  H  H51  1  0.91130741  0.77022818  0.54686217  1.0
  H  H52  1  0.65097387  0.43242636  0.53765644  1.0
  H  H53  1  0.18914452  0.06757319  0.46247514  1.0
  H  H54  1  0.34901728  0.56757740  0.46234320  1.0
  H  H55  1  0.81086048  0.93242153  0.53752989  1.0
  H  H56  1  0.27187302  0.40390077  0.68641235  1.0
  H  H57  1  0.95849050  0.09588949  0.31383296  1.0
  H  H58  1  0.72812683  0.59609847  0.31359008  1.0
  H  H59  1  0.04150509  0.90411000  0.68617880  1.0
  H  H60  1  0.64280096  0.61783032  0.54874644  1.0
  H  H61  1  0.19229894  0.88214193  0.45148858  1.0
  H  H62  1  0.35719274  0.38217187  0.45125196  1.0
  H  H63  1  0.80769988  0.11785499  0.54851312  1.0
  H  H64  1  0.26597606  0.58973045  0.69785272  1.0
  H  H65  1  0.96422026  0.91005558  0.30259162  1.0
  H  H66  1  0.73401842  0.41026804  0.30215014  1.0
  H  H67  1  0.03577264  0.08994388  0.69741908  1.0
  C  C68  1  0.62033644  0.10173831  0.16764804  1.0
  C  C69  1  0.78758304  0.39848192  0.83251546  1.0
  C  C70  1  0.37966075  0.89826093  0.83235456  1.0
  C  C71  1  0.21242123  0.60151869  0.16748119  1.0
  C  C72  1  0.42293955  0.05823634  0.24888478  1.0
  C  C73  1  0.67154244  0.44173958  0.75107278  1.0
  C  C74  1  0.57705943  0.94176435  0.75111467  1.0
  C  C75  1  0.32845751  0.55826262  0.24892625  1.0
  C  C76  1  0.60159860  0.11973796  0.08787480  1.0
  C  C77  1  0.68901599  0.38045152  0.91219117  1.0
  C  C78  1  0.39840128  0.88026203  0.91212693  1.0
  C  C79  1  0.31098833  0.61954916  0.08780794  1.0
  C  C80  1  0.39617199  0.07458328  0.17207525  1.0
  C  C81  1  0.56789313  0.42538889  0.82779092  1.0
  C  C82  1  0.60382871  0.92541590  0.82792507  1.0
  C  C83  1  0.43210785  0.57461563  0.17220884  1.0
  C  C84  1  0.48672819  0.10603844  0.08867442  1.0
  C  C85  1  0.57496901  0.39405669  0.91127262  1.0
  C  C86  1  0.51327246  0.89395925  0.91132729  1.0
  C  C87  1  0.42503709  0.60594399  0.08872659  1.0
  C  C88  1  0.45976961  0.12439760  0.00808655  1.0
  C  C89  1  0.46754088  0.37569717  0.99189877  1.0
  C  C90  1  0.54023390  0.87560461  0.99191267  1.0
  C  C91  1  0.53246242  0.62430263  0.00809638  1.0
  C  C92  1  0.54133366  0.13992954  0.92302645  1.0
  C  C93  1  0.46426966  0.36020285  0.07691370  1.0
  C  C94  1  0.45866481  0.86007590  0.07697895  1.0
  C  C95  1  0.53573389  0.63979869  0.92308929  1.0
  C  C96  1  0.51803279  0.16666933  0.84203508  1.0
  C  C97  1  0.36010513  0.33327869  0.15793488  1.0
  C  C98  1  0.48196892  0.83333215  0.15796536  1.0
  C  C99  1  0.63989901  0.66666667  0.84206139  1.0
  C  C100  1  0.61470211  0.19245579  0.76035625  1.0
  C  C101  1  0.37515232  0.30744512  0.23961722  1.0
  C  C102  1  0.38529777  0.80754562  0.23964163  1.0
  C  C103  1  0.62485266  0.69255170  0.76038080  1.0
  C  C104  1  0.40399977  0.17261283  0.84000937  1.0
  C  C105  1  0.24409559  0.32718016  0.15990256  1.0
  C  C106  1  0.59600274  0.82738781  0.15998842  1.0
  C  C107  1  0.75590838  0.67281438  0.84009596  1.0
  C  C108  1  0.59680500  0.22851450  0.68360839  1.0
  C  C109  1  0.28059182  0.27136893  0.31636831  1.0
  C  C110  1  0.40319250  0.77148942  0.31639743  1.0
  C  C111  1  0.71941034  0.72862557  0.68362889  1.0
  C  C112  1  0.39006404  0.20851473  0.76151385  1.0
  C  C113  1  0.15174496  0.29123053  0.23838269  1.0
  C  C114  1  0.60993763  0.79148596  0.23848604  1.0
  C  C115  1  0.84825727  0.70876477  0.76161566  1.0
  C  C116  1  0.46748220  0.29053225  0.60639185  1.0
  C  C117  1  0.07406462  0.20944358  0.39356696  1.0
  C  C118  1  0.53251333  0.70947000  0.39360849  1.0
  C  C119  1  0.92593527  0.79055570  0.60643732  1.0
  C  C120  1  0.46236491  0.40428137  0.61353760  1.0
  C  C121  1  0.07627132  0.09564432  0.38662170  1.0
  C  C122  1  0.53763055  0.59572079  0.38645967  1.0
  C  C123  1  0.92372614  0.90435670  0.61338998  1.0
  C  C124  1  0.56633216  0.46549632  0.57501503  1.0
  C  C125  1  0.14183680  0.03445687  0.42518319  1.0
  C  C126  1  0.43366161  0.53450666  0.42498453  1.0
  C  C127  1  0.85816478  0.96554017  0.57482265  1.0
  C  C128  1  0.35459768  0.44961288  0.65895710  1.0
  C  C129  1  0.01387471  0.05023267  0.34130154  1.0
  C  C130  1  0.64540069  0.55039171  0.34104529  1.0
  C  C131  1  0.98612175  0.94976607  0.65871065  1.0
  C  C132  1  0.56211723  0.57048592  0.58101334  1.0
  C  C133  1  0.14368184  0.92942832  0.41928807  1.0
  C  C134  1  0.43787560  0.42951559  0.41898787  1.0
  C  C135  1  0.85631451  0.07057028  0.58071919  1.0
  C  C136  1  0.35062299  0.55461533  0.66551603  1.0
  C  C137  1  0.01654485  0.94522114  0.33486073  1.0
  C  C138  1  0.64937348  0.44538769  0.33448458  1.0
  C  C139  1  0.98344987  0.05477908  0.66514936  1.0
  C  C140  1  0.45459085  0.61604161  0.62629519  1.0
  C  C141  1  0.08139858  0.88382672  0.37410283  1.0
  C  C142  1  0.54540646  0.38395992  0.37370717  1.0
  C  C143  1  0.91859863  0.11617184  0.62590293  1.0
  C  C144  1  0.45061038  0.73045249  0.62751345  1.0
  C  C145  1  0.07873992  0.76940034  0.37290346  1.0
  C  C146  1  0.54938780  0.26955044  0.37248418  1.0
  C  C147  1  0.92125451  0.23059737  0.62709886  1.0
  N  N148  1  0.53250631  0.07173835  0.24694289  1.0
  N  N149  1  0.77913531  0.42832245  0.75313875  1.0
  N  N150  1  0.46749263  0.92826014  0.75305988  1.0
  N  N151  1  0.22086439  0.57167587  0.24685822  1.0
  N  N152  1  0.48541626  0.23865163  0.68591853  1.0
  N  N153  1  0.17153583  0.26120409  0.31402379  1.0
  N  N154  1  0.51458314  0.76135671  0.31408074  1.0
  N  N155  1  0.82846461  0.73879048  0.68597578  1.0
  Cl  Cl156  1  0.75644917  0.95838864  0.28928572  1.0
  Cl  Cl157  1  0.04519590  0.54144747  0.71096632  1.0
  Cl  Cl158  1  0.24355420  0.04161124  0.71071250  1.0
  Cl  Cl159  1  0.95480477  0.45855237  0.28903022  1.0
  Cl  Cl160  1  0.60140107  0.06391153  0.53693654  1.0
  Cl  Cl161  1  0.13855470  0.43604184  0.46314746  1.0
  Cl  Cl162  1  0.39860145  0.93608912  0.46306187  1.0
  Cl  Cl163  1  0.86144226  0.56395498  0.53685046  1.0
  O  O164  1  0.54693244  0.78332856  0.58947056  1.0
  O  O165  1  0.13751681  0.71647067  0.41054397  1.0
  O  O166  1  0.45306484  0.21667294  0.41053057  1.0
  O  O167  1  0.86248464  0.28352763  0.58945186  1.0
  O  O168  1  0.34972795  0.76948312  0.66534225  1.0
  O  O169  1  0.01522599  0.73044311  0.33543667  1.0
  O  O170  1  0.65027109  0.23051835  0.33465774  1.0
  O  O171  1  0.98476770  0.26955837  0.66456367  1.0
