# generated using pymatgen
data_ZnH11C27NO14
_symmetry_space_group_name_H-M   'P 1'
_cell_length_a   13.91977355
_cell_length_b   15.11112944
_cell_length_c   15.96349326
_cell_angle_alpha   89.50885568
_cell_angle_beta   89.96738947
_cell_angle_gamma   89.01113893
_symmetry_Int_Tables_number   1
_chemical_formula_structural   ZnH11C27NO14
_chemical_formula_sum   'Zn2 H22 C54 N2 O28'
_cell_volume   3357.19331429
_cell_formula_units_Z   2
loop_
 _symmetry_equiv_pos_site_id
 _symmetry_equiv_pos_as_xyz
  1  'x, y, z'
loop_
 _atom_site_type_symbol
 _atom_site_label
 _atom_site_symmetry_multiplicity
 _atom_site_fract_x
 _atom_site_fract_y
 _atom_site_fract_z
 _atom_site_occupancy
  Zn  Zn0  1  0.59969574  0.50486789  0.50732479  1.0
  Zn  Zn1  1  0.39365204  0.49645330  0.49115853  1.0
  H  H2  1  0.92179337  0.71123450  0.58966785  1.0
  H  H3  1  0.25097159  0.61779847  0.53111374  1.0
  H  H4  1  0.48506686  0.74903575  0.15325685  1.0
  H  H5  1  0.52975112  0.24798357  0.84359256  1.0
  H  H6  1  0.17201887  0.69572710  0.60135892  1.0
  H  H7  1  0.82102718  0.30751853  0.39316684  1.0
  H  H8  1  0.20161435  0.57068125  0.90772313  1.0
  H  H9  1  0.80319472  0.43475357  0.08943589  1.0
  H  H10  1  0.11564116  0.12088925  0.56305707  1.0
  H  H11  1  0.89080892  0.88244858  0.44160484  1.0
  H  H12  1  0.15079845  0.84021869  0.56619553  1.0
  H  H13  1  0.07149538  0.29290366  0.40484049  1.0
  H  H14  1  0.85008019  0.16209521  0.43220247  1.0
  H  H15  1  0.77551736  0.70698379  0.56273510  1.0
  H  H16  1  0.21816009  0.29551361  0.43710240  1.0
  H  H17  1  0.61390847  0.60075525  0.93772934  1.0
  H  H18  1  0.38873348  0.39467145  0.06140898  1.0
  H  H19  1  0.66980454  0.21411284  0.51661617  1.0
  H  H20  1  0.33509488  0.78658384  0.49042039  1.0
  H  H21  1  0.36462044  0.23581420  0.51448323  1.0
  H  H22  1  0.64007537  0.76481873  0.48381022  1.0
  H  H23  1  0.74213700  0.38717810  0.46151309  1.0
  C  C24  1  0.48248207  0.67005806  0.47975167  1.0
  C  C25  1  0.49974160  0.95351883  0.49987378  1.0
  C  C26  1  0.59719936  0.08837154  0.50496342  1.0
  C  C27  1  0.40770167  0.91235785  0.49939815  1.0
  C  C28  1  0.32722830  0.05779288  0.50713640  1.0
  C  C29  1  0.67777325  0.94303933  0.49568356  1.0
  C  C30  1  0.32194242  0.96687053  0.50518836  1.0
  C  C31  1  0.68290733  0.03402106  0.49826126  1.0
  C  C32  1  0.79102720  0.43995433  0.47796615  1.0
  C  C33  1  0.20209821  0.56476214  0.51522505  1.0
  C  C34  1  0.79750788  0.58243618  0.53378266  1.0
  C  C35  1  0.52114965  0.33102403  0.52084766  1.0
  C  C36  1  0.19561163  0.42125362  0.46179359  1.0
  C  C37  1  0.89962183  0.58226903  0.53048609  1.0
  C  C38  1  0.09347124  0.42211896  0.46346744  1.0
  C  C39  1  0.51614916  0.47947556  0.33979451  1.0
  C  C40  1  0.47163760  0.51881803  0.65900789  1.0
  C  C41  1  0.94568910  0.50516989  0.49792626  1.0
  C  C42  1  0.04734938  0.49958761  0.49519258  1.0
  C  C43  1  0.89035673  0.43288152  0.46942618  1.0
  C  C44  1  0.10272044  0.57187461  0.52354744  1.0
  C  C45  1  0.95571696  0.65317366  0.56151249  1.0
  C  C46  1  0.51741203  0.23185441  0.51710661  1.0
  C  C47  1  0.03746643  0.35120843  0.43250144  1.0
  C  C48  1  0.05401532  0.64757165  0.55871763  1.0
  C  C49  1  0.93911213  0.35697227  0.43463993  1.0
  C  C50  1  0.56324724  0.55436598  0.96517000  1.0
  C  C51  1  0.43921821  0.44095248  0.03359030  1.0
  C  C52  1  0.48813691  0.57877242  0.03467215  1.0
  C  C53  1  0.51411274  0.41647986  0.96409834  1.0
  C  C54  1  0.52388271  0.47932641  0.24952254  1.0
  C  C55  1  0.47081313  0.51713860  0.74950419  1.0
  C  C56  1  0.59256607  0.46757796  0.01432221  1.0
  C  C57  1  0.48734003  0.76896567  0.48560995  1.0
  C  C58  1  0.40980583  0.52764988  0.98446432  1.0
  C  C59  1  0.51697464  0.49148925  0.08550497  1.0
  C  C60  1  0.48545308  0.50398589  0.91323361  1.0
  C  C61  1  0.52572364  0.48438505  0.17345683  1.0
  C  C62  1  0.47449351  0.51117892  0.82544841  1.0
  C  C63  1  0.60131381  0.18062836  0.51341145  1.0
  C  C64  1  0.40357392  0.82015144  0.49163406  1.0
  C  C65  1  0.47249612  0.67191561  0.06183694  1.0
  C  C66  1  0.53049873  0.32333997  0.93705587  1.0
  C  C67  1  0.30821166  0.55942794  0.97997107  1.0
  C  C68  1  0.42763276  0.19239712  0.51331110  1.0
  C  C69  1  0.69414885  0.43605972  0.01935679  1.0
  C  C70  1  0.23693044  0.11300966  0.50879762  1.0
  C  C71  1  0.76816674  0.88819052  0.49369047  1.0
  C  C72  1  0.22557449  0.92303842  0.50401275  1.0
  C  C73  1  0.77869407  0.07908191  0.49775019  1.0
  C  C74  1  0.57727195  0.80824561  0.48792156  1.0
  C  C75  1  0.41934087  0.10053130  0.50735034  1.0
  C  C76  1  0.58570454  0.90004515  0.49574589  1.0
  C  C77  1  0.50530291  0.04704139  0.50415212  1.0
  N  N78  1  0.74708722  0.51224177  0.50917017  1.0
  N  N79  1  0.24607839  0.49174890  0.48549850  1.0
  O  O80  1  0.56165154  0.62939971  0.46746069  1.0
  O  O81  1  0.49779603  0.68608751  0.14249029  1.0
  O  O82  1  0.55285565  0.26451391  0.98660730  1.0
  O  O83  1  0.51661014  0.31093524  0.85404414  1.0
  O  O84  1  0.10606945  0.71589395  0.59086134  1.0
  O  O85  1  0.88748258  0.28832398  0.40273672  1.0
  O  O86  1  0.26498100  0.58909797  0.04038333  1.0
  O  O87  1  0.26835424  0.54933083  0.90312038  1.0
  O  O88  1  0.73568830  0.39893626  0.96178200  1.0
  O  O89  1  0.73639742  0.45607588  0.09338579  1.0
  O  O90  1  0.21867894  0.17597527  0.46192783  1.0
  O  O91  1  0.44063157  0.37070051  0.51259197  1.0
  O  O92  1  0.17543871  0.08604920  0.56899101  1.0
  O  O93  1  0.78602702  0.82393498  0.53917920  1.0
  O  O94  1  0.83092459  0.91711440  0.43542857  1.0
  O  O95  1  0.16623057  0.93313136  0.44829712  1.0
  O  O96  1  0.21290637  0.87024084  0.57184284  1.0
  O  O97  1  0.83863599  0.07203195  0.55328970  1.0
  O  O98  1  0.78917426  0.12986144  0.42826620  1.0
  O  O99  1  0.74374167  0.64911053  0.56369616  1.0
  O  O100  1  0.24959828  0.35341912  0.43449843  1.0
  O  O101  1  0.40066050  0.63496209  0.48889157  1.0
  O  O102  1  0.60228657  0.36691155  0.53020326  1.0
  O  O103  1  0.59298191  0.46736459  0.38183734  1.0
  O  O104  1  0.39180523  0.51097040  0.62156991  1.0
  O  O105  1  0.43164284  0.49288220  0.36820639  1.0
  O  O106  1  0.55441217  0.52739437  0.62573418  1.0
  O  O107  1  0.44202511  0.72948009  0.01419273  1.0
