# generated using pymatgen
data_MnH3C5N2ClO2
_symmetry_space_group_name_H-M   'P 1'
_cell_length_a   6.83528544
_cell_length_b   15.28924378
_cell_length_c   15.28972488
_cell_angle_alpha   60.00089054
_cell_angle_beta   90.00008562
_cell_angle_gamma   89.99932087
_symmetry_Int_Tables_number   1
_chemical_formula_structural   MnH3C5N2ClO2
_chemical_formula_sum   'Mn6 H18 C30 N12 Cl6 O12'
_cell_volume   1383.81126072
_cell_formula_units_Z   6
loop_
 _symmetry_equiv_pos_site_id
 _symmetry_equiv_pos_as_xyz
  1  'x, y, z'
loop_
 _atom_site_type_symbol
 _atom_site_label
 _atom_site_symmetry_multiplicity
 _atom_site_fract_x
 _atom_site_fract_y
 _atom_site_fract_z
 _atom_site_occupancy
  Mn  Mn0  1  0.49999569  0.62145586  0.37854076  1.0
  Mn  Mn1  1  0.50000701  0.37853084  0.00000009  1.0
  Mn  Mn2  1  0.49998662  0.99999117  0.62146653  1.0
  Mn  Mn3  1  0.49999762  0.37853288  0.62147007  1.0
  Mn  Mn4  1  0.49999800  0.62147260  0.00000058  1.0
  Mn  Mn5  1  0.50000083  0.00000798  0.37852332  1.0
  H  H6  1  0.12400702  0.49197226  0.25401128  1.0
  H  H7  1  0.12398670  0.25401445  0.25401216  1.0
  H  H8  1  0.12399147  0.25401729  0.49196655  1.0
  H  H9  1  0.87601831  0.74598696  0.74597996  1.0
  H  H10  1  0.87599945  0.50803613  0.74598519  1.0
  H  H11  1  0.87600475  0.74598642  0.50803309  1.0
  H  H12  1  0.94708133  0.53112082  0.37579980  1.0
  H  H13  1  0.94708143  0.37579503  0.09306861  1.0
  H  H14  1  0.94707557  0.09306957  0.53112723  1.0
  H  H15  1  0.05292969  0.90692924  0.62420130  1.0
  H  H16  1  0.05291097  0.46886714  0.90693173  1.0
  H  H17  1  0.05292287  0.62420424  0.46886740  1.0
  H  H18  1  0.05291929  0.46886727  0.62421169  1.0
  H  H19  1  0.05291626  0.62420593  0.90692699  1.0
  H  H20  1  0.05292359  0.90693157  0.46886592  1.0
  H  H21  1  0.94707678  0.09307180  0.37579044  1.0
  H  H22  1  0.94708380  0.53113784  0.09307570  1.0
  H  H23  1  0.94706604  0.37578987  0.53114486  1.0
  C  C24  1  0.41324658  0.65092961  0.17453927  1.0
  C  C25  1  0.41324107  0.17454944  0.17451467  1.0
  C  C26  1  0.41324330  0.17452582  0.65093306  1.0
  C  C27  1  0.58676540  0.82547696  0.82545926  1.0
  C  C28  1  0.58675550  0.34907120  0.82546403  1.0
  C  C29  1  0.58675000  0.82545014  0.34907545  1.0
  C  C30  1  0.61699292  0.60460187  0.19770083  1.0
  C  C31  1  0.61697626  0.19769243  0.19769407  1.0
  C  C32  1  0.61698423  0.19769460  0.60460863  1.0
  C  C33  1  0.38301704  0.80230526  0.80230479  1.0
  C  C34  1  0.38301355  0.39539228  0.80230233  1.0
  C  C35  1  0.38302077  0.80230443  0.39539418  1.0
  C  C36  1  0.97715018  0.52352480  0.23823991  1.0
  C  C37  1  0.97717290  0.23823678  0.23823806  1.0
  C  C38  1  0.97714849  0.23823855  0.52352244  1.0
  C  C39  1  0.02284673  0.76176467  0.76175931  1.0
  C  C40  1  0.02283581  0.47648052  0.76176265  1.0
  C  C41  1  0.02284774  0.76176348  0.47647812  1.0
  C  C42  1  0.88029523  0.54529831  0.30512540  1.0
  C  C43  1  0.88026153  0.30511358  0.14957092  1.0
  C  C44  1  0.88027443  0.14957884  0.54530338  1.0
  C  C45  1  0.11973389  0.85042985  0.69488169  1.0
  C  C46  1  0.11972466  0.45469468  0.85041966  1.0
  C  C47  1  0.11972821  0.69488120  0.45469366  1.0
  C  C48  1  0.11972879  0.45469212  0.69488450  1.0
  C  C49  1  0.11972885  0.69489049  0.85042383  1.0
  C  C50  1  0.11972912  0.85042607  0.45469355  1.0
  C  C51  1  0.88026087  0.14956857  0.30511267  1.0
  C  C52  1  0.88029644  0.54530724  0.14957951  1.0
  C  C53  1  0.88027387  0.30511769  0.54531684  1.0
  N  N54  1  0.69962336  0.58546096  0.28489793  1.0
  N  N55  1  0.69965042  0.28489652  0.12964181  1.0
  N  N56  1  0.69963562  0.12963383  0.58546250  1.0
  N  N57  1  0.30037133  0.87036205  0.71510018  1.0
  N  N58  1  0.30035702  0.41454714  0.87035485  1.0
  N  N59  1  0.30036994  0.71509515  0.41454580  1.0
  N  N60  1  0.30036409  0.41453952  0.71509588  1.0
  N  N61  1  0.30036336  0.71510440  0.87036288  1.0
  N  N62  1  0.30036938  0.87036485  0.41454520  1.0
  N  N63  1  0.69964245  0.12963258  0.28490476  1.0
  N  N64  1  0.69961872  0.58545826  0.12964385  1.0
  N  N65  1  0.69961751  0.28490016  0.58546375  1.0
  Cl  Cl66  1  0.70472865  0.53665626  0.53665746  1.0
  Cl  Cl67  1  0.70473805  0.53666496  0.92668403  1.0
  Cl  Cl68  1  0.70473236  0.92668669  0.53665462  1.0
  Cl  Cl69  1  0.29525656  0.07332396  0.46332448  1.0
  Cl  Cl70  1  0.29527134  0.46334018  0.07332097  1.0
  Cl  Cl71  1  0.29526466  0.46334078  0.46334206  1.0
  O  O72  1  0.33708580  0.66723644  0.24046209  1.0
  O  O73  1  0.33707940  0.24045888  0.09230605  1.0
  O  O74  1  0.33707933  0.09230140  0.66723417  1.0
  O  O75  1  0.66290735  0.90769070  0.75954176  1.0
  O  O76  1  0.66292823  0.33276910  0.90768813  1.0
  O  O77  1  0.66292175  0.75953526  0.33276567  1.0
  O  O78  1  0.66291775  0.33276737  0.75953896  1.0
  O  O79  1  0.66292268  0.75955047  0.90769399  1.0
  O  O80  1  0.66293300  0.90769498  0.33276600  1.0
  O  O81  1  0.33706400  0.09230360  0.24045369  1.0
  O  O82  1  0.33708995  0.66723630  0.09231057  1.0
  O  O83  1  0.33708179  0.24045648  0.66724292  1.0
