# generated using pymatgen
data_Dy2Zn3H36(C2O3)12
_symmetry_space_group_name_H-M   'P 1'
_cell_length_a   14.55743480
_cell_length_b   14.55757980
_cell_length_c   16.04338261
_cell_angle_alpha   90.00005761
_cell_angle_beta   89.99998239
_cell_angle_gamma   119.99971963
_symmetry_Int_Tables_number   1
_chemical_formula_structural   Dy2Zn3H36(C2O3)12
_chemical_formula_sum   'Dy4 Zn6 H72 C48 O72'
_cell_volume   2944.43405797
_cell_formula_units_Z   2
loop_
 _symmetry_equiv_pos_site_id
 _symmetry_equiv_pos_as_xyz
  1  'x, y, z'
loop_
 _atom_site_type_symbol
 _atom_site_label
 _atom_site_symmetry_multiplicity
 _atom_site_fract_x
 _atom_site_fract_y
 _atom_site_fract_z
 _atom_site_occupancy
  Dy  Dy0  1  0.66666667  0.33333333  0.74999993  1.0
  Dy  Dy1  1  0.33333333  0.66666667  0.74999967  1.0
  Dy  Dy2  1  0.33333333  0.66666667  0.25000037  1.0
  Dy  Dy3  1  0.66666667  0.33333333  0.25000001  1.0
  Zn  Zn4  1  0.50000002  0.00000023  0.50000015  1.0
  Zn  Zn5  1  0.50000055  0.49999973  0.49999976  1.0
  Zn  Zn6  1  0.99999948  0.49999998  0.49999969  1.0
  Zn  Zn7  1  0.49999926  0.99999992  0.00000023  1.0
  Zn  Zn8  1  0.99999981  0.50000046  0.00000039  1.0
  Zn  Zn9  1  0.49999985  0.50000025  0.99999984  1.0
  H  H10  1  0.35808213  0.81665755  0.44999068  1.0
  H  H11  1  0.45857505  0.64191798  0.44999059  1.0
  H  H12  1  0.18334111  0.54142505  0.44998996  1.0
  H  H13  1  0.64191819  0.18334206  0.44999143  1.0
  H  H14  1  0.54142459  0.35808164  0.44999091  1.0
  H  H15  1  0.81665824  0.45857536  0.44999029  1.0
  H  H16  1  0.54142415  0.18334256  0.05000909  1.0
  H  H17  1  0.81665755  0.35808231  0.05000913  1.0
  H  H18  1  0.64191581  0.45857502  0.05001045  1.0
  H  H19  1  0.45857547  0.81665813  0.05000893  1.0
  H  H20  1  0.18334276  0.64191838  0.05000952  1.0
  H  H21  1  0.35808371  0.54142410  0.05000882  1.0
  H  H22  1  0.64191683  0.18334213  0.55000900  1.0
  H  H23  1  0.54142568  0.35808249  0.55000909  1.0
  H  H24  1  0.81665865  0.45857621  0.55000910  1.0
  H  H25  1  0.35808185  0.81665840  0.55000824  1.0
  H  H26  1  0.45857535  0.64191724  0.55000877  1.0
  H  H27  1  0.18334072  0.54142432  0.55000939  1.0
  H  H28  1  0.45857520  0.81665790  0.94999121  1.0
  H  H29  1  0.18334318  0.64191815  0.94999117  1.0
  H  H30  1  0.35808384  0.54142466  0.94998985  1.0
  H  H31  1  0.54142389  0.18334233  0.94999074  1.0
  H  H32  1  0.81665768  0.35808288  0.94999079  1.0
  H  H33  1  0.64191742  0.45857717  0.94999148  1.0
  H  H34  1  0.35966779  0.17054706  0.65484478  1.0
  H  H35  1  0.81087890  0.64033089  0.65484430  1.0
  H  H36  1  0.82945196  0.18912070  0.65484534  1.0
  H  H37  1  0.64033121  0.82945280  0.65484520  1.0
  H  H38  1  0.18912148  0.35966898  0.65484443  1.0
  H  H39  1  0.17054774  0.81087917  0.65484526  1.0
  H  H40  1  0.18912114  0.82945270  0.84515426  1.0
  H  H41  1  0.17054886  0.35966908  0.84515530  1.0
  H  H42  1  0.64033239  0.81088190  0.84515606  1.0
  H  H43  1  0.81087684  0.17054661  0.84515433  1.0
  H  H44  1  0.82945226  0.64033102  0.84515517  1.0
  H  H45  1  0.35966924  0.18912059  0.84515440  1.0
  H  H46  1  0.64033225  0.82945340  0.34515490  1.0
  H  H47  1  0.18912144  0.35966879  0.34515600  1.0
  H  H48  1  0.17054957  0.81088136  0.34515558  1.0
  H  H49  1  0.35966843  0.17054686  0.34515510  1.0
  H  H50  1  0.81087885  0.64033069  0.34515525  1.0
  H  H51  1  0.82945043  0.18911892  0.34515566  1.0
  H  H52  1  0.81087851  0.17054697  0.15484479  1.0
  H  H53  1  0.82945187  0.64033138  0.15484438  1.0
  H  H54  1  0.35966766  0.18911857  0.15484362  1.0
  H  H55  1  0.18912213  0.82945307  0.15484535  1.0
  H  H56  1  0.17054808  0.35966866  0.15484514  1.0
  H  H57  1  0.64033297  0.81088146  0.15484403  1.0
  H  H58  1  0.35736729  0.07832494  0.73010131  1.0
  H  H59  1  0.72096001  0.64263512  0.73010089  1.0
  H  H60  1  0.92167326  0.27904111  0.73010132  1.0
  H  H61  1  0.64263243  0.92167502  0.73010120  1.0
  H  H62  1  0.27904079  0.35736564  0.73010099  1.0
  H  H63  1  0.07832508  0.72095885  0.73009994  1.0
  H  H64  1  0.27904150  0.92167487  0.76989772  1.0
  H  H65  1  0.07832583  0.35736635  0.76989998  1.0
  H  H66  1  0.64263315  0.72095995  0.76990069  1.0
  H  H67  1  0.72095783  0.07832435  0.76989835  1.0
  H  H68  1  0.92167458  0.64263365  0.76989920  1.0
  H  H69  1  0.35736629  0.27904086  0.76989974  1.0
  H  H70  1  0.64263413  0.92167553  0.26989899  1.0
  H  H71  1  0.27904033  0.35736456  0.26989879  1.0
  H  H72  1  0.07832679  0.72095936  0.26990147  1.0
  H  H73  1  0.35736585  0.07832465  0.26989848  1.0
  H  H74  1  0.72095955  0.64263404  0.26989931  1.0
  H  H75  1  0.92167280  0.27904004  0.26990037  1.0
  H  H76  1  0.72095746  0.07832480  0.23010071  1.0
  H  H77  1  0.92167421  0.64263411  0.23010094  1.0
  H  H78  1  0.35736650  0.27903973  0.23009836  1.0
  H  H79  1  0.27904251  0.92167533  0.23010195  1.0
  H  H80  1  0.07832576  0.35736602  0.23010110  1.0
  H  H81  1  0.64263415  0.72096040  0.23009869  1.0
  C  C82  1  0.48290406  0.13243102  0.63958487  1.0
  C  C83  1  0.64952472  0.51709320  0.63958627  1.0
  C  C84  1  0.86756609  0.35048472  0.63958242  1.0
  C  C85  1  0.51709209  0.86756725  0.63958661  1.0
  C  C86  1  0.35047714  0.48290824  0.63958646  1.0
  C  C87  1  0.13243497  0.64951513  0.63958220  1.0
  C  C88  1  0.35047452  0.86756809  0.86041351  1.0
  C  C89  1  0.13243500  0.48291461  0.86041585  1.0
  C  C90  1  0.51708550  0.64951864  0.86041962  1.0
  C  C91  1  0.64952288  0.13243283  0.86041421  1.0
  C  C92  1  0.86756702  0.51708869  0.86041498  1.0
  C  C93  1  0.48291898  0.35048545  0.86041807  1.0
  C  C94  1  0.51709274  0.86756707  0.36041356  1.0
  C  C95  1  0.35047562  0.48290648  0.36041404  1.0
  C  C96  1  0.13243493  0.64951496  0.36042038  1.0
  C  C97  1  0.48290727  0.13243322  0.36041244  1.0
  C  C98  1  0.64952013  0.51708668  0.36041571  1.0
  C  C99  1  0.86756565  0.35048374  0.36041935  1.0
  C  C100  1  0.64952502  0.13242999  0.13958493  1.0
  C  C101  1  0.86756732  0.51708903  0.13958569  1.0
  C  C102  1  0.48291592  0.35048183  0.13958131  1.0
  C  C103  1  0.35047511  0.86756765  0.13958672  1.0
  C  C104  1  0.13243371  0.48291178  0.13958532  1.0
  C  C105  1  0.51708186  0.64951660  0.13958161  1.0
  C  C106  1  0.40943163  0.15111150  0.69468611  1.0
  C  C107  1  0.74168054  0.59057071  0.69468751  1.0
  C  C108  1  0.84888827  0.25831731  0.69468984  1.0
  C  C109  1  0.59056807  0.84888841  0.69468657  1.0
  C  C110  1  0.25831985  0.40942920  0.69468766  1.0
  C  C111  1  0.15111104  0.74168182  0.69468970  1.0
  C  C112  1  0.25831922  0.84888832  0.80531291  1.0
  C  C113  1  0.15111208  0.40942922  0.80531148  1.0
  C  C114  1  0.59057086  0.74168291  0.80531157  1.0
  C  C115  1  0.74168012  0.15111095  0.80531298  1.0
  C  C116  1  0.84888863  0.59057004  0.80531130  1.0
  C  C117  1  0.40942967  0.25831874  0.80531058  1.0
  C  C118  1  0.59056870  0.84888817  0.30531357  1.0
  C  C119  1  0.25832020  0.40942976  0.30531279  1.0
  C  C120  1  0.15111247  0.74168317  0.30531109  1.0
  C  C121  1  0.40943089  0.15111126  0.30531373  1.0
  C  C122  1  0.74168156  0.59057126  0.30531139  1.0
  C  C123  1  0.84888752  0.25831706  0.30531123  1.0
  C  C124  1  0.74167945  0.15111215  0.19468614  1.0
  C  C125  1  0.84888894  0.59057045  0.19468820  1.0
  C  C126  1  0.40942988  0.25831757  0.19468811  1.0
  C  C127  1  0.25832022  0.84888873  0.19468670  1.0
  C  C128  1  0.15111102  0.40942964  0.19468900  1.0
  C  C129  1  0.59057146  0.74168253  0.19468847  1.0
  O  O130  1  0.58285448  0.19695494  0.64649926  1.0
  O  O131  1  0.61410101  0.41715008  0.64649936  1.0
  O  O132  1  0.80305316  0.38589440  0.64649745  1.0
  O  O133  1  0.41714698  0.80304571  0.64649973  1.0
  O  O134  1  0.38590200  0.58284818  0.64650150  1.0
  O  O135  1  0.19694624  0.61410625  0.64649718  1.0
  O  O136  1  0.38589837  0.80304583  0.85350034  1.0
  O  O137  1  0.19695090  0.58284505  0.85350214  1.0
  O  O138  1  0.41715613  0.61410648  0.85350399  1.0
  O  O139  1  0.61410117  0.19695112  0.85350111  1.0
  O  O140  1  0.80304795  0.41715189  0.85349994  1.0
  O  O141  1  0.58284235  0.38589522  0.85350245  1.0
  O  O142  1  0.41714763  0.80304553  0.35350042  1.0
  O  O143  1  0.38589903  0.58285039  0.35350032  1.0
  O  O144  1  0.19694728  0.61410686  0.35350348  1.0
  O  O145  1  0.58285267  0.19695397  0.35350058  1.0
  O  O146  1  0.61410404  0.41715466  0.35350005  1.0
  O  O147  1  0.80305135  0.38589343  0.35350375  1.0
  O  O148  1  0.61409962  0.19695464  0.14649996  1.0
  O  O149  1  0.80304962  0.41715225  0.14650003  1.0
  O  O150  1  0.58284391  0.38589398  0.14649631  1.0
  O  O151  1  0.38589895  0.80304538  0.14649981  1.0
  O  O152  1  0.19695170  0.58284778  0.14650036  1.0
  O  O153  1  0.41715809  0.61410604  0.14649661  1.0
  O  O154  1  0.47156964  0.23578571  0.74999991  1.0
  O  O155  1  0.76421499  0.52843123  0.75000000  1.0
  O  O156  1  0.76421428  0.23578506  0.74999925  1.0
  O  O157  1  0.52843019  0.76421586  0.75000093  1.0
  O  O158  1  0.23578513  0.47156955  0.74999959  1.0
  O  O159  1  0.23578367  0.76421413  0.74999910  1.0
  O  O160  1  0.52843081  0.76421556  0.24999915  1.0
  O  O161  1  0.23578466  0.47156844  0.25000030  1.0
  O  O162  1  0.23578468  0.76421461  0.25000106  1.0
  O  O163  1  0.47156917  0.23578461  0.24999937  1.0
  O  O164  1  0.76421491  0.52843091  0.25000008  1.0
  O  O165  1  0.76421489  0.23578475  0.25000120  1.0
  O  O166  1  0.34911080  0.85130107  0.50000010  1.0
  O  O167  1  0.50218933  0.65088825  0.49999999  1.0
  O  O168  1  0.14869601  0.49780976  0.49999935  1.0
  O  O169  1  0.65088924  0.14869940  0.49999895  1.0
  O  O170  1  0.49781032  0.34911142  0.49999906  1.0
  O  O171  1  0.85130237  0.50219150  0.49999971  1.0
  O  O172  1  0.49780971  0.14869884  0.99999951  1.0
  O  O173  1  0.85130133  0.34911191  0.99999956  1.0
  O  O174  1  0.65088782  0.50219109  0.00000044  1.0
  O  O175  1  0.50219033  0.85130162  0.00000016  1.0
  O  O176  1  0.14869806  0.65088759  0.99999996  1.0
  O  O177  1  0.34911400  0.49781018  0.99999986  1.0
  O  O178  1  0.43713268  0.05469568  0.59122284  1.0
  O  O179  1  0.61756238  0.56286912  0.59122430  1.0
  O  O180  1  0.94530053  0.38243454  0.59122791  1.0
  O  O181  1  0.56286710  0.94530570  0.59122464  1.0
  O  O182  1  0.38243759  0.43712988  0.59122319  1.0
  O  O183  1  0.05469846  0.61756525  0.59122706  1.0
  O  O184  1  0.38243725  0.94530501  0.90877491  1.0
  O  O185  1  0.05469773  0.43713389  0.90877472  1.0
  O  O186  1  0.56286686  0.61756650  0.90877349  1.0
  O  O187  1  0.61756132  0.05469279  0.90877555  1.0
  O  O188  1  0.94530273  0.56286631  0.90877387  1.0
  O  O189  1  0.43713360  0.38243369  0.90877261  1.0
  O  O190  1  0.56286776  0.94530558  0.40877559  1.0
  O  O191  1  0.38243767  0.43713136  0.40877601  1.0
  O  O192  1  0.05470089  0.61756593  0.40877177  1.0
  O  O193  1  0.43713106  0.05469238  0.40877566  1.0
  O  O194  1  0.61756460  0.56286662  0.40877399  1.0
  O  O195  1  0.94530010  0.38243362  0.40877262  1.0
  O  O196  1  0.61756210  0.05469545  0.09122415  1.0
  O  O197  1  0.94530478  0.56286738  0.09122496  1.0
  O  O198  1  0.43713427  0.38243476  0.09122681  1.0
  O  O199  1  0.38243822  0.94530530  0.09122475  1.0
  O  O200  1  0.05469692  0.43713337  0.09122581  1.0
  O  O201  1  0.56286703  0.61756519  0.09122645  1.0
