# generated using pymatgen
data_Al2H29C30N11O10
_symmetry_space_group_name_H-M   'P 1'
_cell_length_a   6.68363459
_cell_length_b   22.74208573
_cell_length_c   26.35517983
_cell_angle_alpha   78.77672792
_cell_angle_beta   89.24033369
_cell_angle_gamma   89.23861166
_symmetry_Int_Tables_number   1
_chemical_formula_structural   Al2H29C30N11O10
_chemical_formula_sum   'Al4 H58 C60 N22 O20'
_cell_volume   3928.79261585
_cell_formula_units_Z   2
loop_
 _symmetry_equiv_pos_site_id
 _symmetry_equiv_pos_as_xyz
  1  'x, y, z'
loop_
 _atom_site_type_symbol
 _atom_site_label
 _atom_site_symmetry_multiplicity
 _atom_site_fract_x
 _atom_site_fract_y
 _atom_site_fract_z
 _atom_site_occupancy
  Al  Al0  1  0.11984196  0.50139318  0.50147317  1.0
  Al  Al1  1  0.61979344  0.50001663  0.49839198  1.0
  Al  Al2  1  0.65888403  0.00012120  0.99781512  1.0
  Al  Al3  1  0.15925849  0.00038829  0.00188074  1.0
  H  H4  1  0.97249955  0.72145773  0.16819621  1.0
  H  H5  1  0.46513829  0.27881734  0.83156003  1.0
  H  H6  1  0.60692981  0.75827033  0.18490749  1.0
  H  H7  1  0.10377798  0.24193129  0.81579906  1.0
  H  H8  1  0.57901451  0.80304150  0.23258566  1.0
  H  H9  1  0.08242417  0.19725544  0.76816720  1.0
  H  H10  1  0.17716861  0.75975503  0.18764547  1.0
  H  H11  1  0.67432345  0.24080635  0.81118676  1.0
  H  H12  1  0.86499290  0.85462036  0.26139154  1.0
  H  H13  1  0.37490510  0.14596331  0.73830298  1.0
  H  H14  1  0.62557213  0.92602266  0.87365824  1.0
  H  H15  1  0.12428588  0.07324358  0.13205370  1.0
  H  H16  1  0.17451983  0.68948176  0.65679080  1.0
  H  H17  1  0.67579855  0.35904577  0.30425713  1.0
  H  H18  1  0.19414177  0.69779150  0.26843202  1.0
  H  H19  1  0.69033831  0.30309815  0.73072876  1.0
  H  H20  1  0.55277927  0.84003467  0.77466597  1.0
  H  H21  1  0.46814153  0.89907289  0.80453045  1.0
  H  H22  1  0.05393382  0.16183181  0.22888887  1.0
  H  H23  1  0.96616111  0.10490442  0.20039574  1.0
  H  H24  1  0.37139518  0.80415175  0.85081992  1.0
  H  H25  1  0.21912949  0.75500691  0.82746650  1.0
  H  H26  1  0.72365843  0.24364847  0.16857123  1.0
  H  H27  1  0.81645036  0.22184173  0.11167135  1.0
  H  H28  1  0.35397317  0.82732032  0.92120348  1.0
  H  H29  1  0.28265583  0.89505571  0.93638526  1.0
  H  H30  1  0.88755268  0.14205113  0.09781925  1.0
  H  H31  1  0.76526406  0.10557080  0.05770008  1.0
  H  H32  1  0.54727712  0.65813501  0.68892749  1.0
  H  H33  1  0.06671735  0.30716362  0.34251506  1.0
  H  H34  1  0.48349383  0.56467607  0.59361346  1.0
  H  H35  1  0.37461480  0.59373459  0.64493485  1.0
  H  H36  1  0.00053319  0.39944855  0.43917477  1.0
  H  H37  1  0.89181362  0.35020027  0.40440254  1.0
  H  H38  1  0.15613593  0.62884143  0.58698071  1.0
  H  H39  1  0.66518973  0.42140995  0.37292602  1.0
  H  H40  1  0.03628369  0.64809005  0.24417237  1.0
  H  H41  1  0.52566821  0.35249845  0.75550770  1.0
  H  H42  1  0.50033929  0.67431008  0.32490462  1.0
  H  H43  1  0.52993458  0.74734812  0.31747074  1.0
  H  H44  1  0.99871203  0.32587962  0.67600384  1.0
  H  H45  1  0.03426558  0.25287872  0.68340410  1.0
  H  H46  1  0.73895293  0.65157243  0.21391282  1.0
  H  H47  1  0.50107261  0.65431367  0.23043604  1.0
  H  H48  1  0.22710913  0.34851868  0.78666237  1.0
  H  H49  1  0.99065387  0.34557274  0.77080393  1.0
  H  H50  1  0.09054142  0.75774415  0.32297041  1.0
  H  H51  1  0.59609477  0.24311351  0.67633804  1.0
  H  H52  1  0.79781964  0.75358391  0.37646125  1.0
  H  H53  1  0.83173070  0.82440872  0.35022654  1.0
  H  H54  1  0.30661042  0.24703747  0.62356133  1.0
  H  H55  1  0.34531014  0.17625468  0.64963584  1.0
  H  H56  1  0.11364578  0.83112554  0.25051616  1.0
  H  H57  1  0.62083685  0.16945229  0.74864545  1.0
  H  H58  1  0.36875548  0.57684165  0.47270378  1.0
  H  H59  1  0.86842522  0.42786523  0.53342764  1.0
  H  H60  1  0.41399972  0.92714460  0.03260072  1.0
  H  H61  1  0.91280506  0.07416856  0.96870022  1.0
  C  C62  1  0.37618393  0.43479656  0.43791732  1.0
  C  C63  1  0.85579788  0.56822611  0.56117451  1.0
  C  C64  1  0.36610493  0.42463216  0.57826206  1.0
  C  C65  1  0.87743669  0.57640110  0.42186127  1.0
  C  C66  1  0.04773212  0.69407879  0.25076911  1.0
  C  C67  1  0.54229203  0.30659415  0.74871347  1.0
  C  C68  1  0.67147828  0.71021478  0.26297651  1.0
  C  C69  1  0.16857541  0.29009088  0.73757067  1.0
  C  C70  1  0.67275917  0.76815188  0.22029285  1.0
  C  C71  1  0.17248171  0.23214976  0.78019518  1.0
  C  C72  1  0.89667613  0.87882002  0.12439926  1.0
  C  C73  1  0.40101401  0.12174861  0.87551192  1.0
  C  C74  1  0.88312050  0.70568860  0.28976776  1.0
  C  C75  1  0.38138123  0.29488106  0.71010008  1.0
  C  C76  1  0.02994808  0.74089830  0.20014799  1.0
  C  C77  1  0.52594213  0.25957663  0.79930502  1.0
  C  C78  1  0.88704949  0.79248771  0.20870364  1.0
  C  C79  1  0.38809951  0.20789716  0.79110051  1.0
  C  C80  1  0.95844376  0.81584874  0.25670197  1.0
  C  C81  1  0.46472665  0.18472532  0.74283625  1.0
  C  C82  1  0.94073994  0.76616075  0.30568565  1.0
  C  C83  1  0.44589200  0.23450537  0.69397774  1.0
  C  C84  1  0.89032575  0.84004895  0.16327037  1.0
  C  C85  1  0.39328186  0.16037392  0.83657866  1.0
  C  C86  1  0.88289174  0.65886957  0.33555186  1.0
  C  C87  1  0.37882589  0.34187334  0.66438067  1.0
  C  C88  1  0.87937772  0.62158246  0.37546141  1.0
  C  C89  1  0.37222815  0.37936817  0.62461021  1.0
  C  C90  1  0.75223578  0.89783898  0.86687483  1.0
  C  C91  1  0.24790264  0.10269571  0.13618313  1.0
  C  C92  1  0.73455541  0.86054548  0.83128514  1.0
  C  C93  1  0.24175293  0.13553664  0.17558927  1.0
  C  C94  1  0.89521073  0.81909787  0.82534458  1.0
  C  C95  1  0.40350890  0.17633882  0.17921886  1.0
  C  C96  1  0.07426583  0.82146735  0.85440682  1.0
  C  C97  1  0.57265151  0.17632879  0.14493011  1.0
  C  C98  1  0.09397989  0.86368731  0.88783208  1.0
  C  C99  1  0.58429507  0.13675953  0.10887509  1.0
  C  C100  1  0.92657603  0.89933676  0.89561975  1.0
  C  C101  1  0.41459898  0.10270842  0.10301338  1.0
  C  C102  1  0.86481834  0.71164843  0.71845615  1.0
  C  C103  1  0.37471183  0.29071078  0.28096396  1.0
  C  C104  1  0.88037033  0.77835369  0.78928813  1.0
  C  C105  1  0.39170830  0.21797611  0.21454268  1.0
  C  C106  1  0.68157170  0.65088512  0.66684520  1.0
  C  C107  1  0.19821874  0.33213820  0.34963525  1.0
  C  C108  1  0.67055645  0.61438826  0.62918685  1.0
  C  C109  1  0.18871986  0.36747780  0.38826920  1.0
  C  C110  1  0.84853877  0.60631110  0.60045385  1.0
  C  C111  1  0.36510348  0.39883104  0.39721605  1.0
  C  C112  1  0.02551966  0.63457100  0.61072382  1.0
  C  C113  1  0.53634780  0.39520448  0.36619903  1.0
  C  C114  1  0.03606012  0.66825809  0.64898860  1.0
  C  C115  1  0.54292142  0.36101770  0.32819154  1.0
  C  C116  1  0.86027707  0.67640978  0.67727414  1.0
  C  C117  1  0.37100187  0.32847996  0.32029399  1.0
  C  C118  1  0.40922366  0.07681827  0.92211222  1.0
  C  C119  1  0.90207112  0.92380386  0.07781021  1.0
  C  C120  1  0.40409749  0.06573830  0.06260764  1.0
  C  C121  1  0.92142082  0.93591622  0.93629931  1.0
  N  N122  1  0.03282584  0.73856836  0.78519219  1.0
  N  N123  1  0.54950882  0.25484818  0.21813984  1.0
  N  N124  1  0.02829724  0.70663466  0.74865018  1.0
  N  N125  1  0.54095644  0.29116149  0.25115463  1.0
  N  N126  1  0.69976447  0.74387152  0.72644888  1.0
  N  N127  1  0.20976494  0.25876982  0.27504201  1.0
  N  N128  1  0.70915658  0.77808229  0.76113793  1.0
  N  N129  1  0.21803385  0.22263516  0.24197803  1.0
  N  N130  1  0.55787825  0.86287614  0.80438333  1.0
  N  N131  1  0.08520014  0.12690233  0.21076141  1.0
  N  N132  1  0.23506348  0.78361544  0.85284752  1.0
  N  N133  1  0.73260882  0.21320209  0.14459453  1.0
  N  N134  1  0.27697366  0.86655023  0.91103341  1.0
  N  N135  1  0.75785971  0.13881386  0.07870012  1.0
  N  N136  1  0.49444307  0.58821422  0.62247469  1.0
  N  N137  1  0.01582339  0.36883928  0.41588749  1.0
  N  N138  1  0.50236539  0.71344471  0.29797273  1.0
  N  N139  1  0.00207538  0.28676296  0.70296381  1.0
  N  N140  1  0.64369522  0.65452427  0.24387595  1.0
  N  N141  1  0.13411724  0.34565205  0.75690089  1.0
  N  N142  1  0.79388918  0.78385600  0.34221872  1.0
  N  N143  1  0.30310035  0.21674424  0.65779482  1.0
  O  O144  1  0.53229818  0.43813933  0.55480306  1.0
  O  O145  1  0.04632787  0.55477350  0.43854812  1.0
  O  O146  1  0.21291926  0.44438532  0.46142181  1.0
  O  O147  1  0.68983213  0.54756135  0.54838161  1.0
  O  O148  1  0.19521190  0.44727799  0.56421680  1.0
  O  O149  1  0.70718536  0.56201726  0.44274982  1.0
  O  O150  1  0.02615354  0.55795616  0.54165026  1.0
  O  O151  1  0.54741239  0.45366217  0.44841067  1.0
  O  O152  1  0.36932186  0.53796183  0.49570076  1.0
  O  O153  1  0.87207753  0.46252251  0.50529531  1.0
  O  O154  1  0.23291733  0.04724719  0.05198296  1.0
  O  O155  1  0.74948598  0.94837365  0.95345582  1.0
  O  O156  1  0.58141814  0.05603044  0.93671981  1.0
  O  O157  1  0.07384704  0.93957055  0.05877700  1.0
  O  O158  1  0.56785960  0.05507324  0.03995530  1.0
  O  O159  1  0.08826269  0.95156398  0.95291291  1.0
  O  O160  1  0.73398346  0.94378262  0.05916817  1.0
  O  O161  1  0.24327929  0.06193619  0.94513784  1.0
  O  O162  1  0.41004492  0.96224830  0.00490863  1.0
  O  O163  1  0.90757154  0.03806122  0.99533197  1.0
