# generated using pymatgen
data_AlH11(C2O)6
_symmetry_space_group_name_H-M   'P 1'
_cell_length_a   6.65036883
_cell_length_b   11.00892380
_cell_length_c   15.29370737
_cell_angle_alpha   86.77141364
_cell_angle_beta   77.57116058
_cell_angle_gamma   72.46768045
_symmetry_Int_Tables_number   1
_chemical_formula_structural   AlH11(C2O)6
_chemical_formula_sum   'Al2 H22 C24 O12'
_cell_volume   1042.62500740
_cell_formula_units_Z   2
loop_
 _symmetry_equiv_pos_site_id
 _symmetry_equiv_pos_as_xyz
  1  'x, y, z'
loop_
 _atom_site_type_symbol
 _atom_site_label
 _atom_site_symmetry_multiplicity
 _atom_site_fract_x
 _atom_site_fract_y
 _atom_site_fract_z
 _atom_site_occupancy
  Al  Al0  1  0.99911724  0.49486387  0.50144651  1.0
  Al  Al1  1  0.49664640  0.50382965  0.49849032  1.0
  H  H2  1  0.35534947  0.36128000  0.43453265  1.0
  H  H3  1  0.65311173  0.64285736  0.55794963  1.0
  H  H4  1  0.55366324  0.60430376  0.22133712  1.0
  H  H5  1  0.42104027  0.52838021  0.76776674  1.0
  H  H6  1  0.86006553  0.40869803  0.77420082  1.0
  H  H7  1  0.78495234  0.41306242  0.94177773  1.0
  H  H8  1  0.21331372  0.41622707  0.23552116  1.0
  H  H9  1  0.31180495  0.39707844  0.06886648  1.0
  H  H10  1  0.03061260  0.88477772  0.64431139  1.0
  H  H11  1  0.27585664  0.89537652  0.57656499  1.0
  H  H12  1  0.13570062  0.11733380  0.59234988  1.0
  H  H13  1  0.87870571  0.10548145  0.64552780  1.0
  H  H14  1  0.24691132  0.10293488  0.42418962  1.0
  H  H15  1  0.05505378  0.11423032  0.35765286  1.0
  H  H16  1  0.34117238  0.88105003  0.40873841  1.0
  H  H17  1  0.12273177  0.89373697  0.35663158  1.0
  H  H18  1  0.71720742  0.89754912  0.56914801  1.0
  H  H19  1  0.76101611  0.88276682  0.45205524  1.0
  H  H20  1  0.68141515  0.10346915  0.43419637  1.0
  H  H21  1  0.59637545  0.11855920  0.55129175  1.0
  H  H22  1  0.48525545  0.63538636  0.07920831  1.0
  H  H23  1  0.48202327  0.56667937  0.90491633  1.0
  C  C24  1  0.86142990  0.26858304  0.50035847  1.0
  C  C25  1  0.81869123  0.51394630  0.33784941  1.0
  C  C26  1  0.12513684  0.73065906  0.50072482  1.0
  C  C27  1  0.18484180  0.47681136  0.66170564  1.0
  C  C28  1  0.87766846  0.51036320  0.23808000  1.0
  C  C29  1  0.14319333  0.47045442  0.76145109  1.0
  C  C30  1  0.72049674  0.56008708  0.18726181  1.0
  C  C31  1  0.77762303  0.55514094  0.09386657  1.0
  C  C32  1  0.27999119  0.50458682  0.80672608  1.0
  C  C33  1  0.23207060  0.51287557  0.90005611  1.0
  C  C34  1  0.96341073  0.43737294  0.81019506  1.0
  C  C35  1  0.92108051  0.44170192  0.90321703  1.0
  C  C36  1  0.09246946  0.45401074  0.19503552  1.0
  C  C37  1  0.14638735  0.44484746  0.10214090  1.0
  C  C38  1  0.99190741  0.49421981  0.04922918  1.0
  C  C39  1  0.04904094  0.48265789  0.95045241  1.0
  C  C40  1  0.10016688  0.92690520  0.58263028  1.0
  C  C41  1  0.01035037  0.07400182  0.58663978  1.0
  C  C42  1  0.92434504  0.12403643  0.50122242  1.0
  C  C43  1  0.10751382  0.07195372  0.41895251  1.0
  C  C44  1  0.16679000  0.92484964  0.41510377  1.0
  C  C45  1  0.04686160  0.87539338  0.50113345  1.0
  C  C46  1  0.80280651  0.92693177  0.50555330  1.0
  C  C47  1  0.73429287  0.07382598  0.49754434  1.0
  O  O48  1  0.00555014  0.31972375  0.50735353  1.0
  O  O49  1  0.62128111  0.52969171  0.37470922  1.0
  O  O50  1  0.32239684  0.67813112  0.50385038  1.0
  O  O51  1  0.02763384  0.48270422  0.62474073  1.0
  O  O52  1  0.98965545  0.67127946  0.49787701  1.0
  O  O53  1  0.37186033  0.48056643  0.62187320  1.0
  O  O54  1  0.67158596  0.32915792  0.49121510  1.0
  O  O55  1  0.97329397  0.49788860  0.37830540  1.0
  O  O56  1  0.29506749  0.44670217  0.45947424  1.0
  O  O57  1  0.70158619  0.55388466  0.54014016  1.0
  O  O58  1  0.63026701  0.61089775  0.04213800  1.0
  O  O59  1  0.35574083  0.55380096  0.94583602  1.0
