# generated using pymatgen
data_MgH3C8O3
_symmetry_space_group_name_H-M   'P 1'
_cell_length_a   6.86204312
_cell_length_b   24.66706913
_cell_length_c   24.66796201
_cell_angle_alpha   119.14313741
_cell_angle_beta   95.32508223
_cell_angle_gamma   95.31916411
_symmetry_Int_Tables_number   1
_chemical_formula_structural   MgH3C8O3
_chemical_formula_sum   'Mg6 H18 C48 O18'
_cell_volume   3585.18820668
_cell_formula_units_Z   6
loop_
 _symmetry_equiv_pos_site_id
 _symmetry_equiv_pos_as_xyz
  1  'x, y, z'
loop_
 _atom_site_type_symbol
 _atom_site_label
 _atom_site_symmetry_multiplicity
 _atom_site_fract_x
 _atom_site_fract_y
 _atom_site_fract_z
 _atom_site_occupancy
  Mg  Mg0  1  0.89084509  0.67183984  0.29351556  1.0
  Mg  Mg1  1  0.70553742  0.32452676  0.70426074  1.0
  Mg  Mg2  1  0.59732178  0.70647549  0.37829350  1.0
  Mg  Mg3  1  0.00129337  0.29574256  0.62028934  1.0
  Mg  Mg4  1  0.21894128  0.62168384  0.32816280  1.0
  Mg  Mg5  1  0.38102803  0.37972099  0.67548312  1.0
  H  H6  1  0.20491418  0.11970918  0.51372619  1.0
  H  H7  1  0.37241878  0.02495545  0.46827611  1.0
  H  H8  1  0.92221763  0.14113175  0.58532110  1.0
  H  H9  1  0.67024308  0.85691203  0.40290445  1.0
  H  H10  1  0.38921660  0.88325046  0.47586580  1.0
  H  H11  1  0.21802264  0.97728240  0.51696457  1.0
  H  H12  1  0.69119259  0.48627085  0.60599762  1.0
  H  H13  1  0.90408384  0.53171880  0.55666189  1.0
  H  H14  1  0.33694364  0.41468223  0.55579297  1.0
  H  H15  1  0.26725543  0.59706628  0.45397756  1.0
  H  H16  1  0.91333430  0.52414283  0.40740549  1.0
  H  H17  1  0.70112444  0.48304654  0.46036382  1.0
  H  H18  1  0.08512619  0.39402971  0.88027794  1.0
  H  H19  1  0.34738874  0.44330495  0.97504164  1.0
  H  H20  1  0.78112663  0.44422990  0.85893724  1.0
  H  H21  1  0.81329765  0.54600831  0.14310038  1.0
  H  H22  1  0.50586774  0.59261982  0.11672899  1.0
  H  H23  1  0.24065452  0.53967943  0.02271667  1.0
  C  C24  1  0.67405096  0.19013882  0.59479901  1.0
  C  C25  1  0.46594677  0.18331496  0.57442862  1.0
  C  C26  1  0.36229330  0.12335336  0.52888641  1.0
  C  C27  1  0.45424851  0.07075293  0.50371343  1.0
  C  C28  1  0.65845289  0.07664117  0.52475266  1.0
  C  C29  1  0.76474335  0.13591836  0.56931031  1.0
  C  C30  1  0.75408787  0.02305472  0.50188939  1.0
  C  C31  1  0.83515477  0.97651249  0.48312329  1.0
  C  C32  1  0.93273608  0.92337302  0.46173980  1.0
  C  C33  1  0.82807526  0.86322690  0.41914310  1.0
  C  C34  1  0.92062296  0.80937669  0.39643222  1.0
  C  C35  1  0.12910858  0.81754260  0.41714522  1.0
  C  C36  1  0.23145726  0.87850668  0.46033780  1.0
  C  C37  1  0.13756347  0.93072039  0.48308680  1.0
  C  C38  1  0.24251087  0.76493529  0.39674155  1.0
  C  C39  1  0.35388674  0.23635033  0.59800198  1.0
  C  C40  1  0.07931973  0.40521112  0.59533195  1.0
  C  C41  1  0.89153790  0.42555944  0.60888042  1.0
  C  C42  1  0.83338420  0.47110125  0.59445745  1.0
  C  C43  1  0.95040117  0.49625389  0.56699505  1.0
  C  C44  1  0.13353611  0.47520661  0.55184144  1.0
  C  C45  1  0.19545190  0.43066944  0.56657098  1.0
  C  C46  1  0.25210544  0.49813769  0.52117869  1.0
  C  C47  1  0.35207976  0.51690649  0.49343951  1.0
  C  C48  1  0.47099206  0.53825710  0.46165194  1.0
  C  C49  1  0.40880203  0.58080446  0.44403327  1.0
  C  C50  1  0.52402166  0.60349298  0.41287864  1.0
  C  C51  1  0.71186852  0.58282032  0.40036874  1.0
  C  C52  1  0.77109221  0.53966319  0.41819009  1.0
  C  C53  1  0.65446984  0.51692026  0.44766725  1.0
  C  C54  1  0.84569666  0.60322512  0.36817080  1.0
  C  C55  1  0.75598535  0.40198151  0.63835010  1.0
  C  C56  1  0.48398156  0.40466808  0.80989449  1.0
  C  C57  1  0.28261537  0.39114621  0.81668813  1.0
  C  C58  1  0.23885754  0.40554283  0.87663684  1.0
  C  C59  1  0.38335742  0.43295124  0.92924090  1.0
  C  C60  1  0.58163775  0.44813209  0.92337795  1.0
  C  C61  1  0.62883957  0.43343878  0.86412878  1.0
  C  C62  1  0.73074152  0.47880451  0.97699515  1.0
  C  C63  1  0.85845495  0.50657413  0.02351099  1.0
  C  C64  1  0.00924437  0.53836771  0.07662881  1.0
  C  C65  1  0.96478379  0.55593966  0.13678348  1.0
  C  C66  1  0.11119720  0.58710085  0.19062400  1.0
  C  C67  1  0.31156006  0.59964167  0.18246355  1.0
  C  C68  1  0.35286207  0.58183954  0.12148560  1.0
  C  C69  1  0.20670603  0.55237478  0.06927835  1.0
  C  C70  1  0.47755438  0.63182378  0.23506433  1.0
  C  C71  1  0.11758386  0.36166453  0.76364693  1.0
  O  O72  1  0.42634922  0.77397988  0.41774090  1.0
  O  O73  1  0.15108479  0.70885937  0.35639801  1.0
  O  O74  1  0.80792245  0.75339844  0.35690033  1.0
  O  O75  1  0.17080042  0.22874666  0.57695521  1.0
  O  O76  1  0.44556628  0.29126058  0.64135099  1.0
  O  O77  1  0.78780249  0.24515738  0.63668507  1.0
  O  O78  1  0.00848092  0.58220198  0.35619860  1.0
  O  O79  1  0.79471630  0.64360603  0.35246619  1.0
  O  O80  1  0.45091820  0.64304177  0.39643663  1.0
  O  O81  1  0.59393789  0.42301805  0.65179090  1.0
  O  O82  1  0.80429799  0.35861891  0.64990505  1.0
  O  O83  1  0.15119084  0.36335709  0.60851628  1.0
  O  O84  1  0.65234124  0.64377458  0.22602065  1.0
  O  O85  1  0.44218818  0.64754365  0.29113665  1.0
  O  O86  1  0.05452257  0.60355029  0.24660353  1.0
  O  O87  1  0.94212612  0.34820626  0.77124851  1.0
  O  O88  1  0.15434986  0.35011222  0.70873885  1.0
  O  O89  1  0.54270943  0.39148640  0.75486306  1.0
