# generated using pymatgen
data_CuH11C11(NO2)2
_symmetry_space_group_name_H-M   'P 1'
_cell_length_a   8.59457757
_cell_length_b   13.22180859
_cell_length_c   15.34253436
_cell_angle_alpha   64.47118169
_cell_angle_beta   84.90473531
_cell_angle_gamma   90.00447242
_symmetry_Int_Tables_number   1
_chemical_formula_structural   CuH11C11(NO2)2
_chemical_formula_sum   'Cu4 H44 C44 N8 O16'
_cell_volume   1565.60138098
_cell_formula_units_Z   4
loop_
 _symmetry_equiv_pos_site_id
 _symmetry_equiv_pos_as_xyz
  1  'x, y, z'
loop_
 _atom_site_type_symbol
 _atom_site_label
 _atom_site_symmetry_multiplicity
 _atom_site_fract_x
 _atom_site_fract_y
 _atom_site_fract_z
 _atom_site_occupancy
  Cu  Cu0  1  0.03904208  0.91654255  0.57764733  1.0
  Cu  Cu1  1  0.46088939  0.49422736  0.42233686  1.0
  Cu  Cu2  1  0.96095846  0.08345642  0.42235344  1.0
  Cu  Cu3  1  0.53910642  0.50577076  0.57766771  1.0
  H  H4  1  0.16748391  0.87789613  0.76999215  1.0
  H  H5  1  0.33259181  0.64803657  0.22994604  1.0
  H  H6  1  0.83251313  0.12210284  0.23000553  1.0
  H  H7  1  0.66741238  0.35196492  0.77005231  1.0
  H  H8  1  0.32582044  0.73702165  0.89485545  1.0
  H  H9  1  0.17434561  0.63210337  0.10499315  1.0
  H  H10  1  0.67417670  0.26297900  0.10514226  1.0
  H  H11  1  0.82565732  0.36789645  0.89500458  1.0
  H  H12  1  0.27540550  0.52324047  0.74982087  1.0
  H  H13  1  0.22442701  0.27321862  0.25010273  1.0
  H  H14  1  0.72460006  0.47676438  0.25017226  1.0
  H  H15  1  0.77557236  0.72678036  0.74989809  1.0
  H  H16  1  0.12086634  0.67189761  0.63317654  1.0
  H  H17  1  0.37900422  0.30517280  0.36674093  1.0
  H  H18  1  0.87914029  0.32810557  0.36681781  1.0
  H  H19  1  0.62099413  0.69482868  0.63325837  1.0
  H  H20  1  0.40988273  0.45090532  0.89806319  1.0
  H  H21  1  0.09024830  0.34905166  0.10192509  1.0
  H  H22  1  0.59011571  0.54909784  0.10193483  1.0
  H  H23  1  0.90975560  0.65094479  0.89807514  1.0
  H  H24  1  0.28177984  0.83313516  0.41230533  1.0
  H  H25  1  0.21838751  0.24547507  0.58783371  1.0
  H  H26  1  0.71822196  0.16686548  0.58769541  1.0
  H  H27  1  0.78160607  0.75452473  0.41216775  1.0
  H  H28  1  0.39807895  0.86222068  0.30218551  1.0
  H  H29  1  0.10204439  0.16441167  0.69792853  1.0
  H  H30  1  0.60192753  0.13777997  0.69781304  1.0
  H  H31  1  0.89795385  0.83558813  0.30207596  1.0
  H  H32  1  0.51597891  0.87471830  0.48100185  1.0
  H  H33  1  0.98423421  0.35570523  0.51904338  1.0
  H  H34  1  0.48402303  0.12528486  0.51899991  1.0
  H  H35  1  0.01576179  0.64429625  0.48096124  1.0
  H  H36  1  0.62616134  0.91844598  0.36716179  1.0
  H  H37  1  0.87396449  0.28561099  0.63285357  1.0
  H  H38  1  0.37384288  0.08155634  0.63284082  1.0
  H  H39  1  0.12602908  0.71438880  0.36714985  1.0
  H  H40  1  0.52158277  0.08071689  0.38767125  1.0
  H  H41  1  0.97828334  0.46842485  0.61227560  1.0
  H  H42  1  0.47841431  0.91928292  0.61233003  1.0
  H  H43  1  0.02171023  0.53157493  0.38772847  1.0
  H  H44  1  0.43851886  0.07020571  0.29006677  1.0
  H  H45  1  0.06139341  0.36043310  0.70995716  1.0
  H  H46  1  0.56148294  0.92979493  0.70993397  1.0
  H  H47  1  0.93860269  0.63957006  0.29004423  1.0
  C  C48  1  0.19424753  0.79745265  0.76952956  1.0
  C  C49  1  0.30578805  0.56713241  0.23038284  1.0
  C  C50  1  0.80575185  0.20254633  0.23046800  1.0
  C  C51  1  0.69421594  0.43286572  0.76961742  1.0
  C  C52  1  0.28206978  0.72027035  0.83768517  1.0
  C  C53  1  0.21802854  0.55816670  0.16218524  1.0
  C  C54  1  0.71792974  0.27973114  0.16231015  1.0
  C  C55  1  0.78197346  0.44183731  0.83781229  1.0
  C  C56  1  0.31240670  0.61824083  0.83287988  1.0
  C  C57  1  0.18763544  0.45129879  0.16702079  1.0
  C  C58  1  0.68759749  0.38176068  0.16711716  1.0
  C  C59  1  0.81236846  0.54869766  0.83298075  1.0
  C  C60  1  0.25364330  0.59987806  0.75829136  1.0
  C  C61  1  0.24627611  0.35833781  0.24162554  1.0
  C  C62  1  0.74636207  0.40012345  0.24170367  1.0
  C  C63  1  0.75372346  0.64166451  0.75837273  1.0
  C  C64  1  0.16768377  0.68248858  0.69266430  1.0
  C  C65  1  0.33225091  0.37526994  0.30725796  1.0
  C  C66  1  0.83231931  0.31751376  0.30732923  1.0
  C  C67  1  0.66774958  0.62472819  0.69274247  1.0
  C  C68  1  0.39939064  0.53116863  0.90303918  1.0
  C  C69  1  0.10069863  0.43435064  0.09687765  1.0
  C  C70  1  0.60060175  0.46883037  0.09694829  1.0
  C  C71  1  0.89929467  0.56566428  0.90311040  1.0
  C  C72  1  0.44353127  0.71064527  0.42400340  1.0
  C  C73  1  0.05674730  0.13462578  0.57607789  1.0
  C  C74  1  0.55646810  0.28935371  0.57599481  1.0
  C  C75  1  0.94325094  0.86537402  0.42392399  1.0
  C  C76  1  0.40221640  0.83323483  0.38062701  1.0
  C  C77  1  0.09795350  0.21386401  0.61947942  1.0
  C  C78  1  0.59778657  0.16676582  0.61937302  1.0
  C  C79  1  0.90204231  0.78613410  0.38052516  1.0
  C  C80  1  0.50713927  0.91098307  0.40259696  1.0
  C  C81  1  0.99301140  0.31359142  0.59745293  1.0
  C  C82  1  0.49286370  0.08901758  0.59740372  1.0
  C  C83  1  0.00698329  0.68640755  0.40255008  1.0
  C  C84  1  0.44333246  0.02853708  0.36906896  1.0
  C  C85  1  0.05665991  0.39770792  0.63095045  1.0
  C  C86  1  0.55666812  0.97146273  0.63093214  1.0
  C  C87  1  0.94333483  0.60229188  0.36905160  1.0
  C  C88  1  0.28030956  0.02641758  0.41761122  1.0
  C  C89  1  0.21965295  0.44423882  0.58241382  1.0
  C  C90  1  0.71968884  0.97358475  0.58238515  1.0
  C  C91  1  0.78033941  0.55576016  0.41758604  1.0
  N  N92  1  0.13691000  0.77934127  0.69814327  1.0
  N  N93  1  0.36304869  0.47761322  0.30178363  1.0
  N  N94  1  0.86309298  0.22065940  0.30185284  1.0
  N  N95  1  0.63695209  0.52238995  0.69821427  1.0
  N  N96  1  0.46251096  0.54692253  0.96996196  1.0
  N  N97  1  0.03751977  0.51692806  0.02999831  1.0
  N  N98  1  0.53749682  0.45308063  0.03004081  1.0
  N  N99  1  0.96249303  0.48306085  0.97000884  1.0
  O  O100  1  0.48964701  0.66883085  0.50872556  1.0
  O  O101  1  0.01069111  0.17754587  0.49134638  1.0
  O  O102  1  0.51035687  0.33116560  0.49128054  1.0
  O  O103  1  0.98931273  0.82244975  0.50865807  1.0
  O  O104  1  0.25214309  0.95331878  0.50516166  1.0
  O  O105  1  0.24779824  0.45877292  0.49485164  1.0
  O  O106  1  0.74785627  0.04668020  0.49483851  1.0
  O  O107  1  0.75219401  0.54122435  0.50515212  1.0
  O  O108  1  0.42373124  0.65846456  0.37240847  1.0
  O  O109  1  0.07657777  0.03083599  0.62764912  1.0
  O  O110  1  0.57626699  0.34153523  0.62759732  1.0
  O  O111  1  0.92342256  0.96915962  0.37235746  1.0
  O  O112  1  0.18426295  0.09578133  0.36711332  1.0
  O  O113  1  0.31573957  0.46307010  0.63292689  1.0
  O  O114  1  0.81573643  0.90421764  0.63288555  1.0
  O  O115  1  0.68425858  0.53692803  0.36707561  1.0
