# generated using pymatgen
data_Al2H31C34Br3(N4O5)2
_symmetry_space_group_name_H-M   'P 1'
_cell_length_a   6.83503670
_cell_length_b   22.38797530
_cell_length_c   26.51262267
_cell_angle_alpha   78.87600613
_cell_angle_beta   89.99968075
_cell_angle_gamma   89.99925900
_symmetry_Int_Tables_number   1
_chemical_formula_structural   Al2H31C34Br3(N4O5)2
_chemical_formula_sum   'Al4 H62 C68 Br6 N16 O20'
_cell_volume   3980.80763689
_cell_formula_units_Z   2
loop_
 _symmetry_equiv_pos_site_id
 _symmetry_equiv_pos_as_xyz
  1  'x, y, z'
loop_
 _atom_site_type_symbol
 _atom_site_label
 _atom_site_symmetry_multiplicity
 _atom_site_fract_x
 _atom_site_fract_y
 _atom_site_fract_z
 _atom_site_occupancy
  Al  Al0  1  0.17566681  0.50086178  0.50044396  1.0
  Al  Al1  1  0.67566566  0.49913902  0.49955286  1.0
  Al  Al2  1  0.66232223  0.99928491  0.00150568  1.0
  Al  Al3  1  0.16231836  0.00072009  0.99849036  1.0
  H  H4  1  0.14105914  0.16528588  0.76660125  1.0
  H  H5  1  0.64105498  0.83471647  0.23339482  1.0
  H  H6  1  0.20120888  0.24966162  0.70389557  1.0
  H  H7  1  0.70121622  0.75034191  0.29610082  1.0
  H  H8  1  0.89179176  0.35391327  0.76464114  1.0
  H  H9  1  0.39179735  0.64609020  0.23535241  1.0
  H  H10  1  0.18093973  0.25322927  0.80503348  1.0
  H  H11  1  0.68093255  0.74677540  0.19495794  1.0
  H  H12  1  0.98628145  0.28124457  0.83807492  1.0
  H  H13  1  0.48627227  0.71876085  0.16191931  1.0
  H  H14  1  0.66477806  0.24273610  0.69632753  1.0
  H  H15  1  0.16479008  0.75726080  0.30367277  1.0
  H  H16  1  0.60618900  0.31157433  0.71707044  1.0
  H  H17  1  0.10619909  0.68842354  0.28292990  1.0
  H  H18  1  0.00913378  0.22329679  0.66884982  1.0
  H  H19  1  0.50913831  0.77670197  0.33114715  1.0
  H  H20  1  0.65344585  0.26728628  0.80489713  1.0
  H  H21  1  0.15344209  0.73271090  0.19510202  1.0
  H  H22  1  0.60585708  0.08112684  0.11986693  1.0
  H  H23  1  0.10587702  0.91887458  0.88013148  1.0
  H  H24  1  0.61830404  0.36074987  0.30699192  1.0
  H  H25  1  0.11832239  0.63924086  0.69301228  1.0
  H  H26  1  0.64678202  0.42692570  0.37240638  1.0
  H  H27  1  0.14679948  0.57307221  0.62759354  1.0
  H  H28  1  0.18472245  0.28489825  0.35260898  1.0
  H  H29  1  0.68474307  0.71509591  0.64739745  1.0
  H  H30  1  0.81210642  0.11242663  0.76523044  1.0
  H  H31  1  0.12208259  0.07689906  0.73011486  1.0
  H  H32  1  0.05136083  0.12426994  0.67109797  1.0
  H  H33  1  0.89991842  0.06223973  0.69848741  1.0
  H  H34  1  0.31210974  0.88757564  0.23476894  1.0
  H  H35  1  0.62208733  0.92309860  0.26988432  1.0
  H  H36  1  0.55136581  0.87572691  0.32890127  1.0
  H  H37  1  0.39993249  0.93776093  0.30151267  1.0
  H  H38  1  0.51827562  0.18297774  0.20564458  1.0
  H  H39  1  0.37531154  0.09808265  0.25924907  1.0
  H  H40  1  0.63347094  0.09783202  0.27117908  1.0
  H  H41  1  0.53331279  0.04886839  0.23228140  1.0
  H  H42  1  0.01828897  0.81702449  0.79435275  1.0
  H  H43  1  0.87534431  0.90192474  0.74075100  1.0
  H  H44  1  0.13350207  0.90217090  0.72882045  1.0
  H  H45  1  0.03334967  0.95113388  0.76772168  1.0
  H  H46  1  0.32940817  0.19750641  0.12590122  1.0
  H  H47  1  0.26356155  0.27189885  0.19254263  1.0
  H  H48  1  0.06270520  0.29108514  0.14948156  1.0
  H  H49  1  0.30779974  0.29965241  0.12572716  1.0
  H  H50  1  0.82942668  0.80248955  0.87410432  1.0
  H  H51  1  0.76356808  0.72809051  0.80746683  1.0
  H  H52  1  0.56269433  0.70891233  0.85052881  1.0
  H  H53  1  0.80779759  0.70034067  0.87428339  1.0
  H  H54  1  0.36549400  0.11161842  0.15333757  1.0
  H  H55  1  0.41214671  0.01080249  0.16532877  1.0
  H  H56  1  0.36842705  0.01828616  0.09811540  1.0
  H  H57  1  0.17132950  0.99958415  0.14223428  1.0
  H  H58  1  0.86550871  0.88837923  0.84666216  1.0
  H  H59  1  0.91217078  0.98919609  0.83467054  1.0
  H  H60  1  0.86844102  0.98171274  0.90188471  1.0
  H  H61  1  0.67134318  0.00041533  0.85776447  1.0
  H  H62  1  0.41961709  0.42412521  0.49240967  1.0
  H  H63  1  0.91961474  0.57586547  0.50760694  1.0
  H  H64  1  0.41410506  0.07977160  0.99572438  1.0
  H  H65  1  0.91411146  0.92023170  0.00428375  1.0
  C  C66  1  0.42881525  0.56472484  0.56248190  1.0
  C  C67  1  0.92879541  0.43527494  0.43751393  1.0
  C  C68  1  0.42605877  0.57968740  0.42509465  1.0
  C  C69  1  0.92604644  0.42031446  0.57490387  1.0
  C  C70  1  0.04526573  0.23744846  0.70510621  1.0
  C  C71  1  0.54527078  0.76255435  0.29488841  1.0
  C  C72  1  0.99606463  0.32001029  0.75616991  1.0
  C  C73  1  0.49606762  0.67999260  0.24382355  1.0
  C  C74  1  0.02714347  0.26752077  0.80193142  1.0
  C  C75  1  0.52713720  0.73248144  0.19806398  1.0
  C  C76  1  0.90455865  0.13138417  0.88292981  1.0
  C  C77  1  0.40453874  0.86861704  0.11706373  1.0
  C  C78  1  0.92175642  0.29403955  0.70959828  1.0
  C  C79  1  0.42177093  0.70596221  0.29039870  1.0
  C  C80  1  0.00045519  0.18468290  0.75060908  1.0
  C  C81  1  0.50044902  0.81531745  0.24938481  1.0
  C  C82  1  0.90216790  0.21138332  0.79449909  1.0
  C  C83  1  0.40215702  0.78861640  0.20549715  1.0
  C  C84  1  0.69825169  0.23783876  0.77836079  1.0
  C  C85  1  0.19824953  0.76215890  0.22163794  1.0
  C  C86  1  0.70639457  0.27260229  0.72285499  1.0
  C  C87  1  0.20640063  0.72739670  0.27714372  1.0
  C  C88  1  0.90084912  0.16734065  0.84229282  1.0
  C  C89  1  0.40083061  0.83266212  0.15770380  1.0
  C  C90  1  0.92503127  0.33877832  0.66222141  1.0
  C  C91  1  0.42505346  0.66122767  0.33777863  1.0
  C  C92  1  0.92528217  0.37577115  0.62218362  1.0
  C  C93  1  0.42529707  0.62423274  0.37781182  1.0
  C  C94  1  0.73178521  0.10394513  0.13207480  1.0
  C  C95  1  0.23180416  0.89605490  0.86792312  1.0
  C  C96  1  0.71556404  0.14146790  0.16728283  1.0
  C  C97  1  0.21558513  0.85853180  0.83271664  1.0
  C  C98  1  0.88258006  0.17681716  0.17697845  1.0
  C  C99  1  0.38259365  0.82317925  0.82302473  1.0
  C  C100  1  0.05932541  0.16937774  0.15076606  1.0
  C  C101  1  0.55933677  0.83061780  0.84923702  1.0
  C  C102  1  0.08469984  0.11390386  0.13044532  1.0
  C  C103  1  0.58471408  0.88609414  0.86955658  1.0
  C  C104  1  0.91429269  0.08956560  0.11201320  1.0
  C  C105  1  0.41430862  0.91043466  0.88798456  1.0
  C  C106  1  0.88820919  0.27810301  0.28810983  1.0
  C  C107  1  0.38822122  0.72188826  0.71189836  1.0
  C  C108  1  0.88039978  0.21228823  0.21718707  1.0
  C  C109  1  0.38042574  0.78770249  0.78281959  1.0
  C  C110  1  0.74865274  0.35918239  0.33080724  1.0
  C  C111  1  0.24867456  0.64080796  0.66919992  1.0
  C  C112  1  0.76451042  0.39588871  0.36718394  1.0
  C  C113  1  0.26452995  0.60410648  0.63281743  1.0
  C  C114  1  0.92963863  0.39424956  0.39915356  1.0
  C  C115  1  0.42965454  0.60575176  0.60084534  1.0
  C  C116  1  0.08125113  0.35362893  0.39297812  1.0
  C  C117  1  0.58126597  0.64637248  0.60702453  1.0
  C  C118  1  0.06766558  0.31661892  0.35655722  1.0
  C  C119  1  0.56767976  0.68337528  0.64344778  1.0
  C  C120  1  0.90095041  0.31878165  0.32530962  1.0
  C  C121  1  0.40097510  0.68120986  0.67469741  1.0
  C  C122  1  0.40924587  0.91442331  0.07061433  1.0
  C  C123  1  0.90925893  0.08557934  0.92938074  1.0
  C  C124  1  0.41406104  0.94482356  0.93023702  1.0
  C  C125  1  0.91405892  0.05518268  0.06975995  1.0
  C  C126  1  0.99464806  0.09829223  0.70763085  1.0
  C  C127  1  0.49465466  0.90170625  0.29236838  1.0
  C  C128  1  0.52020507  0.09404443  0.24223942  1.0
  C  C129  1  0.02023807  0.90595882  0.75776136  1.0
  C  C130  1  0.21056605  0.27127553  0.15339664  1.0
  C  C131  1  0.71056415  0.72872024  0.84661246  1.0
  C  C132  1  0.30653927  0.02624158  0.13427822  1.0
  C  C133  1  0.80655918  0.97375953  0.86572040  1.0
  Br  Br134  1  0.31032365  0.34086877  0.43503654  1.0
  Br  Br135  1  0.81032998  0.65913548  0.56496399  1.0
  Br  Br136  1  0.23996480  0.36797691  0.74185440  1.0
  Br  Br137  1  0.73997562  0.63203251  0.25813541  1.0
  Br  Br138  1  0.48956281  0.17575544  0.78900645  1.0
  Br  Br139  1  0.98955854  0.82424387  0.21099510  1.0
  N  N140  1  0.04218159  0.20891253  0.24829394  1.0
  N  N141  1  0.54220572  0.79107867  0.75171262  1.0
  N  N142  1  0.04584925  0.24270702  0.28342156  1.0
  N  N143  1  0.54587379  0.75728276  0.71658539  1.0
  N  N144  1  0.71746587  0.27470245  0.26293240  1.0
  N  N145  1  0.21747991  0.72529114  0.73707439  1.0
  N  N146  1  0.71336659  0.24172918  0.22681851  1.0
  N  N147  1  0.21338903  0.75826674  0.77318789  1.0
  N  N148  1  0.88063228  0.13793825  0.73416508  1.0
  N  N149  1  0.38063069  0.86206331  0.26583309  1.0
  N  N150  1  0.53726029  0.14145596  0.19546457  1.0
  N  N151  1  0.03727777  0.85854456  0.80453429  1.0
  N  N152  1  0.20649958  0.21084554  0.14202018  1.0
  N  N153  1  0.70651361  0.78915297  0.85798468  1.0
  N  N154  1  0.26730390  0.09052199  0.13225491  1.0
  N  N155  1  0.76731947  0.90947524  0.86774529  1.0
  O  O156  1  0.59354765  0.56168857  0.44290683  1.0
  O  O157  1  0.09356771  0.43832197  0.55709886  1.0
  O  O158  1  0.26057254  0.54995065  0.54804601  1.0
  O  O159  1  0.76056004  0.45005824  0.45194801  1.0
  O  O160  1  0.25875053  0.56351530  0.44414161  1.0
  O  O161  1  0.75877124  0.43647818  0.55584748  1.0
  O  O162  1  0.09272888  0.45219168  0.45230918  1.0
  O  O163  1  0.59273031  0.54780359  0.54769886  1.0
  O  O164  1  0.42464553  0.46383818  0.50200714  1.0
  O  O165  1  0.92464184  0.53616413  0.49799138  1.0
  O  O166  1  0.24606998  0.96007077  0.94539339  1.0
  O  O167  1  0.74605179  0.03993201  0.05460412  1.0
  O  O168  1  0.57848521  0.93280632  0.05466148  1.0
  O  O169  1  0.07849864  0.06719340  0.94533274  1.0
  O  O170  1  0.57731194  0.95390957  0.95135879  1.0
  O  O171  1  0.07730908  0.04609671  0.04863809  1.0
  O  O172  1  0.74435162  0.06754717  0.94909170  1.0
  O  O173  1  0.24434223  0.93245523  0.05090352  1.0
  O  O174  1  0.41288694  0.03573469  0.00099918  1.0
  O  O175  1  0.91288629  0.96426915  0.99899857  1.0
