# generated using pymatgen
data_Zn4H16C38O13
_symmetry_space_group_name_H-M   'P 1'
_cell_length_a   24.26830863
_cell_length_b   24.26834778
_cell_length_c   24.26828339
_cell_angle_alpha   109.06673005
_cell_angle_beta   109.06671334
_cell_angle_gamma   110.28320464
_symmetry_Int_Tables_number   1
_chemical_formula_structural   Zn4H16C38O13
_chemical_formula_sum   'Zn8 H32 C76 O26'
_cell_volume   11000.99004219
_cell_formula_units_Z   2
loop_
 _symmetry_equiv_pos_site_id
 _symmetry_equiv_pos_as_xyz
  1  'x, y, z'
loop_
 _atom_site_type_symbol
 _atom_site_label
 _atom_site_symmetry_multiplicity
 _atom_site_fract_x
 _atom_site_fract_y
 _atom_site_fract_z
 _atom_site_occupancy
  Zn  Zn0  1  0.29018232  0.84766473  0.55748224  1.0
  Zn  Zn1  1  0.70981765  0.15233563  0.44251851  1.0
  Zn  Zn2  1  0.73270013  0.29018286  0.44251842  1.0
  Zn  Zn3  1  0.26729984  0.70981751  0.55748233  1.0
  Zn  Zn4  1  0.29018200  0.73269967  0.44251820  1.0
  Zn  Zn5  1  0.70981728  0.26730019  0.55748217  1.0
  Zn  Zn6  1  0.84766432  0.29018193  0.55748255  1.0
  Zn  Zn7  1  0.15233565  0.70981844  0.44251861  1.0
  H  H8  1  0.78950862  0.02512047  0.42300463  1.0
  H  H9  1  0.60212125  0.02512288  0.23561458  1.0
  H  H10  1  0.97487787  0.21049025  0.57699559  1.0
  H  H11  1  0.02512097  0.78950960  0.42300546  1.0
  H  H12  1  0.21049043  0.63349464  0.23561346  1.0
  H  H13  1  0.78950934  0.36650876  0.76438822  1.0
  H  H14  1  0.63349714  0.39788581  0.42300639  1.0
  H  H15  1  0.36650335  0.60211557  0.57699446  1.0
  H  H16  1  0.21049076  0.97487786  0.57699650  1.0
  H  H17  1  0.36650754  0.78950935  0.76438843  1.0
  H  H18  1  0.63349192  0.21049000  0.23561306  1.0
  H  H19  1  0.60211506  0.36650356  0.57699424  1.0
  H  H20  1  0.39788491  0.63349680  0.42300569  1.0
  H  H21  1  0.02512222  0.60212139  0.23561426  1.0
  H  H22  1  0.97487652  0.39787998  0.76438643  1.0
  H  H23  1  0.39787890  0.97487698  0.76438689  1.0
  H  H24  1  0.85182037  0.96196648  0.42261995  1.0
  H  H25  1  0.14818040  0.03803288  0.57738033  1.0
  H  H26  1  0.42920497  0.85182091  0.88985331  1.0
  H  H27  1  0.57079474  0.14817895  0.11014719  1.0
  H  H28  1  0.53934578  0.42919969  0.57737931  1.0
  H  H29  1  0.46065350  0.57080017  0.42262023  1.0
  H  H30  1  0.96196852  0.53935286  0.11014918  1.0
  H  H31  1  0.03803161  0.46064954  0.88985187  1.0
  H  H32  1  0.46064907  0.03803157  0.88985213  1.0
  H  H33  1  0.53935308  0.96196879  0.11014892  1.0
  H  H34  1  0.03803229  0.14817997  0.57738026  1.0
  H  H35  1  0.96196750  0.85182090  0.42261854  1.0
  H  H36  1  0.14817894  0.57079589  0.11014755  1.0
  H  H37  1  0.85182085  0.42920497  0.88985372  1.0
  H  H38  1  0.57080037  0.46065408  0.42262063  1.0
  H  H39  1  0.42919960  0.53934628  0.57737930  1.0
  C  C40  1  0.94915438  0.05084508  0.49999995  1.0
  C  C41  1  0.55084575  0.05084530  0.10169165  1.0
  C  C42  1  0.01637701  0.87857766  0.45631502  1.0
  C  C43  1  0.12142291  0.57773733  0.13780068  1.0
  C  C44  1  0.87857704  0.42226556  0.86220090  1.0
  C  C45  1  0.57773811  0.43993922  0.45631559  1.0
  C  C46  1  0.42226117  0.56006064  0.54368436  1.0
  C  C47  1  0.84390106  0.05137986  0.45646586  1.0
  C  C48  1  0.15609857  0.94861898  0.54353511  1.0
  C  C49  1  0.38743755  0.84390181  0.79252090  1.0
  C  C50  1  0.61256242  0.15609855  0.20748067  1.0
  C  C51  1  0.59491386  0.38743505  0.54353367  1.0
  C  C52  1  0.40508567  0.61256530  0.45646611  1.0
  C  C53  1  0.05138206  0.59491879  0.20748165  1.0
  C  C54  1  0.94861788  0.40508409  0.79252033  1.0
  C  C55  1  0.40508259  0.94861764  0.79252001  1.0
  C  C56  1  0.59491869  0.05138272  0.20748159  1.0
  C  C57  1  0.94861809  0.15609828  0.54353396  1.0
  C  C58  1  0.05138075  0.84390157  0.45646585  1.0
  C  C59  1  0.15609794  0.61256361  0.20748025  1.0
  C  C60  1  0.84390157  0.38743928  0.79252077  1.0
  C  C61  1  0.61256472  0.40508588  0.45646589  1.0
  C  C62  1  0.05084534  0.94915478  0.49999974  1.0
  C  C63  1  0.38743499  0.59491397  0.54353379  1.0
  C  C64  1  0.05084445  0.55084612  0.10169172  1.0
  C  C65  1  0.87850984  0.12149022  0.50000017  1.0
  C  C66  1  0.12148988  0.87850964  0.50000075  1.0
  C  C67  1  0.37850949  0.87850881  0.75701933  1.0
  C  C68  1  0.94915480  0.44915626  0.89830987  1.0
  C  C69  1  0.62149015  0.12149003  0.24298123  1.0
  C  C70  1  0.62148976  0.37851034  0.50000029  1.0
  C  C71  1  0.37851003  0.62149053  0.50000015  1.0
  C  C72  1  0.12148980  0.62149186  0.24298153  1.0
  C  C73  1  0.87850909  0.37851153  0.75701945  1.0
  C  C74  1  0.55084471  0.44915446  0.49999961  1.0
  C  C75  1  0.44915457  0.55084540  0.49999993  1.0
  C  C76  1  0.98466289  0.01533825  0.50000007  1.0
  C  C77  1  0.01533847  0.98466313  0.49999982  1.0
  C  C78  1  0.48466282  0.98466295  0.96932525  1.0
  C  C79  1  0.51533766  0.01533842  0.03067642  1.0
  C  C80  1  0.51533715  0.48466231  0.49999972  1.0
  C  C81  1  0.48466195  0.51533806  0.49999993  1.0
  C  C82  1  0.01533778  0.51533772  0.03067605  1.0
  C  C83  1  0.98466332  0.48466315  0.96932565  1.0
  C  C84  1  0.44915527  0.94915455  0.89830969  1.0
  C  C85  1  0.43160057  0.93160039  0.49999977  1.0
  C  C86  1  0.56839275  0.06839288  0.50000060  1.0
  C  C87  1  0.93160669  0.43160564  0.49999997  1.0
  C  C88  1  0.06839838  0.56839876  0.50000006  1.0
  C  C89  1  0.47568184  0.97568127  0.50000006  1.0
  C  C90  1  0.52431330  0.02431301  0.50000000  1.0
  C  C91  1  0.97568710  0.47568653  0.49999916  1.0
  C  C92  1  0.02431798  0.52431788  0.49999965  1.0
  C  C93  1  0.12040730  0.62040785  0.50000079  1.0
  C  C94  1  0.87959431  0.37959403  0.50000017  1.0
  C  C95  1  0.62040521  0.12040551  0.49999952  1.0
  C  C96  1  0.37959242  0.87959282  0.50000021  1.0
  C  C97  1  0.34110266  0.84110212  0.68220615  1.0
  C  C98  1  0.65889706  0.15889774  0.31779477  1.0
  C  C99  1  0.65889666  0.34110370  0.49999954  1.0
  C  C100  1  0.34110331  0.65889666  0.49999998  1.0
  C  C101  1  0.15889681  0.65889805  0.31779502  1.0
  C  C102  1  0.84110175  0.34110383  0.68220618  1.0
  C  C103  1  0.84110268  0.15889635  0.49999944  1.0
  C  C104  1  0.15889652  0.84110250  0.50000057  1.0
  C  C105  1  0.87857846  0.01637740  0.45631668  1.0
  C  C106  1  0.12142351  0.98362347  0.54368531  1.0
  C  C107  1  0.42226464  0.87857744  0.86220094  1.0
  C  C108  1  0.57773577  0.12142293  0.13780038  1.0
  C  C109  1  0.56006029  0.42226129  0.54368462  1.0
  C  C110  1  0.43993943  0.57773858  0.45631506  1.0
  C  C111  1  0.01637672  0.56006541  0.13780098  1.0
  C  C112  1  0.98362279  0.43993748  0.86220004  1.0
  C  C113  1  0.43993595  0.98362268  0.86220017  1.0
  C  C114  1  0.56006482  0.01637667  0.13780093  1.0
  C  C115  1  0.98362417  0.12142423  0.54368622  1.0
  O  O116  1  0.25000030  0.75000034  0.50000065  1.0
  O  O117  1  0.81878303  0.35947851  0.45930471  1.0
  O  O118  1  0.64052105  0.18121720  0.54069483  1.0
  O  O119  1  0.35947710  0.81878215  0.45930417  1.0
  O  O120  1  0.09982631  0.64052281  0.45930532  1.0
  O  O121  1  0.90017374  0.35947857  0.54069620  1.0
  O  O122  1  0.64052131  0.09982583  0.45930402  1.0
  O  O123  1  0.35947797  0.90017403  0.54069593  1.0
  O  O124  1  0.18121737  0.64052185  0.54069618  1.0
  O  O125  1  0.75000011  0.25000003  0.50000025  1.0
  O  O126  1  0.31792326  0.77729474  0.65305170  1.0
  O  O127  1  0.68207628  0.22270563  0.34694891  1.0
  O  O128  1  0.66487175  0.31792479  0.54062832  1.0
  O  O129  1  0.33512779  0.68207558  0.45937106  1.0
  O  O130  1  0.12424325  0.66487340  0.34694899  1.0
  O  O131  1  0.87575575  0.33512849  0.65305195  1.0
  O  O132  1  0.77729481  0.12424272  0.45937090  1.0
  O  O133  1  0.22270464  0.87575663  0.54062935  1.0
  O  O134  1  0.87575585  0.22270375  0.54062768  1.0
  O  O135  1  0.12424317  0.77729560  0.45937202  1.0
  O  O136  1  0.22270504  0.68207651  0.34694900  1.0
  O  O137  1  0.77729457  0.31792486  0.65305196  1.0
  O  O138  1  0.68207533  0.33512784  0.45937083  1.0
  O  O139  1  0.31792464  0.66487252  0.54062910  1.0
  O  O140  1  0.33512783  0.87575570  0.65305196  1.0
  O  O141  1  0.66487189  0.12424416  0.34694937  1.0
