# generated using pymatgen
data_ZnH21C22NO7
_symmetry_space_group_name_H-M   'P 1'
_cell_length_a   8.84410728
_cell_length_b   16.55630226
_cell_length_c   17.70854920
_cell_angle_alpha   84.95687514
_cell_angle_beta   86.86961051
_cell_angle_gamma   79.48251795
_symmetry_Int_Tables_number   1
_chemical_formula_structural   ZnH21C22NO7
_chemical_formula_sum   'Zn2 H42 C44 N2 O14'
_cell_volume   2537.58425529
_cell_formula_units_Z   2
loop_
 _symmetry_equiv_pos_site_id
 _symmetry_equiv_pos_as_xyz
  1  'x, y, z'
loop_
 _atom_site_type_symbol
 _atom_site_label
 _atom_site_symmetry_multiplicity
 _atom_site_fract_x
 _atom_site_fract_y
 _atom_site_fract_z
 _atom_site_occupancy
  Zn  Zn0  1  0.50135409  0.58600958  0.50143170  1.0
  Zn  Zn1  1  0.53234081  0.41233703  0.50409707  1.0
  H  H2  1  0.33707083  0.62981058  0.87046633  1.0
  H  H3  1  0.45232615  0.37048672  0.14410487  1.0
  H  H4  1  0.40100512  0.62639498  0.73149479  1.0
  H  H5  1  0.50942090  0.37959297  0.27950834  1.0
  H  H6  1  0.47436582  0.36487362  0.89494690  1.0
  H  H7  1  0.34844523  0.63643676  0.11657755  1.0
  H  H8  1  0.66859535  0.86226686  0.40381778  1.0
  H  H9  1  0.29045888  0.15095054  0.56528146  1.0
  H  H10  1  0.32775684  0.72456622  0.57981679  1.0
  H  H11  1  0.70115009  0.27246779  0.42501649  1.0
  H  H12  1  0.30825907  0.87856051  0.57993727  1.0
  H  H13  1  0.69116359  0.12322447  0.41198563  1.0
  H  H14  1  0.90099715  0.43132908  0.35848813  1.0
  H  H15  1  0.91939391  0.33111320  0.40580967  1.0
  H  H16  1  0.18999098  0.29558321  0.34881581  1.0
  H  H17  1  0.05231501  0.32380698  0.27701030  1.0
  H  H18  1  0.16848208  0.39523834  0.29970520  1.0
  H  H19  1  0.86624048  0.65735434  0.51488997  1.0
  H  H20  1  0.03867457  0.67173320  0.55713380  1.0
  H  H21  1  0.90561632  0.66111716  0.68647476  1.0
  H  H22  1  0.80172770  0.74278833  0.62728261  1.0
  H  H23  1  0.73523405  0.64688222  0.64351387  1.0
  H  H24  1  0.77596619  0.32202368  0.77694489  1.0
  H  H25  1  0.72539806  0.38211307  0.68992423  1.0
  H  H26  1  0.65576809  0.26250770  0.63529755  1.0
  H  H27  1  0.84707977  0.23612866  0.66707050  1.0
  H  H28  1  0.69439382  0.20006730  0.72213209  1.0
  H  H29  1  0.21316610  0.64158893  0.32669562  1.0
  H  H30  1  0.16253891  0.70590489  0.24157631  1.0
  H  H31  1  0.30555753  0.81166509  0.29099710  1.0
  H  H32  1  0.14104975  0.79476888  0.34847805  1.0
  H  H33  1  0.32818471  0.74747651  0.37770175  1.0
  H  H34  1  0.85926381  0.76570445  0.37987570  1.0
  H  H35  1  0.89161077  0.66354014  0.35131535  1.0
  H  H36  1  0.83664595  0.76063490  0.23709795  1.0
  H  H37  1  0.68164116  0.70505285  0.25654782  1.0
  H  H38  1  0.65959124  0.80902199  0.27922769  1.0
  H  H39  1  0.21493911  0.22727312  0.65727270  1.0
  H  H40  1  0.09269204  0.28634560  0.58652136  1.0
  H  H41  1  0.09689784  0.41482401  0.65215173  1.0
  H  H42  1  0.03122373  0.33904481  0.71661868  1.0
  H  H43  1  0.22420860  0.35642530  0.71971897  1.0
  C  C44  1  0.50191102  0.50903803  0.35630450  1.0
  C  C45  1  0.50020912  0.50080753  0.65027978  1.0
  C  C46  1  0.38176960  0.49850440  0.97259283  1.0
  C  C47  1  0.38126712  0.50001226  0.04144474  1.0
  C  C48  1  0.59293815  0.83333354  0.44364009  1.0
  C  C49  1  0.38253848  0.17614246  0.53390134  1.0
  C  C50  1  0.59559769  0.74817755  0.44798776  1.0
  C  C51  1  0.40052851  0.25789218  0.53959590  1.0
  C  C52  1  0.40070068  0.75831894  0.54234146  1.0
  C  C53  1  0.61363863  0.24216622  0.45536563  1.0
  C  C54  1  0.39004620  0.84285369  0.54208531  1.0
  C  C55  1  0.60711254  0.16036547  0.44777445  1.0
  C  C56  1  0.48845107  0.88156760  0.49132769  1.0
  C  C57  1  0.48943460  0.12609326  0.48881192  1.0
  C  C58  1  0.48357042  0.96768946  0.48838073  1.0
  C  C59  1  0.48301105  0.04149392  0.48699527  1.0
  C  C60  1  0.81462340  0.46614921  0.49911376  1.0
  C  C61  1  0.22378069  0.51892378  0.50979040  1.0
  C  C62  1  0.98581675  0.46217061  0.48727215  1.0
  C  C63  1  0.05819737  0.51372284  0.52259883  1.0
  C  C64  1  0.37947084  0.57163162  0.84559638  1.0
  C  C65  1  0.44119598  0.43008097  0.16755614  1.0
  C  C66  1  0.41560481  0.56962408  0.76855479  1.0
  C  C67  1  0.47261503  0.43518069  0.24264128  1.0
  C  C68  1  0.47195231  0.49569449  0.73480676  1.0
  C  C69  1  0.46046374  0.51099235  0.27475534  1.0
  C  C70  1  0.49137177  0.42129698  0.78214327  1.0
  C  C71  1  0.41114219  0.58370644  0.22775762  1.0
  C  C72  1  0.45522703  0.42287663  0.85975570  1.0
  C  C73  1  0.38178127  0.57920863  0.15179214  1.0
  C  C74  1  0.40097458  0.49751725  0.89281983  1.0
  C  C75  1  0.39827851  0.50288794  0.12005755  1.0
  C  C76  1  0.98446777  0.37885555  0.38229545  1.0
  C  C77  1  0.10610403  0.34666540  0.32343066  1.0
  C  C78  1  0.93366740  0.64475741  0.56638991  1.0
  C  C79  1  0.83823000  0.67548265  0.63511998  1.0
  C  C80  1  0.70106711  0.32944082  0.72787683  1.0
  C  C81  1  0.72553003  0.25223813  0.68570919  1.0
  C  C82  1  0.24675825  0.69088436  0.28697968  1.0
  C  C83  1  0.25640597  0.76575233  0.32845412  1.0
  C  C84  1  0.80532374  0.72004434  0.35457842  1.0
  C  C85  1  0.74155530  0.75067398  0.27743805  1.0
  C  C86  1  0.18209184  0.28853980  0.62695193  1.0
  C  C87  1  0.13093186  0.35391422  0.68207038  1.0
  N  N88  1  0.50028469  0.71195397  0.49646803  1.0
  N  N89  1  0.51470685  0.28969101  0.50050790  1.0
  O  O90  1  0.46543155  0.57537628  0.38949898  1.0
  O  O91  1  0.49659328  0.43661795  0.61635470  1.0
  O  O92  1  0.56990083  0.43997895  0.38644893  1.0
  O  O93  1  0.52132586  0.57025025  0.61853392  1.0
  O  O94  1  0.73187781  0.53671307  0.48859310  1.0
  O  O95  1  0.30999572  0.45741386  0.48256005  1.0
  O  O96  1  0.76746705  0.39795530  0.51488709  1.0
  O  O97  1  0.26858094  0.58413482  0.52671980  1.0
  O  O98  1  0.06436664  0.40415625  0.44305573  1.0
  O  O99  1  0.97667994  0.55622236  0.57986609  1.0
  O  O100  1  0.54303570  0.34466316  0.75651931  1.0
  O  O101  1  0.39650382  0.66162885  0.25266117  1.0
  O  O102  1  0.68869134  0.69448234  0.40686935  1.0
  O  O103  1  0.31500274  0.31034611  0.58414657  1.0
