# generated using pymatgen
data_Zn2H20C25N8
_symmetry_space_group_name_H-M   'P 1'
_cell_length_a   14.87599788
_cell_length_b   15.22928074
_cell_length_c   23.64958836
_cell_angle_alpha   89.28386343
_cell_angle_beta   89.76823353
_cell_angle_gamma   80.25306514
_symmetry_Int_Tables_number   1
_chemical_formula_structural   Zn2H20C25N8
_chemical_formula_sum   'Zn8 H80 C100 N32'
_cell_volume   5280.06967802
_cell_formula_units_Z   4
loop_
 _symmetry_equiv_pos_site_id
 _symmetry_equiv_pos_as_xyz
  1  'x, y, z'
loop_
 _atom_site_type_symbol
 _atom_site_label
 _atom_site_symmetry_multiplicity
 _atom_site_fract_x
 _atom_site_fract_y
 _atom_site_fract_z
 _atom_site_occupancy
  Zn  Zn0  1  0.44369132  0.42266996  0.41378777  1.0
  Zn  Zn1  1  0.61177191  0.53555497  0.42033052  1.0
  Zn  Zn2  1  0.92427583  0.92015578  0.92201410  1.0
  Zn  Zn3  1  0.06073533  0.06998888  0.92435487  1.0
  Zn  Zn4  1  0.59315767  0.56370748  0.56083471  1.0
  Zn  Zn5  1  0.44809399  0.42621760  0.55595707  1.0
  Zn  Zn6  1  0.05211002  0.06824237  0.06328862  1.0
  Zn  Zn7  1  0.92587022  0.91447164  0.05990692  1.0
  H  H8  1  0.54563677  0.24404109  0.36190644  1.0
  H  H9  1  0.51805207  0.68533491  0.32340375  1.0
  H  H10  1  0.97015657  0.84245104  0.79256854  1.0
  H  H11  1  0.92442223  0.23043469  0.87295117  1.0
  H  H12  1  0.43252597  0.91832619  0.50667933  1.0
  H  H13  1  0.39358171  0.05532351  0.44565505  1.0
  H  H14  1  0.09644121  0.43667124  0.03447076  1.0
  H  H15  1  0.12328234  0.57492597  0.04281677  1.0
  H  H16  1  0.65731114  0.16374153  0.68936550  1.0
  H  H17  1  0.33240800  0.82238321  0.64854153  1.0
  H  H18  1  0.20834556  0.72069853  0.14573603  1.0
  H  H19  1  0.77062506  0.32303917  0.15509469  1.0
  H  H20  1  0.33793784  0.77823161  0.33109483  1.0
  H  H21  1  0.68900180  0.13145486  0.31109017  1.0
  H  H22  1  0.79197676  0.33011395  0.83555267  1.0
  H  H23  1  0.10858883  0.72556416  0.77960083  1.0
  H  H24  1  0.73685933  0.40614241  0.74682871  1.0
  H  H25  1  0.22416195  0.61299604  0.73540384  1.0
  H  H26  1  0.21770392  0.89211942  0.28786438  1.0
  H  H27  1  0.74202546  0.06404960  0.21985910  1.0
  H  H28  1  0.12507917  0.66072398  0.56764804  1.0
  H  H29  1  0.96105630  0.65728871  0.57438228  1.0
  H  H30  1  0.56436167  0.87771130  0.08484068  1.0
  H  H31  1  0.39808852  0.89738456  0.08626164  1.0
  H  H32  1  0.95627445  0.59774312  0.39683650  1.0
  H  H33  1  0.12088608  0.59576771  0.39094418  1.0
  H  H34  1  0.39664362  0.85721903  0.90617131  1.0
  H  H35  1  0.56347494  0.83597892  0.90495215  1.0
  H  H36  1  0.74015476  0.44766553  0.64213743  1.0
  H  H37  1  0.30725633  0.51444555  0.66205065  1.0
  H  H38  1  0.17481071  0.00809799  0.17756071  1.0
  H  H39  1  0.74762065  0.02178902  0.11503354  1.0
  H  H40  1  0.83365725  0.53219638  0.41078263  1.0
  H  H41  1  0.28859468  0.58993297  0.38939797  1.0
  H  H42  1  0.24008217  0.92437380  0.90385573  1.0
  H  H43  1  0.71324558  0.87328113  0.90081125  1.0
  H  H44  1  0.47060307  0.20674566  0.56052922  1.0
  H  H45  1  0.44234443  0.74644977  0.55734925  1.0
  H  H46  1  0.08414683  0.74911743  0.08365746  1.0
  H  H47  1  0.09546577  0.27233084  0.08621644  1.0
  H  H48  1  0.79442209  0.64801959  0.57699625  1.0
  H  H49  1  0.26730871  0.56307072  0.57097453  1.0
  H  H50  1  0.24174281  0.93492726  0.08687235  1.0
  H  H51  1  0.72479019  0.85159894  0.08325736  1.0
  H  H52  1  0.55153221  0.26219284  0.62714486  1.0
  H  H53  1  0.48102142  0.71408047  0.64794659  1.0
  H  H54  1  0.02260924  0.79141187  0.16710822  1.0
  H  H55  1  0.91243834  0.23005203  0.10606829  1.0
  H  H56  1  0.62087655  0.91756543  0.45301884  1.0
  H  H57  1  0.58536961  0.07691834  0.48432677  1.0
  H  H58  1  0.20593038  0.41485765  0.92365733  1.0
  H  H59  1  0.18004412  0.57368299  0.91778729  1.0
  H  H60  1  0.32545203  0.59462731  0.13278885  1.0
  H  H61  1  0.41174039  0.56221617  0.18470406  1.0
  H  H62  1  0.30451436  0.52831409  0.19186385  1.0
  H  H63  1  0.71227011  0.45079311  0.20380768  1.0
  H  H64  1  0.65613459  0.44826377  0.27040116  1.0
  H  H65  1  0.77626811  0.43869364  0.26717022  1.0
  H  H66  1  0.68168481  0.03547213  0.73976390  1.0
  H  H67  1  0.76879213  0.01903335  0.79233898  1.0
  H  H68  1  0.65330386  0.05308262  0.81209677  1.0
  H  H69  1  0.23955494  0.96995846  0.64482675  1.0
  H  H70  1  0.14678672  0.00033310  0.69247155  1.0
  H  H71  1  0.26041343  0.99510625  0.71593112  1.0
  H  H72  1  0.40243569  0.19676026  0.35024913  1.0
  H  H73  1  0.28859421  0.21254577  0.37521467  1.0
  H  H74  1  0.33706092  0.30614394  0.35338414  1.0
  H  H75  1  0.58228692  0.81835655  0.36677698  1.0
  H  H76  1  0.68290870  0.78003961  0.40609116  1.0
  H  H77  1  0.63743907  0.70469442  0.36304672  1.0
  H  H78  1  0.13018922  0.71106743  0.86757885  1.0
  H  H79  1  0.04886783  0.64344194  0.88693634  1.0
  H  H80  1  0.01219133  0.75397768  0.86059479  1.0
  H  H81  1  0.10084435  0.33717844  0.87559440  1.0
  H  H82  1  0.20838325  0.26622622  0.87667861  1.0
  H  H83  1  0.10855938  0.22147875  0.86122865  1.0
  H  H84  1  0.75899857  0.40427731  0.36329738  1.0
  H  H85  1  0.34315621  0.49175768  0.29416021  1.0
  H  H86  1  0.18052886  0.00442388  0.80720260  1.0
  H  H87  1  0.74047371  0.04040537  0.89214051  1.0
  C  C88  1  0.59071167  0.29153241  0.37003724  1.0
  C  C89  1  0.48532675  0.62699108  0.32237566  1.0
  C  C90  1  0.01448359  0.88900728  0.80427882  1.0
  C  C91  1  0.88900881  0.17590995  0.88428180  1.0
  C  C92  1  0.66198448  0.33454443  0.65706062  1.0
  C  C93  1  0.36276473  0.64319394  0.66619081  1.0
  C  C94  1  0.12886427  0.87511452  0.18674937  1.0
  C  C95  1  0.80628299  0.14671346  0.13021729  1.0
  C  C96  1  0.85332790  0.60317244  0.49175934  1.0
  C  C97  1  0.23649262  0.59693111  0.47955191  1.0
  C  C98  1  0.28396784  0.91148133  0.99558664  1.0
  C  C99  1  0.67611098  0.85879390  0.99274582  1.0
  C  C100  1  0.42333665  0.18461430  0.47272999  1.0
  C  C101  1  0.51282580  0.79308159  0.48106860  1.0
  C  C102  1  0.09596486  0.69713382  0.99480353  1.0
  C  C103  1  0.12281348  0.30838146  0.99582072  1.0
  C  C104  1  0.55265918  0.94516966  0.46850467  1.0
  C  C105  1  0.53004717  0.04115313  0.47318953  1.0
  C  C106  1  0.17047934  0.44964062  0.95959798  1.0
  C  C107  1  0.16296740  0.54582261  0.95839050  1.0
  C  C108  1  0.49581345  0.88903405  0.48534939  1.0
  C  C109  1  0.44611480  0.08924328  0.46345548  1.0
  C  C110  1  0.13096289  0.40143382  0.99828026  1.0
  C  C111  1  0.13137020  0.60307332  0.00059853  1.0
  C  C112  1  0.68618374  0.20125524  0.72172975  1.0
  C  C113  1  0.28491386  0.80080866  0.67898443  1.0
  C  C114  1  0.23537092  0.73225835  0.18734587  1.0
  C  C115  1  0.75421249  0.28038284  0.18978608  1.0
  C  C116  1  0.30378519  0.66779579  0.21045366  1.0
  C  C117  1  0.72547305  0.31984306  0.24125566  1.0
  C  C118  1  0.71542095  0.15703419  0.77230712  1.0
  C  C119  1  0.21970294  0.86601839  0.70397135  1.0
  C  C120  1  0.34047512  0.68426687  0.26353119  1.0
  C  C121  1  0.70309084  0.26516595  0.28644088  1.0
  C  C122  1  0.75756208  0.20267108  0.81397590  1.0
  C  C123  1  0.15702854  0.83910981  0.74290923  1.0
  C  C124  1  0.30985034  0.76628974  0.28986995  1.0
  C  C125  1  0.70679744  0.17379418  0.27666914  1.0
  C  C126  1  0.76301644  0.29285821  0.80317693  1.0
  C  C127  1  0.15794154  0.74714335  0.75078532  1.0
  C  C128  1  0.73271048  0.33581080  0.75286190  1.0
  C  C129  1  0.22323741  0.68339693  0.72583964  1.0
  C  C130  1  0.24211356  0.83007298  0.26587795  1.0
  C  C131  1  0.73574447  0.13587076  0.22514403  1.0
  C  C132  1  0.68676381  0.41051486  0.63081798  1.0
  C  C133  1  0.36086909  0.55336088  0.65378055  1.0
  C  C134  1  0.12640532  0.96381687  0.16919104  1.0
  C  C135  1  0.79785944  0.06440090  0.10647612  1.0
  C  C136  1  0.69495551  0.29006245  0.71013731  1.0
  C  C137  1  0.29090628  0.70918813  0.69078275  1.0
  C  C138  1  0.20211169  0.81293683  0.21447196  1.0
  C  C139  1  0.76220958  0.18853676  0.18084844  1.0
  C  C140  1  0.08849599  0.64603420  0.52994857  1.0
  C  C141  1  0.99534963  0.64462376  0.53368765  1.0
  C  C142  1  0.52831830  0.87200047  0.04531895  1.0
  C  C143  1  0.43362127  0.88344555  0.04610206  1.0
  C  C144  1  0.94615195  0.62207246  0.48691599  1.0
  C  C145  1  0.13717719  0.62351265  0.47949098  1.0
  C  C146  1  0.38294793  0.88226188  0.99599539  1.0
  C  C147  1  0.57792263  0.85807896  0.99446033  1.0
  C  C148  1  0.99287818  0.61086646  0.43485276  1.0
  C  C149  1  0.08603628  0.61102773  0.43121995  1.0
  C  C150  1  0.43284430  0.86179198  0.94577848  1.0
  C  C151  1  0.52767127  0.84999979  0.94504904  1.0
  C  C152  1  0.80910077  0.55822091  0.45159825  1.0
  C  C153  1  0.29762336  0.57578630  0.43431781  1.0
  C  C154  1  0.22623204  0.93363855  0.94867356  1.0
  C  C155  1  0.73120778  0.86884254  0.94536606  1.0
  C  C156  1  0.44203799  0.23272260  0.52030465  1.0
  C  C157  1  0.48315453  0.73282027  0.51938624  1.0
  C  C158  1  0.07084415  0.75775337  0.03873794  1.0
  C  C159  1  0.10212304  0.25546570  0.04169713  1.0
  C  C160  1  0.78960506  0.61663874  0.53638597  1.0
  C  C161  1  0.28777904  0.56250766  0.52700159  1.0
  C  C162  1  0.22711998  0.93969472  0.04194670  1.0
  C  C163  1  0.73686157  0.85856712  0.03822128  1.0
  C  C164  1  0.38432074  0.25103109  0.43397895  1.0
  C  C165  1  0.56345185  0.73785078  0.44012362  1.0
  C  C166  1  0.06038945  0.74507675  0.94571739  1.0
  C  C167  1  0.12243125  0.25181373  0.94866584  1.0
  C  C168  1  0.59182298  0.31496580  0.62236084  1.0
  C  C169  1  0.44842272  0.65561113  0.64552433  1.0
  C  C170  1  0.04964373  0.85308842  0.16267732  1.0
  C  C171  1  0.88086753  0.17131512  0.10109184  1.0
  C  C172  1  0.69860474  0.37416998  0.36995485  1.0
  C  C173  1  0.39654205  0.52833650  0.30638633  1.0
  C  C174  1  0.12109641  0.97204803  0.81113737  1.0
  C  C175  1  0.79585034  0.07840153  0.89271946  1.0
  C  C176  1  0.66953746  0.30456240  0.34047558  1.0
  C  C177  1  0.40578582  0.61647497  0.29335250  1.0
  C  C178  1  0.09804528  0.90070883  0.78007489  1.0
  C  C179  1  0.80620637  0.15680750  0.86288509  1.0
  C  C180  1  0.33823516  0.58406740  0.17824683  1.0
  C  C181  1  0.71680719  0.41953904  0.24600072  1.0
  C  C182  1  0.70437478  0.06110889  0.77945317  1.0
  C  C183  1  0.21633321  0.96281323  0.68851043  1.0
  C  C184  1  0.35173795  0.24117546  0.37519867  1.0
  C  C185  1  0.61864535  0.76157565  0.39128488  1.0
  C  C186  1  0.06272238  0.71209579  0.88701109  1.0
  C  C187  1  0.13578592  0.27002864  0.88745176  1.0
  N  N188  1  0.57177234  0.35181263  0.41183468  1.0
  N  N189  1  0.52034900  0.55166961  0.35065823  1.0
  N  N190  1  0.99143498  0.94561173  0.84735051  1.0
  N  N191  1  0.92577109  0.11247514  0.92158797  1.0
  N  N192  1  0.63404545  0.43447853  0.58493604  1.0
  N  N193  1  0.43718901  0.51648692  0.62624964  1.0
  N  N194  1  0.05334175  0.99109859  0.13569885  1.0
  N  N195  1  0.86414236  0.04117693  0.06767339  1.0
  N  N196  1  0.72656991  0.54669833  0.47029732  1.0
  N  N197  1  0.37792816  0.53019361  0.45382134  1.0
  N  N198  1  0.14298841  0.97355699  0.96623275  1.0
  N  N199  1  0.81681178  0.87442184  0.96147956  1.0
  N  N200  1  0.41685985  0.32077781  0.51108360  1.0
  N  N201  1  0.51414846  0.64800323  0.50355855  1.0
  N  N202  1  0.02395379  0.83461818  0.01794422  1.0
  N  N203  1  0.09153165  0.17441667  0.02408410  1.0
  N  N204  1  0.71387200  0.58341474  0.52296735  1.0
  N  N205  1  0.37120117  0.52207761  0.51096775  1.0
  N  N206  1  0.14372003  0.97723337  0.02357078  1.0
  N  N207  1  0.82041180  0.86784817  0.01946238  1.0
  N  N208  1  0.38219581  0.33247039  0.45682069  1.0
  N  N209  1  0.55989888  0.65270322  0.45381650  1.0
  N  N210  1  0.01750511  0.82685124  0.96061780  1.0
  N  N211  1  0.10322379  0.17244393  0.96635795  1.0
  N  N212  1  0.57512671  0.37546895  0.57977134  1.0
  N  N213  1  0.49211643  0.58048696  0.62147098  1.0
  N  N214  1  0.00505896  0.92176717  0.13187523  1.0
  N  N215  1  0.91595984  0.10691426  0.06450825  1.0
  N  N216  1  0.63915966  0.40275829  0.41189216  1.0
  N  N217  1  0.46420254  0.49015972  0.34107081  1.0
  N  N218  1  0.05813525  0.99789690  0.85129626  1.0
  N  N219  1  0.86835614  0.05181954  0.92706566  1.0
