# generated using pymatgen
data_Zn8H65C80Br7O32
_symmetry_space_group_name_H-M   'P 1'
_cell_length_a   18.31031551
_cell_length_b   18.32257733
_cell_length_c   18.40305736
_cell_angle_alpha   90.30223566
_cell_angle_beta   119.82286410
_cell_angle_gamma   119.36181538
_symmetry_Int_Tables_number   1
_chemical_formula_structural   Zn8H65C80Br7O32
_chemical_formula_sum   'Zn8 H65 C80 Br7 O32'
_cell_volume   4407.68695862
_cell_formula_units_Z   1
loop_
 _symmetry_equiv_pos_site_id
 _symmetry_equiv_pos_as_xyz
  1  'x, y, z'
loop_
 _atom_site_type_symbol
 _atom_site_label
 _atom_site_symmetry_multiplicity
 _atom_site_fract_x
 _atom_site_fract_y
 _atom_site_fract_z
 _atom_site_occupancy
  Zn  Zn0  1  0.41050854  0.54134406  0.46135152  1.0
  Zn  Zn1  1  0.58297006  0.54071569  0.45648240  1.0
  Zn  Zn2  1  0.41772224  0.37073633  0.46250556  1.0
  Zn  Zn3  1  0.58945086  0.54225346  0.63525918  1.0
  Zn  Zn4  1  0.58559833  0.95368189  0.04722352  1.0
  Zn  Zn5  1  0.59048748  0.12929257  0.04852010  1.0
  Zn  Zn6  1  0.40663255  0.95097765  0.03795200  1.0
  Zn  Zn7  1  0.41301491  0.95810870  0.87079762  1.0
  H  H8  1  0.53758411  0.80122638  0.65566607  1.0
  H  H9  1  0.09891019  0.78164043  0.96940667  1.0
  H  H10  1  0.90493634  0.67412073  0.87515053  1.0
  H  H11  1  0.35486150  0.18553814  0.26755133  1.0
  H  H12  1  0.35356157  0.08694987  0.17282693  1.0
  H  H13  1  0.73872765  0.34017831  0.30480306  1.0
  H  H14  1  0.73615890  0.44999081  0.38520278  1.0
  H  H15  1  0.40434606  0.46231298  0.81555143  1.0
  H  H16  1  0.66864297  0.46607917  0.28300936  1.0
  H  H17  1  0.32339594  0.72359676  0.12798631  1.0
  H  H18  1  0.70542385  0.83218029  0.24623174  1.0
  H  H19  1  0.08627055  0.45878393  0.34803276  1.0
  H  H20  1  0.73196646  0.91257619  0.32720082  1.0
  H  H21  1  0.70035042  0.73275882  0.34026555  1.0
  H  H22  1  0.72659485  0.81338345  0.42097158  1.0
  H  H23  1  0.89188597  0.35794062  0.25020730  1.0
  H  H24  1  0.10751196  0.44305912  0.55363345  1.0
  H  H25  1  0.04025660  0.46762290  0.45970348  1.0
  H  H26  1  0.27241112  0.55533064  0.57363484  1.0
  H  H27  1  0.20786178  0.58261810  0.48204051  1.0
  H  H28  1  0.14821860  0.62979881  0.56038168  1.0
  H  H29  1  0.28345155  0.69173373  0.62302184  1.0
  H  H30  1  0.37606615  0.08962184  0.69008472  1.0
  H  H31  1  0.21631910  0.60463446  0.65335929  1.0
  H  H32  1  0.22924384  0.16383271  0.58977696  1.0
  H  H33  1  0.29109227  0.25468504  0.55852229  1.0
  H  H34  1  0.20108899  0.15463151  0.41012503  1.0
  H  H35  1  0.14682836  0.06045194  0.44030800  1.0
  H  H36  1  0.05224405  0.11162482  0.46334466  1.0
  H  H37  1  0.02226191  0.10302884  0.35467933  1.0
  H  H38  1  0.10953102  0.20841277  0.43744250  1.0
  H  H39  1  0.85873704  0.45877391  0.00889010  1.0
  H  H40  1  0.75087258  0.37241237  0.90750690  1.0
  H  H41  1  0.59005347  0.36828535  0.96522809  1.0
  H  H42  1  0.83773981  0.33973197  0.08561822  1.0
  H  H43  1  0.74579960  0.25875390  0.98008479  1.0
  H  H44  1  0.87969484  0.32270751  0.94501286  1.0
  H  H45  1  0.91651958  0.28685046  0.03875112  1.0
  H  H46  1  0.97170030  0.40162170  0.05332837  1.0
  H  H47  1  0.84267598  0.61498268  0.96850212  1.0
  H  H48  1  0.74743059  0.57392034  0.98954549  1.0
  H  H49  1  0.74771766  0.64986810  0.84097583  1.0
  H  H50  1  0.63642303  0.58739792  0.83838569  1.0
  H  H51  1  0.71585318  0.69550757  0.97991011  1.0
  H  H52  1  0.57903238  0.45897752  0.86630757  1.0
  H  H53  1  0.72187179  0.75049408  0.90207843  1.0
  H  H54  1  0.83306370  0.76061191  0.99018903  1.0
  H  H55  1  0.22787328  0.22350909  0.22404342  1.0
  H  H56  1  0.18387361  0.29377060  0.20035829  1.0
  H  H57  1  0.06094388  0.10100447  0.08495392  1.0
  H  H58  1  0.02059622  0.17267671  0.06024991  1.0
  H  H59  1  0.16879045  0.27452683  0.04935198  1.0
  H  H60  1  0.09120922  0.16544722  0.97477646  1.0
  H  H61  1  0.21005975  0.20261682  0.07513339  1.0
  H  H62  1  0.86924963  0.01445071  0.20876673  1.0
  H  H63  1  0.89689811  0.73963893  0.58761367  1.0
  H  H64  1  0.97751292  0.03121113  0.21446015  1.0
  H  H65  1  0.75326440  0.91035994  0.05368801  1.0
  H  H66  1  0.85905731  0.92268838  0.06092591  1.0
  H  H67  1  0.89658746  0.86342901  0.18996209  1.0
  H  H68  1  0.76913117  0.78601759  0.09687283  1.0
  H  H69  1  0.79316122  0.85422375  0.18541931  1.0
  H  H70  1  0.45993503  0.53243979  0.72284722  1.0
  H  H71  1  0.08700364  0.83866317  0.67917400  1.0
  H  H72  1  0.10557315  0.69506770  0.93478367  1.0
  C  C73  1  0.77378816  0.63412915  0.63608275  1.0
  C  C74  1  0.11181345  0.30164164  0.30260041  1.0
  C  C75  1  0.05867629  0.21803330  0.24071268  1.0
  C  C76  1  0.22538921  0.36036900  0.36600525  1.0
  C  C77  1  0.94969509  0.16152110  0.18581678  1.0
  C  C78  1  0.89044254  0.18766428  0.18940515  1.0
  C  C79  1  0.94492225  0.27051299  0.25060311  1.0
  C  C80  1  0.93190198  0.33003746  0.29204098  1.0
  C  C81  1  0.05518567  0.39333235  0.35729224  1.0
  C  C82  1  0.55046914  0.34332988  0.79229579  1.0
  C  C83  1  0.48344368  0.30712122  0.69951217  1.0
  C  C84  1  0.41311655  0.64948176  0.85637986  1.0
  C  C85  1  0.41631856  0.21287803  0.66465798  1.0
  C  C86  1  0.42696474  0.16152468  0.72040353  1.0
  C  C87  1  0.49750822  0.19932187  0.81285577  1.0
  C  C88  1  0.48529247  0.62588320  0.35510533  1.0
  C  C89  1  0.55734838  0.29206197  0.84792072  1.0
  C  C90  1  0.62794428  0.37132024  0.93286641  1.0
  C  C91  1  0.62033611  0.43008954  0.86776263  1.0
  C  C92  1  0.94747588  0.69705505  0.77874173  1.0
  C  C93  1  0.88752858  0.69082221  0.69085021  1.0
  C  C94  1  0.94112643  0.74331789  0.65635627  1.0
  C  C95  1  0.45371420  0.69640892  0.80917225  1.0
  C  C96  1  0.04774780  0.79932383  0.70785403  1.0
  C  C97  1  0.10725193  0.80706308  0.79747096  1.0
  C  C98  1  0.05401049  0.75394661  0.83073539  1.0
  C  C99  1  0.06607775  0.72833976  0.91220683  1.0
  C  C100  1  0.48999036  0.36465431  0.64315806  1.0
  C  C101  1  0.94571807  0.66387853  0.85303280  1.0
  C  C102  1  0.57347515  0.33536867  0.28864521  1.0
  C  C103  1  0.49645631  0.30347273  0.30251204  1.0
  C  C104  1  0.41654104  0.21248552  0.25854623  1.0
  C  C105  1  0.41596294  0.15707052  0.20582252  1.0
  C  C106  1  0.46772183  0.65077126  0.75819692  1.0
  C  C107  1  0.49611294  0.18887608  0.19500405  1.0
  C  C108  1  0.57404860  0.27920441  0.23753818  1.0
  C  C109  1  0.67940195  0.35134340  0.26304736  1.0
  C  C110  1  0.67481561  0.41653559  0.31404413  1.0
  C  C111  1  0.56800727  0.73934152  0.29887905  1.0
  C  C112  1  0.49835393  0.36078019  0.36174975  1.0
  C  C113  1  0.47929079  0.67771227  0.29280730  1.0
  C  C114  1  0.39062589  0.67309874  0.22807502  1.0
  C  C115  1  0.39319621  0.72877108  0.17651174  1.0
  C  C116  1  0.48454413  0.79174214  0.18556994  1.0
  C  C117  1  0.49710578  0.69011824  0.70261853  1.0
  C  C118  1  0.57123932  0.79460040  0.24722413  1.0
  C  C119  1  0.68490452  0.84141322  0.29065530  1.0
  C  C120  1  0.68161688  0.77891244  0.34961645  1.0
  C  C121  1  0.50241292  0.14086157  0.86866739  1.0
  C  C122  1  0.48782030  0.85222573  0.13211579  1.0
  C  C123  1  0.77656050  0.13070812  0.13492789  1.0
  C  C124  1  0.50436364  0.64085975  0.64383862  1.0
  C  C125  1  0.22076062  0.86680251  0.85407764  1.0
  C  C126  1  0.49712215  0.12867813  0.14163271  1.0
  C  C127  1  0.48398825  0.84505309  0.86736146  1.0
  C  C128  1  0.51660173  0.77225160  0.69928619  1.0
  C  C129  1  0.44867857  0.56628464  0.76106716  1.0
  C  C130  1  0.41750334  0.52661667  0.81238797  1.0
  C  C131  1  0.39889529  0.56806583  0.85960739  1.0
  C  C132  1  0.10897640  0.46692199  0.49930206  1.0
  C  C133  1  0.20606285  0.55924714  0.53653209  1.0
  C  C134  1  0.21401556  0.62491042  0.59647558  1.0
  C  C135  1  0.25836509  0.18345470  0.54812112  1.0
  C  C136  1  0.17265112  0.13032238  0.45121268  1.0
  C  C137  1  0.08436784  0.13874171  0.42525792  1.0
  C  C138  1  0.78883102  0.39118778  0.97972624  1.0
  C  C139  1  0.51109655  0.81949912  0.75453466  1.0
  C  C140  1  0.81505162  0.32693728  0.01675807  1.0
  C  C141  1  0.90025157  0.33490414  0.01320154  1.0
  C  C142  1  0.75993916  0.58078008  0.93638655  1.0
  C  C143  1  0.72024593  0.63200824  0.88365421  1.0
  C  C144  1  0.74968480  0.71426712  0.94208591  1.0
  C  C145  1  0.15898501  0.22400918  0.19000631  1.0
  C  C146  1  0.08863395  0.17088827  0.09163737  1.0
  C  C147  1  0.14273030  0.20535206  0.04532998  1.0
  C  C148  1  0.89908513  0.01398198  0.16954271  1.0
  C  C149  1  0.82927973  0.92353536  0.10001026  1.0
  C  C150  1  0.48003252  0.78394506  0.80826751  1.0
  C  C151  1  0.82164524  0.85285607  0.14536690  1.0
  C  C152  1  0.05095460  0.32480529  0.30544073  1.0
  Br  Br153  1  0.86275076  0.27565546  0.35059281  1.0
  Br  Br154  1  0.89234039  0.53738477  0.83177390  1.0
  Br  Br155  1  0.69946512  0.38256518  0.16940518  1.0
  Br  Br156  1  0.26012560  0.58616998  0.20380016  1.0
  Br  Br157  1  0.35077426  0.50520466  0.92446653  1.0
  Br  Br158  1  0.36802395  0.69125671  0.90883043  1.0
  Br  Br159  1  0.55215706  0.93719107  0.75409659  1.0
  O  O160  1  0.50110021  0.50074560  0.50485415  1.0
  O  O161  1  0.26288766  0.87524929  0.93632901  1.0
  O  O162  1  0.57264712  0.16518231  0.13552564  1.0
  O  O163  1  0.73248380  0.60069101  0.67716286  1.0
  O  O164  1  0.41621901  0.86109386  0.82929306  1.0
  O  O165  1  0.42334844  0.04648931  0.10714450  1.0
  O  O166  1  0.55985216  0.87931053  0.94827893  1.0
  O  O167  1  0.73205320  0.04763223  0.12091954  1.0
  O  O168  1  0.26642993  0.90371852  0.81726292  1.0
  O  O169  1  0.55243154  0.17799942  0.95179384  1.0
  O  O170  1  0.41625676  0.86430239  0.09795867  1.0
  O  O171  1  0.43806278  0.61668571  0.39038103  1.0
  O  O172  1  0.26529636  0.44360653  0.38336181  1.0
  O  O173  1  0.54201281  0.59857516  0.36987567  1.0
  O  O174  1  0.45645073  0.32896740  0.56413609  1.0
  O  O175  1  0.57068136  0.44320286  0.39487192  1.0
  O  O176  1  0.57692156  0.63050958  0.68175048  1.0
  O  O177  1  0.42818237  0.32305137  0.37511253  1.0
  O  O178  1  0.43635234  0.61440683  0.56108578  1.0
  O  O179  1  0.10149213  0.40107476  0.44732776  1.0
  O  O180  1  0.33723244  0.16744706  0.57681555  1.0
  O  O181  1  0.72524469  0.39497484  0.00214244  1.0
  O  O182  1  0.53305231  0.44691622  0.67969895  1.0
  O  O183  1  0.71276949  0.49470796  0.87978228  1.0
  O  O184  1  0.10906498  0.18566152  0.23417129  1.0
  O  O185  1  0.90272713  0.08143450  0.12737302  1.0
  O  O186  1  0.72760429  0.62472507  0.55357309  1.0
  O  O187  1  0.27219875  0.32330841  0.39867151  1.0
  O  O188  1  0.49952347  0.99854330  0.00080466  1.0
  O  O189  1  0.45590984  0.05889406  0.82845224  1.0
  O  O190  1  0.56347811  0.88749727  0.12587798  1.0
  O  O191  1  0.73410317  0.17227621  0.10882619  1.0
