# generated using pymatgen
data_MgH7C19NO5
_symmetry_space_group_name_H-M   'P 1'
_cell_length_a   6.80006713
_cell_length_b   41.53320656
_cell_length_c   41.52600432
_cell_angle_alpha   119.68543497
_cell_angle_beta   93.12534954
_cell_angle_gamma   93.13624356
_symmetry_Int_Tables_number   1
_chemical_formula_structural   MgH7C19NO5
_chemical_formula_sum   'Mg6 H42 C114 N6 O30'
_cell_volume   10128.51139197
_cell_formula_units_Z   6
loop_
 _symmetry_equiv_pos_site_id
 _symmetry_equiv_pos_as_xyz
  1  'x, y, z'
loop_
 _atom_site_type_symbol
 _atom_site_label
 _atom_site_symmetry_multiplicity
 _atom_site_fract_x
 _atom_site_fract_y
 _atom_site_fract_z
 _atom_site_occupancy
  Mg  Mg0  1  0.85249923  0.69010843  0.32951722  1.0
  Mg  Mg1  1  0.30244921  0.30903263  0.66913557  1.0
  Mg  Mg2  1  0.16246494  0.63947029  0.30986478  1.0
  Mg  Mg3  1  0.99313472  0.35994191  0.69093295  1.0
  Mg  Mg4  1  0.52298947  0.67045253  0.36051336  1.0
  Mg  Mg5  1  0.63309735  0.33083308  0.63999037  1.0
  H  H6  1  0.15815117  0.55476447  0.96055353  1.0
  H  H7  1  0.95246769  0.52319350  0.90026404  1.0
  H  H8  1  0.29864381  0.58122349  0.01008977  1.0
  H  H9  1  0.49661950  0.61166984  0.07118700  1.0
  H  H10  1  0.21053734  0.47068443  0.09880563  1.0
  H  H11  1  0.00283737  0.43927678  0.03877515  1.0
  H  H12  1  0.39113417  0.59066637  0.20485720  1.0
  H  H13  1  0.11138104  0.62701441  0.21939783  1.0
  H  H14  1  0.93292910  0.59040738  0.15594510  1.0
  H  H15  1  0.84198415  0.41499579  0.99108864  1.0
  H  H16  1  0.64268688  0.38483421  0.93016127  1.0
  H  H17  1  0.76272580  0.40512890  0.79546309  1.0
  H  H18  1  0.04186117  0.36905657  0.77994935  1.0
  H  H19  1  0.21893551  0.40452635  0.84351429  1.0
  H  H20  1  0.60288823  0.40586283  0.44521136  1.0
  H  H21  1  0.42882059  0.37711826  0.47677147  1.0
  H  H22  1  0.71908854  0.42900320  0.41899834  1.0
  H  H23  1  0.88626099  0.45967769  0.38852630  1.0
  H  H24  1  0.73952073  0.62817899  0.52938267  1.0
  H  H25  1  0.56316667  0.59950846  0.56076646  1.0
  H  H26  1  0.79990644  0.61419736  0.40926386  1.0
  H  H27  1  0.48404542  0.59245230  0.37300351  1.0
  H  H28  1  0.34220492  0.56567314  0.40968168  1.0
  H  H29  1  0.42659097  0.57604743  0.58504055  1.0
  H  H30  1  0.25744797  0.54522430  0.61516811  1.0
  H  H31  1  0.35750518  0.39033389  0.59489092  1.0
  H  H32  1  0.67253029  0.41069616  0.63089605  1.0
  H  H33  1  0.81404571  0.43887772  0.59547631  1.0
  H  H34  1  0.19772315  0.03939944  0.59422336  1.0
  H  H35  1  0.05248211  0.09968772  0.62293850  1.0
  H  H36  1  0.29147944  0.99007146  0.57108184  1.0
  H  H37  1  0.42708908  0.92885433  0.54037158  1.0
  H  H38  1  0.10974050  0.90113184  0.37190004  1.0
  H  H39  1  0.96292823  0.96124337  0.40056283  1.0
  H  H40  1  0.18533163  0.79497279  0.38569317  1.0
  H  H41  1  0.89144140  0.78068785  0.40755406  1.0
  H  H42  1  0.77577079  0.84405807  0.43435036  1.0
  H  H43  1  0.85124475  0.00899898  0.42396973  1.0
  H  H44  1  0.71348224  0.06998529  0.45474155  1.0
  H  H45  1  0.96776973  0.20454790  0.60962336  1.0
  H  H46  1  0.26222849  0.22000333  0.58914815  1.0
  H  H47  1  0.37597679  0.15644869  0.56102081  1.0
  C  C48  1  0.60850478  0.40808133  0.88134845  1.0
  C  C49  1  0.71691195  0.46058419  0.87095997  1.0
  C  C50  1  0.83919289  0.47817310  0.90707901  1.0
  C  C51  1  0.84114930  0.46179381  0.92995270  1.0
  C  C52  1  0.95842618  0.47968626  0.96507534  1.0
  C  C53  1  0.95875033  0.46257953  0.98767366  1.0
  C  C54  1  0.07957882  0.48080405  0.02347295  1.0
  C  C55  1  0.19263224  0.51547396  0.03517074  1.0
  C  C56  1  0.19043538  0.53276216  0.01275092  1.0
  C  C57  1  0.07314686  0.51414180  0.97659887  1.0
  C  C58  1  0.06947449  0.52890928  0.95271402  1.0
  C  C59  1  0.95428627  0.51136253  0.91855783  1.0
  C  C60  1  0.30026981  0.56722407  0.02636769  1.0
  C  C61  1  0.41289829  0.58472152  0.06077766  1.0
  C  C62  1  0.42001509  0.56810133  0.08270434  1.0
  C  C63  1  0.31015564  0.53340261  0.07026849  1.0
  C  C64  1  0.31611987  0.51661083  0.09276250  1.0
  C  C65  1  0.20486924  0.48296464  0.08090899  1.0
  C  C66  1  0.08830872  0.46551415  0.04688879  1.0
  C  C67  1  0.43901644  0.53424346  0.12882735  1.0
  C  C68  1  0.53952509  0.58754598  0.11912005  1.0
  C  C69  1  0.64955969  0.58867744  0.17644181  1.0
  C  C70  1  0.54888135  0.59875137  0.20762609  1.0
  C  C71  1  0.64638534  0.61951016  0.24366529  1.0
  C  C72  1  0.85377110  0.63061304  0.24826038  1.0
  C  C73  1  0.95312489  0.61885467  0.21581336  1.0
  C  C74  1  0.85358363  0.59838724  0.18054192  1.0
  C  C75  1  0.52595695  0.62924279  0.27514175  1.0
  C  C76  1  0.84378529  0.42868516  0.97451724  1.0
  C  C77  1  0.73018799  0.41136197  0.94019379  1.0
  C  C78  1  0.72745395  0.42753293  0.91784370  1.0
  C  C79  1  0.50345389  0.40661759  0.82350408  1.0
  C  C80  1  0.60491260  0.39706675  0.79250023  1.0
  C  C81  1  0.50789084  0.37708667  0.75638035  1.0
  C  C82  1  0.30014016  0.36606736  0.75140050  1.0
  C  C83  1  0.20024357  0.37711582  0.78369975  1.0
  C  C84  1  0.29918575  0.39694765  0.81908919  1.0
  C  C85  1  0.62906628  0.36846900  0.72520745  1.0
  C  C86  1  0.19977566  0.47319701  0.59187103  1.0
  C  C87  1  0.25620762  0.41037265  0.53941507  1.0
  C  C88  1  0.36078242  0.42892028  0.52181912  1.0
  C  C89  1  0.37913576  0.46815757  0.53819700  1.0
  C  C90  1  0.47840681  0.48541452  0.52031822  1.0
  C  C91  1  0.49577182  0.52510799  0.53743672  1.0
  C  C92  1  0.59829914  0.54271803  0.51922782  1.0
  C  C93  1  0.67662132  0.51976861  0.48455609  1.0
  C  C94  1  0.65761895  0.48007515  0.46729907  1.0
  C  C95  1  0.55865666  0.46250991  0.48585968  1.0
  C  C96  1  0.54010170  0.42386623  0.47107130  1.0
  C  C97  1  0.44253906  0.40723546  0.48861561  1.0
  C  C98  1  0.73396383  0.45926294  0.43293742  1.0
  C  C99  1  0.82882423  0.47618515  0.41541660  1.0
  C  C100  1  0.85154354  0.51471421  0.43196482  1.0
  C  C101  1  0.77610523  0.53695347  0.46663267  1.0
  C  C102  1  0.79903851  0.57623334  0.48343123  1.0
  C  C103  1  0.72148816  0.59801168  0.51708450  1.0
  C  C104  1  0.62239523  0.58141544  0.53452279  1.0
  C  C105  1  0.90463681  0.59466322  0.46581458  1.0
  C  C106  1  0.95120314  0.53168548  0.41248411  1.0
  C  C107  1  0.06047705  0.58784267  0.41133585  1.0
  C  C108  1  0.94956277  0.60888858  0.40120273  1.0
  C  C109  1  0.02641312  0.62413894  0.38042137  1.0
  C  C110  1  0.22283698  0.61767714  0.36935030  1.0
  C  C111  1  0.33397845  0.59701941  0.38114576  1.0
  C  C112  1  0.25487678  0.58225677  0.40165288  1.0
  C  C113  1  0.89638454  0.64593542  0.37073309  1.0
  C  C114  1  0.41476837  0.54579994  0.57133875  1.0
  C  C115  1  0.31845897  0.52876833  0.58864302  1.0
  C  C116  1  0.29959423  0.49026237  0.57245017  1.0
  C  C117  1  0.09657997  0.41681067  0.59336844  1.0
  C  C118  1  0.20768201  0.39536872  0.60293163  1.0
  C  C119  1  0.13075801  0.37920166  0.62291529  1.0
  C  C120  1  0.93395018  0.38519329  0.63389423  1.0
  C  C121  1  0.82291428  0.40644447  0.62285679  1.0
  C  C122  1  0.90196399  0.42203218  0.60303656  1.0
  C  C123  1  0.26050030  0.35663671  0.63152290  1.0
  C  C124  1  0.72743862  0.11865629  0.52677379  1.0
  C  C125  1  0.84676909  0.12906254  0.58963843  1.0
  C  C126  1  0.93270017  0.09293561  0.57111328  1.0
  C  C127  1  0.91178881  0.07007037  0.53186859  1.0
  C  C128  1  0.99373433  0.03494574  0.51464186  1.0
  C  C129  1  0.97118764  0.01235866  0.47494831  1.0
  C  C130  1  0.05544677  0.97650099  0.45735933  1.0
  C  C131  1  0.15675549  0.96477487  0.48030758  1.0
  C  C132  1  0.17809049  0.98725419  0.52000426  1.0
  C  C133  1  0.09687543  0.02339388  0.53756073  1.0
  C  C134  1  0.11697481  0.04725282  0.57620551  1.0
  C  C135  1  0.03611830  0.08142402  0.59281633  1.0
  C  C136  1  0.27553103  0.97371511  0.54081164  1.0
  C  C137  1  0.35308052  0.93924435  0.52387021  1.0
  C  C138  1  0.33672207  0.91722957  0.48533804  1.0
  C  C139  1  0.23870612  0.92964299  0.46311175  1.0
  C  C140  1  0.22167230  0.90713499  0.42383428  1.0
  C  C141  1  0.12225049  0.91902104  0.40206760  1.0
  C  C142  1  0.04022725  0.95308004  0.41865591  1.0
  C  C143  1  0.30818346  0.87104620  0.40537732  1.0
  C  C144  1  0.41943150  0.88079031  0.46835384  1.0
  C  C145  1  0.47194042  0.82347876  0.41215518  1.0
  C  C146  1  0.34033848  0.79226827  0.39103581  1.0
  C  C147  1  0.40231897  0.75628372  0.37577975  1.0
  C  C148  1  0.60520509  0.75172180  0.38229647  1.0
  C  C149  1  0.73673064  0.78420408  0.40296514  1.0
  C  C150  1  0.67198586  0.81943477  0.41775108  1.0
  C  C151  1  0.25065193  0.72477939  0.35397580  1.0
  C  C152  1  0.86975987  0.02557168  0.45422260  1.0
  C  C153  1  0.79073460  0.05990767  0.47122197  1.0
  C  C154  1  0.81027996  0.08220367  0.50973215  1.0
  C  C155  1  0.68052876  0.17648125  0.58310744  1.0
  C  C156  1  0.81289319  0.20749598  0.60453332  1.0
  C  C157  1  0.75185113  0.24360375  0.62070701  1.0
  C  C158  1  0.54901493  0.24855870  0.61469898  1.0
  C  C159  1  0.41693060  0.21624493  0.59342004  1.0
  C  C160  1  0.48060661  0.18086985  0.57786205  1.0
  C  C161  1  0.90404165  0.27477639  0.64331799  1.0
  N  N162  1  0.61058293  0.42591706  0.85988857  1.0
  N  N163  1  0.54169552  0.56925184  0.14014185  1.0
  N  N164  1  0.18446345  0.43392182  0.57408072  1.0
  N  N165  1  0.97212083  0.57098126  0.43079313  1.0
  N  N166  1  0.75138771  0.14012900  0.56605001  1.0
  N  N167  1  0.40019536  0.85975474  0.42904307  1.0
  O  O168  1  0.34664004  0.61588724  0.26977353  1.0
  O  O169  1  0.60613637  0.65235175  0.30843347  1.0
  O  O170  1  0.95678420  0.65158386  0.28158446  1.0
  O  O171  1  0.80841717  0.38194809  0.73109424  1.0
  O  O172  1  0.54957882  0.34630303  0.69161659  1.0
  O  O173  1  0.19748841  0.34594207  0.71791963  1.0
  O  O174  1  0.51250830  0.37780727  0.86975825  1.0
  O  O175  1  0.70731859  0.47493759  0.85123895  1.0
  O  O176  1  0.45214377  0.51967883  0.14832504  1.0
  O  O177  1  0.63253717  0.61813484  0.13100596  1.0
  O  O178  1  0.73046734  0.65391730  0.38409305  1.0
  O  O179  1  0.95368286  0.65617445  0.34766080  1.0
  O  O180  1  0.30503876  0.63004451  0.34839418  1.0
  O  O181  1  0.42638515  0.34905936  0.61804663  1.0
  O  O182  1  0.20317944  0.34517620  0.65366959  1.0
  O  O183  1  0.85141698  0.37178760  0.65399079  1.0
  O  O184  1  0.13336783  0.49186011  0.62207541  1.0
  O  O185  1  0.23242174  0.37630880  0.52505916  1.0
  O  O186  1  0.93271990  0.62871289  0.48040251  1.0
  O  O187  1  0.01307975  0.51297781  0.38183949  1.0
  O  O188  1  0.07678041  0.73013474  0.34594032  1.0
  O  O189  1  0.29770670  0.69150056  0.34380161  1.0
  O  O190  1  0.67517668  0.71842766  0.36997025  1.0
  O  O191  1  0.07753386  0.26889823  0.65092007  1.0
  O  O192  1  0.85787170  0.30835572  0.65481286  1.0
  O  O193  1  0.47968615  0.28203365  0.62811946  1.0
  O  O194  1  0.64231999  0.13018599  0.50809692  1.0
  O  O195  1  0.85702976  0.14878470  0.62370778  1.0
  O  O196  1  0.30098818  0.85152173  0.37131599  1.0
  O  O197  1  0.50064919  0.86888890  0.48704623  1.0
