# generated using pymatgen
data_AlH9C15(SO2)3
_symmetry_space_group_name_H-M   'P 1'
_cell_length_a   3.96482981
_cell_length_b   20.10587327
_cell_length_c   20.10587938
_cell_angle_alpha   120.00007099
_cell_angle_beta   90.00029601
_cell_angle_gamma   89.99997268
_symmetry_Int_Tables_number   1
_chemical_formula_structural   AlH9C15(SO2)3
_chemical_formula_sum   'Al2 H18 C30 S6 O12'
_cell_volume   1388.03649360
_cell_formula_units_Z   2
loop_
 _symmetry_equiv_pos_site_id
 _symmetry_equiv_pos_as_xyz
  1  'x, y, z'
loop_
 _atom_site_type_symbol
 _atom_site_label
 _atom_site_symmetry_multiplicity
 _atom_site_fract_x
 _atom_site_fract_y
 _atom_site_fract_z
 _atom_site_occupancy
  Al  Al0  1  0.99804640  0.00000199  0.50000098  1.0
  Al  Al1  1  0.99809573  0.33333549  0.16666792  1.0
  H  H2  1  0.28593989  0.81131718  0.26811477  1.0
  H  H3  1  0.51293752  0.72748167  0.20297105  1.0
  H  H4  1  0.73032468  0.81264568  0.26970087  1.0
  H  H5  1  0.28591160  0.52202452  0.39856147  1.0
  H  H6  1  0.51295363  0.60585325  0.46370601  1.0
  H  H7  1  0.73029384  0.52068305  0.39697084  1.0
  H  H8  1  0.28593546  0.23188592  0.54320227  1.0
  H  H9  1  0.51293354  0.29703057  0.52451113  1.0
  H  H10  1  0.73032275  0.23030152  0.54294596  1.0
  H  H11  1  0.28591502  0.10144027  0.12346119  1.0
  H  H12  1  0.51295660  0.03629633  0.14214596  1.0
  H  H13  1  0.73029727  0.10303009  0.12371072  1.0
  H  H14  1  0.28593510  0.95680000  0.68868336  1.0
  H  H15  1  0.51293708  0.97549047  0.77251937  1.0
  H  H16  1  0.73032238  0.95705569  0.68735614  1.0
  H  H17  1  0.28591320  0.37654060  0.97797739  1.0
  H  H18  1  0.51295340  0.35785543  0.89414874  1.0
  H  H19  1  0.73029799  0.37629089  0.97931850  1.0
  C  C20  1  0.49744631  0.05895487  0.61798314  1.0
  C  C21  1  0.49743915  0.88201953  0.44097263  1.0
  C  C22  1  0.49744402  0.05902943  0.44104582  1.0
  C  C23  1  0.49747715  0.45132171  0.22569763  1.0
  C  C24  1  0.49747481  0.27430606  0.22562356  1.0
  C  C25  1  0.49747504  0.27437947  0.04868168  1.0
  C  C26  1  0.50625272  0.74967597  0.31930658  1.0
  C  C27  1  0.50625073  0.58366298  0.34737448  1.0
  C  C28  1  0.49738572  0.79725016  0.39843820  1.0
  C  C29  1  0.49741961  0.53608764  0.26823780  1.0
  C  C30  1  0.49047971  0.66146021  0.36539565  1.0
  C  C31  1  0.49048391  0.67187873  0.30128440  1.0
  C  C32  1  0.50625372  0.18069649  0.43036998  1.0
  C  C33  1  0.50625375  0.15262983  0.23628880  1.0
  C  C34  1  0.49739298  0.10156455  0.39881008  1.0
  C  C35  1  0.49740881  0.23176635  0.26785048  1.0
  C  C36  1  0.49049095  0.13460800  0.29606372  1.0
  C  C37  1  0.49049185  0.19871945  0.37059561  1.0
  C  C38  1  0.50626050  0.06963254  0.75032663  1.0
  C  C39  1  0.50625488  0.26371449  0.91634005  1.0
  C  C40  1  0.49739944  0.10119143  0.70275347  1.0
  C  C41  1  0.49741783  0.23215330  0.96391603  1.0
  C  C42  1  0.49049286  0.20393793  0.83854386  1.0
  C  C43  1  0.49049532  0.12940680  0.82812364  1.0
  C  C44  1  0.50987883  0.77644913  0.26181540  1.0
  C  C45  1  0.50986830  0.55688637  0.40486046  1.0
  C  C46  1  0.50987660  0.23818615  0.51463342  1.0
  C  C47  1  0.50987204  0.09514246  0.15202551  1.0
  C  C48  1  0.50987956  0.98536857  0.72355230  1.0
  C  C49  1  0.50987195  0.34797674  0.94311651  1.0
  S  S50  1  0.47418241  0.74855729  0.44941895  1.0
  S  S51  1  0.47420731  0.58478510  0.21726181  1.0
  S  S52  1  0.47418772  0.05058411  0.29913705  1.0
  S  S53  1  0.47420351  0.28274047  0.36752232  1.0
  S  S54  1  0.47419595  0.20086358  0.75144563  1.0
  S  S55  1  0.47421075  0.13247941  0.91521800  1.0
  O  O56  1  0.26404419  0.00948648  0.42543918  1.0
  O  O57  1  0.26404618  0.07456226  0.58404719  1.0
  O  O58  1  0.26404008  0.91595721  0.49051741  1.0
  O  O59  1  0.73165646  0.07456576  0.49036315  1.0
  O  O60  1  0.73164821  0.91579994  0.42543614  1.0
  O  O61  1  0.73165522  0.00963717  0.58420268  1.0
  O  O62  1  0.26408086  0.25877139  0.08262401  1.0
  O  O63  1  0.26407939  0.41737873  0.17614847  1.0
  O  O64  1  0.26408033  0.32385520  0.24123106  1.0
  O  O65  1  0.73170490  0.32369845  0.08246551  1.0
  O  O66  1  0.73169862  0.25877043  0.17630532  1.0
  O  O67  1  0.73170686  0.41753740  0.24123291  1.0
