# generated using pymatgen
data_Zn2H39C37(NO)11
_symmetry_space_group_name_H-M   'P 1'
_cell_length_a   10.80783438
_cell_length_b   15.94175665
_cell_length_c   17.02836784
_cell_angle_alpha   87.93283967
_cell_angle_beta   89.53251823
_cell_angle_gamma   87.20287310
_symmetry_Int_Tables_number   1
_chemical_formula_structural   Zn2H39C37(NO)11
_chemical_formula_sum   'Zn2 H39 C37 N11 O11'
_cell_volume   2928.45466707
_cell_formula_units_Z   1
loop_
 _symmetry_equiv_pos_site_id
 _symmetry_equiv_pos_as_xyz
  1  'x, y, z'
loop_
 _atom_site_type_symbol
 _atom_site_label
 _atom_site_symmetry_multiplicity
 _atom_site_fract_x
 _atom_site_fract_y
 _atom_site_fract_z
 _atom_site_occupancy
  Zn  Zn0  1  0.49134092  0.58911508  0.49785214  1.0
  Zn  Zn1  1  0.50712979  0.41270526  0.49880883  1.0
  H  H2  1  0.90519104  0.57988955  0.60266871  1.0
  H  H3  1  0.09334437  0.41282017  0.41681794  1.0
  H  H4  1  0.91021846  0.37324434  0.51009655  1.0
  H  H5  1  0.11624528  0.37074924  0.55093476  1.0
  H  H6  1  0.39292723  0.61135481  0.74156864  1.0
  H  H7  1  0.35456557  0.60213304  0.88798723  1.0
  H  H8  1  0.44378333  0.65042729  0.10176421  1.0
  H  H9  1  0.49188356  0.64360512  0.24710778  1.0
  H  H10  1  0.54680538  0.35827834  0.74835976  1.0
  H  H11  1  0.50978595  0.34881197  0.89520625  1.0
  H  H12  1  0.87952630  0.64256281  0.51670143  1.0
  H  H13  1  0.38483732  0.38790446  0.26065003  1.0
  H  H14  1  0.65097417  0.72132589  0.44744155  1.0
  H  H15  1  0.67566092  0.12149025  0.40519575  1.0
  H  H16  1  0.29908522  0.71963535  0.54656176  1.0
  H  H17  1  0.28583519  0.87906439  0.54935923  1.0
  H  H18  1  0.39116196  0.27609681  0.57953248  1.0
  H  H19  1  0.08482913  0.62996337  0.47475758  1.0
  H  H20  1  0.08381127  0.44375151  0.62343023  1.0
  H  H21  1  0.89327528  0.44665321  0.39004156  1.0
  H  H22  1  0.45834799  0.30907458  0.06730692  1.0
  H  H23  1  0.31431390  0.26036098  0.08748926  1.0
  H  H24  1  0.41344857  0.28294199  0.16720345  1.0
  H  H25  1  0.67102710  0.95065334  0.44102436  1.0
  H  H26  1  0.74742841  0.85245400  0.41769580  1.0
  H  H27  1  0.70925432  0.34881734  0.42091869  1.0
  H  H28  1  0.76017326  0.25748599  0.37403298  1.0
  H  H29  1  0.19186675  0.07639416  0.61337833  1.0
  H  H30  1  0.24701527  0.05981714  0.51496288  1.0
  H  H31  1  0.19807467  0.16420874  0.54463623  1.0
  H  H32  1  0.11205529  0.54476132  0.68332777  1.0
  H  H33  1  0.01040971  0.63716613  0.68485479  1.0
  H  H34  1  0.17237994  0.64388574  0.70135781  1.0
  H  H35  1  0.87664404  0.45347366  0.66149940  1.0
  H  H36  1  0.77082625  0.40353905  0.61503367  1.0
  H  H37  1  0.81579492  0.58518908  0.35734098  1.0
  H  H38  1  0.95596072  0.57488322  0.31821213  1.0
  H  H39  1  0.22488750  0.48847698  0.34594908  1.0
  H  H40  1  0.16039180  0.58012343  0.36511406  1.0
  C  C41  1  0.47996597  0.50800038  0.34640389  1.0
  C  C42  1  0.12182181  0.49999637  0.50763379  1.0
  C  C43  1  0.06746927  0.43138878  0.56146369  1.0
  C  C44  1  0.07757469  0.48117094  0.42163813  1.0
  C  C45  1  0.44706953  0.51400398  0.26094623  1.0
  C  C46  1  0.39990130  0.44468429  0.22493907  1.0
  C  C47  1  0.37194935  0.44797013  0.14515487  1.0
  C  C48  1  0.39542145  0.52194317  0.09977891  1.0
  C  C49  1  0.43213321  0.59339490  0.13784051  1.0
  C  C50  1  0.45958321  0.58948700  0.21741373  1.0
  C  C51  1  0.39597622  0.54929521  0.85663373  1.0
  C  C52  1  0.73999816  0.51044117  0.49597749  1.0
  C  C53  1  0.41741065  0.55432684  0.77630646  1.0
  C  C54  1  0.43111064  0.47482460  0.89938096  1.0
  C  C55  1  0.47274698  0.48569179  0.73720379  1.0
  C  C56  1  0.50476541  0.41098168  0.77964098  1.0
  C  C57  1  0.48388660  0.40558224  0.86034690  1.0
  C  C58  1  0.45213596  0.23986367  0.54059577  1.0
  C  C59  1  0.44373911  0.15334105  0.53933596  1.0
  C  C60  1  0.52606812  0.10925326  0.48746330  1.0
  C  C61  1  0.61030805  0.15517841  0.44328782  1.0
  C  C62  1  0.61263121  0.24307352  0.44791374  1.0
  C  C63  1  0.49534561  0.49285458  0.65038713  1.0
  C  C64  1  0.57365358  0.84770388  0.46726917  1.0
  C  C65  1  0.57122818  0.75902783  0.46865124  1.0
  C  C66  1  0.46634611  0.89227555  0.49766662  1.0
  C  C67  1  0.37353813  0.75848586  0.52507311  1.0
  C  C68  1  0.36718467  0.84515766  0.52598818  1.0
  C  C69  1  0.26240619  0.49660914  0.50614868  1.0
  C  C70  1  0.92792507  0.58506184  0.53962808  1.0
  C  C71  1  0.06789777  0.58908864  0.52661074  1.0
  C  C72  1  0.92685817  0.42617364  0.54792719  1.0
  C  C73  1  0.93461855  0.50128938  0.41637107  1.0
  C  C74  1  0.88048228  0.50770322  0.50062978  1.0
  C  C75  1  0.37983616  0.30464516  0.10867033  1.0
  C  C76  1  0.24328562  0.10347721  0.56364706  1.0
  C  C77  1  0.10344932  0.61237587  0.66749140  1.0
  N  N78  1  0.39049724  0.53062124  0.01732663  1.0
  N  N79  1  0.42421586  0.46447440  0.98211749  1.0
  N  N80  1  0.53131090  0.28429800  0.49604676  1.0
  N  N81  1  0.54015768  0.02192720  0.47928842  1.0
  N  N82  1  0.44906501  0.97891698  0.50267943  1.0
  N  N83  1  0.47605934  0.71717113  0.49643794  1.0
  N  N84  1  0.67359268  0.88658723  0.43848839  1.0
  N  N85  1  0.69361354  0.28859355  0.40504146  1.0
  N  N86  1  0.86416230  0.40772404  0.62226181  1.0
  N  N87  1  0.90805651  0.57921787  0.37009357  1.0
  N  N88  1  0.14144265  0.51936499  0.35487492  1.0
  O  O89  1  0.52021690  0.57299222  0.37704215  1.0
  O  O90  1  0.46342258  0.43767711  0.38236930  1.0
  O  O91  1  0.67957049  0.57737248  0.51335106  1.0
  O  O92  1  0.69053040  0.44354838  0.47457276  1.0
  O  O93  1  0.46529848  0.56310057  0.61634960  1.0
  O  O94  1  0.54196314  0.42804523  0.61666414  1.0
  O  O95  1  0.31230759  0.56313253  0.48085492  1.0
  O  O96  1  0.32063710  0.42761021  0.52568268  1.0
  O  O97  1  0.31294680  0.38425817  0.11120944  1.0
  O  O98  1  0.36588025  0.11529050  0.59212372  1.0
  O  O99  1  0.13126953  0.63118499  0.58711507  1.0
