# generated using pymatgen
data_ZnH11C13NO4
_symmetry_space_group_name_H-M   'P 1'
_cell_length_a   9.58459933
_cell_length_b   10.94402510
_cell_length_c   11.00795035
_cell_angle_alpha   90.01404914
_cell_angle_beta   90.01188253
_cell_angle_gamma   90.77975035
_symmetry_Int_Tables_number   1
_chemical_formula_structural   ZnH11C13NO4
_chemical_formula_sum   'Zn2 H22 C26 N2 O8'
_cell_volume   1154.56200964
_cell_formula_units_Z   2
loop_
 _symmetry_equiv_pos_site_id
 _symmetry_equiv_pos_as_xyz
  1  'x, y, z'
loop_
 _atom_site_type_symbol
 _atom_site_label
 _atom_site_symmetry_multiplicity
 _atom_site_fract_x
 _atom_site_fract_y
 _atom_site_fract_z
 _atom_site_occupancy
  Zn  Zn0  1  0.35853269  0.50163634  0.49972964  1.0
  Zn  Zn1  1  0.64146338  0.49836133  0.50026847  1.0
  H  H2  1  0.86388393  0.35991188  0.62683452  1.0
  H  H3  1  0.13611423  0.64008764  0.37316359  1.0
  H  H4  1  0.86790281  0.64023350  0.37365944  1.0
  H  H5  1  0.13209431  0.35976784  0.62633959  1.0
  H  H6  1  0.60551114  0.08557088  0.31546472  1.0
  H  H7  1  0.39450161  0.91442786  0.68453613  1.0
  H  H8  1  0.37029151  0.92353870  0.32294481  1.0
  H  H9  1  0.62972229  0.07646096  0.67705513  1.0
  H  H10  1  0.25665381  0.06737961  0.51365468  1.0
  H  H11  1  0.74335791  0.93262003  0.48634526  1.0
  H  H12  1  0.44053402  0.28665752  0.23018839  1.0
  H  H13  1  0.32870370  0.23895513  0.11135670  1.0
  H  H14  1  0.50741159  0.20020495  0.10758930  1.0
  H  H15  1  0.55946518  0.71334201  0.76980973  1.0
  H  H16  1  0.49258763  0.79979915  0.89240790  1.0
  H  H17  1  0.67129234  0.76103797  0.88864686  1.0
  H  H18  1  0.51921012  0.25932449  0.79632923  1.0
  H  H19  1  0.41833614  0.19759128  0.91732423  1.0
  H  H20  1  0.33989941  0.29152747  0.80568345  1.0
  H  H21  1  0.48079116  0.74067597  0.20367252  1.0
  H  H22  1  0.66009976  0.70846475  0.19431284  1.0
  H  H23  1  0.58166410  0.80240826  0.08267752  1.0
  C  C24  1  0.50009598  0.50164635  0.87508669  1.0
  C  C25  1  0.49988133  0.49835664  0.12491050  1.0
  C  C26  1  0.49942669  0.49837347  0.26140615  1.0
  C  C27  1  0.50055582  0.50162865  0.73859196  1.0
  C  C28  1  0.50358524  0.74043823  0.49535669  1.0
  C  C29  1  0.49643482  0.25956057  0.50464507  1.0
  C  C30  1  0.42753786  0.95902737  0.40175523  1.0
  C  C31  1  0.57247594  0.04097137  0.59824653  1.0
  C  C32  1  0.36442735  0.03629922  0.50770608  1.0
  C  C33  1  0.63558854  0.96369863  0.49229386  1.0
  C  C34  1  0.55903450  0.04562215  0.39735639  1.0
  C  C35  1  0.44097722  0.95437749  0.60264536  1.0
  C  C36  1  0.49451005  0.12379593  0.50365145  1.0
  C  C37  1  0.50550272  0.87620554  0.49634849  1.0
  C  C38  1  0.92628880  0.42183036  0.57076548  1.0
  C  C39  1  0.07370937  0.57817190  0.42923354  1.0
  C  C40  1  0.92849704  0.57813908  0.42944357  1.0
  C  C41  1  0.07150008  0.42186226  0.57055636  1.0
  C  C42  1  0.46739292  0.38950193  0.06274091  1.0
  C  C43  1  0.53259167  0.61049655  0.93725901  1.0
  C  C44  1  0.46748575  0.39148251  0.93492240  1.0
  C  C45  1  0.53250721  0.60852061  0.06507662  1.0
  C  C46  1  0.43463755  0.27327646  0.13167341  1.0
  C  C47  1  0.56535852  0.72672304  0.86832833  1.0
  C  C48  1  0.43444653  0.27877707  0.86068907  1.0
  C  C49  1  0.56555058  0.72122335  0.13931086  1.0
  N  N50  1  0.14334702  0.50003642  0.49984409  1.0
  N  N51  1  0.85665114  0.49996492  0.50015766  1.0
  O  O52  1  0.38099791  0.50100636  0.31365208  1.0
  O  O53  1  0.61897415  0.49899019  0.68634874  1.0
  O  O54  1  0.38251218  0.50385067  0.68552209  1.0
  O  O55  1  0.61745990  0.49615135  0.31447873  1.0
  O  O56  1  0.38330913  0.68890296  0.49428862  1.0
  O  O57  1  0.61670467  0.31109669  0.50571496  1.0
  O  O58  1  0.37954237  0.31394637  0.50281778  1.0
  O  O59  1  0.62046415  0.68605688  0.49717943  1.0
