# generated using pymatgen
data_Zn4H36C48O13
_symmetry_space_group_name_H-M   'P 1'
_cell_length_a   23.74765064
_cell_length_b   23.74586614
_cell_length_c   23.74578643
_cell_angle_alpha   113.83411083
_cell_angle_beta   107.33467593
_cell_angle_gamma   107.34010848
_symmetry_Int_Tables_number   1
_chemical_formula_structural   Zn4H36C48O13
_chemical_formula_sum   'Zn8 H72 C96 O26'
_cell_volume   10262.16480134
_cell_formula_units_Z   2
loop_
 _symmetry_equiv_pos_site_id
 _symmetry_equiv_pos_as_xyz
  1  'x, y, z'
loop_
 _atom_site_type_symbol
 _atom_site_label
 _atom_site_symmetry_multiplicity
 _atom_site_fract_x
 _atom_site_fract_y
 _atom_site_fract_z
 _atom_site_occupancy
  Zn  Zn0  1  0.94418932  0.89994460  0.45787921  1.0
  Zn  Zn1  1  0.94418629  0.04409619  0.48622326  1.0
  Zn  Zn2  1  0.05587352  0.04194255  0.59997273  1.0
  Zn  Zn3  1  0.05592892  0.01398743  0.45601440  1.0
  Zn  Zn4  1  0.05796124  0.59989536  0.04396459  1.0
  Zn  Zn5  1  0.94197695  0.45583032  0.89997923  1.0
  Zn  Zn6  1  0.05788552  0.45796654  0.01380138  1.0
  Zn  Zn7  1  0.94205002  0.48628175  0.04206915  1.0
  H  H8  1  0.07729848  0.87514713  0.29904397  1.0
  H  H9  1  0.92445599  0.62552396  0.20195830  1.0
  H  H10  1  0.07618323  0.77818997  0.20099235  1.0
  H  H11  1  0.92365904  0.72247433  0.29809950  1.0
  H  H12  1  0.07713817  0.20231575  0.77802161  1.0
  H  H13  1  0.92423600  0.29892598  0.72203688  1.0
  H  H14  1  0.07609239  0.29831216  0.87489813  1.0
  H  H15  1  0.92338339  0.20105028  0.62518390  1.0
  H  H16  1  0.09010865  0.78494353  0.89603194  1.0
  H  H17  1  0.90994792  0.60397698  0.71487775  1.0
  H  H18  1  0.09595256  0.89078949  0.78131225  1.0
  H  H19  1  0.90392023  0.71858097  0.60933026  1.0
  H  H20  1  0.90950365  0.30517769  0.19431742  1.0
  H  H21  1  0.09044928  0.30567814  0.19468171  1.0
  H  H22  1  0.90402259  0.18540913  0.29478529  1.0
  H  H23  1  0.09597646  0.20518654  0.31464823  1.0
  H  H24  1  0.39052639  0.78143999  0.18551403  1.0
  H  H25  1  0.39061900  0.60936896  0.20544314  1.0
  H  H26  1  0.61098224  0.89578054  0.30525499  1.0
  H  H27  1  0.61083753  0.71526822  0.30581698  1.0
  H  H28  1  0.60941353  0.31459708  0.71863191  1.0
  H  H29  1  0.60930168  0.29460825  0.89066242  1.0
  H  H30  1  0.38889238  0.19375961  0.60385572  1.0
  H  H31  1  0.38906179  0.19503956  0.78510959  1.0
  H  H32  1  0.13976730  0.79275599  0.99336436  1.0
  H  H33  1  0.14204202  0.71563531  0.98539353  1.0
  H  H34  1  0.09223202  0.74374825  0.01881634  1.0
  H  H35  1  0.86025395  0.50646511  0.70685127  1.0
  H  H36  1  0.85790683  0.51429318  0.78389612  1.0
  H  H37  1  0.90778691  0.48097961  0.75580279  1.0
  H  H38  1  0.10161564  0.01648492  0.75255893  1.0
  H  H39  1  0.13442950  0.98042027  0.69857651  1.0
  H  H40  1  0.15474097  0.98214149  0.77801446  1.0
  H  H41  1  0.89797363  0.74706790  0.48341272  1.0
  H  H42  1  0.86519111  0.80106597  0.51946547  1.0
  H  H43  1  0.84493001  0.72167981  0.51785850  1.0
  H  H44  1  0.85935475  0.35216006  0.15188831  1.0
  H  H45  1  0.85785915  0.34298744  0.07310531  1.0
  H  H46  1  0.90704331  0.42589452  0.15147544  1.0
  H  H47  1  0.14052441  0.34817822  0.14772118  1.0
  H  H48  1  0.14207057  0.42703868  0.15707795  1.0
  H  H49  1  0.09286662  0.34875184  0.07409627  1.0
  H  H50  1  0.89827020  0.15111406  0.41487886  1.0
  H  H51  1  0.86533930  0.06429023  0.34596733  1.0
  H  H52  1  0.84516263  0.12348136  0.32739792  1.0
  H  H53  1  0.10173744  0.08522674  0.34915045  1.0
  H  H54  1  0.13459284  0.15414816  0.43593750  1.0
  H  H55  1  0.15484519  0.17268674  0.37675314  1.0
  H  H56  1  0.23603956  0.75264389  0.15095524  1.0
  H  H57  1  0.21823550  0.69873242  0.06418052  1.0
  H  H58  1  0.29593650  0.77819256  0.12341197  1.0
  H  H59  1  0.23625075  0.48347530  0.08534083  1.0
  H  H60  1  0.21827601  0.51945219  0.15416763  1.0
  H  H61  1  0.29606948  0.51787940  0.17283756  1.0
  H  H62  1  0.70044379  0.99272712  0.35193337  1.0
  H  H63  1  0.76999373  0.98490032  0.34274727  1.0
  H  H64  1  0.77459426  0.01879429  0.42568324  1.0
  H  H65  1  0.70022619  0.70750828  0.34817792  1.0
  H  H66  1  0.76991207  0.78481562  0.42689614  1.0
  H  H67  1  0.77432302  0.75550659  0.34846087  1.0
  H  H68  1  0.76383347  0.34906065  0.74733282  1.0
  H  H69  1  0.78176658  0.43586915  0.80133730  1.0
  H  H70  1  0.70403063  0.37673577  0.72191373  1.0
  H  H71  1  0.76369839  0.41463316  0.01654234  1.0
  H  H72  1  0.78164758  0.34579472  0.98050751  1.0
  H  H73  1  0.70388522  0.32714928  0.98212922  1.0
  H  H74  1  0.29937617  0.14590559  0.50646136  1.0
  H  H75  1  0.23030445  0.15634893  0.51441215  1.0
  H  H76  1  0.22486024  0.07305271  0.48112277  1.0
  H  H77  1  0.29958424  0.15345435  0.79314411  1.0
  H  H78  1  0.23038862  0.07398560  0.71612292  1.0
  H  H79  1  0.22511841  0.15192950  0.74409767  1.0
  C  C80  1  0.82006791  0.90992449  0.40988096  1.0
  C  C81  1  0.00021246  0.13852717  0.63854522  1.0
  C  C82  1  0.99977477  0.90874879  0.59095139  1.0
  C  C83  1  0.17983742  0.08996683  0.59007793  1.0
  C  C84  1  0.00046606  0.86185021  0.36167806  1.0
  C  C85  1  0.99993881  0.09109809  0.40894425  1.0
  C  C86  1  0.99995753  0.58970249  0.90985211  1.0
  C  C87  1  0.00005866  0.36163167  0.86150321  1.0
  C  C88  1  0.18215095  0.59102525  0.09114062  1.0
  C  C89  1  0.99997162  0.41014861  0.09006192  1.0
  C  C90  1  0.00018255  0.63872969  0.13832425  1.0
  C  C91  1  0.81778890  0.40884990  0.90897167  1.0
  C  C92  1  0.00048185  0.80423522  0.30399304  1.0
  C  C93  1  0.00031079  0.69643383  0.19605529  1.0
  C  C94  1  0.04380909  0.82032636  0.27708259  1.0
  C  C95  1  0.95739138  0.68035528  0.22337775  1.0
  C  C96  1  0.04333514  0.76668152  0.22297495  1.0
  C  C97  1  0.95708331  0.73398118  0.27668591  1.0
  C  C98  1  0.00026021  0.19625437  0.69618931  1.0
  C  C99  1  0.00016179  0.30403594  0.80388033  1.0
  C  C100  1  0.04364945  0.22362385  0.76646072  1.0
  C  C101  1  0.95718680  0.27707593  0.73361129  1.0
  C  C102  1  0.04320665  0.27686489  0.82004330  1.0
  C  C103  1  0.95685548  0.22306501  0.68003688  1.0
  C  C104  1  0.99998387  0.62732127  0.87234661  1.0
  C  C105  1  0.05183538  0.69752964  0.90638207  1.0
  C  C106  1  0.05063858  0.73140868  0.87016699  1.0
  C  C107  1  0.00004117  0.69872124  0.80122212  1.0
  C  C108  1  0.94940415  0.62975979  0.76841651  1.0
  C  C109  1  0.94815641  0.59341525  0.80216298  1.0
  C  C110  1  0.00005886  0.73431084  0.76574968  1.0
  C  C111  1  0.99999107  0.76499498  0.73503988  1.0
  C  C112  1  0.99995147  0.80051000  0.69948463  1.0
  C  C113  1  0.05382274  0.86706152  0.72989469  1.0
  C  C114  1  0.05452699  0.90328141  0.69603969  1.0
  C  C115  1  0.99981115  0.87124498  0.62855031  1.0
  C  C116  1  0.94516686  0.80375011  0.59663210  1.0
  C  C117  1  0.94600148  0.77000086  0.63294870  1.0
  C  C118  1  0.99996281  0.37252766  0.12757055  1.0
  C  C119  1  0.94792955  0.35426542  0.14557682  1.0
  C  C120  1  0.94915338  0.31915985  0.18056765  1.0
  C  C121  1  0.99998688  0.30118159  0.19875209  1.0
  C  C122  1  0.05079155  0.31942082  0.18075119  1.0
  C  C123  1  0.05199210  0.35449170  0.14572208  1.0
  C  C124  1  0.00000177  0.26563397  0.23426457  1.0
  C  C125  1  0.00001170  0.23496693  0.26497816  1.0
  C  C126  1  0.00000318  0.19945584  0.30053598  1.0
  C  C127  1  0.94609805  0.17606092  0.31319280  1.0
  C  C128  1  0.94532911  0.14153209  0.34873788  1.0
  C  C129  1  0.99997350  0.12867953  0.37142296  1.0
  C  C130  1  0.05464676  0.15133554  0.35859322  1.0
  C  C131  1  0.05389467  0.18680984  0.32399457  1.0
  C  C132  1  0.25725119  0.62863460  0.12873237  1.0
  C  C133  1  0.29273339  0.69614485  0.14156707  1.0
  C  C134  1  0.36280092  0.73000485  0.17618547  1.0
  C  C135  1  0.39890725  0.69958064  0.19966781  1.0
  C  C136  1  0.36285654  0.63302017  0.18702236  1.0
  C  C137  1  0.29279225  0.59669199  0.15145613  1.0
  C  C138  1  0.46997607  0.73513688  0.23519581  1.0
  C  C139  1  0.53135564  0.76583445  0.26587342  1.0
  C  C140  1  0.60241401  0.80129330  0.30131470  1.0
  C  C141  1  0.63865643  0.87006675  0.31921941  1.0
  C  C142  1  0.70875399  0.90627582  0.35418748  1.0
  C  C143  1  0.74493536  0.87241174  0.37238129  1.0
  C  C144  1  0.70866413  0.80238504  0.35442849  1.0
  C  C145  1  0.63856856  0.76864213  0.31950610  1.0
  C  C146  1  0.74268747  0.37128568  0.87138497  1.0
  C  C147  1  0.70719964  0.35848567  0.80389276  1.0
  C  C148  1  0.63712692  0.32389297  0.77004494  1.0
  C  C149  1  0.60100362  0.30042270  0.80046386  1.0
  C  C150  1  0.63706856  0.31306080  0.86702226  1.0
  C  C151  1  0.70713706  0.34857059  0.90332637  1.0
  C  C152  1  0.52993391  0.26487682  0.76491236  1.0
  C  C153  1  0.46854671  0.23418077  0.73421496  1.0
  C  C154  1  0.39748116  0.19866616  0.69873238  1.0
  C  C155  1  0.36122767  0.18023108  0.62974602  1.0
  C  C156  1  0.29112934  0.14520741  0.59352664  1.0
  C  C157  1  0.25495651  0.12746866  0.62758139  1.0
  C  C158  1  0.29122390  0.14589630  0.69778982  1.0
  C  C159  1  0.36131797  0.18090267  0.73155253  1.0
  C  C160  1  0.10949899  0.73970936  0.98001305  1.0
  C  C161  1  0.89049934  0.51977426  0.75988374  1.0
  C  C162  1  0.11463136  0.97432703  0.73322225  1.0
  C  C163  1  0.88500480  0.76645137  0.52559974  1.0
  C  C164  1  0.89000267  0.36979228  0.12975658  1.0
  C  C165  1  0.10990903  0.37037579  0.13018418  1.0
  C  C166  1  0.88522228  0.11874184  0.35969229  1.0
  C  C167  1  0.11476348  0.14041006  0.38148251  1.0
  C  C168  1  0.25892447  0.73335554  0.11865611  1.0
  C  C169  1  0.25904175  0.52562387  0.14051354  1.0
  C  C170  1  0.74017270  0.97968591  0.36959833  1.0
  C  C171  1  0.74000091  0.76026443  0.37024508  1.0
  C  C172  1  0.74102612  0.38141810  0.76669627  1.0
  C  C173  1  0.74090182  0.35947183  0.97437604  1.0
  C  C174  1  0.25968475  0.12912867  0.51985034  1.0
  C  C175  1  0.25986007  0.13058858  0.74008759  1.0
  O  O176  1  0.00000351  0.99994993  0.50001163  1.0
  O  O177  1  0.85035661  0.87942927  0.42952716  1.0
  O  O178  1  0.95361675  0.10970285  0.57634360  1.0
  O  O179  1  0.02656147  0.97565055  0.62803223  1.0
  O  O180  1  0.85041429  0.97069906  0.42050779  1.0
  O  O181  1  0.97296107  0.87159117  0.52403983  1.0
  O  O182  1  0.04676903  0.12284589  0.65629840  1.0
  O  O183  1  0.14951261  0.06923696  0.62001989  1.0
  O  O184  1  0.04699358  0.92411250  0.39051542  1.0
  O  O185  1  0.14949556  0.08041471  0.52982502  1.0
  O  O186  1  0.95390268  0.84400904  0.37730545  1.0
  O  O187  1  0.97309714  0.10136624  0.44901498  1.0
  O  O188  1  0.02674034  0.05100509  0.39863736  1.0
  O  O189  1  0.99992997  0.49996203  0.99995339  1.0
  O  O190  1  0.05057777  0.61966153  0.97017159  1.0
  O  O191  1  0.96656246  0.39036653  0.84371857  1.0
  O  O192  1  0.15237877  0.52411355  0.05106548  1.0
  O  O193  1  0.94932474  0.52937273  0.87983108  1.0
  O  O194  1  0.15233663  0.62811598  0.10139818  1.0
  O  O195  1  0.03348487  0.37730226  0.92372851  1.0
  O  O196  1  0.05017562  0.42998720  0.07956015  1.0
  O  O197  1  0.96670689  0.57653460  0.12269973  1.0
  O  O198  1  0.94976740  0.42067308  0.07028344  1.0
  O  O199  1  0.03354844  0.65641028  0.10943639  1.0
  O  O200  1  0.84759043  0.39852568  0.87187518  1.0
  O  O201  1  0.84756277  0.44897203  0.97587442  1.0
