# generated using pymatgen
data_Al2H11C24O10F3
_symmetry_space_group_name_H-M   'P 1'
_cell_length_a   6.67077894
_cell_length_b   11.11461624
_cell_length_c   17.74210916
_cell_angle_alpha   90.12177500
_cell_angle_beta   99.03508524
_cell_angle_gamma   106.93322543
_symmetry_Int_Tables_number   1
_chemical_formula_structural   Al2H11C24O10F3
_chemical_formula_sum   'Al2 H11 C24 O10 F3'
_cell_volume   1241.21402261
_cell_formula_units_Z   1
loop_
 _symmetry_equiv_pos_site_id
 _symmetry_equiv_pos_as_xyz
  1  'x, y, z'
loop_
 _atom_site_type_symbol
 _atom_site_label
 _atom_site_symmetry_multiplicity
 _atom_site_fract_x
 _atom_site_fract_y
 _atom_site_fract_z
 _atom_site_occupancy
  Al  Al0  1  0.98571404  0.49087568  0.49872992  1.0
  Al  Al1  1  0.48692322  0.49040994  0.50097502  1.0
  H  H2  1  0.32719295  0.63458975  0.55257769  1.0
  H  H3  1  0.65913664  0.42098556  0.40792647  1.0
  H  H4  1  0.35407304  0.10146070  0.48180161  1.0
  H  H5  1  0.75086906  0.12113207  0.52925848  1.0
  H  H6  1  0.22118609  0.86547977  0.48087564  1.0
  H  H7  1  0.13576647  0.44314972  0.72142069  1.0
  H  H8  1  0.23521516  0.45268753  0.86325726  1.0
  H  H9  1  0.66305594  0.55070657  0.88327063  1.0
  H  H10  1  0.38034946  0.46645404  0.12142956  1.0
  H  H11  1  0.86888816  0.56044095  0.27065287  1.0
  H  H12  1  0.80727309  0.57080346  0.12882239  1.0
  C  C13  1  0.79724936  0.48197364  0.63678540  1.0
  C  C14  1  0.84186138  0.71979545  0.50231041  1.0
  C  C15  1  0.18148405  0.50151110  0.36126012  1.0
  C  C16  1  0.13355434  0.26517317  0.50262864  1.0
  C  C17  1  0.91389486  0.86033910  0.50458396  1.0
  C  C18  1  0.06029876  0.12504077  0.50475308  1.0
  C  C19  1  0.78597375  0.93539645  0.51917569  1.0
  C  C20  1  0.19417617  0.05331969  0.49198281  1.0
  C  C21  1  0.85473570  0.06566303  0.51858253  1.0
  C  C22  1  0.12029360  0.92284720  0.49149070  1.0
  C  C23  1  0.84387423  0.48677071  0.72202038  1.0
  C  C24  1  0.03249404  0.46440516  0.75800599  1.0
  C  C25  1  0.08859644  0.47073955  0.83685129  1.0
  C  C26  1  0.95616188  0.50178742  0.88365045  1.0
  C  C27  1  0.76725506  0.52510456  0.84882591  1.0
  C  C28  1  0.71449749  0.51697710  0.76983911  1.0
  C  C29  1  0.00922938  0.51004694  0.96423884  1.0
  C  C30  1  0.04875396  0.51664296  0.03395224  1.0
  C  C31  1  0.08812850  0.51869388  0.11463941  1.0
  C  C32  1  0.26763168  0.48903431  0.15305970  1.0
  C  C33  1  0.29892852  0.48561540  0.23202270  1.0
  C  C34  1  0.15701096  0.51008915  0.27650229  1.0
  C  C35  1  0.98029089  0.54135884  0.23693318  1.0
  C  C36  1  0.94550572  0.54660577  0.15809800  1.0
  O  O37  1  0.94247179  0.46709439  0.60228774  1.0
  O  O38  1  0.64319537  0.66536260  0.49454577  1.0
  O  O39  1  0.35284899  0.48485500  0.39554809  1.0
  O  O40  1  0.98970862  0.32028399  0.49265094  1.0
  O  O41  1  0.02634693  0.51035753  0.39259516  1.0
  O  O42  1  0.33253433  0.31804833  0.50973904  1.0
  O  O43  1  0.62089848  0.49477669  0.60473129  1.0
  O  O44  1  0.98721007  0.66523477  0.50808917  1.0
  O  O45  1  0.27685270  0.54769951  0.53285811  1.0
  O  O46  1  0.69503124  0.43851303  0.46280155  1.0
  F  F47  1  0.58790260  0.88222697  0.53610180  1.0
  F  F48  1  0.53140925  0.54195691  0.74038092  1.0
  F  F49  1  0.47460342  0.45445386  0.26461649  1.0
