# generated using pymatgen
data_Zn4H38C49Br2N16O5
_symmetry_space_group_name_H-M   'P 1'
_cell_length_a   14.57578308
_cell_length_b   14.63461635
_cell_length_c   15.20429704
_cell_angle_alpha   113.80908931
_cell_angle_beta   105.34392616
_cell_angle_gamma   107.15521695
_symmetry_Int_Tables_number   1
_chemical_formula_structural   Zn4H38C49Br2N16O5
_chemical_formula_sum   'Zn4 H38 C49 Br2 N16 O5'
_cell_volume   2547.53784776
_cell_formula_units_Z   1
loop_
 _symmetry_equiv_pos_site_id
 _symmetry_equiv_pos_as_xyz
  1  'x, y, z'
loop_
 _atom_site_type_symbol
 _atom_site_label
 _atom_site_symmetry_multiplicity
 _atom_site_fract_x
 _atom_site_fract_y
 _atom_site_fract_z
 _atom_site_occupancy
  Zn  Zn0  1  0.05660099  0.14384421  0.63549813  1.0
  Zn  Zn1  1  0.98674438  0.84979476  0.35769457  1.0
  Zn  Zn2  1  0.82555549  0.86112996  0.48153386  1.0
  Zn  Zn3  1  0.16435646  0.14293285  0.49959095  1.0
  H  H4  1  0.09252857  0.18105495  0.86806893  1.0
  H  H5  1  0.13205375  0.80787735  0.50297491  1.0
  H  H6  1  0.66976077  0.60951933  0.06404754  1.0
  H  H7  1  0.51748607  0.59889215  0.81074983  1.0
  H  H8  1  0.67254872  0.71537786  0.97181919  1.0
  H  H9  1  0.35899892  0.56072629  0.00505942  1.0
  H  H10  1  0.48891068  0.73219444  0.15279707  1.0
  H  H11  1  0.49254986  0.79953703  0.07909754  1.0
  H  H12  1  0.45615704  0.68469518  0.85359044  1.0
  H  H13  1  0.75540791  0.61453857  0.45681758  1.0
  H  H14  1  0.50001217  0.87678518  0.65240381  1.0
  H  H15  1  0.83538492  0.81604976  0.14268951  1.0
  H  H16  1  0.46592182  0.13916029  0.78288410  1.0
  H  H17  1  0.34647588  0.88897750  0.60582266  1.0
  H  H18  1  0.87800108  0.39066614  0.22906049  1.0
  H  H19  1  0.79319646  0.42613118  0.39912030  1.0
  H  H20  1  0.90989104  0.25012057  0.25158950  1.0
  H  H21  1  0.80056500  0.27864489  0.40273054  1.0
  H  H22  1  0.02470732  0.79908075  0.97639417  1.0
  H  H23  1  0.18184991  0.05047149  0.11694790  1.0
  H  H24  1  0.02740524  0.83319745  0.83241359  1.0
  H  H25  1  0.38378082  0.40923056  0.66066121  1.0
  H  H26  1  0.63671925  0.78275411  0.57664740  1.0
  H  H27  1  0.93861437  0.58574519  0.27308142  1.0
  H  H28  1  0.21676261  0.39916102  0.85609966  1.0
  H  H29  1  0.30414483  0.16953811  0.70767806  1.0
  H  H30  1  0.90577094  0.81990333  0.66624130  1.0
  H  H31  1  0.00505395  0.71784850  0.06669965  1.0
  H  H32  1  0.70359828  0.91633326  0.08054746  1.0
  H  H33  1  0.63370515  0.22761076  0.85625012  1.0
  H  H34  1  0.97052765  0.10894190  0.95859580  1.0
  H  H35  1  0.86513245  0.18699801  0.61774714  1.0
  H  H36  1  0.24612005  0.14831592  0.32119538  1.0
  H  H37  1  0.67165285  0.09980138  0.60391663  1.0
  H  H38  1  0.00319315  0.16407604  0.31495908  1.0
  H  H39  1  0.64127815  0.84911740  0.31450155  1.0
  H  H40  1  0.53611412  0.47981414  0.88934393  1.0
  H  H41  1  0.45337870  0.44227399  0.94757165  1.0
  C  C42  1  0.04187945  0.09408627  0.80369123  1.0
  C  C43  1  0.67524210  0.02202084  0.58842172  1.0
  C  C44  1  0.97496104  0.16317973  0.37411173  1.0
  C  C45  1  0.15871986  0.89796961  0.54475039  1.0
  C  C46  1  0.70275871  0.84858145  0.28709715  1.0
  C  C47  1  0.89704664  0.19280947  0.39745102  1.0
  C  C48  1  0.69632373  0.80912693  0.18366895  1.0
  C  C49  1  0.62978701  0.94757792  0.62066898  1.0
  C  C50  1  0.14079518  0.96543216  0.19641718  1.0
  C  C51  1  0.50212223  0.51285489  0.94431386  1.0
  C  C52  1  0.59164412  0.60659093  0.05466775  1.0
  C  C53  1  0.26002830  0.98516883  0.62811579  1.0
  C  C54  1  0.49938626  0.64191420  0.87697385  1.0
  C  C55  1  0.39728828  0.61747503  0.98150970  1.0
  C  C56  1  0.43003834  0.55629914  0.89545689  1.0
  C  C57  1  0.80483843  0.62583314  0.41597899  1.0
  C  C58  1  0.59843861  0.72299303  0.07915521  1.0
  C  C59  1  0.60422572  0.73004454  0.98031196  1.0
  C  C60  1  0.49360456  0.72505263  0.07969546  1.0
  C  C61  1  0.55534823  0.05349928  0.73084630  1.0
  C  C62  1  0.56046276  0.95563127  0.67023672  1.0
  C  C63  1  0.45646740  0.05585712  0.72986509  1.0
  C  C64  1  0.83609325  0.54991991  0.35550350  1.0
  C  C65  1  0.35612258  0.97213059  0.65861426  1.0
  C  C66  1  0.85154790  0.37258314  0.28372499  1.0
  C  C67  1  0.82161899  0.44385231  0.34526044  1.0
  C  C68  1  0.86692000  0.28394893  0.29428841  1.0
  C  C69  1  0.32985957  0.38958263  0.69503512  1.0
  C  C70  1  0.84648979  0.25025789  0.36142993  1.0
  C  C71  1  0.06701384  0.88578238  0.99740747  1.0
  C  C72  1  0.13358973  0.96816095  0.10138465  1.0
  C  C73  1  0.04616812  0.90380791  0.90948731  1.0
  C  C74  1  0.03645366  0.99364648  0.90695644  1.0
  C  C75  1  0.33692607  0.45284094  0.79683193  1.0
  C  C76  1  0.89721437  0.61010055  0.32122836  1.0
  C  C77  1  0.24499447  0.38391649  0.79477264  1.0
  C  C78  1  0.24732030  0.08200861  0.65001890  1.0
  C  C79  1  0.94866727  0.90974189  0.70045960  1.0
  C  C80  1  0.01043035  0.99669544  0.80868358  1.0
  C  C81  1  0.01413187  0.76358473  0.14939679  1.0
  C  C82  1  0.63434726  0.84860884  0.00196122  1.0
  C  C83  1  0.65042219  0.16366286  0.80029486  1.0
  C  C84  1  0.02850041  0.08279064  0.99258853  1.0
  C  C85  1  0.84067799  0.19957345  0.54919907  1.0
  C  C86  1  0.89746850  0.17651086  0.48376359  1.0
  C  C87  1  0.80197140  0.83221965  0.20003058  1.0
  C  C88  1  0.65471121  0.85840110  0.57296641  1.0
  C  C89  1  0.19445810  0.06376980  0.29807615  1.0
  C  C90  1  0.08400836  0.88303374  0.21530601  1.0
  Br  Br91  1  0.57106985  0.57336865  0.16491699  1.0
  Br  Br92  1  0.28326291  0.65448619  0.92440733  1.0
  N  N93  1  0.00161465  0.06632659  0.70077891  1.0
  N  N94  1  0.84462480  0.72240175  0.41776752  1.0
  N  N95  1  0.23999490  0.29035607  0.63702075  1.0
  N  N96  1  0.90215047  0.71246497  0.35931233  1.0
  N  N97  1  0.18797006  0.28750604  0.69959078  1.0
  N  N98  1  0.14744324  0.05433481  0.58044556  1.0
  N  N99  1  0.94386563  0.95222682  0.63678751  1.0
  N  N100  1  0.97235699  0.14195295  0.50874373  1.0
  N  N101  1  0.86514435  0.87884165  0.30449402  1.0
  N  N102  1  0.70979034  0.88078630  0.52006290  1.0
  N  N103  1  0.16888468  0.04207674  0.36924103  1.0
  N  N104  1  0.10131338  0.93222845  0.31923129  1.0
  N  N105  1  0.72085606  0.98212217  0.52811802  1.0
  N  N106  1  0.01912835  0.13456443  0.44212991  1.0
  N  N107  1  0.80387391  0.88856986  0.35861049  1.0
  N  N108  1  0.09325695  0.93910660  0.51602347  1.0
  O  O109  1  0.96534552  0.71198769  0.18369958  1.0
  O  O110  1  0.58880760  0.87060164  0.93948252  1.0
  O  O111  1  0.74182060  0.19014191  0.80792160  1.0
  O  O112  1  0.07327129  0.12525955  0.09008301  1.0
  O  O113  1  0.77283083  0.23272146  0.53433656  1.0
