# generated using pymatgen
data_Zr6H15C52S10O32F5
_symmetry_space_group_name_H-M   'P 1'
_cell_length_a   16.45391729
_cell_length_b   16.45288593
_cell_length_c   16.46396474
_cell_angle_alpha   119.74997066
_cell_angle_beta   119.74939100
_cell_angle_gamma   88.77537804
_symmetry_Int_Tables_number   1
_chemical_formula_structural   Zr6H15C52S10O32F5
_chemical_formula_sum   'Zr6 H15 C52 S10 O32 F5'
_cell_volume   3206.63576993
_cell_formula_units_Z   1
loop_
 _symmetry_equiv_pos_site_id
 _symmetry_equiv_pos_as_xyz
  1  'x, y, z'
loop_
 _atom_site_type_symbol
 _atom_site_label
 _atom_site_symmetry_multiplicity
 _atom_site_fract_x
 _atom_site_fract_y
 _atom_site_fract_z
 _atom_site_occupancy
  Zr  Zr0  1  0.90253175  0.40243867  0.51469006  1.0
  Zr  Zr1  1  0.10180893  0.60164574  0.48990671  1.0
  Zr  Zr2  1  0.89288158  0.39243067  0.29039506  1.0
  Zr  Zr3  1  0.11144060  0.61085128  0.71340974  1.0
  Zr  Zr4  1  0.89283207  0.61078106  0.50190336  1.0
  Zr  Zr5  1  0.11097435  0.39240536  0.50185795  1.0
  H  H6  1  0.75210181  0.42283956  0.34536695  1.0
  H  H7  1  0.08133358  0.75183733  0.65912480  1.0
  H  H8  1  0.08108641  0.40985679  0.32656977  1.0
  H  H9  1  0.09403086  0.42279444  0.67792792  1.0
  H  H10  1  0.61144333  0.63791813  0.51239881  1.0
  H  H11  1  0.12647107  0.10015230  0.48960488  1.0
  H  H12  1  0.12459172  0.88196534  0.01386352  1.0
  H  H13  1  0.39450515  0.63544164  0.01309643  1.0
  H  H14  1  0.63606948  0.12902427  0.02778088  1.0
  H  H15  1  0.65499498  0.14837134  0.30701294  1.0
  H  H16  1  0.50739179  0.00169214  0.17428127  1.0
  H  H17  1  0.37503832  0.86827416  0.97712933  1.0
  H  H18  1  0.35574419  0.84887352  0.69776934  1.0
  H  H19  1  0.50255631  0.99650806  0.83053783  1.0
  H  H20  1  0.87592622  0.38951846  0.76788238  1.0
  C  C21  1  0.73899343  0.51567902  0.52158585  1.0
  C  C22  1  0.98740742  0.76452552  0.48262298  1.0
  C  C23  1  0.27215298  0.49486728  0.49749628  1.0
  C  C24  1  0.00832595  0.23157469  0.50722032  1.0
  C  C25  1  0.74041400  0.23424299  0.25381859  1.0
  C  C26  1  0.00673630  0.51409240  0.78302076  1.0
  C  C27  1  0.26995085  0.76364249  0.75122618  1.0
  C  C28  1  0.99082189  0.49827952  0.22253228  1.0
  C  C29  1  0.73001848  0.50379619  0.23134334  1.0
  C  C30  1  0.99670843  0.22200483  0.23191222  1.0
  C  C31  1  0.28149519  0.50631750  0.77215977  1.0
  C  C32  1  0.99952212  0.77356309  0.77282302  1.0
  C  C33  1  0.42277076  0.43748947  0.51056212  1.0
  C  C34  1  0.59257175  0.57652962  0.51475614  1.0
  C  C35  1  0.36396201  0.49866674  0.50374438  1.0
  C  C36  1  0.64940514  0.51398269  0.52079023  1.0
  C  C37  1  0.50999289  0.54845128  0.51152813  1.0
  C  C38  1  0.50627366  0.46478026  0.51510588  1.0
  C  C39  1  0.92654904  0.91195326  0.48875965  1.0
  C  C40  1  0.06490055  0.08117868  0.49164525  1.0
  C  C41  1  0.98773037  0.85314070  0.48202991  1.0
  C  C42  1  0.00344735  0.13897852  0.49989207  1.0
  C  C43  1  0.03618455  0.99802907  0.48718384  1.0
  C  C44  1  0.95313118  0.99486241  0.49196377  1.0
  C  C45  1  0.93006738  0.08296196  0.02628914  1.0
  C  C46  1  0.06273040  0.90687527  0.97765943  1.0
  C  C47  1  0.99545872  0.13255583  0.14254499  1.0
  C  C48  1  0.99689897  0.85978555  0.86226116  1.0
  C  C49  1  0.03785340  0.98824571  0.03733216  1.0
  C  C50  1  0.95310679  0.00086796  0.96519130  1.0
  C  C51  1  0.59464725  0.44019583  0.02539382  1.0
  C  C52  1  0.41930672  0.57357240  0.97667069  1.0
  C  C53  1  0.64403907  0.50560855  0.14163224  1.0
  C  C54  1  0.37116265  0.50681217  0.86127195  1.0
  C  C55  1  0.50109366  0.54907462  0.03626220  1.0
  C  C56  1  0.51312994  0.46374034  0.96413820  1.0
  C  C57  1  0.60708347  0.10013374  0.05830664  1.0
  C  C58  1  0.61700940  0.11031612  0.21593646  1.0
  C  C59  1  0.53582927  0.02955230  0.14254685  1.0
  C  C60  1  0.48720021  0.98061822  0.02388405  1.0
  C  C61  1  0.40398872  0.89714615  0.94656669  1.0
  C  C62  1  0.39386074  0.88692428  0.78888130  1.0
  C  C63  1  0.47462839  0.96813237  0.86226716  1.0
  C  C64  1  0.52354390  0.01692162  0.98096671  1.0
  C  C65  1  0.65312685  0.14601482  0.17345945  1.0
  C  C66  1  0.35813976  0.85091218  0.83140467  1.0
  C  C67  1  0.05656393  0.56947072  0.15181179  1.0
  C  C68  1  0.93502490  0.44885540  0.85225323  1.0
  C  C69  1  0.99050218  0.50284629  0.13581337  1.0
  C  C70  1  0.00299170  0.51520255  0.87085439  1.0
  C  C71  1  0.95462728  0.46928074  0.95528012  1.0
  C  C72  1  0.03724640  0.55129303  0.04992010  1.0
  S  S73  1  0.41151865  0.59169400  0.50295878  1.0
  S  S74  1  0.60380908  0.42085198  0.52273370  1.0
  S  S75  1  0.07946019  0.89957392  0.47870391  1.0
  S  S76  1  0.91027607  0.09333651  0.50172811  1.0
  S  S77  1  0.08723753  0.07726162  0.17795209  1.0
  S  S78  1  0.90404746  0.91324731  0.82488762  1.0
  S  S79  1  0.58991347  0.59848645  0.17690404  1.0
  S  S80  1  0.42457293  0.41390062  0.82384335  1.0
  S  S81  1  0.90240897  0.41653705  0.99312857  1.0
  S  S82  1  0.09073468  0.60325668  0.01289677  1.0
  O  O83  1  0.77729049  0.44813439  0.52556030  1.0
  O  O84  1  0.05581575  0.72730802  0.47972962  1.0
  O  O85  1  0.23328969  0.56147785  0.49108397  1.0
  O  O86  1  0.94252360  0.27138224  0.51464988  1.0
  O  O87  1  0.77079068  0.26544875  0.21352263  1.0
  O  O88  1  0.07515841  0.57996196  0.81405339  1.0
  O  O89  1  0.23883148  0.73320097  0.79166874  1.0
  O  O90  1  0.92459257  0.42968671  0.19070860  1.0
  O  O91  1  0.76207689  0.57286531  0.33329874  1.0
  O  O92  1  0.06751545  0.25619682  0.33386352  1.0
  O  O93  1  0.24655831  0.43564624  0.67012737  1.0
  O  O94  1  0.93061469  0.74078939  0.67074645  1.0
  O  O95  1  0.92769159  0.25924694  0.20035493  1.0
  O  O96  1  0.24527630  0.57606115  0.80488239  1.0
  O  O97  1  0.07152069  0.73971523  0.80525349  1.0
  O  O98  1  0.76505970  0.43258573  0.20016719  1.0
  O  O99  1  0.77811642  0.27374640  0.35899145  1.0
  O  O100  1  0.05997883  0.56404633  0.32443914  1.0
  O  O101  1  0.23038184  0.72592217  0.64614920  1.0
  O  O102  1  0.94047514  0.44466958  0.68155261  1.0
  O  O103  1  0.07740294  0.26490592  0.50668980  1.0
  O  O104  1  0.76978672  0.58212074  0.51586697  1.0
  O  O105  1  0.92128183  0.73293672  0.48830535  1.0
  O  O106  1  0.23804123  0.42600583  0.49785486  1.0
  O  O107  1  0.06899749  0.44572255  0.62848518  1.0
  O  O108  1  0.05818433  0.43485302  0.37604817  1.0
  O  O109  1  0.05804505  0.68079369  0.61426011  1.0
  O  O110  1  0.82315911  0.44601651  0.39057086  1.0
  O  O111  1  0.95273676  0.54302109  0.40938759  1.0
  O  O112  1  0.96089592  0.55149552  0.59557026  1.0
  O  O113  1  0.13374108  0.54276342  0.58460267  1.0
  O  O114  1  0.96096525  0.37016716  0.41989436  1.0
  F  F115  1  0.40352901  0.35954070  0.51227432  1.0
  F  F116  1  0.84990645  0.89383321  0.49298136  1.0
  F  F117  1  0.85233757  0.10920233  0.97456392  1.0
  F  F118  1  0.61999330  0.36143767  0.97400031  1.0
  F  F119  1  0.13248315  0.64396021  0.25274303  1.0
