# generated using pymatgen
data_Zn4H8C40N14O41
_symmetry_space_group_name_H-M   'P 1'
_cell_length_a   15.13952315
_cell_length_b   15.14067600
_cell_length_c   19.46693505
_cell_angle_alpha   90.24357888
_cell_angle_beta   89.14783179
_cell_angle_gamma   89.78602101
_symmetry_Int_Tables_number   1
_chemical_formula_structural   Zn4H8C40N14O41
_chemical_formula_sum   'Zn4 H8 C40 N14 O41'
_cell_volume   4461.69571017
_cell_formula_units_Z   1
loop_
 _symmetry_equiv_pos_site_id
 _symmetry_equiv_pos_as_xyz
  1  'x, y, z'
loop_
 _atom_site_type_symbol
 _atom_site_label
 _atom_site_symmetry_multiplicity
 _atom_site_fract_x
 _atom_site_fract_y
 _atom_site_fract_z
 _atom_site_occupancy
  Zn  Zn0  1  0.43054712  0.42510520  0.56332179  1.0
  Zn  Zn1  1  0.41789484  0.56761118  0.44022645  1.0
  Zn  Zn2  1  0.57289164  0.42417545  0.44022229  1.0
  Zn  Zn3  1  0.57410104  0.58254588  0.54912786  1.0
  H  H4  1  0.60723956  0.85182525  0.50860138  1.0
  H  H5  1  0.38721259  0.14929675  0.50710857  1.0
  H  H6  1  0.14851599  0.51869488  0.41598422  1.0
  H  H7  1  0.41824416  0.60142527  0.22225005  1.0
  H  H8  1  0.99932628  0.47852314  0.64370164  1.0
  H  H9  1  0.54505802  0.34664211  0.23601591  1.0
  H  H10  1  0.47065616  0.40121347  0.99031913  1.0
  H  H11  1  0.55460617  0.58624134  0.00557248  1.0
  C  C12  1  0.47966461  0.73682810  0.49560285  1.0
  C  C13  1  0.51756193  0.26376766  0.51232452  1.0
  C  C14  1  0.26268501  0.49347168  0.51367907  1.0
  C  C15  1  0.73416907  0.51490660  0.48162184  1.0
  C  C16  1  0.48446284  0.48312281  0.31446816  1.0
  C  C17  1  0.51599203  0.51131828  0.68072601  1.0
  C  C18  1  0.52238285  0.51628677  0.75818527  1.0
  C  C19  1  0.56524127  0.45077988  0.79557641  1.0
  C  C20  1  0.57215871  0.45707361  0.86673324  1.0
  C  C21  1  0.53322535  0.52659263  0.90456794  1.0
  C  C22  1  0.49418802  0.59419808  0.86597843  1.0
  C  C23  1  0.49019221  0.58971183  0.79450177  1.0
  C  C24  1  0.44959670  0.53477342  0.12709060  1.0
  C  C25  1  0.44754886  0.54302775  0.19816823  1.0
  C  C26  1  0.51789346  0.40035125  0.20592276  1.0
  C  C27  1  0.51961616  0.39454296  0.13472820  1.0
  C  C28  1  0.48807005  0.46229940  0.09185743  1.0
  C  C29  1  0.53019539  0.52700537  0.98016907  1.0
  C  C30  1  0.49545589  0.45985772  0.01635268  1.0
  C  C31  1  0.48292180  0.47548436  0.23801188  1.0
  C  C32  1  0.46880692  0.83517725  0.49928352  1.0
  C  C33  1  0.52600652  0.16519671  0.51563527  1.0
  C  C34  1  0.61588855  0.03260486  0.51317677  1.0
  C  C35  1  0.60954897  0.12311146  0.51748018  1.0
  C  C36  1  0.45052110  0.11534188  0.50937109  1.0
  C  C37  1  0.45520716  0.02223965  0.50360308  1.0
  C  C38  1  0.53953536  0.97891715  0.50682532  1.0
  C  C39  1  0.54394152  0.88575569  0.50550655  1.0
  C  C40  1  0.38563280  0.87730371  0.49420764  1.0
  C  C41  1  0.37928718  0.96810903  0.49617439  1.0
  C  C42  1  0.16437778  0.49854129  0.52284929  1.0
  C  C43  1  0.83369227  0.51560673  0.47812113  1.0
  C  C44  1  0.96863454  0.52312354  0.40962512  1.0
  C  C45  1  0.87782023  0.52611283  0.41431847  1.0
  C  C46  1  0.88351787  0.50315510  0.53620272  1.0
  C  C47  1  0.97741515  0.50039957  0.53436004  1.0
  C  C48  1  0.02095476  0.51098222  0.46874547  1.0
  C  C49  1  0.11429448  0.51061099  0.46506172  1.0
  C  C50  1  0.12021254  0.48634357  0.58677461  1.0
  C  C51  1  0.02972910  0.48664479  0.59315043  1.0
  N  N52  1  0.61076049  0.37683086  0.75852373  1.0
  N  N53  1  0.55898494  0.31263861  0.10511138  1.0
  N  N54  1  0.30450315  0.82312407  0.48892081  1.0
  N  N55  1  0.70331673  0.98872256  0.51736990  1.0
  N  N56  1  0.29118538  0.01057952  0.49236344  1.0
  N  N57  1  0.68990274  0.17726282  0.52641895  1.0
  N  N58  1  0.17088767  0.47991699  0.65114403  1.0
  N  N59  1  0.01402846  0.53735033  0.34255185  1.0
  N  N60  1  0.82461206  0.54253838  0.35246601  1.0
  N  N61  1  0.83551723  0.49023402  0.60242090  1.0
  N  N62  1  0.45023834  0.66861981  0.90306775  1.0
  N  N63  1  0.40380871  0.60587776  0.08888017  1.0
  N  N64  1  0.45423285  0.66494297  0.75496022  1.0
  N  N65  1  0.62564790  0.38950669  0.90260506  1.0
  O  O66  1  0.49833873  0.50025229  0.49904696  1.0
  O  O67  1  0.53923709  0.70528355  0.53377272  1.0
  O  O68  1  0.45704380  0.29895356  0.54904537  1.0
  O  O69  1  0.29517515  0.54164684  0.46641232  1.0
  O  O70  1  0.69825993  0.45547909  0.44569309  1.0
  O  O71  1  0.43776461  0.54431689  0.34200392  1.0
  O  O72  1  0.57062124  0.55956665  0.64822280  1.0
  O  O73  1  0.53299216  0.42739852  0.34530004  1.0
  O  O74  1  0.45916379  0.45861907  0.65785060  1.0
  O  O75  1  0.30306553  0.43915061  0.55177231  1.0
  O  O76  1  0.69856212  0.57289433  0.52004640  1.0
  O  O77  1  0.43093462  0.69584399  0.45372780  1.0
  O  O78  1  0.56959964  0.30081345  0.46963481  1.0
  O  O79  1  0.69190363  0.37522486  0.76323958  1.0
  O  O80  1  0.56408119  0.32528270  0.72626758  1.0
  O  O81  1  0.58373138  0.31409635  0.04423008  1.0
  O  O82  1  0.56412924  0.24807429  0.14353551  1.0
  O  O83  1  0.25973452  0.83373440  0.43718362  1.0
  O  O84  1  0.28958352  0.77237305  0.53699962  1.0
  O  O85  1  0.72706963  0.94499348  0.46664471  1.0
  O  O86  1  0.74350155  0.99813313  0.57153001  1.0
  O  O87  1  0.23522190  0.98728922  0.53522851  1.0
  O  O88  1  0.28162366  0.06647400  0.44692778  1.0
  O  O89  1  0.75223749  0.16301945  0.48626201  1.0
  O  O90  1  0.68695191  0.23192718  0.57357788  1.0
  O  O91  1  0.22561031  0.53877623  0.66108142  1.0
  O  O92  1  0.15228995  0.41840545  0.69011382  1.0
  O  O93  1  0.00623862  0.61134786  0.31711335  1.0
  O  O94  1  0.05765323  0.47467129  0.31945911  1.0
  O  O95  1  0.84523018  0.50121828  0.29988164  1.0
  O  O96  1  0.76356989  0.59655684  0.35915219  1.0
  O  O97  1  0.77663261  0.43392785  0.60318010  1.0
  O  O98  1  0.85805192  0.53688273  0.65132098  1.0
  O  O99  1  0.49673758  0.71152773  0.94252513  1.0
  O  O100  1  0.37101965  0.67936636  0.89222448  1.0
  O  O101  1  0.35066932  0.58273429  0.04475495  1.0
  O  O102  1  0.42082815  0.68261937  0.10590987  1.0
  O  O103  1  0.47498743  0.73954487  0.77451604  1.0
  O  O104  1  0.40878572  0.64659139  0.70473285  1.0
  O  O105  1  0.60316052  0.31188863  0.89476345  1.0
  O  O106  1  0.68842945  0.41734763  0.93567200  1.0
