# generated using pymatgen
data_ZnH12C18N2O5
_symmetry_space_group_name_H-M   'P 1'
_cell_length_a   11.51467829
_cell_length_b   11.95327396
_cell_length_c   20.03997094
_cell_angle_alpha   90.00007600
_cell_angle_beta   90.00038860
_cell_angle_gamma   77.65146436
_symmetry_Int_Tables_number   1
_chemical_formula_structural   ZnH12C18N2O5
_chemical_formula_sum   'Zn4 H48 C72 N8 O20'
_cell_volume   2694.45052923
_cell_formula_units_Z   4
loop_
 _symmetry_equiv_pos_site_id
 _symmetry_equiv_pos_as_xyz
  1  'x, y, z'
loop_
 _atom_site_type_symbol
 _atom_site_label
 _atom_site_symmetry_multiplicity
 _atom_site_fract_x
 _atom_site_fract_y
 _atom_site_fract_z
 _atom_site_occupancy
  Zn  Zn0  1  0.49487277  0.91832621  0.08163277  1.0
  Zn  Zn1  1  0.50512553  0.58167385  0.58163288  1.0
  Zn  Zn2  1  0.50512933  0.08167356  0.91836671  1.0
  Zn  Zn3  1  0.49487290  0.41832679  0.41836759  1.0
  H  H4  1  0.46885350  0.14265449  0.36936537  1.0
  H  H5  1  0.46586410  0.67244597  0.31685501  1.0
  H  H6  1  0.47289029  0.02543169  0.27763167  1.0
  H  H7  1  0.12108259  0.73766661  0.05470378  1.0
  H  H8  1  0.04268224  0.09784007  0.10727133  1.0
  H  H9  1  0.46254312  0.90777387  0.48088477  1.0
  H  H10  1  0.72923575  0.74972822  0.05680727  1.0
  H  H11  1  0.65855002  0.09183028  0.10960536  1.0
  H  H12  1  0.94660351  0.73774425  0.05744093  1.0
  H  H13  1  0.33280986  0.74692644  0.05049811  1.0
  H  H14  1  0.87073305  0.09771178  0.11005738  1.0
  H  H15  1  0.25912218  0.08985843  0.10155367  1.0
  H  H16  1  0.53114642  0.35734588  0.86936630  1.0
  H  H17  1  0.53413282  0.82755323  0.81685543  1.0
  H  H18  1  0.52711047  0.47456781  0.77763267  1.0
  H  H19  1  0.87891329  0.76233518  0.55470450  1.0
  H  H20  1  0.95731701  0.40216117  0.60726946  1.0
  H  H21  1  0.53745450  0.59222702  0.98088602  1.0
  H  H22  1  0.27076455  0.75026926  0.55680910  1.0
  H  H23  1  0.34145123  0.40816582  0.60960509  1.0
  H  H24  1  0.05339711  0.76225579  0.55744291  1.0
  H  H25  1  0.66718616  0.75307450  0.55049699  1.0
  H  H26  1  0.12926573  0.40228776  0.61005677  1.0
  H  H27  1  0.74087911  0.41014108  0.60155197  1.0
  H  H28  1  0.53114649  0.85734700  0.63063461  1.0
  H  H29  1  0.53413503  0.32755552  0.68314397  1.0
  H  H30  1  0.52710865  0.97457066  0.72236831  1.0
  H  H31  1  0.87891741  0.26233488  0.94529619  1.0
  H  H32  1  0.95731881  0.90216056  0.89273115  1.0
  H  H33  1  0.53745948  0.09222759  0.51911520  1.0
  H  H34  1  0.27076356  0.25027241  0.94319170  1.0
  H  H35  1  0.34145121  0.90816949  0.89039361  1.0
  H  H36  1  0.05339790  0.26225466  0.94255905  1.0
  H  H37  1  0.66718982  0.25307249  0.94950287  1.0
  H  H38  1  0.12926732  0.90228800  0.88994360  1.0
  H  H39  1  0.74088011  0.91014047  0.89844830  1.0
  H  H40  1  0.46885463  0.64265475  0.13063268  1.0
  H  H41  1  0.46586667  0.17244655  0.18314355  1.0
  H  H42  1  0.47289182  0.52543109  0.22236681  1.0
  H  H43  1  0.12108378  0.23766376  0.44529498  1.0
  H  H44  1  0.04268230  0.59783947  0.39273051  1.0
  H  H45  1  0.46254463  0.40777447  0.01911345  1.0
  H  H46  1  0.72923705  0.24972879  0.44319137  1.0
  H  H47  1  0.65854845  0.59183311  0.39039688  1.0
  H  H48  1  0.94660393  0.23774483  0.44255656  1.0
  H  H49  1  0.33281073  0.24692530  0.44950149  1.0
  H  H50  1  0.87073133  0.59771118  0.38994271  1.0
  H  H51  1  0.25912125  0.58985869  0.39844851  1.0
  C  C52  1  0.47029403  0.84662234  0.28984207  1.0
  C  C53  1  0.46346127  0.68680977  0.45219802  1.0
  C  C54  1  0.05959232  0.91774815  0.08114189  1.0
  C  C55  1  0.46557447  0.75841016  0.33495138  1.0
  C  C56  1  0.46936268  0.95724309  0.31313107  1.0
  C  C57  1  0.14538333  0.81900218  0.06523232  1.0
  C  C58  1  0.10227347  0.01716791  0.09445053  1.0
  C  C59  1  0.47790612  0.82313083  0.21591034  1.0
  C  C60  1  0.46467349  0.98074838  0.38183975  1.0
  C  C61  1  0.46258123  0.78167405  0.40362014  1.0
  C  C62  1  0.93088674  0.91782785  0.08297194  1.0
  C  C63  1  0.46251795  0.89202218  0.42729138  1.0
  C  C64  1  0.76543570  0.82455848  0.06862476  1.0
  C  C65  1  0.72538916  0.01534683  0.09743179  1.0
  C  C66  1  0.88718945  0.81920367  0.06890543  1.0
  C  C67  1  0.26517830  0.82295940  0.06267118  1.0
  C  C68  1  0.84557487  0.01734229  0.09805628  1.0
  C  C69  1  0.22337779  0.01424266  0.09129957  1.0
  C  C70  1  0.52970375  0.65337942  0.78984134  1.0
  C  C71  1  0.53654228  0.81319023  0.95219794  1.0
  C  C72  1  0.94040561  0.58225363  0.58114172  1.0
  C  C73  1  0.53442577  0.74159072  0.83495173  1.0
  C  C74  1  0.53063643  0.54275780  0.81313225  1.0
  C  C75  1  0.85461441  0.68099960  0.56523188  1.0
  C  C76  1  0.89772512  0.48283162  0.59444950  1.0
  C  C77  1  0.52209147  0.67687180  0.71591209  1.0
  C  C78  1  0.53532593  0.51925080  0.88184144  1.0
  C  C79  1  0.53742069  0.71832682  0.90362149  1.0
  C  C80  1  0.06911263  0.58217135  0.58297185  1.0
  C  C81  1  0.53748444  0.60797783  0.92729314  1.0
  C  C82  1  0.23456300  0.67543902  0.56862539  1.0
  C  C83  1  0.27461002  0.48465013  0.59743332  1.0
  C  C84  1  0.11280994  0.68079467  0.56890509  1.0
  C  C85  1  0.73481891  0.67704067  0.56267027  1.0
  C  C86  1  0.15442277  0.48265384  0.59805683  1.0
  C  C87  1  0.77662058  0.48575773  0.59129806  1.0
  C  C88  1  0.52970665  0.15338000  0.71015840  1.0
  C  C89  1  0.53653890  0.31319086  0.54780245  1.0
  C  C90  1  0.94040680  0.08225335  0.91885908  1.0
  C  C91  1  0.53442621  0.24159217  0.66504810  1.0
  C  C92  1  0.53063837  0.04275753  0.68686891  1.0
  C  C93  1  0.85461667  0.18099931  0.93476865  1.0
  C  C94  1  0.89772689  0.98283186  0.90555144  1.0
  C  C95  1  0.52209524  0.17687236  0.78408864  1.0
  C  C96  1  0.53532755  0.01925225  0.61816022  1.0
  C  C97  1  0.53741963  0.21832743  0.59637884  1.0
  C  C98  1  0.06911449  0.08217192  0.91702903  1.0
  C  C99  1  0.53748292  0.10797930  0.57270860  1.0
  C  C100  1  0.23456484  0.17544044  0.93137422  1.0
  C  C101  1  0.27461120  0.98465294  0.90256718  1.0
  C  C102  1  0.11281091  0.18079610  0.93109504  1.0
  C  C103  1  0.73482188  0.17704123  0.93733080  1.0
  C  C104  1  0.15442481  0.98265664  0.90194369  1.0
  C  C105  1  0.77662257  0.98575711  0.90870240  1.0
  C  C106  1  0.47029487  0.34662036  0.21015813  1.0
  C  C107  1  0.46346069  0.18680953  0.04780253  1.0
  C  C108  1  0.05959320  0.41774530  0.41885776  1.0
  C  C109  1  0.46557372  0.25840906  0.16504775  1.0
  C  C110  1  0.46936393  0.45724197  0.18686722  1.0
  C  C111  1  0.14538440  0.31899933  0.43476660  1.0
  C  C112  1  0.10227474  0.51716644  0.40554998  1.0
  C  C113  1  0.47790523  0.32312886  0.28408789  1.0
  C  C114  1  0.46467443  0.48074897  0.11815804  1.0
  C  C115  1  0.46258141  0.28167294  0.09637799  1.0
  C  C116  1  0.93088723  0.41782672  0.41702812  1.0
  C  C117  1  0.46251592  0.39202194  0.07270634  1.0
  C  C118  1  0.76543686  0.32455905  0.43137509  1.0
  C  C119  1  0.72538984  0.51534793  0.40256816  1.0
  C  C120  1  0.88718992  0.31920340  0.43109439  1.0
  C  C121  1  0.26517921  0.32295741  0.43732871  1.0
  C  C122  1  0.84557796  0.51734423  0.40194314  1.0
  C  C123  1  0.22337928  0.51424034  0.40870192  1.0
  N  N124  1  0.68500352  0.92117514  0.08204681  1.0
  N  N125  1  0.30408211  0.91922725  0.07527111  1.0
  N  N126  1  0.31499795  0.57882234  0.58204668  1.0
  N  N127  1  0.69591630  0.58077195  0.57526897  1.0
  N  N128  1  0.31499666  0.07882549  0.91795217  1.0
  N  N129  1  0.69591999  0.08077251  0.92473087  1.0
  N  N130  1  0.68500141  0.42117402  0.41795479  1.0
  N  N131  1  0.30408183  0.41922613  0.42473000  1.0
  O  O132  1  0.46365612  0.08673855  0.40635840  1.0
  O  O133  1  0.45161932  0.59046837  0.42964304  1.0
  O  O134  1  0.49475175  0.90741701  0.17975466  1.0
  O  O135  1  0.46817148  0.72628701  0.19491823  1.0
  O  O136  1  0.47628344  0.70810519  0.51402699  1.0
  O  O137  1  0.53634355  0.41326096  0.90635940  1.0
  O  O138  1  0.54838272  0.90953335  0.92964458  1.0
  O  O139  1  0.50524840  0.59258389  0.67975479  1.0
  O  O140  1  0.53182797  0.77371389  0.69491960  1.0
  O  O141  1  0.52371543  0.79189658  0.01402838  1.0
  O  O142  1  0.53634493  0.91326208  0.59364107  1.0
  O  O143  1  0.54837893  0.40953313  0.57035744  1.0
  O  O144  1  0.50525117  0.09258702  0.82024532  1.0
  O  O145  1  0.53182690  0.27371790  0.80507925  1.0
  O  O146  1  0.52371761  0.29189544  0.48597249  1.0
  O  O147  1  0.46365699  0.58673796  0.09363958  1.0
  O  O148  1  0.45161956  0.09046555  0.07035490  1.0
  O  O149  1  0.49474762  0.40741592  0.32024519  1.0
  O  O150  1  0.46816960  0.22628676  0.30507988  1.0
  O  O151  1  0.47628754  0.20810317  0.98597159  1.0
