# generated using pymatgen
data_ZnH4C9N(ClO2)2
_symmetry_space_group_name_H-M   'P 1'
_cell_length_a   8.48050124
_cell_length_b   9.29749569
_cell_length_c   16.01736626
_cell_angle_alpha   89.99845979
_cell_angle_beta   88.11428055
_cell_angle_gamma   89.99750632
_symmetry_Int_Tables_number   1
_chemical_formula_structural   ZnH4C9N(ClO2)2
_chemical_formula_sum   'Zn2 H8 C18 N2 Cl4 O8'
_cell_volume   1262.24412242
_cell_formula_units_Z   2
loop_
 _symmetry_equiv_pos_site_id
 _symmetry_equiv_pos_as_xyz
  1  'x, y, z'
loop_
 _atom_site_type_symbol
 _atom_site_label
 _atom_site_symmetry_multiplicity
 _atom_site_fract_x
 _atom_site_fract_y
 _atom_site_fract_z
 _atom_site_occupancy
  Zn  Zn0  1  0.34297334  0.49974879  0.50123019  1.0
  Zn  Zn1  1  0.65702251  0.49974154  0.49877461  1.0
  H  H2  1  0.43874219  0.27442858  0.92061437  1.0
  H  H3  1  0.63972865  0.31362612  0.93784829  1.0
  H  H4  1  0.36028543  0.31361667  0.06214643  1.0
  H  H5  1  0.56127491  0.27441137  0.07937901  1.0
  H  H6  1  0.40607270  0.71222004  0.05523258  1.0
  H  H7  1  0.68394332  0.66949175  0.07584912  1.0
  H  H8  1  0.31603512  0.66950829  0.92415660  1.0
  H  H9  1  0.59390728  0.71222882  0.94477375  1.0
  C  C10  1  0.50000851  0.77885420  0.49999802  1.0
  C  C11  1  0.63235501  0.59974388  0.94978971  1.0
  C  C12  1  0.36763262  0.59973902  0.05021376  1.0
  C  C13  1  0.65785447  0.56839917  0.04384690  1.0
  C  C14  1  0.51070660  0.49986785  0.24822571  1.0
  C  C15  1  0.48928688  0.49989998  0.75177975  1.0
  C  C16  1  0.49718882  0.50175430  0.91777626  1.0
  C  C17  1  0.50280931  0.50174142  0.08222660  1.0
  C  C18  1  0.48201272  0.34756784  0.04741426  1.0
  C  C19  1  0.51799622  0.34757710  0.95258193  1.0
  C  C20  1  0.50721427  0.50126156  0.17255696  1.0
  C  C21  1  0.49278154  0.50129197  0.82744344  1.0
  C  C22  1  0.49088692  0.49961284  0.66179610  1.0
  C  C23  1  0.50907120  0.49960323  0.33820680  1.0
  C  C24  1  0.50000637  0.06504155  0.49999887  1.0
  C  C25  1  0.50001076  0.93447245  0.49999810  1.0
  C  C26  1  0.50001451  0.22066410  0.50000073  1.0
  C  C27  1  0.34213582  0.56841201  0.95615511  1.0
  N  N28  1  0.93463307  0.49950583  0.49972932  1.0
  N  N29  1  0.06536165  0.49952094  0.50026863  1.0
  Cl  Cl30  1  0.80770510  0.59092344  0.88673918  1.0
  Cl  Cl31  1  0.17942890  0.45386232  0.93591070  1.0
  Cl  Cl32  1  0.82057623  0.45384954  0.06408650  1.0
  Cl  Cl33  1  0.19228059  0.59091815  0.11326320  1.0
  O  O34  1  0.36526868  0.71792648  0.50052803  1.0
  O  O35  1  0.63479131  0.71792115  0.49946884  1.0
  O  O36  1  0.35728091  0.50077149  0.62728749  1.0
  O  O37  1  0.62673044  0.49846988  0.62483036  1.0
  O  O38  1  0.37326079  0.49846816  0.37516766  1.0
  O  O39  1  0.64270779  0.50077531  0.37272240  1.0
  O  O40  1  0.36519219  0.28158422  0.50162935  1.0
  O  O41  1  0.63478912  0.28157572  0.49837573  1.0
