# generated using pymatgen
data_Zn4H30C36Br2O13
_symmetry_space_group_name_H-M   'P 1'
_cell_length_a   17.80640586
_cell_length_b   18.61387899
_cell_length_c   23.41418942
_cell_angle_alpha   113.35020861
_cell_angle_beta   110.42270731
_cell_angle_gamma   90.24639904
_symmetry_Int_Tables_number   1
_chemical_formula_structural   Zn4H30C36Br2O13
_chemical_formula_sum   'Zn8 H60 C72 Br4 O26'
_cell_volume   6584.75332671
_cell_formula_units_Z   2
loop_
 _symmetry_equiv_pos_site_id
 _symmetry_equiv_pos_as_xyz
  1  'x, y, z'
loop_
 _atom_site_type_symbol
 _atom_site_label
 _atom_site_symmetry_multiplicity
 _atom_site_fract_x
 _atom_site_fract_y
 _atom_site_fract_z
 _atom_site_occupancy
  Zn  Zn0  1  0.88149084  0.46983126  0.94370692  1.0
  Zn  Zn1  1  0.02970696  0.44250225  0.05292619  1.0
  Zn  Zn2  1  0.02189394  0.61118151  0.04777208  1.0
  Zn  Zn3  1  0.05925963  0.46798521  0.93263559  1.0
  Zn  Zn4  1  0.61447080  0.02029248  0.04764105  1.0
  Zn  Zn5  1  0.47121005  0.88433943  0.93857327  1.0
  Zn  Zn6  1  0.47429973  0.05346152  0.93546770  1.0
  Zn  Zn7  1  0.43405696  0.02960832  0.05185931  1.0
  H  H8  1  0.50810452  0.12624978  0.25817991  1.0
  H  H9  1  0.56508456  0.18920007  0.38378213  1.0
  H  H10  1  0.80644960  0.19704531  0.38208993  1.0
  H  H11  1  0.67825166  0.30097757  0.60693328  1.0
  H  H12  1  0.97722690  0.36629420  0.72695741  1.0
  H  H13  1  0.91782693  0.30307509  0.60142011  1.0
  H  H14  1  0.37735371  0.97407881  0.73123747  1.0
  H  H15  1  0.30883800  0.91510444  0.60597626  1.0
  H  H16  1  0.29361441  0.68262642  0.60383412  1.0
  H  H17  1  0.19600378  0.81081421  0.38909062  1.0
  H  H18  1  0.12699006  0.51963021  0.25427066  1.0
  H  H19  1  0.18530492  0.57466635  0.37969819  1.0
  H  H20  1  0.79991201  0.69748999  0.90972542  1.0
  H  H21  1  0.87168549  0.76971447  0.98632764  1.0
  H  H22  1  0.78201304  0.86084352  0.98306947  1.0
  H  H23  1  0.71032710  0.78769854  0.90703408  1.0
  H  H24  1  0.78310894  0.87481496  0.09449397  1.0
  H  H25  1  0.71114942  0.81327161  0.09836173  1.0
  H  H26  1  0.87142346  0.78211731  0.09740359  1.0
  H  H27  1  0.79800015  0.72044348  0.09964159  1.0
  H  H28  1  0.69511005  0.60696938  0.91238495  1.0
  H  H29  1  0.69481631  0.61532733  0.98973920  1.0
  H  H30  1  0.60660437  0.70784148  0.98931867  1.0
  H  H31  1  0.60546885  0.69814064  0.91130245  1.0
  H  H32  1  0.10942653  0.19940496  0.90572579  1.0
  H  H33  1  0.11332585  0.21236326  0.98584843  1.0
  H  H34  1  0.20300331  0.12106642  0.98727736  1.0
  H  H35  1  0.19891575  0.10902637  0.90730777  1.0
  H  H36  1  0.30655323  0.22564215  0.09257879  1.0
  H  H37  1  0.37802887  0.28781716  0.08885350  1.0
  H  H38  1  0.21837624  0.31850844  0.09139747  1.0
  H  H39  1  0.28956499  0.37901027  0.08582580  1.0
  H  H40  1  0.21004865  0.28790587  0.89736193  1.0
  H  H41  1  0.28306306  0.36186321  0.97062736  1.0
  H  H42  1  0.37341589  0.27163472  0.97371099  1.0
  H  H43  1  0.30092391  0.19803998  0.89992799  1.0
  H  H44  1  0.83838933  0.20639973  0.93798060  1.0
  H  H45  1  0.75496915  0.24332054  0.89727960  1.0
  H  H46  1  0.66605073  0.14755740  0.89380937  1.0
  H  H47  1  0.74999014  0.11165862  0.93509776  1.0
  H  H48  1  0.60662053  0.25618237  0.96084957  1.0
  H  H49  1  0.64764689  0.29700360  0.04969200  1.0
  H  H50  1  0.69629916  0.35224823  0.96497171  1.0
  H  H51  1  0.73721066  0.39181965  0.05377868  1.0
  H  H52  1  0.89887844  0.26428212  0.06623676  1.0
  H  H53  1  0.85768663  0.34005862  0.11332987  1.0
  H  H54  1  0.76812850  0.24491300  0.10995893  1.0
  H  H55  1  0.80948224  0.16930677  0.06301905  1.0
  H  H56  1  0.10145478  0.73076095  0.92847618  1.0
  H  H57  1  0.14684426  0.65600281  0.88375104  1.0
  H  H58  1  0.23195749  0.75404781  0.88617487  1.0
  H  H59  1  0.18807169  0.82827144  0.93300251  1.0
  H  H60  1  0.35164613  0.70355456  0.94543911  1.0
  H  H61  1  0.39521938  0.74426251  0.03420785  1.0
  H  H62  1  0.26579136  0.60762361  0.94531793  1.0
  H  H63  1  0.30838912  0.65053492  0.03413228  1.0
  H  H64  1  0.16136828  0.79337950  0.05636086  1.0
  H  H65  1  0.24403068  0.75972898  0.10023114  1.0
  H  H66  1  0.33442218  0.85288457  0.10225952  1.0
  H  H67  1  0.25144021  0.88900125  0.06136871  1.0
  C  C68  1  0.85986116  0.36526471  0.00472729  1.0
  C  C69  1  0.09052306  0.59205149  0.17516837  1.0
  C  C70  1  0.85354222  0.63537629  0.00002035  1.0
  C  C71  1  0.13998414  0.63266029  0.98920389  1.0
  C  C72  1  0.90583963  0.40904097  0.81347561  1.0
  C  C73  1  0.13841244  0.35683391  0.98912225  1.0
  C  C74  1  0.63764483  0.85620807  0.99585534  1.0
  C  C75  1  0.41804796  0.90529161  0.81320294  1.0
  C  C76  1  0.64313732  0.13608621  0.99758323  1.0
  C  C77  1  0.35722056  0.13693964  0.99301412  1.0
  C  C78  1  0.58255798  0.08392613  0.17367784  1.0
  C  C79  1  0.35358303  0.86199215  0.99281426  1.0
  C  C80  1  0.62343840  0.12442896  0.24884917  1.0
  C  C81  1  0.57356903  0.14179524  0.28636366  1.0
  C  C82  1  0.60510064  0.17681204  0.35609091  1.0
  C  C83  1  0.69006906  0.19664026  0.39169582  1.0
  C  C84  1  0.74087787  0.18101622  0.35507523  1.0
  C  C85  1  0.70833352  0.14566246  0.28497894  1.0
  C  C86  1  0.72517742  0.23198125  0.46285298  1.0
  C  C87  1  0.75738861  0.26245499  0.52420820  1.0
  C  C88  1  0.79354775  0.29794631  0.59533705  1.0
  C  C89  1  0.74400071  0.31539407  0.63303023  1.0
  C  C90  1  0.77787594  0.35068267  0.70315498  1.0
  C  C91  1  0.86308287  0.37010149  0.73834828  1.0
  C  C92  1  0.91160775  0.35163290  0.69962597  1.0
  C  C93  1  0.87872481  0.31652111  0.62993020  1.0
  C  C94  1  0.37592626  0.86307974  0.73840277  1.0
  C  C95  1  0.35905630  0.91013704  0.70224577  1.0
  C  C96  1  0.32087327  0.87759208  0.63287693  1.0
  C  C97  1  0.29728067  0.79458545  0.59634631  1.0
  C  C98  1  0.31244853  0.74661120  0.63159479  1.0
  C  C99  1  0.35129977  0.78018478  0.70143316  1.0
  C  C100  1  0.25953490  0.75969910  0.52540604  1.0
  C  C101  1  0.22850136  0.73001031  0.46403329  1.0
  C  C102  1  0.19429001  0.69675972  0.39298218  1.0
  C  C103  1  0.18052809  0.74680635  0.35963635  1.0
  C  C104  1  0.14780069  0.71536614  0.28959660  1.0
  C  C105  1  0.12753203  0.63246997  0.25044639  1.0
  C  C106  1  0.14227102  0.58345787  0.28484326  1.0
  C  C107  1  0.17460815  0.61385979  0.35436104  1.0
  C  C108  1  0.80820712  0.73966618  0.96108089  1.0
  C  C109  1  0.74883766  0.80001472  0.95928201  1.0
  C  C110  1  0.69409904  0.79529809  0.99688917  1.0
  C  C111  1  0.74933004  0.81421440  0.07041724  1.0
  C  C112  1  0.80770445  0.75289011  0.07177910  1.0
  C  C113  1  0.79334264  0.69300405  0.99922682  1.0
  C  C114  1  0.70497011  0.65000330  0.96372344  1.0
  C  C115  1  0.64613094  0.71077530  0.96300031  1.0
  C  C116  1  0.15095999  0.21379779  0.95768224  1.0
  C  C117  1  0.21060872  0.15335944  0.95874519  1.0
  C  C118  1  0.29932537  0.19702167  0.99151891  1.0
  C  C119  1  0.31448207  0.25765911  0.06397524  1.0
  C  C120  1  0.25554915  0.31848245  0.06260266  1.0
  C  C121  1  0.19873175  0.29885992  0.98933627  1.0
  C  C122  1  0.25029805  0.30123238  0.94931599  1.0
  C  C123  1  0.31017403  0.24137712  0.95101954  1.0
  C  C124  1  0.78189621  0.22860127  0.94037441  1.0
  C  C125  1  0.72290611  0.16542232  0.93823511  1.0
  C  C126  1  0.70292933  0.19888380  0.00225398  1.0
  C  C127  1  0.66362657  0.27347174  0.00505664  1.0
  C  C128  1  0.72309288  0.33678027  0.00763292  1.0
  C  C129  1  0.80285728  0.30533921  0.00610238  1.0
  C  C130  1  0.84154318  0.28546576  0.06665518  1.0
  C  C131  1  0.78222176  0.22247639  0.06445880  1.0
  C  C132  1  0.15992458  0.71133401  0.92934800  1.0
  C  C133  1  0.21730835  0.77592783  0.93137010  1.0
  C  C134  1  0.29730346  0.80138794  0.99418243  1.0
  C  C135  1  0.33719892  0.72687439  0.99071507  1.0
  C  C136  1  0.27959917  0.66372424  0.99028700  1.0
  C  C137  1  0.19963998  0.69417548  0.99193412  1.0
  C  C138  1  0.21849591  0.77202600  0.05563876  1.0
  C  C139  1  0.27762955  0.83480271  0.05767533  1.0
  Br  Br140  1  0.78635965  0.13294469  0.24444029  1.0
  Br  Br141  1  0.70012861  0.36768913  0.74423838  1.0
  Br  Br142  1  0.36421965  0.70653503  0.74066669  1.0
  Br  Br143  1  0.13628744  0.79223769  0.25374885  1.0
  O  O144  1  0.99963274  0.49630483  0.99310235  1.0
  O  O145  1  0.83020515  0.38942442  0.95866302  1.0
  O  O146  1  0.08800988  0.51689636  0.14828525  1.0
  O  O147  1  0.92853059  0.66603722  0.03343739  1.0
  O  O148  1  0.93260424  0.38563132  0.04812965  1.0
  O  O149  1  0.82549094  0.56138106  0.96674495  1.0
  O  O150  1  0.06354738  0.63461516  0.14384572  1.0
  O  O151  1  0.10279579  0.65891056  0.02910735  1.0
  O  O152  1  0.98343952  0.41630568  0.83695090  1.0
  O  O153  1  0.13029386  0.56063713  0.94686924  1.0
  O  O154  1  0.86199148  0.43230649  0.84793170  1.0
  O  O155  1  0.10022709  0.36551183  0.02801747  1.0
  O  O156  1  0.13006354  0.39150290  0.95050108  1.0
  O  O157  1  0.49738125  0.99892056  0.99442951  1.0
  O  O158  1  0.67072010  0.92909737  0.02412090  1.0
  O  O159  1  0.45065434  0.86458238  0.84508523  1.0
  O  O160  1  0.57343748  0.11610530  0.94955469  1.0
  O  O161  1  0.56144870  0.83036993  0.96684267  1.0
  O  O162  1  0.66708419  0.10787725  0.04126933  1.0
  O  O163  1  0.41871989  0.98020128  0.83943689  1.0
  O  O164  1  0.39904826  0.12676652  0.95683029  1.0
  O  O165  1  0.50680109  0.08650615  0.14830870  1.0
  O  O166  1  0.35922565  0.10133207  0.03024004  1.0
  O  O167  1  0.62568180  0.04892970  0.14106951  1.0
  O  O168  1  0.37727589  0.83693696  0.94367303  1.0
  O  O169  1  0.37244437  0.93229326  0.03959337  1.0
