# generated using pymatgen
data_ZnH9C18SN3O7F2
_symmetry_space_group_name_H-M   'P 1'
_cell_length_a   11.02671530
_cell_length_b   15.95874299
_cell_length_c   17.29821383
_cell_angle_alpha   83.47341852
_cell_angle_beta   89.64769318
_cell_angle_gamma   88.17635111
_symmetry_Int_Tables_number   1
_chemical_formula_structural   ZnH9C18SN3O7F2
_chemical_formula_sum   'Zn2 H18 C36 S2 N6 O14 F4'
_cell_volume   3022.74107927
_cell_formula_units_Z   2
loop_
 _symmetry_equiv_pos_site_id
 _symmetry_equiv_pos_as_xyz
  1  'x, y, z'
loop_
 _atom_site_type_symbol
 _atom_site_label
 _atom_site_symmetry_multiplicity
 _atom_site_fract_x
 _atom_site_fract_y
 _atom_site_fract_z
 _atom_site_occupancy
  Zn  Zn0  1  0.50193303  0.41310801  0.49844864  1.0
  Zn  Zn1  1  0.49309153  0.59048666  0.49092334  1.0
  H  H2  1  0.60890048  0.71842235  0.56999746  1.0
  H  H3  1  0.60776998  0.87527131  0.57013954  1.0
  H  H4  1  0.32672002  0.89243369  0.39423258  1.0
  H  H5  1  0.65691207  0.10890771  0.59803599  1.0
  H  H6  1  0.37565195  0.12785374  0.42288325  1.0
  H  H7  1  0.37837603  0.28661603  0.42262784  1.0
  H  H8  1  0.51337288  0.62047858  0.73351281  1.0
  H  H9  1  0.51445474  0.61531786  0.87922834  1.0
  H  H10  1  0.51333689  0.34362177  0.89638378  1.0
  H  H11  1  0.49173146  0.65772275  0.09417496  1.0
  H  H12  1  0.51190034  0.38623570  0.10877730  1.0
  H  H13  1  0.50689558  0.37953885  0.25472523  1.0
  H  H14  1  0.21954032  0.59392809  0.61457999  1.0
  H  H15  1  0.77010789  0.61143655  0.60421351  1.0
  H  H16  1  0.88482196  0.41254102  0.42782554  1.0
  H  H17  1  0.11209613  0.40546806  0.43089666  1.0
  H  H18  1  0.22273751  0.80333511  0.65013494  1.0
  H  H19  1  0.76108008  0.63189300  0.80043222  1.0
  C  C20  1  0.50636505  0.49452801  0.64572904  1.0
  C  C21  1  0.73358987  0.51072456  0.49724712  1.0
  C  C22  1  0.49490042  0.50416960  0.34398333  1.0
  C  C23  1  0.26152559  0.49487023  0.50388791  1.0
  C  C24  1  0.54919737  0.75958896  0.53167267  1.0
  C  C25  1  0.54794227  0.84621993  0.53191582  1.0
  C  C26  1  0.46709687  0.89528696  0.48153344  1.0
  C  C27  1  0.39042961  0.85609822  0.43362271  1.0
  C  C28  1  0.39965645  0.76852175  0.43829787  1.0
  C  C29  1  0.59405626  0.14587974  0.55847949  1.0
  C  C30  1  0.51650272  0.10744803  0.51073425  1.0
  C  C31  1  0.43634869  0.15725400  0.46031671  1.0
  C  C32  1  0.43757005  0.24385726  0.46002668  1.0
  C  C33  1  0.58740457  0.23358252  0.55314145  1.0
  C  C34  1  0.51254179  0.48649513  0.73279098  1.0
  C  C35  1  0.51512472  0.56046797  0.77042671  1.0
  C  C36  1  0.51608679  0.55786951  0.85072523  1.0
  C  C37  1  0.51444244  0.47902299  0.89658575  1.0
  C  C38  1  0.51406887  0.40454256  0.86093858  1.0
  C  C39  1  0.51306796  0.40906505  0.78030212  1.0
  C  C40  1  0.49498160  0.59644898  0.12910271  1.0
  C  C41  1  0.50253077  0.52242774  0.09275147  1.0
  C  C42  1  0.50631326  0.44319731  0.13793748  1.0
  C  C43  1  0.50323951  0.43984993  0.21818700  1.0
  C  C44  1  0.49611751  0.51320282  0.25675104  1.0
  C  C45  1  0.49166168  0.59106846  0.20978908  1.0
  C  C46  1  0.12574273  0.49722955  0.51063757  1.0
  C  C47  1  0.06132608  0.55076073  0.55878915  1.0
  C  C48  1  0.06152914  0.44729121  0.46590120  1.0
  C  C49  1  0.12112306  0.59775026  0.61137311  1.0
  C  C50  1  0.05860907  0.64820176  0.65874597  1.0
  C  C51  1  0.86897482  0.50622357  0.50625883  1.0
  C  C52  1  0.93428002  0.45152232  0.46390392  1.0
  C  C53  1  0.93132187  0.55555880  0.55629022  1.0
  C  C54  1  0.86870602  0.60743586  0.60598721  1.0
  C  C55  1  0.92893477  0.65327516  0.65596180  1.0
  S  S56  1  0.15255664  0.69991320  0.72192665  1.0
  S  S57  1  0.83368139  0.71840611  0.71054590  1.0
  N  N58  1  0.47598925  0.72099543  0.48487135  1.0
  N  N59  1  0.45537356  0.98465413  0.47451288  1.0
  N  N60  1  0.52707686  0.01814046  0.51769943  1.0
  N  N61  1  0.51265926  0.28184759  0.50612132  1.0
  N  N62  1  0.51154881  0.46713355  0.97871402  1.0
  N  N63  1  0.50607356  0.53483023  0.01058365  1.0
  O  O64  1  0.49146598  0.42772879  0.61364779  1.0
  O  O65  1  0.51545752  0.56860928  0.61040583  1.0
  O  O66  1  0.68147319  0.58338620  0.48942655  1.0
  O  O67  1  0.68313605  0.44024774  0.49681983  1.0
  O  O68  1  0.48815480  0.57129027  0.37705138  1.0
  O  O69  1  0.50117183  0.42907219  0.37843281  1.0
  O  O70  1  0.31321674  0.42473801  0.49328827  1.0
  O  O71  1  0.31359846  0.56442241  0.50732182  1.0
  O  O72  1  0.14878857  0.79696196  0.68161417  1.0
  O  O73  1  0.09616079  0.69965186  0.79651945  1.0
  O  O74  1  0.27563371  0.66858376  0.71362976  1.0
  O  O75  1  0.83217675  0.66771285  0.79654855  1.0
  O  O76  1  0.89063635  0.79663812  0.71646203  1.0
  O  O77  1  0.71186585  0.71741343  0.68025747  1.0
  F  F78  1  0.32772520  0.72800167  0.39382491  1.0
  F  F79  1  0.66070422  0.27328818  0.59728923  1.0
  F  F80  1  0.51268681  0.33453792  0.74957005  1.0
  F  F81  1  0.48421107  0.66518420  0.24120482  1.0
