# generated using pymatgen
data_CrGa3P4H26C8(N3O8)2
_symmetry_space_group_name_H-M   'P 1'
_cell_length_a   13.47204800
_cell_length_b   14.21915062
_cell_length_c   14.21981753
_cell_angle_alpha   110.50378349
_cell_angle_beta   108.41892432
_cell_angle_gamma   108.41298675
_symmetry_Int_Tables_number   1
_chemical_formula_structural   CrGa3P4H26C8(N3O8)2
_chemical_formula_sum   'Cr3 Ga9 P12 H78 C24 N18 O48'
_cell_volume   2123.63407507
_cell_formula_units_Z   3
loop_
 _symmetry_equiv_pos_site_id
 _symmetry_equiv_pos_as_xyz
  1  'x, y, z'
loop_
 _atom_site_type_symbol
 _atom_site_label
 _atom_site_symmetry_multiplicity
 _atom_site_fract_x
 _atom_site_fract_y
 _atom_site_fract_z
 _atom_site_occupancy
  Cr  Cr0  1  0.26707838  0.45801385  0.58852971  1.0
  Cr  Cr1  1  0.67855541  0.41148863  0.86944570  1.0
  Cr  Cr2  1  0.80897516  0.13054192  0.54197895  1.0
  Ga  Ga3  1  0.47976727  0.62553168  0.45615802  1.0
  Ga  Ga4  1  0.31902209  0.58614243  0.13004185  1.0
  Ga  Ga5  1  0.02370065  0.54398524  0.16942598  1.0
  Ga  Ga6  1  0.18895296  0.86998376  0.45611412  1.0
  Ga  Ga7  1  0.85420798  0.83063387  0.37454894  1.0
  Ga  Ga8  1  0.73288627  0.54389828  0.41386011  1.0
  Ga  Ga9  1  0.51873370  0.37192833  0.54280237  1.0
  Ga  Ga10  1  0.97596832  0.45720643  0.82920275  1.0
  Ga  Ga11  1  0.14674912  0.17086496  0.62808975  1.0
  P  P12  1  0.53996801  0.60502177  0.66118819  1.0
  P  P13  1  0.60161780  0.66654612  0.31176340  1.0
  P  P14  1  0.87879674  0.33885463  0.94390623  1.0
  P  P15  1  0.28998928  0.68837964  0.35478665  1.0
  P  P16  1  0.93489670  0.05619593  0.39501277  1.0
  P  P17  1  0.93510311  0.64523411  0.33344756  1.0
  P  P18  1  0.45794654  0.39363631  0.33923269  1.0
  P  P19  1  0.39949006  0.33234247  0.68875475  1.0
  P  P20  1  0.11877422  0.66086308  0.05434452  1.0
  P  P21  1  0.71074738  0.31123137  0.64360453  1.0
  P  P22  1  0.06439771  0.94562204  0.60651473  1.0
  P  P23  1  0.06711954  0.35640185  0.66765123  1.0
  H  H24  1  0.41713161  0.65901801  0.76585573  1.0
  H  H25  1  0.28711919  0.61019283  0.77033584  1.0
  H  H26  1  0.24256203  0.54744258  0.46029397  1.0
  H  H27  1  0.13707804  0.24216032  0.43483071  1.0
  H  H28  1  0.25685608  0.29437776  0.41931090  1.0
  H  H29  1  0.35381154  0.72293556  0.64696767  1.0
  H  H30  1  0.27677772  0.75225448  0.72596443  1.0
  H  H31  1  0.13514868  0.64343477  0.51270905  1.0
  H  H32  1  0.09851204  0.55883767  0.57686273  1.0
  H  H33  1  0.03404462  0.42513833  0.31795746  1.0
  H  H34  1  0.01640627  0.36944376  0.41063851  1.0
  H  H35  1  0.04630348  0.24011028  0.26530342  1.0
  H  H36  1  0.18246200  0.35772738  0.30649098  1.0
  H  H37  1  0.65125127  0.23413335  0.89305326  1.0
  H  H38  1  0.51674997  0.22969726  0.83981024  1.0
  H  H39  1  0.78236391  0.53967253  0.08706655  1.0
  H  H40  1  0.70229967  0.56520857  0.80732587  1.0
  H  H41  1  0.83761383  0.58070763  0.87504095  1.0
  H  H42  1  0.70697932  0.35300549  0.07587917  1.0
  H  H43  1  0.55094241  0.27399128  0.02627247  1.0
  H  H44  1  0.62264214  0.48726676  0.13076481  1.0
  H  H45  1  0.52172638  0.42311640  0.98205248  1.0
  H  H46  1  0.71616295  0.68198835  0.10712583  1.0
  H  H47  1  0.60584249  0.58933366  0.95874875  1.0
  H  H48  1  0.78107142  0.73468204  0.97478003  1.0
  H  H49  1  0.87609385  0.69353190  0.05122404  1.0
  H  H50  1  0.75802415  0.10682008  0.34097489  1.0
  H  H51  1  0.67684369  0.16018209  0.38974067  1.0
  H  H52  1  0.69500047  0.91285091  0.45246003  1.0
  H  H53  1  0.89486506  0.19259489  0.75783250  1.0
  H  H54  1  0.96242841  0.12490134  0.70557554  1.0
  H  H55  1  0.63073650  0.92406684  0.27706379  1.0
  H  H56  1  0.52437983  0.97373336  0.24766347  1.0
  H  H57  1  0.49160194  0.86927666  0.35645464  1.0
  H  H58  1  0.53951308  0.01800203  0.44108919  1.0
  H  H59  1  0.60881325  0.89275893  0.57473312  1.0
  H  H60  1  0.64688955  0.04113059  0.63047774  1.0
  H  H61  1  0.80615734  0.02505519  0.75976585  1.0
  H  H62  1  0.82468080  0.94869441  0.64211843  1.0
  H  H63  1  0.58360058  0.34451174  0.23693123  1.0
  H  H64  1  0.71269013  0.39351836  0.23075983  1.0
  H  H65  1  0.76072378  0.45241147  0.54313358  1.0
  H  H66  1  0.86116623  0.75982794  0.56530795  1.0
  H  H67  1  0.74113436  0.70379599  0.57950165  1.0
  H  H68  1  0.64732841  0.27725832  0.35160022  1.0
  H  H69  1  0.72593113  0.25177887  0.27348218  1.0
  H  H70  1  0.86439031  0.35530914  0.48577229  1.0
  H  H71  1  0.90356876  0.44324583  0.42542096  1.0
  H  H72  1  0.96766957  0.57874153  0.68530082  1.0
  H  H73  1  0.98454154  0.63069950  0.58992104  1.0
  H  H74  1  0.95531220  0.76209577  0.73312956  1.0
  H  H75  1  0.82000835  0.64585819  0.69557422  1.0
  H  H76  1  0.34677154  0.76308004  0.10756042  1.0
  H  H77  1  0.48202878  0.76925091  0.16281444  1.0
  H  H78  1  0.21761123  0.45678212  0.90930027  1.0
  H  H79  1  0.29579191  0.43473408  0.19461065  1.0
  H  H80  1  0.16154250  0.42046940  0.12428523  1.0
  H  H81  1  0.29586381  0.64841226  0.92568569  1.0
  H  H82  1  0.45261103  0.72650376  0.97835098  1.0
  H  H83  1  0.37865587  0.51422366  0.86961202  1.0
  H  H84  1  0.47821607  0.57455166  0.01789923  1.0
  H  H85  1  0.28236724  0.31466107  0.89357855  1.0
  H  H86  1  0.39466487  0.41006758  0.04090035  1.0
  H  H87  1  0.22219181  0.26688797  0.02915228  1.0
  H  H88  1  0.12442336  0.30435180  0.95034871  1.0
  H  H89  1  0.23918052  0.89240386  0.65551204  1.0
  H  H90  1  0.31914747  0.83714089  0.60640609  1.0
  H  H91  1  0.30833723  0.09073571  0.54762139  1.0
  H  H92  1  0.10128011  0.80548031  0.24017271  1.0
  H  H93  1  0.03721432  0.87566624  0.29609415  1.0
  H  H94  1  0.37024926  0.07428344  0.72280873  1.0
  H  H95  1  0.47429252  0.02156665  0.74816113  1.0
  H  H96  1  0.50909315  0.13036929  0.64467155  1.0
  H  H97  1  0.46027860  0.98209848  0.55667274  1.0
  H  H98  1  0.38884601  0.10657891  0.42126482  1.0
  H  H99  1  0.35380206  0.95925061  0.36931096  1.0
  H  H100  1  0.19311753  0.97103216  0.23790009  1.0
  H  H101  1  0.17405667  0.04970207  0.35412573  1.0
  C  C102  1  0.28470390  0.68376153  0.66708510  1.0
  C  C103  1  0.16617142  0.60037884  0.55698547  1.0
  C  C104  1  0.07828771  0.40607049  0.38281732  1.0
  C  C105  1  0.12199288  0.32294075  0.33665017  1.0
  C  C106  1  0.61772392  0.33288861  0.01663935  1.0
  C  C107  1  0.60930754  0.44298812  0.04340908  1.0
  C  C108  1  0.69555968  0.61715888  0.02320646  1.0
  C  C109  1  0.78545070  0.66334445  0.98626111  1.0
  C  C110  1  0.60079041  0.98335662  0.31619145  1.0
  C  C111  1  0.56566670  0.95662911  0.39954385  1.0
  C  C112  1  0.67213632  0.97668994  0.59383191  1.0
  C  C113  1  0.79900795  0.01362895  0.67695124  1.0
  C  C114  1  0.71667098  0.31857536  0.33280126  1.0
  C  C115  1  0.83514446  0.40088987  0.44409414  1.0
  C  C116  1  0.92279496  0.59504757  0.61830779  1.0
  C  C117  1  0.87897224  0.67901952  0.66339752  1.0
  C  C118  1  0.38400201  0.66720841  0.98583237  1.0
  C  C119  1  0.39110736  0.55588245  0.95686536  1.0
  C  C120  1  0.30452164  0.38166202  0.97686351  1.0
  C  C121  1  0.21558190  0.33657621  0.01573375  1.0
  C  C122  1  0.39819751  0.01413175  0.68142388  1.0
  C  C123  1  0.43423727  0.04312217  0.59907183  1.0
  C  C124  1  0.32770094  0.02327700  0.40496320  1.0
  C  C125  1  0.19988225  0.98438660  0.32098007  1.0
  N  N126  1  0.32460532  0.62037252  0.72011917  1.0
  N  N127  1  0.18414208  0.51037214  0.48493487  1.0
  N  N128  1  0.19112262  0.30967633  0.43158302  1.0
  N  N129  1  0.60448394  0.27987763  0.90018602  1.0
  N  N130  1  0.69927684  0.51504426  0.02538953  1.0
  N  N131  1  0.75960497  0.56843498  0.87806668  1.0
  N  N132  1  0.70412634  0.09976422  0.37959537  1.0
  N  N133  1  0.67367010  0.97456794  0.48955938  1.0
  N  N134  1  0.88139032  0.12187007  0.69028635  1.0
  N  N135  1  0.67618896  0.38236735  0.28132109  1.0
  N  N136  1  0.81798434  0.48984557  0.51780437  1.0
  N  N137  1  0.80867637  0.69139032  0.56859346  1.0
  N  N138  1  0.39496412  0.71869154  0.10107196  1.0
  N  N139  1  0.30020575  0.48215231  0.97210280  1.0
  N  N140  1  0.24003417  0.43141287  0.12285031  1.0
  N  N141  1  0.29386430  0.89889745  0.61762479  1.0
  N  N142  1  0.32811589  0.02795044  0.51016053  1.0
  N  N143  1  0.11719217  0.87719211  0.30858147  1.0
  O  O144  1  0.40519940  0.52350149  0.56996941  1.0
  O  O145  1  0.58684468  0.67687135  0.60601613  1.0
  O  O146  1  0.60093551  0.52523860  0.65791640  1.0
  O  O147  1  0.56662023  0.67855483  0.78069999  1.0
  O  O148  1  0.58633881  0.70901424  0.42098644  1.0
  O  O149  1  0.69044356  0.77907235  0.32320006  1.0
  O  O150  1  0.48546485  0.60518574  0.20082241  1.0
  O  O151  1  0.65957937  0.58906400  0.30995884  1.0
  O  O152  1  0.83523761  0.43003651  0.95349640  1.0
  O  O153  1  0.98091684  0.39415069  0.07093527  1.0
  O  O154  1  0.94297267  0.34203470  0.86733329  1.0
  O  O155  1  0.78594079  0.21934519  0.89804651  1.0
  O  O156  1  0.16549382  0.57907705  0.28798363  1.0
  O  O157  1  0.36743189  0.67700624  0.45589761  1.0
  O  O158  1  0.28464663  0.79923224  0.40434469  1.0
  O  O159  1  0.34972932  0.69021898  0.27909011  1.0
  O  O160  1  0.88171429  0.04658142  0.47657193  1.0
  O  O161  1  0.90987880  0.92915085  0.32320993  1.0
  O  O162  1  0.07567795  0.13268160  0.47477269  1.0
  O  O163  1  0.88796994  0.10212847  0.32142164  1.0
  O  O164  1  0.87735223  0.71203664  0.29102985  1.0
  O  O165  1  0.91146432  0.54421854  0.22092121  1.0
  O  O166  1  0.88025553  0.59554931  0.39470398  1.0
  O  O167  1  0.07056802  0.72090978  0.41098529  1.0
  O  O168  1  0.59149401  0.47693318  0.43135844  1.0
  O  O169  1  0.41055250  0.32048584  0.39326122  1.0
  O  O170  1  0.39479613  0.47190105  0.34123204  1.0
  O  O171  1  0.43340921  0.32125882  0.22014350  1.0
  O  O172  1  0.41420100  0.28794520  0.57937752  1.0
  O  O173  1  0.31022097  0.22082262  0.67853236  1.0
  O  O174  1  0.51638136  0.39303022  0.79949204  1.0
  O  O175  1  0.34397517  0.41137046  0.69130383  1.0
  O  O176  1  0.16016870  0.56872240  0.04545257  1.0
  O  O177  1  0.01717949  0.60673617  0.92721517  1.0
  O  O178  1  0.05380745  0.65893592  0.13075047  1.0
  O  O179  1  0.21332097  0.77992588  0.10091871  1.0
  O  O180  1  0.83488926  0.42055200  0.70856490  1.0
  O  O181  1  0.63177335  0.32152797  0.54233404  1.0
  O  O182  1  0.71674634  0.20041823  0.59351197  1.0
  O  O183  1  0.65265700  0.30872714  0.72005586  1.0
  O  O184  1  0.11466607  0.95448921  0.52326191  1.0
  O  O185  1  0.08996585  0.07275184  0.67951109  1.0
  O  O186  1  0.92299953  0.86921668  0.52815401  1.0
  O  O187  1  0.11234187  0.89903834  0.67900745  1.0
  O  O188  1  0.12621697  0.29140520  0.71206816  1.0
  O  O189  1  0.08941951  0.45770664  0.77916608  1.0
  O  O190  1  0.12333016  0.40642139  0.60695547  1.0
  O  O191  1  0.93253685  0.27996292  0.58863893  1.0
