# generated using pymatgen
data_Zn2H43(C7O2)6
_symmetry_space_group_name_H-M   'P 1'
_cell_length_a   17.80929545
_cell_length_b   17.87642922
_cell_length_c   19.43178483
_cell_angle_alpha   79.04912163
_cell_angle_beta   74.30333126
_cell_angle_gamma   63.65729210
_symmetry_Int_Tables_number   1
_chemical_formula_structural   Zn2H43(C7O2)6
_chemical_formula_sum   'Zn4 H86 C84 O24'
_cell_volume   5319.70211522
_cell_formula_units_Z   2
loop_
 _symmetry_equiv_pos_site_id
 _symmetry_equiv_pos_as_xyz
  1  'x, y, z'
loop_
 _atom_site_type_symbol
 _atom_site_label
 _atom_site_symmetry_multiplicity
 _atom_site_fract_x
 _atom_site_fract_y
 _atom_site_fract_z
 _atom_site_occupancy
  Zn  Zn0  1  0.41903999  0.58137291  0.44090890  1.0
  Zn  Zn1  1  0.43325065  0.45106668  0.58011434  1.0
  Zn  Zn2  1  0.54928897  0.55359641  0.53631639  1.0
  Zn  Zn3  1  0.59033490  0.41047741  0.44013766  1.0
  H  H4  1  0.36576856  0.52869140  0.26204284  1.0
  H  H5  1  0.12714909  0.33044123  0.38510301  1.0
  H  H6  1  0.87060717  0.71198784  0.56164539  1.0
  H  H7  1  0.01431962  0.29805828  0.36594100  1.0
  H  H8  1  0.85911872  0.32940887  0.38380719  1.0
  H  H9  1  0.79018261  0.53655022  0.50320074  1.0
  H  H10  1  0.17104721  0.41390459  0.43911606  1.0
  H  H11  1  0.82476750  0.61958764  0.52223375  1.0
  H  H12  1  0.40265252  0.44048515  0.80429758  1.0
  H  H13  1  0.63725874  0.39398472  0.08651270  1.0
  H  H14  1  0.64064360  0.40075971  0.21332756  1.0
  H  H15  1  0.39690201  0.45062758  0.93248335  1.0
  H  H16  1  0.73326361  0.18279870  0.52132495  1.0
  H  H17  1  0.78501375  0.09864122  0.58245558  1.0
  H  H18  1  0.71591571  0.28657788  0.59927484  1.0
  H  H19  1  0.76217645  0.20559370  0.66315251  1.0
  H  H20  1  0.90189335  0.15022167  0.57194461  1.0
  H  H21  1  0.87118930  0.25690275  0.58350137  1.0
  H  H22  1  0.85519752  0.23035728  0.50696599  1.0
  H  H23  1  0.74496333  0.82896255  0.59384020  1.0
  H  H24  1  0.67629285  0.77563503  0.62892868  1.0
  H  H25  1  0.69560331  0.77183404  0.75322549  1.0
  H  H26  1  0.32758224  0.10922420  0.40463751  1.0
  H  H27  1  0.79693473  0.72262680  0.69466508  1.0
  H  H28  1  0.76362309  0.82551561  0.71866072  1.0
  H  H29  1  0.18659761  0.06875078  0.46937587  1.0
  H  H30  1  0.17967178  0.97989437  0.44703313  1.0
  H  H31  1  0.14833967  0.14563019  0.35316830  1.0
  H  H32  1  0.14356314  0.05706653  0.33004973  1.0
  H  H33  1  0.02300063  0.06764827  0.43955015  1.0
  H  H34  1  0.99508057  0.16027440  0.38112703  1.0
  H  H35  1  0.02668108  0.15816059  0.46060364  1.0
  H  H36  1  0.40561672  0.87095199  0.64294459  1.0
  H  H37  1  0.47146494  0.20188360  0.48530416  1.0
  H  H38  1  0.45454785  0.88283612  0.70711417  1.0
  H  H39  1  0.53017067  0.72662943  0.72708329  1.0
  H  H40  1  0.41800766  0.75744580  0.74304074  1.0
  H  H41  1  0.48431476  0.71382152  0.66115758  1.0
  H  H42  1  0.15356742  0.38254478  0.57891543  1.0
  H  H43  1  0.22390025  0.40479586  0.61441105  1.0
  H  H44  1  0.28050962  0.28425873  0.49848477  1.0
  H  H45  1  0.34956677  0.30762470  0.53338469  1.0
  H  H46  1  0.30001590  0.24858141  0.65610946  1.0
  H  H47  1  0.34029280  0.17258027  0.59342245  1.0
  H  H48  1  0.32715626  0.84404820  0.40265558  1.0
  H  H49  1  0.22797834  0.22727042  0.62323286  1.0
  H  H50  1  0.18859704  0.61975036  0.66787785  1.0
  H  H51  1  0.11146651  0.71792067  0.70057567  1.0
  H  H52  1  0.29269935  0.68233462  0.60983166  1.0
  H  H53  1  0.21684076  0.78119189  0.63887270  1.0
  H  H54  1  0.21507914  0.72240762  0.76849410  1.0
  H  H55  1  0.32081787  0.70677361  0.72167435  1.0
  H  H56  1  0.29001291  0.62223004  0.73966504  1.0
  H  H57  1  0.95177002  0.83078308  0.49503173  1.0
  H  H58  1  0.03119074  0.83030172  0.53559938  1.0
  H  H59  1  0.50961799  0.79522051  0.53000234  1.0
  H  H60  1  0.91589131  0.90956182  0.63521773  1.0
  H  H61  1  0.89901801  0.96523597  0.55045764  1.0
  H  H62  1  0.83581149  0.90962711  0.59637550  1.0
  H  H63  1  0.32057584  0.64513250  0.99244724  1.0
  H  H64  1  0.38892679  0.68894837  0.93145024  1.0
  H  H65  1  0.38908163  0.75820068  0.03309412  1.0
  H  H66  1  0.28298584  0.79072163  0.02122244  1.0
  H  H67  1  0.31999794  0.71517009  0.09282960  1.0
  H  H68  1  0.68386275  0.52086886  0.84297177  1.0
  H  H69  1  0.62753189  0.50948255  0.93276865  1.0
  H  H70  1  0.41108902  0.15989534  0.44918902  1.0
  H  H71  1  0.61745381  0.64552623  0.95849409  1.0
  H  H72  1  0.72669849  0.57831299  0.92588204  1.0
  H  H73  1  0.66911855  0.66166663  0.86799740  1.0
  H  H74  1  0.51638187  0.28696258  0.97728103  1.0
  H  H75  1  0.43643331  0.35490207  0.04235619  1.0
  H  H76  1  0.61267745  0.22072296  0.06425717  1.0
  H  H77  1  0.53564868  0.28854839  0.12936590  1.0
  H  H78  1  0.43001298  0.23004278  0.12929055  1.0
  H  H79  1  0.52603144  0.14897962  0.15037037  1.0
  H  H80  1  0.50607863  0.16214774  0.06320337  1.0
  H  H81  1  0.55762556  0.58035232  0.73777516  1.0
  H  H82  1  0.25297965  0.53229797  0.22602127  1.0
  H  H83  1  0.31365397  0.42867146  0.19796602  1.0
  H  H84  1  0.18109358  0.57600800  0.12425405  1.0
  H  H85  1  0.24872823  0.47954735  0.08658833  1.0
  H  H86  1  0.18621922  0.40254493  0.18993061  1.0
  H  H87  1  0.10238544  0.48435796  0.15249716  1.0
  H  H88  1  0.12196785  0.49609821  0.23371033  1.0
  H  H89  1  0.66581764  0.01543545  0.64750724  1.0
  C  C90  1  0.54257209  0.28045616  0.53193056  1.0
  C  C91  1  0.50083583  0.45384408  0.02731268  1.0
  C  C92  1  0.47049827  0.52420749  0.98345549  1.0
  C  C93  1  0.44538314  0.71990080  0.47303998  1.0
  C  C94  1  0.48041466  0.50982948  0.76328310  1.0
  C  C95  1  0.42155142  0.81149679  0.46713930  1.0
  C  C96  1  0.55864700  0.18980569  0.54682962  1.0
  C  C97  1  0.34056097  0.95162464  0.42190593  1.0
  C  C98  1  0.35919977  0.86739654  0.42810093  1.0
  C  C99  1  0.46207483  0.84054613  0.50068632  1.0
  C  C100  1  0.44445064  0.92636116  0.49535803  1.0
  C  C101  1  0.50017472  0.45662802  0.10276066  1.0
  C  C102  1  0.38442489  0.98266263  0.45251072  1.0
  C  C103  1  0.48696321  0.95895310  0.52840425  1.0
  C  C104  1  0.47739077  0.04301982  0.50878745  1.0
  C  C105  1  0.26930314  0.55814402  0.53933699  1.0
  C  C106  1  0.41946561  0.09525119  0.46352752  1.0
  C  C107  1  0.37228521  0.06770690  0.43832348  1.0
  C  C108  1  0.53689191  0.91113378  0.58155263  1.0
  C  C109  1  0.58323455  0.94139104  0.60653178  1.0
  C  C110  1  0.57912468  0.02374022  0.58359502  1.0
  C  C111  1  0.52363160  0.07570172  0.53631583  1.0
  C  C112  1  0.57801275  0.42296617  0.12558274  1.0
  C  C113  1  0.62496399  0.05526204  0.61039094  1.0
  C  C114  1  0.61523101  0.13711626  0.59212480  1.0
  C  C115  1  0.51480228  0.15917689  0.51948007  1.0
  C  C116  1  0.81683538  0.43536042  0.44519331  1.0
  C  C117  1  0.72441123  0.45297610  0.45942891  1.0
  C  C118  1  0.17568696  0.58147238  0.54645772  1.0
  C  C119  1  0.96492413  0.35082639  0.39559286  1.0
  C  C120  1  0.87958162  0.36756622  0.40542616  1.0
  C  C121  1  0.84093077  0.48585252  0.47245014  1.0
  C  C122  1  0.92759961  0.47089188  0.46255794  1.0
  C  C123  1  0.58021990  0.42642362  0.19577724  1.0
  C  C124  1  0.99084921  0.40058049  0.42432461  1.0
  C  C125  1  0.95385061  0.52315176  0.49034866  1.0
  C  C126  1  0.04241374  0.49948147  0.48563483  1.0
  C  C127  1  0.10340556  0.42910294  0.44623198  1.0
  C  C128  1  0.07876524  0.38266138  0.41600684  1.0
  C  C129  1  0.48602537  0.50377377  0.68671965  1.0
  C  C130  1  0.89265807  0.59990572  0.51986697  1.0
  C  C131  1  0.91759318  0.65195725  0.54200349  1.0
  C  C132  1  0.00523112  0.62901742  0.54133335  1.0
  C  C133  1  0.06837947  0.54963900  0.51672480  1.0
  C  C134  1  0.51732010  0.55950275  0.85154179  1.0
  C  C135  1  0.02845290  0.68379750  0.56668509  1.0
  C  C136  1  0.11361957  0.66076383  0.56821613  1.0
  C  C137  1  0.15361231  0.52621420  0.52376993  1.0
  C  C138  1  0.50473821  0.47749922  0.31781077  1.0
  C  C139  1  0.50328828  0.46638835  0.24430702  1.0
  C  C140  1  0.42474234  0.49854710  0.22322655  1.0
  C  C141  1  0.42283717  0.49211096  0.15333909  1.0
  C  C142  1  0.73784971  0.16448732  0.57804733  1.0
  C  C143  1  0.76383850  0.22165931  0.60534951  1.0
  C  C144  1  0.85292256  0.21433087  0.56476470  1.0
  C  C145  1  0.52150735  0.55268212  0.78036431  1.0
  C  C146  1  0.69987471  0.81762548  0.64170796  1.0
  C  C147  1  0.74128205  0.78250766  0.70600033  1.0
  C  C148  1  0.19354705  0.03510322  0.42415409  1.0
  C  C149  1  0.13273363  0.09154557  0.37564339  1.0
  C  C150  1  0.03944618  0.12098600  0.41642181  1.0
  C  C151  1  0.46218394  0.84164022  0.66768448  1.0
  C  C152  1  0.47479588  0.75463345  0.70139234  1.0
  C  C153  1  0.21657451  0.38531251  0.56698552  1.0
  C  C154  1  0.28839396  0.30141365  0.54679631  1.0
  C  C155  1  0.28911226  0.23373449  0.60829975  1.0
  C  C156  1  0.43492598  0.47313531  0.81821741  1.0
  C  C157  1  0.16665548  0.68809227  0.65716891  1.0
  C  C158  1  0.23870420  0.71334151  0.65334074  1.0
  C  C159  1  0.26766526  0.68995146  0.72473938  1.0
  C  C160  1  0.96649640  0.83204722  0.54636762  1.0
  C  C161  1  0.90028025  0.90831546  0.58463190  1.0
  C  C162  1  0.37021861  0.66777227  0.98796851  1.0
  C  C163  1  0.33881154  0.73699080  0.03682886  1.0
  C  C164  1  0.63622044  0.55549336  0.88844400  1.0
  C  C165  1  0.66373253  0.61396879  0.91157291  1.0
  C  C166  1  0.50616941  0.31911697  0.02427657  1.0
  C  C167  1  0.43214262  0.47879709  0.88922488  1.0
  C  C168  1  0.54329397  0.25561451  0.08386835  1.0
  C  C169  1  0.49909493  0.19585409  0.10799441  1.0
  C  C170  1  0.28271677  0.49529160  0.17877872  1.0
  C  C171  1  0.21572069  0.50852628  0.13778901  1.0
  C  C172  1  0.15312792  0.47099803  0.18086207  1.0
  C  C173  1  0.47317980  0.52138159  0.90746212  1.0
  O  O174  1  0.49759488  0.49736993  0.49934850  1.0
  O  O175  1  0.44394649  0.46800929  0.67314138  1.0
  O  O176  1  0.57136695  0.42780126  0.34244811  1.0
  O  O177  1  0.53277329  0.53509278  0.64047907  1.0
  O  O178  1  0.43927310  0.53678848  0.35003304  1.0
  O  O179  1  0.65512271  0.17088849  0.62090041  1.0
  O  O180  1  0.62853841  0.89754023  0.65893891  1.0
  O  O181  1  0.28052209  0.00764031  0.38290455  1.0
  O  O182  1  0.53818137  0.83434840  0.61235157  1.0
  O  O183  1  0.21908764  0.44834622  0.50787072  1.0
  O  O184  1  0.13680908  0.71470236  0.59018045  1.0
  O  O185  1  0.30051006  0.59740764  0.48690028  1.0
  O  O186  1  0.96503029  0.75811487  0.59200061  1.0
  O  O187  1  0.44399824  0.59962341  0.01039682  1.0
  O  O188  1  0.55595979  0.60533740  0.86552679  1.0
  O  O189  1  0.54580957  0.37738774  0.99768157  1.0
  O  O190  1  0.34738916  0.51924649  0.13085189  1.0
  O  O191  1  0.70466070  0.40430686  0.43463627  1.0
  O  O192  1  0.47447608  0.33082106  0.56974736  1.0
  O  O193  1  0.49253131  0.67485858  0.51767290  1.0
  O  O194  1  0.59686412  0.29875395  0.48264984  1.0
  O  O195  1  0.41718797  0.69299629  0.43343746  1.0
  O  O196  1  0.30848197  0.50259837  0.58437289  1.0
  O  O197  1  0.67184088  0.51535546  0.49580720  1.0
