# generated using pymatgen
data_Zn4H28C29S2O13
_symmetry_space_group_name_H-M   'P 1'
_cell_length_a   17.85498502
_cell_length_b   18.59447033
_cell_length_c   19.32810913
_cell_angle_alpha   118.61845961
_cell_angle_beta   115.94075722
_cell_angle_gamma   90.08848148
_symmetry_Int_Tables_number   1
_chemical_formula_structural   Zn4H28C29S2O13
_chemical_formula_sum   'Zn8 H56 C58 S4 O26'
_cell_volume   4881.05665820
_cell_formula_units_Z   2
loop_
 _symmetry_equiv_pos_site_id
 _symmetry_equiv_pos_as_xyz
  1  'x, y, z'
loop_
 _atom_site_type_symbol
 _atom_site_label
 _atom_site_symmetry_multiplicity
 _atom_site_fract_x
 _atom_site_fract_y
 _atom_site_fract_z
 _atom_site_occupancy
  Zn  Zn0  1  0.12908493  0.53676378  0.07880569  1.0
  Zn  Zn1  1  0.96306993  0.37974667  0.93093935  1.0
  Zn  Zn2  1  0.96755704  0.55185314  0.93308017  1.0
  Zn  Zn3  1  0.95347188  0.54717927  0.09121660  1.0
  Zn  Zn4  1  0.37679149  0.96420432  0.93190499  1.0
  Zn  Zn5  1  0.54122987  0.95790200  0.08612038  1.0
  Zn  Zn6  1  0.53611934  0.12786552  0.08565668  1.0
  Zn  Zn7  1  0.55925971  0.96810505  0.93268242  1.0
  H  H8  1  0.20839581  0.81829843  0.63828183  1.0
  H  H9  1  0.68644449  0.07910175  0.38699997  1.0
  H  H10  1  0.21404210  0.80402253  0.12061020  1.0
  H  H11  1  0.12826164  0.78597256  0.01722886  1.0
  H  H12  1  0.21772075  0.88081727  0.02038256  1.0
  H  H13  1  0.30337209  0.89768759  0.12325555  1.0
  H  H14  1  0.19690802  0.76386116  0.87032301  1.0
  H  H15  1  0.26774912  0.69791574  0.86525415  1.0
  H  H16  1  0.10821851  0.66808466  0.86736126  1.0
  H  H17  1  0.18057282  0.60360509  0.86411084  1.0
  H  H18  1  0.31770576  0.71009427  0.11681178  1.0
  H  H19  1  0.30398150  0.62807234  0.01228006  1.0
  H  H20  1  0.39287887  0.72221194  0.01419893  1.0
  H  H21  1  0.40660140  0.80411290  0.11870921  1.0
  H  H22  1  0.90856155  0.31249848  0.12994974  1.0
  H  H23  1  0.89103839  0.23098465  0.02235170  1.0
  H  H24  1  0.80212326  0.13733435  0.02129150  1.0
  H  H25  1  0.81980461  0.21964813  0.12862181  1.0
  H  H26  1  0.67941271  0.11616986  0.87799692  1.0
  H  H27  1  0.60799662  0.18164542  0.88164309  1.0
  H  H28  1  0.76713284  0.21073972  0.87882624  1.0
  H  H29  1  0.69616718  0.27659497  0.88461993  1.0
  H  H30  1  0.80850991  0.40923658  0.13937348  1.0
  H  H31  1  0.72202872  0.39539934  0.03970975  1.0
  H  H32  1  0.63260943  0.30145542  0.03734914  1.0
  H  H33  1  0.71888263  0.31550130  0.13714012  1.0
  H  H34  1  0.17499806  0.27988688  0.08623315  1.0
  H  H35  1  0.26649209  0.36435185  0.14175590  1.0
  H  H36  1  0.35420895  0.27138458  0.14480372  1.0
  H  H37  1  0.26207006  0.18710969  0.08805009  1.0
  H  H38  1  0.40200635  0.30321725  0.05528713  1.0
  H  H39  1  0.34521527  0.24086169  0.93541247  1.0
  H  H40  1  0.31292287  0.39531868  0.05078087  1.0
  H  H41  1  0.25580919  0.33150579  0.93094347  1.0
  H  H42  1  0.09120531  0.18828084  0.91298248  1.0
  H  H43  1  0.12395166  0.20980471  0.84984168  1.0
  H  H44  1  0.21304552  0.11818941  0.85274427  1.0
  H  H45  1  0.17979339  0.09600416  0.91517894  1.0
  H  H46  1  0.91304787  0.81731776  0.09742261  1.0
  H  H47  1  0.87769208  0.79325256  0.15824633  1.0
  H  H48  1  0.79020003  0.88643459  0.15601110  1.0
  H  H49  1  0.82437306  0.90845615  0.09324430  1.0
  H  H50  1  0.66117112  0.76506269  0.07541655  1.0
  H  H51  1  0.60175169  0.70186980  0.95566086  1.0
  H  H52  1  0.74887193  0.67132612  0.07568399  1.0
  H  H53  1  0.68984934  0.60969565  0.95583650  1.0
  H  H54  1  0.82969437  0.72891394  0.92431267  1.0
  H  H55  1  0.73936485  0.64344913  0.86595112  1.0
  H  H56  1  0.64941903  0.73434001  0.86392795  1.0
  H  H57  1  0.73956405  0.81955843  0.92090018  1.0
  H  H58  1  0.32565908  0.71236341  0.33018149  1.0
  H  H59  1  0.40112403  0.71479379  0.43017495  1.0
  H  H60  1  0.32509688  0.61782761  0.32996280  1.0
  H  H61  1  0.88631379  0.48725568  0.67259568  1.0
  H  H62  1  0.78647489  0.46040658  0.57344328  1.0
  H  H63  1  0.79061737  0.49116712  0.67816464  1.0
  C  C64  1  0.14204514  0.36115384  0.99718057  1.0
  C  C65  1  0.87907917  0.38201470  0.76292158  1.0
  C  C66  1  0.14414428  0.63562315  0.99943989  1.0
  C  C67  1  0.86440002  0.64631831  0.01499903  1.0
  C  C68  1  0.12872169  0.62657359  0.25388644  1.0
  C  C69  1  0.86362034  0.37005460  0.01549125  1.0
  C  C70  1  0.36048883  0.86238230  0.00444646  1.0
  C  C71  1  0.61882255  0.12653310  0.25489778  1.0
  C  C72  1  0.35739417  0.13940795  0.00370642  1.0
  C  C73  1  0.64640094  0.14484129  0.01205280  1.0
  C  C74  1  0.38900839  0.88145097  0.76332057  1.0
  C  C75  1  0.64866463  0.86892685  0.01185796  1.0
  C  C76  1  0.27148911  0.70340483  0.40675061  1.0
  C  C77  1  0.25080423  0.80429676  0.60944401  1.0
  C  C78  1  0.18142800  0.67648956  0.35345834  1.0
  C  C79  1  0.34000106  0.83153817  0.66318787  1.0
  C  C80  1  0.22529328  0.75793531  0.51623795  1.0
  C  C81  1  0.29553186  0.75015444  0.50002851  1.0
  C  C82  1  0.80159352  0.36429053  0.60586187  1.0
  C  C83  1  0.69993184  0.14658475  0.41194129  1.0
  C  C84  1  0.82968175  0.33331650  0.66341203  1.0
  C  C85  1  0.67087537  0.17691024  0.35450025  1.0
  C  C86  1  0.74761576  0.21425414  0.50360958  1.0
  C  C87  1  0.75438613  0.29507790  0.51442581  1.0
  C  C88  1  0.19617258  0.78570562  0.05108008  1.0
  C  C89  1  0.25545565  0.84828993  0.05282402  1.0
  C  C90  1  0.30328502  0.79940620  0.00206829  1.0
  C  C91  1  0.23486118  0.73171695  0.90305302  1.0
  C  C92  1  0.17633308  0.66888402  0.90165529  1.0
  C  C93  1  0.20397527  0.69423689  0.99967734  1.0
  C  C94  1  0.29854973  0.69323287  0.04755197  1.0
  C  C95  1  0.35735310  0.75543976  0.04882332  1.0
  C  C96  1  0.85806990  0.26505883  0.05982843  1.0
  C  C97  1  0.79890979  0.20296835  0.05891113  1.0
  C  C98  1  0.70418147  0.20694123  0.01386493  1.0
  C  C99  1  0.67603598  0.18163263  0.91571321  1.0
  C  C100  1  0.73458480  0.24419350  0.91692592  1.0
  C  C101  1  0.80390088  0.31170810  0.01585300  1.0
  C  C102  1  0.75925372  0.36072119  0.06935557  1.0
  C  C103  1  0.70000053  0.29861795  0.06790918  1.0
  C  C104  1  0.23108533  0.29925505  0.08305263  1.0
  C  C105  1  0.28932287  0.23777452  0.08478353  1.0
  C  C106  1  0.29759674  0.19713066  0.99823688  1.0
  C  C107  1  0.33706429  0.26915725  0.99555533  1.0
  C  C108  1  0.27802826  0.32985546  0.99288208  1.0
  C  C109  1  0.19869111  0.29988030  0.99480352  1.0
  C  C110  1  0.14839721  0.20907807  0.91242878  1.0
  C  C111  1  0.20718993  0.14819918  0.91420917  1.0
  C  C112  1  0.85526627  0.79554416  0.09674324  1.0
  C  C113  1  0.79655299  0.85684072  0.09489133  1.0
  C  C114  1  0.70543271  0.80764271  0.01000625  1.0
  C  C115  1  0.66750920  0.73613245  0.01433443  1.0
  C  C116  1  0.72595083  0.67469061  0.01480687  1.0
  C  C117  1  0.80470741  0.70473294  0.01214032  1.0
  C  C118  1  0.77336883  0.70816079  0.92613931  1.0
  C  C119  1  0.71401069  0.76843384  0.92446465  1.0
  C  C120  1  0.33454219  0.68641372  0.37288747  1.0
  C  C121  1  0.81690429  0.45560970  0.63367516  1.0
  S  S122  1  0.12801287  0.70753975  0.41588797  1.0
  S  S123  1  0.39326505  0.80090619  0.60075053  1.0
  S  S124  1  0.79963173  0.22276118  0.60711767  1.0
  S  S125  1  0.70166743  0.28720961  0.41103900  1.0
  O  O126  1  0.00247769  0.50415161  0.00981010  1.0
  O  O127  1  0.18029151  0.44029425  0.05509923  1.0
  O  O128  1  0.89482146  0.33899972  0.80097809  1.0
  O  O129  1  0.06315580  0.62049603  0.94811088  1.0
  O  O130  1  0.06095420  0.32916547  0.94310353  1.0
  O  O131  1  0.17874882  0.60745147  0.05133505  1.0
  O  O132  1  0.90192762  0.46294334  0.80320866  1.0
  O  O133  1  0.89337895  0.62508926  0.96023662  1.0
  O  O134  1  0.04641581  0.60948669  0.21985532  1.0
  O  O135  1  0.88178428  0.62387990  0.07214975  1.0
  O  O136  1  0.16952916  0.60447455  0.20974309  1.0
  O  O137  1  0.89509189  0.33296246  0.96351750  1.0
  O  O138  1  0.87820879  0.45014593  0.06656987  1.0
  O  O139  1  0.50317587  0.00360275  0.00732102  1.0
  O  O140  1  0.32272084  0.89198635  0.95444402  1.0
  O  O141  1  0.59695690  0.04586856  0.21644433  1.0
  O  O142  1  0.43701998  0.17615725  0.06405752  1.0
  O  O143  1  0.44165879  0.88155182  0.05694357  1.0
  O  O144  1  0.32400892  0.05945361  0.94890671  1.0
  O  O145  1  0.59994998  0.16850126  0.21574103  1.0
  O  O146  1  0.61302741  0.17690266  0.06272070  1.0
  O  O147  1  0.47151774  0.90357697  0.80161640  1.0
  O  O148  1  0.63583492  0.06550356  0.96002537  1.0
  O  O149  1  0.34392438  0.89795512  0.80260512  1.0
  O  O150  1  0.62541843  0.89339517  0.07165828  1.0
  O  O151  1  0.62921054  0.89166752  0.95486795  1.0
