# generated using pymatgen
data_Zn2H12C21O8
_symmetry_space_group_name_H-M   'P 1'
_cell_length_a   24.37830587
_cell_length_b   24.58091502
_cell_length_c   24.99619928
_cell_angle_alpha   62.26394452
_cell_angle_beta   61.37435541
_cell_angle_gamma   60.90734428
_symmetry_Int_Tables_number   1
_chemical_formula_structural   Zn2H12C21O8
_chemical_formula_sum   'Zn8 H48 C84 O32'
_cell_volume   10948.74293926
_cell_formula_units_Z   4
loop_
 _symmetry_equiv_pos_site_id
 _symmetry_equiv_pos_as_xyz
  1  'x, y, z'
loop_
 _atom_site_type_symbol
 _atom_site_label
 _atom_site_symmetry_multiplicity
 _atom_site_fract_x
 _atom_site_fract_y
 _atom_site_fract_z
 _atom_site_occupancy
  Zn  Zn0  1  0.98827047  0.92445082  0.12804780  1.0
  Zn  Zn1  1  0.11825113  0.92300139  0.00618086  1.0
  Zn  Zn2  1  0.98728053  0.05018935  0.00916241  1.0
  Zn  Zn3  1  0.98648406  0.92198878  0.00202500  1.0
  Zn  Zn4  1  0.55545084  0.48652063  0.43890527  1.0
  Zn  Zn5  1  0.42529643  0.49082932  0.56499138  1.0
  Zn  Zn6  1  0.55698671  0.49090431  0.56346156  1.0
  Zn  Zn7  1  0.55489931  0.36130738  0.56569379  1.0
  H  H8  1  0.07232199  0.84493191  0.26272546  1.0
  H  H9  1  0.13145452  0.81546052  0.33676556  1.0
  H  H10  1  0.31677136  0.79504277  0.18178990  1.0
  H  H11  1  0.25733909  0.82560699  0.10802975  1.0
  H  H12  1  0.38478713  0.73708893  0.24987502  1.0
  H  H13  1  0.45662454  0.63504303  0.30876595  1.0
  H  H14  1  0.28648811  0.62107585  0.47786548  1.0
  H  H15  1  0.21396780  0.72323988  0.41908968  1.0
  H  H16  1  0.83733473  0.00575042  0.26263742  1.0
  H  H17  1  0.73113531  0.06521116  0.33357453  1.0
  H  H18  1  0.73358770  0.24709598  0.18311116  1.0
  H  H19  1  0.83834174  0.18726045  0.11237007  1.0
  H  H20  1  0.66170683  0.31298446  0.24797073  1.0
  H  H21  1  0.63730359  0.38349822  0.30887309  1.0
  H  H22  1  0.62810903  0.22200176  0.48151439  1.0
  H  H23  1  0.65227048  0.15076460  0.42086998  1.0
  H  H24  1  0.91100345  0.78972100  0.25579763  1.0
  H  H25  1  0.88605525  0.68603068  0.32950350  1.0
  H  H26  1  0.88199269  0.65952230  0.17328365  1.0
  H  H27  1  0.90738979  0.76267608  0.09994171  1.0
  H  H28  1  0.80580884  0.60366713  0.24264701  1.0
  H  H29  1  0.70313710  0.57284737  0.30492575  1.0
  H  H30  1  0.71025270  0.56007964  0.47879347  1.0
  H  H31  1  0.81434637  0.58948497  0.41679732  1.0
  H  H32  1  0.25428468  0.02104060  0.91731154  1.0
  H  H33  1  0.32061035  0.09177360  0.88109840  1.0
  H  H34  1  0.14339344  0.26089434  0.88143267  1.0
  H  H35  1  0.07727794  0.18982829  0.91818943  1.0
  H  H36  1  0.21904128  0.33880880  0.80460517  1.0
  H  H37  1  0.28500073  0.40264385  0.70312268  1.0
  H  H38  1  0.45832279  0.23007827  0.69959689  1.0
  H  H39  1  0.39274530  0.16599452  0.80107858  1.0
  H  H40  1  0.25432190  0.85052905  0.85989310  1.0
  H  H41  1  0.32573103  0.82465636  0.75591409  1.0
  H  H42  1  0.15900167  0.81578713  0.74588198  1.0
  H  H43  1  0.08802241  0.84242632  0.84910251  1.0
  H  H44  1  0.22829547  0.74567705  0.67908023  1.0
  H  H45  1  0.29023277  0.64192788  0.64951735  1.0
  H  H46  1  0.47178960  0.63918111  0.64075621  1.0
  H  H47  1  0.41004870  0.74332276  0.67032618  1.0
  H  H48  1  0.85661737  0.18481973  0.92363380  1.0
  H  H49  1  0.75617975  0.26367348  0.88960202  1.0
  H  H50  1  0.73459239  0.10618425  0.87805549  1.0
  H  H51  1  0.83387111  0.02786864  0.91314810  1.0
  H  H52  1  0.66887874  0.17333902  0.81254099  1.0
  H  H53  1  0.64012505  0.23004845  0.71163756  1.0
  H  H54  1  0.64714937  0.40756943  0.69748654  1.0
  H  H55  1  0.67679255  0.35086512  0.79839786  1.0
  C  C56  1  0.12358972  0.86225808  0.13700081  1.0
  C  C57  1  0.16122608  0.83733197  0.18103857  1.0
  C  C58  1  0.12585810  0.83334237  0.24576421  1.0
  C  C59  1  0.15846219  0.81689675  0.28680518  1.0
  C  C60  1  0.22696726  0.80396874  0.26322193  1.0
  C  C61  1  0.26340890  0.80516253  0.19942324  1.0
  C  C62  1  0.23029618  0.82219548  0.15841008  1.0
  C  C63  1  0.29552900  0.73546776  0.33156842  1.0
  C  C64  1  0.36334883  0.71078344  0.29936406  1.0
  C  C65  1  0.40328946  0.65422047  0.33214695  1.0
  C  C66  1  0.37581297  0.62235063  0.39674465  1.0
  C  C67  1  0.30722150  0.64638764  0.42771266  1.0
  C  C68  1  0.26703548  0.70280894  0.39526244  1.0
  C  C69  1  0.41948048  0.56643443  0.43398275  1.0
  C  C70  1  0.90341569  0.05594672  0.14029918  1.0
  C  C71  1  0.84401753  0.09299693  0.18329289  1.0
  C  C72  1  0.81436850  0.05856664  0.24595421  1.0
  C  C73  1  0.75580900  0.09136549  0.28535990  1.0
  C  C74  1  0.72691984  0.15907269  0.26243076  1.0
  C  C75  1  0.75684847  0.19440342  0.20067232  1.0
  C  C76  1  0.81514697  0.16104334  0.16121406  1.0
  C  C77  1  0.65879384  0.22776507  0.33135066  1.0
  C  C78  1  0.65558301  0.29287078  0.29880366  1.0
  C  C79  1  0.64172299  0.33220715  0.33273469  1.0
  C  C80  1  0.63126835  0.30692091  0.39867916  1.0
  C  C81  1  0.63628761  0.24110291  0.43029996  1.0
  C  C82  1  0.64985091  0.20156576  0.39682674  1.0
  C  C83  1  0.61048474  0.35046255  0.43598911  1.0
  C  C84  1  0.93196681  0.84038931  0.13038117  1.0
  C  C85  1  0.91080942  0.78218702  0.17359745  1.0
  C  C86  1  0.90376402  0.76115112  0.23854941  1.0
  C  C87  1  0.88983355  0.70396668  0.27938124  1.0
  C  C88  1  0.88262246  0.66746597  0.25536665  1.0
  C  C89  1  0.88740736  0.68879033  0.19123805  1.0
  C  C90  1  0.90171828  0.74607673  0.15044098  1.0
  C  C91  1  0.81563412  0.59790640  0.32671725  1.0
  C  C92  1  0.78436731  0.59473480  0.29422683  1.0
  C  C93  1  0.72727754  0.57757765  0.32886343  1.0
  C  C94  1  0.70085715  0.56441805  0.39549117  1.0
  C  C95  1  0.73153641  0.56998212  0.42708805  1.0
  C  C96  1  0.78891787  0.58641798  0.39292439  1.0
  C  C97  1  0.64276488  0.54133189  0.43355660  1.0
  C  C98  1  0.12118451  0.05867585  0.94928190  1.0
  C  C99  1  0.16190729  0.10129714  0.92039294  1.0
  C  C100  1  0.23071392  0.07368631  0.90854570  1.0
  C  C101  1  0.26754153  0.11282170  0.88829077  1.0
  C  C102  1  0.23525209  0.17985640  0.87988170  1.0
  C  C103  1  0.16724966  0.20845378  0.88861420  1.0
  C  C104  1  0.13070634  0.16906134  0.90904129  1.0
  C  C105  1  0.30270546  0.24937831  0.80839677  1.0
  C  C106  1  0.27122006  0.31535333  0.78059505  1.0
  C  C107  1  0.30782500  0.35063377  0.72447515  1.0
  C  C108  1  0.37565533  0.32015383  0.69591747  1.0
  C  C109  1  0.40567275  0.25309267  0.72246436  1.0
  C  C110  1  0.36935621  0.21752250  0.77861568  1.0
  C  C111  1  0.41685608  0.35982852  0.64138117  1.0
  C  C112  1  0.12378898  0.86915235  0.91916610  1.0
  C  C113  1  0.16700222  0.84803219  0.86052051  1.0
  C  C114  1  0.23424791  0.84214652  0.83481749  1.0
  C  C115  1  0.27390127  0.82755601  0.77742327  1.0
  C  C116  1  0.24641166  0.81840648  0.74564825  1.0
  C  C117  1  0.17992754  0.82234583  0.77153792  1.0
  C  C118  1  0.14039319  0.83737660  0.82883969  1.0
  C  C119  1  0.31607082  0.74995089  0.67634180  1.0
  C  C120  1  0.28138415  0.72159997  0.67169582  1.0
  C  C121  1  0.31589506  0.66399985  0.65501629  1.0
  C  C122  1  0.38470756  0.63459489  0.64310333  1.0
  C  C123  1  0.41840583  0.66258573  0.64989702  1.0
  C  C124  1  0.38429412  0.72010013  0.66644629  1.0
  C  C125  1  0.42312056  0.57640988  0.61946093  1.0
  C  C126  1  0.90681519  0.05548429  0.94669520  1.0
  C  C127  1  0.85093248  0.10170605  0.92071750  1.0
  C  C128  1  0.82967225  0.16836512  0.91316746  1.0
  C  C129  1  0.77437302  0.21204807  0.89411766  1.0
  C  C130  1  0.74010795  0.18932117  0.88205005  1.0
  C  C131  1  0.76191522  0.12339554  0.88725725  1.0
  C  C132  1  0.81713004  0.07974782  0.90696059  1.0
  C  C133  1  0.67406371  0.25941854  0.81096108  1.0
  C  C134  1  0.66543341  0.22420216  0.78656431  1.0
  C  C135  1  0.64915683  0.25584274  0.73052481  1.0
  C  C136  1  0.64146583  0.32222612  0.69895453  1.0
  C  C137  1  0.65292543  0.35612546  0.72267344  1.0
  C  C138  1  0.66934781  0.32487995  0.77839362  1.0
  C  C139  1  0.61610916  0.35866813  0.64368490  1.0
  O  O140  1  0.02073965  0.95439221  0.03469642  1.0
  O  O141  1  0.15550197  0.87342949  0.07700570  1.0
  O  O142  1  0.06125712  0.87196620  0.16320369  1.0
  O  O143  1  0.25583062  0.79638691  0.30364282  1.0
  O  O144  1  0.39079038  0.54033848  0.49274935  1.0
  O  O145  1  0.48213222  0.55005280  0.40465085  1.0
  O  O146  1  0.92246940  0.08678924  0.08074857  1.0
  O  O147  1  0.93016449  0.99526595  0.16657524  1.0
  O  O148  1  0.66511302  0.18841931  0.30147507  1.0
  O  O149  1  0.60515099  0.32326472  0.49525155  1.0
  O  O150  1  0.59852205  0.41148545  0.40612440  1.0
  O  O151  1  0.94746610  0.85400706  0.07003941  1.0
  O  O152  1  0.93403387  0.87170805  0.15791180  1.0
  O  O153  1  0.87694428  0.60671691  0.29589576  1.0
  O  O154  1  0.61962283  0.53449774  0.49338530  1.0
  O  O155  1  0.62129818  0.52927696  0.40395614  1.0
  O  O156  1  0.05820519  0.08733018  0.96392292  1.0
  O  O157  1  0.15185106  0.99736058  0.95844771  1.0
  O  O158  1  0.26914238  0.21760977  0.86962289  1.0
  O  O159  1  0.47868838  0.32954267  0.61876494  1.0
  O  O160  1  0.38711866  0.42150678  0.62284591  1.0
  O  O161  1  0.06144697  0.88179304  0.93610900  1.0
  O  O162  1  0.15295538  0.87383900  0.94712180  1.0
  O  O163  1  0.28538829  0.81130306  0.68503728  1.0
  O  O164  1  0.48570696  0.55345288  0.60926190  1.0
  O  O165  1  0.39119893  0.55477847  0.61015173  1.0
  O  O166  1  0.91881597  0.99415528  0.96278155  1.0
  O  O167  1  0.93780397  0.08150249  0.95170932  1.0
  O  O168  1  0.68073672  0.23362342  0.87097739  1.0
  O  O169  1  0.60616400  0.41995639  0.62113604  1.0
  O  O170  1  0.60477882  0.32656011  0.62415263  1.0
  O  O171  1  0.52279687  0.45713892  0.53299904  1.0
