# generated using pymatgen
data_Al2H7C16ClO10
_symmetry_space_group_name_H-M   'P 1'
_cell_length_a   6.65930863
_cell_length_b   14.35422720
_cell_length_c   16.91020846
_cell_angle_alpha   94.38876713
_cell_angle_beta   90.62892246
_cell_angle_gamma   90.30142227
_symmetry_Int_Tables_number   1
_chemical_formula_structural   Al2H7C16ClO10
_chemical_formula_sum   'Al4 H14 C32 Cl2 O20'
_cell_volume   1611.56677392
_cell_formula_units_Z   2
loop_
 _symmetry_equiv_pos_site_id
 _symmetry_equiv_pos_as_xyz
  1  'x, y, z'
loop_
 _atom_site_type_symbol
 _atom_site_label
 _atom_site_symmetry_multiplicity
 _atom_site_fract_x
 _atom_site_fract_y
 _atom_site_fract_z
 _atom_site_occupancy
  Al  Al0  1  0.89005116  0.49788104  0.50195068  1.0
  Al  Al1  1  0.39031712  0.49780080  0.50162476  1.0
  Al  Al2  1  0.38637088  0.99832020  0.00255637  1.0
  Al  Al3  1  0.88567881  0.99586526  0.00074386  1.0
  H  H4  1  0.41413285  0.62124796  0.74046093  1.0
  H  H5  1  0.90115295  0.24815280  0.35748134  1.0
  H  H6  1  0.82750896  0.92346403  0.72829171  1.0
  H  H7  1  0.17688094  0.23215009  0.15290224  1.0
  H  H8  1  0.67345545  0.84741413  0.78076513  1.0
  H  H9  1  0.32710050  0.30911712  0.09905544  1.0
  H  H10  1  0.82023725  0.80744566  0.60916853  1.0
  H  H11  1  0.16413314  0.35402056  0.26751303  1.0
  H  H12  1  0.67137584  0.72968053  0.66189001  1.0
  H  H13  1  0.31826295  0.42963110  0.21476861  1.0
  H  H14  1  0.63985465  0.61790167  0.48547705  1.0
  H  H15  1  0.14050317  0.37556391  0.51150318  1.0
  H  H16  1  0.62891465  0.87829244  0.97051600  1.0
  H  H17  1  0.13354710  0.11927041  0.02175873  1.0
  C  C18  1  0.64964495  0.39024681  0.60393679  1.0
  C  C19  1  0.13026741  0.60589965  0.39995629  1.0
  C  C20  1  0.62777783  0.38397260  0.39034216  1.0
  C  C21  1  0.15224865  0.60860585  0.61502125  1.0
  C  C22  1  0.98991957  0.73757785  0.70123378  1.0
  C  C23  1  0.48444368  0.31143729  0.26038418  1.0
  C  C24  1  0.14343078  0.67299444  0.68795752  1.0
  C  C25  1  0.63103586  0.31529821  0.31999415  1.0
  C  C26  1  0.29387791  0.67231744  0.74713415  1.0
  C  C27  1  0.78498716  0.24852390  0.31162617  1.0
  C  C28  1  0.29094769  0.73480356  0.81460948  1.0
  C  C29  1  0.79045076  0.18153009  0.24712600  1.0
  C  C30  1  0.13984523  0.80366181  0.82662920  1.0
  C  C31  1  0.64258002  0.17789348  0.18593748  1.0
  C  C32  1  0.99034798  0.80099050  0.76807318  1.0
  C  C33  1  0.49172682  0.24478912  0.19598450  1.0
  C  C34  1  0.80300830  0.85051183  0.74148123  1.0
  C  C35  1  0.30416213  0.28126886  0.15709693  1.0
  C  C36  1  0.80103546  0.77746768  0.66651281  1.0
  C  C37  1  0.29701851  0.35717355  0.22994437  1.0
  C  C38  1  0.13621248  0.83190115  0.17131822  1.0
  C  C39  1  0.63497268  0.16463094  0.83289921  1.0
  C  C40  1  0.13642128  0.77987701  0.22528539  1.0
  C  C41  1  0.63644692  0.21689962  0.77908076  1.0
  C  C42  1  0.13577617  0.72180878  0.28437688  1.0
  C  C43  1  0.63970147  0.27491124  0.71996361  1.0
  C  C44  1  0.13438574  0.66865187  0.33754875  1.0
  C  C45  1  0.64424127  0.32781038  0.66666667  1.0
  C  C46  1  0.63935712  0.11073365  0.11432252  1.0
  C  C47  1  0.13914469  0.87772511  0.89318689  1.0
  C  C48  1  0.63829418  0.10437477  0.89752738  1.0
  C  C49  1  0.13330700  0.89123431  0.10608466  1.0
  Cl  Cl50  1  0.47691958  0.72080763  0.88584783  1.0
  Cl  Cl51  1  0.98121126  0.09974040  0.24748405  1.0
  O  O52  1  0.45943979  0.42179668  0.40728127  1.0
  O  O53  1  0.98859778  0.59622945  0.57554928  1.0
  O  O54  1  0.81929672  0.42630532  0.58990150  1.0
  O  O55  1  0.29617444  0.59271177  0.43556106  1.0
  O  O56  1  0.79219635  0.39845024  0.42894064  1.0
  O  O57  1  0.32144345  0.57270899  0.59657698  1.0
  O  O58  1  0.96059727  0.56992595  0.41427171  1.0
  O  O59  1  0.48431940  0.40300279  0.56784767  1.0
  O  O60  1  0.64084260  0.55589284  0.50446884  1.0
  O  O61  1  0.13946458  0.44020135  0.49877169  1.0
  O  O62  1  0.81001507  0.07419211  0.91655719  1.0
  O  O63  1  0.30261237  0.90959012  0.07674228  1.0
  O  O64  1  0.46620877  0.08175021  0.09060565  1.0
  O  O65  1  0.96879867  0.90077971  0.92189957  1.0
  O  O66  1  0.47018367  0.08869646  0.92908207  1.0
  O  O67  1  0.96114600  0.91775016  0.08414633  1.0
  O  O68  1  0.30730865  0.91373684  0.91489866  1.0
  O  O69  1  0.80440731  0.09012917  0.08043584  1.0
  O  O70  1  0.63434446  0.94048580  0.99752318  1.0
  O  O71  1  0.13571879  0.05348934  0.00412337  1.0
