# generated using pymatgen
data_Zn4H29C43NO13
_symmetry_space_group_name_H-M   'P 1'
_cell_length_a   15.06384764
_cell_length_b   15.24607529
_cell_length_c   19.51480708
_cell_angle_alpha   91.19699307
_cell_angle_beta   91.08410011
_cell_angle_gamma   90.98113307
_symmetry_Int_Tables_number   1
_chemical_formula_structural   Zn4H29C43NO13
_chemical_formula_sum   'Zn4 H29 C43 N1 O13'
_cell_volume   4479.39133500
_cell_formula_units_Z   1
loop_
 _symmetry_equiv_pos_site_id
 _symmetry_equiv_pos_as_xyz
  1  'x, y, z'
loop_
 _atom_site_type_symbol
 _atom_site_label
 _atom_site_symmetry_multiplicity
 _atom_site_fract_x
 _atom_site_fract_y
 _atom_site_fract_z
 _atom_site_occupancy
  Zn  Zn0  1  0.56784389  0.57257451  0.56316182  1.0
  Zn  Zn1  1  0.57786623  0.42805585  0.44017308  1.0
  Zn  Zn2  1  0.42612874  0.57770179  0.44269915  1.0
  Zn  Zn3  1  0.42647529  0.41701054  0.54936678  1.0
  H  H4  1  0.59289200  0.58055079  0.77233919  1.0
  H  H5  1  0.00015026  0.32741298  0.45863055  1.0
  H  H6  1  0.43978518  0.63669379  0.23623268  1.0
  H  H7  1  0.99868889  0.68185054  0.53556675  1.0
  H  H8  1  0.16517188  0.34191808  0.46344736  1.0
  H  H9  1  0.14717368  0.61781580  0.51102327  1.0
  H  H10  1  0.58261794  0.39531255  0.22716772  1.0
  H  H11  1  0.52310157  0.59177641  0.99751984  1.0
  H  H12  1  0.41949234  0.34720469  0.88670950  1.0
  H  H13  1  0.41432782  0.35804296  0.75934275  1.0
  H  H14  1  0.48619824  0.39327177  0.99847021  1.0
  H  H15  1  0.58363795  0.40286503  0.09940445  1.0
  H  H16  1  0.59677565  0.57234056  0.89947012  1.0
  H  H17  1  0.65361932  0.25036922  0.71002220  1.0
  H  H18  1  0.63169321  0.14595532  0.74501792  1.0
  H  H19  1  0.74039567  0.17359039  0.71814347  1.0
  H  H20  1  0.66502449  0.07381647  0.63020094  1.0
  H  H21  1  0.68532665  0.17754665  0.59535952  1.0
  H  H22  1  0.52964006  0.22146519  0.61763798  1.0
  H  H23  1  0.50731763  0.12087554  0.65610099  1.0
  H  H24  1  0.44143183  0.67087243  0.05197335  1.0
  H  H25  1  0.42156314  0.71614313  0.13077080  1.0
  H  H26  1  0.49635187  0.16273754  0.37777649  1.0
  H  H27  1  0.53432817  0.99046538  0.64793732  1.0
  H  H28  1  0.47708353  0.00057909  0.36499299  1.0
  H  H29  1  0.51952194  0.82987871  0.63369064  1.0
  H  H30  1  0.46908467  0.85483629  0.41782137  1.0
  H  H31  1  0.85195146  0.39512900  0.47133210  1.0
  H  H32  1  0.83415155  0.66401208  0.53930176  1.0
  C  C33  1  0.51339409  0.25951857  0.49033104  1.0
  C  C34  1  0.50315418  0.45702852  0.97700724  1.0
  C  C35  1  0.51421163  0.52710242  0.02026870  1.0
  C  C36  1  0.48839752  0.73576655  0.51666631  1.0
  C  C37  1  0.51053121  0.51581461  0.23870848  1.0
  C  C38  1  0.51360970  0.16116719  0.48800762  1.0
  C  C39  1  0.49341929  0.83310619  0.52439359  1.0
  C  C40  1  0.52104117  0.96187455  0.59709601  1.0
  C  C41  1  0.51233585  0.87222587  0.58973045  1.0
  C  C42  1  0.48381891  0.88553086  0.46782108  1.0
  C  C43  1  0.49490555  0.97778347  0.47369837  1.0
  C  C44  1  0.50596347  0.46082610  0.90248939  1.0
  C  C45  1  0.51337924  0.01790740  0.53986830  1.0
  C  C46  1  0.52233397  0.11140600  0.54690743  1.0
  C  C47  1  0.49980835  0.12084046  0.42229657  1.0
  C  C48  1  0.73541300  0.51888049  0.50432341  1.0
  C  C49  1  0.48946448  0.03143445  0.41529430  1.0
  C  C50  1  0.83410904  0.52833437  0.50427722  1.0
  C  C51  1  0.16488852  0.48152052  0.48665554  1.0
  C  C52  1  0.03245787  0.39052150  0.47105546  1.0
  C  C53  1  0.12351645  0.39840916  0.47300831  1.0
  C  C54  1  0.11435635  0.55448384  0.50051388  1.0
  C  C55  1  0.45703487  0.39894405  0.86168797  1.0
  C  C56  1  0.02062770  0.54709330  0.50301353  1.0
  C  C57  1  0.97865908  0.46385323  0.48623022  1.0
  C  C58  1  0.88495075  0.45717607  0.48574452  1.0
  C  C59  1  0.87571931  0.60963334  0.52373882  1.0
  C  C60  1  0.26383426  0.48842720  0.48874093  1.0
  C  C61  1  0.96665758  0.61896633  0.52192745  1.0
  C  C62  1  0.50693727  0.51086174  0.31489051  1.0
  C  C63  1  0.49956342  0.47830022  0.68239090  1.0
  C  C64  1  0.50220459  0.47083079  0.75828751  1.0
  C  C65  1  0.55395435  0.53078101  0.79821015  1.0
  C  C66  1  0.45392631  0.40457879  0.79068578  1.0
  C  C67  1  0.55538616  0.52614971  0.86911236  1.0
  C  C68  1  0.54685662  0.15194314  0.61604964  1.0
  C  C69  1  0.64631203  0.14322472  0.63408387  1.0
  C  C70  1  0.66944844  0.18031703  0.70564257  1.0
  C  C71  1  0.47349632  0.59239420  0.13385867  1.0
  C  C72  1  0.47220269  0.58640751  0.20552173  1.0
  C  C73  1  0.55131279  0.44902260  0.20057840  1.0
  C  C74  1  0.55110073  0.45349439  0.12968105  1.0
  C  C75  1  0.51293506  0.52391855  0.09475993  1.0
  N  N76  1  0.43117046  0.66099003  0.10231757  1.0
  O  O77  1  0.49919786  0.49860538  0.49736589  1.0
  O  O78  1  0.55928533  0.45699214  0.34361345  1.0
  O  O79  1  0.43933849  0.43399486  0.64911440  1.0
  O  O80  1  0.45144079  0.56032736  0.34509417  1.0
  O  O81  1  0.55785977  0.52897119  0.65643395  1.0
  O  O82  1  0.69312422  0.57773986  0.53735444  1.0
  O  O83  1  0.30382717  0.42310029  0.51431805  1.0
  O  O84  1  0.56032892  0.29958438  0.44661674  1.0
  O  O85  1  0.45320694  0.70307683  0.46156085  1.0
  O  O86  1  0.46307245  0.29516015  0.53430405  1.0
  O  O87  1  0.52119958  0.69213133  0.56610602  1.0
  O  O88  1  0.70110273  0.45278472  0.47164887  1.0
  O  O89  1  0.29993916  0.55782072  0.46552279  1.0
