# generated using pymatgen
data_ZnH10C21Br2NO4
_symmetry_space_group_name_H-M   'P 1'
_cell_length_a   14.01226949
_cell_length_b   21.40839561
_cell_length_c   28.51803399
_cell_angle_alpha   89.99996423
_cell_angle_beta   89.99970455
_cell_angle_gamma   86.41710339
_symmetry_Int_Tables_number   1
_chemical_formula_structural   ZnH10C21Br2NO4
_chemical_formula_sum   'Zn12 H120 C252 Br24 N12 O48'
_cell_volume   8538.12472054
_cell_formula_units_Z   12
loop_
 _symmetry_equiv_pos_site_id
 _symmetry_equiv_pos_as_xyz
  1  'x, y, z'
loop_
 _atom_site_type_symbol
 _atom_site_label
 _atom_site_symmetry_multiplicity
 _atom_site_fract_x
 _atom_site_fract_y
 _atom_site_fract_z
 _atom_site_occupancy
  Zn  Zn0  1  0.10561192  0.74593475  0.69197341  1.0
  Zn  Zn1  1  0.89929836  0.75417458  0.69104913  1.0
  Zn  Zn2  1  0.89438794  0.25406523  0.19197383  1.0
  Zn  Zn3  1  0.10070351  0.24582681  0.19104735  1.0
  Zn  Zn4  1  0.79268259  0.11447326  0.51507095  1.0
  Zn  Zn5  1  0.58597360  0.12190947  0.51354235  1.0
  Zn  Zn6  1  0.79766428  0.61025321  0.01282091  1.0
  Zn  Zn7  1  0.59185809  0.62345657  0.01481254  1.0
  Zn  Zn8  1  0.20731795  0.88552398  0.01507105  1.0
  Zn  Zn9  1  0.41402607  0.87808965  0.01354088  1.0
  Zn  Zn10  1  0.20233405  0.38974497  0.51282182  1.0
  Zn  Zn11  1  0.40813978  0.37654630  0.51481154  1.0
  H  H12  1  0.85425139  0.64773050  0.57539468  1.0
  H  H13  1  0.15927254  0.61237517  0.57232803  1.0
  H  H14  1  0.14554627  0.54942216  0.49888296  1.0
  H  H15  1  0.13868546  0.43207026  0.38628126  1.0
  H  H16  1  0.14833508  0.36234389  0.31571013  1.0
  H  H17  1  0.84706765  0.39972220  0.29207332  1.0
  H  H18  1  0.84829429  0.89016970  0.57283099  1.0
  H  H19  1  0.15309920  0.85348478  0.57651130  1.0
  H  H20  1  0.86352982  0.95498701  0.50064154  1.0
  H  H21  1  0.86916267  0.07717950  0.39286888  1.0
  H  H22  1  0.14924350  0.09491660  0.28745334  1.0
  H  H23  1  0.85519301  0.14452080  0.32110026  1.0
  H  H24  1  0.25144813  0.79657235  0.75456238  1.0
  H  H25  1  0.26080981  0.70691432  0.62613348  1.0
  H  H26  1  0.42994261  0.80215746  0.75666118  1.0
  H  H27  1  0.43954630  0.71050894  0.62140046  1.0
  H  H28  1  0.57057224  0.71300912  0.75772035  1.0
  H  H29  1  0.56699075  0.79993804  0.62071229  1.0
  H  H30  1  0.74641465  0.79736505  0.62502162  1.0
  H  H31  1  0.74960239  0.71154586  0.75489454  1.0
  H  H32  1  0.14574830  0.35226906  0.07539378  1.0
  H  H33  1  0.84072633  0.38762580  0.07232922  1.0
  H  H34  1  0.85445314  0.45057863  0.99888394  1.0
  H  H35  1  0.86131464  0.56792824  0.88628147  1.0
  H  H36  1  0.85166906  0.63765745  0.81571174  1.0
  H  H37  1  0.15293807  0.60028009  0.79207566  1.0
  H  H38  1  0.15170588  0.10983267  0.07283089  1.0
  H  H39  1  0.84690097  0.14651712  0.07651153  1.0
  H  H40  1  0.13647056  0.04501352  0.00064117  1.0
  H  H41  1  0.13083593  0.92281899  0.89287148  1.0
  H  H42  1  0.85076040  0.90508288  0.78745412  1.0
  H  H43  1  0.14480991  0.85547772  0.82110286  1.0
  H  H44  1  0.74854911  0.20342574  0.25456109  1.0
  H  H45  1  0.73919346  0.29308709  0.12613287  1.0
  H  H46  1  0.57005380  0.19784156  0.25665858  1.0
  H  H47  1  0.56045693  0.28949342  0.12139925  1.0
  H  H48  1  0.42942880  0.28699365  0.25771877  1.0
  H  H49  1  0.43301056  0.20006197  0.12071110  1.0
  H  H50  1  0.25358653  0.20263590  0.12502088  1.0
  H  H51  1  0.25039783  0.28845831  0.25489237  1.0
  H  H52  1  0.44593574  0.04315583  0.46840093  1.0
  H  H53  1  0.26663211  0.03906383  0.46403445  1.0
  H  H54  1  0.13626607  0.05475653  0.56587052  1.0
  H  H55  1  0.10953008  0.18583192  0.45072865  1.0
  H  H56  1  0.93080298  0.17999143  0.45704712  1.0
  H  H57  1  0.95683339  0.05556757  0.56774724  1.0
  H  H58  1  0.54153510  0.99184783  0.39944457  1.0
  H  H59  1  0.84743011  0.96929306  0.41295143  1.0
  H  H60  1  0.54975535  0.92527474  0.32729094  1.0
  H  H61  1  0.85185528  0.78076692  0.21214485  1.0
  H  H62  1  0.84935097  0.71545952  0.13919314  1.0
  H  H63  1  0.54742991  0.76128405  0.12547517  1.0
  H  H64  1  0.53923460  0.27406940  0.41469615  1.0
  H  H65  1  0.83484950  0.22229484  0.38493532  1.0
  H  H66  1  0.82594265  0.29001051  0.31346089  1.0
  H  H67  1  0.83272371  0.41798402  0.20558490  1.0
  H  H68  1  0.84566548  0.48159289  0.13236734  1.0
  H  H69  1  0.54010077  0.49121735  0.11759672  1.0
  H  H70  1  0.55362138  0.79471331  0.92782500  1.0
  H  H71  1  0.83165441  0.71764043  0.88567169  1.0
  H  H72  1  0.82410799  0.78530904  0.81415834  1.0
  H  H73  1  0.83175131  0.90885780  0.70168350  1.0
  H  H74  1  0.84269329  0.97477342  0.62967535  1.0
  H  H75  1  0.54065123  0.02261570  0.63642362  1.0
  H  H76  1  0.53079703  0.51495517  0.89581868  1.0
  H  H77  1  0.82826033  0.45569064  0.91005457  1.0
  H  H78  1  0.81464848  0.38339280  0.84207341  1.0
  H  H79  1  0.78855808  0.24776215  0.73014360  1.0
  H  H80  1  0.79883169  0.18955345  0.65403246  1.0
  H  H81  1  0.55472517  0.30171142  0.60298961  1.0
  H  H82  1  0.45581723  0.52730143  0.03580086  1.0
  H  H83  1  0.42544866  0.71530422  0.00118556  1.0
  H  H84  1  0.24760008  0.71507305  0.00164550  1.0
  H  H85  1  0.27837070  0.51804081  0.03620925  1.0
  H  H86  1  0.12379122  0.67673038  0.95732585  1.0
  H  H87  1  0.13205119  0.54929286  0.07520861  1.0
  H  H88  1  0.95364588  0.54928890  0.06948978  1.0
  H  H89  1  0.94530119  0.67141449  0.95714633  1.0
  H  H90  1  0.42452696  0.20470527  0.54818588  1.0
  H  H91  1  0.24484501  0.20759796  0.54742553  1.0
  H  H92  1  0.55406457  0.95683890  0.96839788  1.0
  H  H93  1  0.73336776  0.96093605  0.96403445  1.0
  H  H94  1  0.86373363  0.94524397  0.06586929  1.0
  H  H95  1  0.89046921  0.81416796  0.95072797  1.0
  H  H96  1  0.06919691  0.82000891  0.95704571  1.0
  H  H97  1  0.04316629  0.94443293  0.06774528  1.0
  H  H98  1  0.45846552  0.00815113  0.89944396  1.0
  H  H99  1  0.15257154  0.03070870  0.91295299  1.0
  H  H100  1  0.45024688  0.07472285  0.82728962  1.0
  H  H101  1  0.14814508  0.21923306  0.71214458  1.0
  H  H102  1  0.15064654  0.28454095  0.63919353  1.0
  H  H103  1  0.45256734  0.23872064  0.62547447  1.0
  H  H104  1  0.46076439  0.72593003  0.91469554  1.0
  H  H105  1  0.16514852  0.77770320  0.88493544  1.0
  H  H106  1  0.17405683  0.70998755  0.81346102  1.0
  H  H107  1  0.16727257  0.58201456  0.70558616  1.0
  H  H108  1  0.15433147  0.51840665  0.63236796  1.0
  H  H109  1  0.45989544  0.50878407  0.61759587  1.0
  H  H110  1  0.44637865  0.20528891  0.42782271  1.0
  H  H111  1  0.16834463  0.28236181  0.38567042  1.0
  H  H112  1  0.17589255  0.21469276  0.31415743  1.0
  H  H113  1  0.16824786  0.09114078  0.20168303  1.0
  H  H114  1  0.15730530  0.02522425  0.12967564  1.0
  H  H115  1  0.45934840  0.97738524  0.13642199  1.0
  H  H116  1  0.46919494  0.48503771  0.39581655  1.0
  H  H117  1  0.17173764  0.54431253  0.41005703  1.0
  H  H118  1  0.18535101  0.61660946  0.34207580  1.0
  H  H119  1  0.21143923  0.75223782  0.23014305  1.0
  H  H120  1  0.20117066  0.81044701  0.15403192  1.0
  H  H121  1  0.44527793  0.69828672  0.10299025  1.0
  H  H122  1  0.54418060  0.47269955  0.53580052  1.0
  H  H123  1  0.57454877  0.28469724  0.50118453  1.0
  H  H124  1  0.75239797  0.28492935  0.50164366  1.0
  H  H125  1  0.72162637  0.48196064  0.53620985  1.0
  H  H126  1  0.87620925  0.32327137  0.45732382  1.0
  H  H127  1  0.86794703  0.45070717  0.57520816  1.0
  H  H128  1  0.04635168  0.45071113  0.56949001  1.0
  H  H129  1  0.05469932  0.32858679  0.45714603  1.0
  H  H130  1  0.57547577  0.79528776  0.04818123  1.0
  H  H131  1  0.75515725  0.79240021  0.04742324  1.0
  C  C132  1  0.99631445  0.16707483  0.25862172  1.0
  C  C133  1  0.01350929  0.66988496  0.62297265  1.0
  C  C134  1  0.00740929  0.63310082  0.57841489  1.0
  C  C135  1  0.91749711  0.62660209  0.55805960  1.0
  C  C136  1  0.08977725  0.60662870  0.55635542  1.0
  C  C137  1  0.91066138  0.59420289  0.51618927  1.0
  C  C138  1  0.08250023  0.57255738  0.51524251  1.0
  C  C139  1  0.99247981  0.56545540  0.49403337  1.0
  C  C140  1  0.98658350  0.52916356  0.45299550  1.0
  C  C141  1  0.98489974  0.49559194  0.41844789  1.0
  C  C142  1  0.98773245  0.45606071  0.37886733  1.0
  C  C143  1  0.90547071  0.44573907  0.35181333  1.0
  C  C144  1  0.07551626  0.42494007  0.36509651  1.0
  C  C145  1  0.08063168  0.38614037  0.32607839  1.0
  C  C146  1  0.91081364  0.40718878  0.31261848  1.0
  C  C147  1  0.99831365  0.37690746  0.29952842  1.0
  C  C148  1  0.00153040  0.33314660  0.25837257  1.0
  C  C149  1  0.99296074  0.83092611  0.62320526  1.0
  C  C150  1  0.99999899  0.86875376  0.57922535  1.0
  C  C151  1  0.91811819  0.89615480  0.55731615  1.0
  C  C152  1  0.09021292  0.87531610  0.55929420  1.0
  C  C153  1  0.09785586  0.90856787  0.51785549  1.0
  C  C154  1  0.92630229  0.93127431  0.51680352  1.0
  C  C155  1  0.01663410  0.93823350  0.49587231  1.0
  C  C156  1  0.02255178  0.97479305  0.45502095  1.0
  C  C157  1  0.02200207  0.00795479  0.42020461  1.0
  C  C158  1  0.01640750  0.04638627  0.38008473  1.0
  C  C159  1  0.92964859  0.08083429  0.36915364  1.0
  C  C160  1  0.09493298  0.05199014  0.34954781  1.0
  C  C161  1  0.08787960  0.09017478  0.31024566  1.0
  C  C162  1  0.92219820  0.11840545  0.32951451  1.0
  C  C163  1  0.00140644  0.12379285  0.30000733  1.0
  C  C164  1  0.29672546  0.77782349  0.72618450  1.0
  C  C165  1  0.30181050  0.72826092  0.65368722  1.0
  C  C166  1  0.39541389  0.78070807  0.72698632  1.0
  C  C167  1  0.40050403  0.73064894  0.65139661  1.0
  C  C168  1  0.44911210  0.75647342  0.68897803  1.0
  C  C169  1  0.55431895  0.75655850  0.68911535  1.0
  C  C170  1  0.60653747  0.73225485  0.72757587  1.0
  C  C171  1  0.60464266  0.77969861  0.65107900  1.0
  C  C172  1  0.70379518  0.77843557  0.65302151  1.0
  C  C173  1  0.70559813  0.73120009  0.72635827  1.0
  C  C174  1  0.00368970  0.83292512  0.75862328  1.0
  C  C175  1  0.98648843  0.33011505  0.12297244  1.0
  C  C176  1  0.99258970  0.36689828  0.07841430  1.0
  C  C177  1  0.08250201  0.37339795  0.05805851  1.0
  C  C178  1  0.91022117  0.39337134  0.05635573  1.0
  C  C179  1  0.08933599  0.40579763  0.01618815  1.0
  C  C180  1  0.91749795  0.42744221  0.01524278  1.0
  C  C181  1  0.00751626  0.43454353  0.99403265  1.0
  C  C182  1  0.01341460  0.47083351  0.95299509  1.0
  C  C183  1  0.01509860  0.50440655  0.91844677  1.0
  C  C184  1  0.01226843  0.54393779  0.87886795  1.0
  C  C185  1  0.09453184  0.55425991  0.85181479  1.0
  C  C186  1  0.92448540  0.57505938  0.86509620  1.0
  C  C187  1  0.91937030  0.61386003  0.82607913  1.0
  C  C188  1  0.08918915  0.59281209  0.81262029  1.0
  C  C189  1  0.00168865  0.62309248  0.79952938  1.0
  C  C190  1  0.99847371  0.66685382  0.75837344  1.0
  C  C191  1  0.00703836  0.16907437  0.12320515  1.0
  C  C192  1  0.00000060  0.13124732  0.07922577  1.0
  C  C193  1  0.08188079  0.10384664  0.05731659  1.0
  C  C194  1  0.90978671  0.12468581  0.05929393  1.0
  C  C195  1  0.90214398  0.09143639  0.01785456  1.0
  C  C196  1  0.07369783  0.06872715  0.01680330  1.0
  C  C197  1  0.98336727  0.06176964  0.99587104  1.0
  C  C198  1  0.97744934  0.02520963  0.95502006  1.0
  C  C199  1  0.97799893  0.99204557  0.92020608  1.0
  C  C200  1  0.98359404  0.95361270  0.88008760  1.0
  C  C201  1  0.07035311  0.91916421  0.86915674  1.0
  C  C202  1  0.90507031  0.94800884  0.84955019  1.0
  C  C203  1  0.91212482  0.90982421  0.81024769  1.0
  C  C204  1  0.07780463  0.88159307  0.82951761  1.0
  C  C205  1  0.99859808  0.87620616  0.80000880  1.0
  C  C206  1  0.70327341  0.22217555  0.22618261  1.0
  C  C207  1  0.69819042  0.27173955  0.15368637  1.0
  C  C208  1  0.60458421  0.21929143  0.22698433  1.0
  C  C209  1  0.59949830  0.26935200  0.15139496  1.0
  C  C210  1  0.55088770  0.24352750  0.18897616  1.0
  C  C211  1  0.44568218  0.24344336  0.18911375  1.0
  C  C212  1  0.39346245  0.26774793  0.22757439  1.0
  C  C213  1  0.39535887  0.22030326  0.15107789  1.0
  C  C214  1  0.29620562  0.22156630  0.15302064  1.0
  C  C215  1  0.29440319  0.26880315  0.22635669  1.0
  C  C216  1  0.39784387  0.07804231  0.48553997  1.0
  C  C217  1  0.29908823  0.07612793  0.48336568  1.0
  C  C218  1  0.24230101  0.12239254  0.50668852  1.0
  C  C219  1  0.13679748  0.12068304  0.50810390  1.0
  C  C220  1  0.09332976  0.08356909  0.54131558  1.0
  C  C221  1  0.07837825  0.15653329  0.47721755  1.0
  C  C222  1  0.97985081  0.15367501  0.48045786  1.0
  C  C223  1  0.99420571  0.08369966  0.54262344  1.0
  C  C224  1  0.69103222  0.02989625  0.45071708  1.0
  C  C225  1  0.69398181  0.98506276  0.41032872  1.0
  C  C226  1  0.60985812  0.97165446  0.38666135  1.0
  C  C227  1  0.78239614  0.95918854  0.39431805  1.0
  C  C228  1  0.78671090  0.92180754  0.35452148  1.0
  C  C229  1  0.61437833  0.93476250  0.34664668  1.0
  C  C230  1  0.70311143  0.90927386  0.32925442  1.0
  C  C231  1  0.70576597  0.87354012  0.28777751  1.0
  C  C232  1  0.70344664  0.84369026  0.25140510  1.0
  C  C233  1  0.70137968  0.80821109  0.20988962  1.0
  C  C234  1  0.78573613  0.77635176  0.19262711  1.0
  C  C235  1  0.61572944  0.80242561  0.18435010  1.0
  C  C236  1  0.78437115  0.74006420  0.15234665  1.0
  C  C237  1  0.61401090  0.76553297  0.14441889  1.0
  C  C238  1  0.69813146  0.73380520  0.12828970  1.0
  C  C239  1  0.69485127  0.69330215  0.08551993  1.0
  C  C240  1  0.68960926  0.19934566  0.44462475  1.0
  C  C241  1  0.68736959  0.24332712  0.40379059  1.0
  C  C242  1  0.60188588  0.27749772  0.39256516  1.0
  C  C243  1  0.76876322  0.24908910  0.37588954  1.0
  C  C244  1  0.76409666  0.28690215  0.33633422  1.0
  C  C245  1  0.59754191  0.31569355  0.35328089  1.0
  C  C246  1  0.67802868  0.32107801  0.32395303  1.0
  C  C247  1  0.67403095  0.35783837  0.28302454  1.0
  C  C248  1  0.67361888  0.38759705  0.24655989  1.0
  C  C249  1  0.67872951  0.42142216  0.20440339  1.0
  C  C250  1  0.59632052  0.44177269  0.17859210  1.0
  C  C251  1  0.76910547  0.43550975  0.18657911  1.0
  C  C252  1  0.77620247  0.46986521  0.14566078  1.0
  C  C253  1  0.60357020  0.47512984  0.13716812  1.0
  C  C254  1  0.69369105  0.48997941  0.12073840  1.0
  C  C255  1  0.69985715  0.52964746  0.07770246  1.0
  C  C256  1  0.69378385  0.70677720  0.95148250  1.0
  C  C257  1  0.69312491  0.75155492  0.91097199  1.0
  C  C258  1  0.61278001  0.79250182  0.90299151  1.0
  C  C259  1  0.76982668  0.74993022  0.87923127  1.0
  C  C260  1  0.76548507  0.78726022  0.83937684  1.0
  C  C261  1  0.60826182  0.82936946  0.86291091  1.0
  C  C262  1  0.68381369  0.82758913  0.82989907  1.0
  C  C263  1  0.67880476  0.86380820  0.78862378  1.0
  C  C264  1  0.67689580  0.89437401  0.75246420  1.0
  C  C265  1  0.68035893  0.93005792  0.71101568  1.0
  C  C266  1  0.59835749  0.96246063  0.69174341  1.0
  C  C267  1  0.76865184  0.93468223  0.68753744  1.0
  C  C268  1  0.77443719  0.97065165  0.64728149  1.0
  C  C269  1  0.60380702  0.99759330  0.65102530  1.0
  C  C270  1  0.69219203  0.00196406  0.62854631  1.0
  C  C271  1  0.69716619  0.04089006  0.58493530  1.0
  C  C272  1  0.68748335  0.53663241  0.94562801  1.0
  C  C273  1  0.68032868  0.49018915  0.90665515  1.0
  C  C274  1  0.59242296  0.48590876  0.88376483  1.0
  C  C275  1  0.76026276  0.45250766  0.89192718  1.0
  C  C276  1  0.75272153  0.41238499  0.85407852  1.0
  C  C277  1  0.58527909  0.44616323  0.84561951  1.0
  C  C278  1  0.66569426  0.40903671  0.82925363  1.0
  C  C279  1  0.66239317  0.37157715  0.78865898  1.0
  C  C280  1  0.66379580  0.34165730  0.75219434  1.0
  C  C281  1  0.66746680  0.30851991  0.70941300  1.0
  C  C282  1  0.60227852  0.32310261  0.67249012  1.0
  C  C283  1  0.73852063  0.25968036  0.70177810  1.0
  C  C284  1  0.74419525  0.22731245  0.65960444  1.0
  C  C285  1  0.60688681  0.29021776  0.63046374  1.0
  C  C286  1  0.67759005  0.24186080  0.62389378  1.0
  C  C287  1  0.67884863  0.20340163  0.58001313  1.0
  C  C288  1  0.40621528  0.56729563  0.02822676  1.0
  C  C289  1  0.38985404  0.67257448  0.00843402  1.0
  C  C290  1  0.29076460  0.67194955  0.00844431  1.0
  C  C291  1  0.30780946  0.56296156  0.02902147  1.0
  C  C292  1  0.24794353  0.61603167  0.01829604  1.0
  C  C293  1  0.14301697  0.61362051  0.01675434  1.0
  C  C294  1  0.08896257  0.64849110  0.98328877  1.0
  C  C295  1  0.09392651  0.57691013  0.04825062  1.0
  C  C296  1  0.99496834  0.57676735  0.04558941  1.0
  C  C297  1  0.99032209  0.64553081  0.98261893  1.0
  C  C298  1  0.38627701  0.16880107  0.53044909  1.0
  C  C299  1  0.28697935  0.17008941  0.52988045  1.0
  C  C300  1  0.60215679  0.92195428  0.98553786  1.0
  C  C301  1  0.70091152  0.92387100  0.98336543  1.0
  C  C302  1  0.75769949  0.87760612  0.00668794  1.0
  C  C303  1  0.86320282  0.87931748  0.00810305  1.0
  C  C304  1  0.90667086  0.91643189  0.04131460  1.0
  C  C305  1  0.92162286  0.84346705  0.97721642  1.0
  C  C306  1  0.02014956  0.84632533  0.98045587  1.0
  C  C307  1  0.00579499  0.91630039  0.04262123  1.0
  C  C308  1  0.30897046  0.97010550  0.95071745  1.0
  C  C309  1  0.30601933  0.01493713  0.91032885  1.0
  C  C310  1  0.39014327  0.02834544  0.88666091  1.0
  C  C311  1  0.21760651  0.04081230  0.89431873  1.0
  C  C312  1  0.21329225  0.07819237  0.85452181  1.0
  C  C313  1  0.38562361  0.06523601  0.84664622  1.0
  C  C314  1  0.29689136  0.09072513  0.82925383  1.0
  C  C315  1  0.29423658  0.12645842  0.78777586  1.0
  C  C316  1  0.29655268  0.15630877  0.75140412  1.0
  C  C317  1  0.29861981  0.19179076  0.70988898  1.0
  C  C318  1  0.21426287  0.22364962  0.69262702  1.0
  C  C319  1  0.38427018  0.19757766  0.68434959  1.0
  C  C320  1  0.21562684  0.25993720  0.65234688  1.0
  C  C321  1  0.38598843  0.23447030  0.64441836  1.0
  C  C322  1  0.30186678  0.26619621  0.62828971  1.0
  C  C323  1  0.30514751  0.30669834  0.58551852  1.0
  C  C324  1  0.31038795  0.80065422  0.94462380  1.0
  C  C325  1  0.31262885  0.75667184  0.90379070  1.0
  C  C326  1  0.39811407  0.72250171  0.89256472  1.0
  C  C327  1  0.23123623  0.75090987  0.87588951  1.0
  C  C328  1  0.23590320  0.71309684  0.83633384  1.0
  C  C329  1  0.40245840  0.68430637  0.85328081  1.0
  C  C330  1  0.32197131  0.67892098  0.82395350  1.0
  C  C331  1  0.32596956  0.64215970  0.78302572  1.0
  C  C332  1  0.32637853  0.61240011  0.74656073  1.0
  C  C333  1  0.32126825  0.57857595  0.70440461  1.0
  C  C334  1  0.40367524  0.55822683  0.67859207  1.0
  C  C335  1  0.23089177  0.56448836  0.68658022  1.0
  C  C336  1  0.22379514  0.53013339  0.64566192  1.0
  C  C337  1  0.39642732  0.52487063  0.63716848  1.0
  C  C338  1  0.30630817  0.51002013  0.62073899  1.0
  C  C339  1  0.30014314  0.47035304  0.57770238  1.0
  C  C340  1  0.30621392  0.29322361  0.45148123  1.0
  C  C341  1  0.30687390  0.24844685  0.41097109  1.0
  C  C342  1  0.38721956  0.20750042  0.40298973  1.0
  C  C343  1  0.23017313  0.25007203  0.37922986  1.0
  C  C344  1  0.23451445  0.21274204  0.33937544  1.0
  C  C345  1  0.39173817  0.17063280  0.36290948  1.0
  C  C346  1  0.31618664  0.17241314  0.32989748  1.0
  C  C347  1  0.32119457  0.13619409  0.28862220  1.0
  C  C348  1  0.32310177  0.10562829  0.25246192  1.0
  C  C349  1  0.31963917  0.06994346  0.21101378  1.0
  C  C350  1  0.40164214  0.03754169  0.19174167  1.0
  C  C351  1  0.23134668  0.06531729  0.18753647  1.0
  C  C352  1  0.22556183  0.02934695  0.14728195  1.0
  C  C353  1  0.39619322  0.00240717  0.15102429  1.0
  C  C354  1  0.30780858  0.99803502  0.12854646  1.0
  C  C355  1  0.30283296  0.95910669  0.08493548  1.0
  C  C356  1  0.31251390  0.46336700  0.44562840  1.0
  C  C357  1  0.31966558  0.50980841  0.40665479  1.0
  C  C358  1  0.40757038  0.51408600  0.38376285  1.0
  C  C359  1  0.23973281  0.54749271  0.39192806  1.0
  C  C360  1  0.24727524  0.58761447  0.35407936  1.0
  C  C361  1  0.41471751  0.55383154  0.34561714  1.0
  C  C362  1  0.33430246  0.59095854  0.32925145  1.0
  C  C363  1  0.33760104  0.62841905  0.28865642  1.0
  C  C364  1  0.33619874  0.65833938  0.25219423  1.0
  C  C365  1  0.33252873  0.69147867  0.20941288  1.0
  C  C366  1  0.39772167  0.67689597  0.17249055  1.0
  C  C367  1  0.26147765  0.74032009  0.20177779  1.0
  C  C368  1  0.25580565  0.77268754  0.15960377  1.0
  C  C369  1  0.39311386  0.70978037  0.13046415  1.0
  C  C370  1  0.32241123  0.75813921  0.12389330  1.0
  C  C371  1  0.32115123  0.79659559  0.08001194  1.0
  C  C372  1  0.59378258  0.43270583  0.52822631  1.0
  C  C373  1  0.61014470  0.32742745  0.50843287  1.0
  C  C374  1  0.70923414  0.32805238  0.50844291  1.0
  C  C375  1  0.69218911  0.43703989  0.52902077  1.0
  C  C376  1  0.75205372  0.38396979  0.51829451  1.0
  C  C377  1  0.85698097  0.38638142  0.51675324  1.0
  C  C378  1  0.91103768  0.35151017  0.48328804  1.0
  C  C379  1  0.90607190  0.42309084  0.54824973  1.0
  C  C380  1  0.00502867  0.42323363  0.54558905  1.0
  C  C381  1  0.00967821  0.35446999  0.48261873  1.0
  C  C382  1  0.61372497  0.83119429  0.03044573  1.0
  C  C383  1  0.71302242  0.82990830  0.02987860  1.0
  Br  Br384  1  0.78835479  0.58838654  0.48812017  1.0
  Br  Br385  1  0.78461427  0.48391235  0.36911025  1.0
  Br  Br386  1  0.22085764  0.91358286  0.49042006  1.0
  Br  Br387  1  0.21315856  0.00672930  0.36230591  1.0
  Br  Br388  1  0.21164363  0.41161847  0.98811895  1.0
  Br  Br389  1  0.21538668  0.51608663  0.86911142  1.0
  Br  Br390  1  0.77914444  0.08642075  0.99041790  1.0
  Br  Br391  1  0.78684050  0.99326780  0.86230611  1.0
  Br  Br392  1  0.90808094  0.88885625  0.33322183  1.0
  Br  Br393  1  0.50021661  0.84513010  0.20473874  1.0
  Br  Br394  1  0.48018746  0.36058167  0.33851599  1.0
  Br  Br395  1  0.47335428  0.42308424  0.20058221  1.0
  Br  Br396  1  0.49701473  0.88252713  0.85166868  1.0
  Br  Br397  1  0.47797420  0.95821081  0.72203527  1.0
  Br  Br398  1  0.46551041  0.44307912  0.81485282  1.0
  Br  Br399  1  0.50546611  0.38823536  0.68005422  1.0
  Br  Br400  1  0.09192030  0.11114368  0.83322245  1.0
  Br  Br401  1  0.49978481  0.15487456  0.70473726  1.0
  Br  Br402  1  0.51981251  0.63941591  0.83851668  1.0
  Br  Br403  1  0.52664263  0.57691574  0.70058186  1.0
  Br  Br404  1  0.50298479  0.11747372  0.35166769  1.0
  Br  Br405  1  0.52202481  0.04179478  0.22203252  1.0
  Br  Br406  1  0.53448753  0.55691239  0.31485190  1.0
  Br  Br407  1  0.49453315  0.61176463  0.18005548  1.0
  N  N408  1  0.25087412  0.75133952  0.69054326  1.0
  N  N409  1  0.75339688  0.75424288  0.68992722  1.0
  N  N410  1  0.74912650  0.24866000  0.19054229  1.0
  N  N411  1  0.24660340  0.24576038  0.18992577  1.0
  N  N412  1  0.93844369  0.11803771  0.51262213  1.0
  N  N413  1  0.44059636  0.12309247  0.50922982  1.0
  N  N414  1  0.44654309  0.62109296  0.01779470  1.0
  N  N415  1  0.94395533  0.61042634  0.01331655  1.0
  N  N416  1  0.06155585  0.88196282  0.01262016  1.0
  N  N417  1  0.55940514  0.87690290  0.00922764  1.0
  N  N418  1  0.55345484  0.37890897  0.51779367  1.0
  N  N419  1  0.05604354  0.38957372  0.51331678  1.0
  O  O420  1  0.09582005  0.68625520  0.63512345  1.0
  O  O421  1  0.93547116  0.68261458  0.64485237  1.0
  O  O422  1  0.08181569  0.30499378  0.24853590  1.0
  O  O423  1  0.92294803  0.32653805  0.23690990  1.0
  O  O424  1  0.07034379  0.81767524  0.64541203  1.0
  O  O425  1  0.91028900  0.81434300  0.63455117  1.0
  O  O426  1  0.07384738  0.17335177  0.23619357  1.0
  O  O427  1  0.91574555  0.19531429  0.24956614  1.0
  O  O428  1  0.90417911  0.31374340  0.13512346  1.0
  O  O429  1  0.06452834  0.31738682  0.14485170  1.0
  O  O430  1  0.91818785  0.69500618  0.74853730  1.0
  O  O431  1  0.07705720  0.67346051  0.73690994  1.0
  O  O432  1  0.92965659  0.18232429  0.14541273  1.0
  O  O433  1  0.08970985  0.18565888  0.13454980  1.0
  O  O434  1  0.92615621  0.82664913  0.73619490  1.0
  O  O435  1  0.08425660  0.80468520  0.74956646  1.0
  O  O436  1  0.77127399  0.04854283  0.46444688  1.0
  O  O437  1  0.60962417  0.04733413  0.46745255  1.0
  O  O438  1  0.77385261  0.67796985  0.06527055  1.0
  O  O439  1  0.61245223  0.67801117  0.07238835  1.0
  O  O440  1  0.77110540  0.18217312  0.46172927  1.0
  O  O441  1  0.60928222  0.18271389  0.45926647  1.0
  O  O442  1  0.78246426  0.54622731  0.06616684  1.0
  O  O443  1  0.62199125  0.54479422  0.05645915  1.0
  O  O444  1  0.77362486  0.67777877  0.96130777  1.0
  O  O445  1  0.61450670  0.70019955  0.97213410  1.0
  O  O446  1  0.77936914  0.04724439  0.56701074  1.0
  O  O447  1  0.61791442  0.06494992  0.56948131  1.0
  O  O448  1  0.76988142  0.54226829  0.96378133  1.0
  O  O449  1  0.61074966  0.56777702  0.95703702  1.0
  O  O450  1  0.75990536  0.17944720  0.56668322  1.0
  O  O451  1  0.59890749  0.19683674  0.55982671  1.0
  O  O452  1  0.22872860  0.95145845  0.96444922  1.0
  O  O453  1  0.39037709  0.95266574  0.96745167  1.0
  O  O454  1  0.22614406  0.32202503  0.56526757  1.0
  O  O455  1  0.38754414  0.32199354  0.57238812  1.0
  O  O456  1  0.22889173  0.81782582  0.96172851  1.0
  O  O457  1  0.39071484  0.81728599  0.95926495  1.0
  O  O458  1  0.21753673  0.45376711  0.56616944  1.0
  O  O459  1  0.37800726  0.45521238  0.55645573  1.0
  O  O460  1  0.22637272  0.32222298  0.46130599  1.0
  O  O461  1  0.38548889  0.29979939  0.47213508  1.0
  O  O462  1  0.22062899  0.95275003  0.06701254  1.0
  O  O463  1  0.38208609  0.93504918  0.06948025  1.0
  O  O464  1  0.23011773  0.45773159  0.46378368  1.0
  O  O465  1  0.38924889  0.43222239  0.45703547  1.0
  O  O466  1  0.24009352  0.82054675  0.06668117  1.0
  O  O467  1  0.40109236  0.80316283  0.05982566  1.0
