# generated using pymatgen
data_Zn2H17C41Br6(NO4)2
_symmetry_space_group_name_H-M   'P 1'
_cell_length_a   16.52664751
_cell_length_b   17.92379653
_cell_length_c   29.11515636
_cell_angle_alpha   90.24153936
_cell_angle_beta   89.64847658
_cell_angle_gamma   89.91342432
_symmetry_Int_Tables_number   1
_chemical_formula_structural   Zn2H17C41Br6(NO4)2
_chemical_formula_sum   'Zn4 H34 C82 Br12 N4 O16'
_cell_volume   8624.25026081
_cell_formula_units_Z   2
loop_
 _symmetry_equiv_pos_site_id
 _symmetry_equiv_pos_as_xyz
  1  'x, y, z'
loop_
 _atom_site_type_symbol
 _atom_site_label
 _atom_site_symmetry_multiplicity
 _atom_site_fract_x
 _atom_site_fract_y
 _atom_site_fract_z
 _atom_site_occupancy
  Zn  Zn0  1  0.58291128  0.50043064  0.50239343  1.0
  Zn  Zn1  1  0.41470045  0.49976790  0.49858104  1.0
  Zn  Zn2  1  0.41495603  0.50293408  0.88742169  1.0
  Zn  Zn3  1  0.58330337  0.50128869  0.88165014  1.0
  H  H4  1  0.28461518  0.58431889  0.54766725  1.0
  H  H5  1  0.13206568  0.58671122  0.54968101  1.0
  H  H6  1  0.28769799  0.41567394  0.44986744  1.0
  H  H7  1  0.71083847  0.58171101  0.55261033  1.0
  H  H8  1  0.71267662  0.42019176  0.45044596  1.0
  H  H9  1  0.86532600  0.41684255  0.44839955  1.0
  H  H10  1  0.62629454  0.73722156  0.50107050  1.0
  H  H11  1  0.62723339  0.87713221  0.50011668  1.0
  H  H12  1  0.36664978  0.73874145  0.50031829  1.0
  H  H13  1  0.62896082  0.26605179  0.50084074  1.0
  H  H14  1  0.36942838  0.25821697  0.49989868  1.0
  H  H15  1  0.37450590  0.11833034  0.49958583  1.0
  H  H16  1  0.68210326  0.55227450  0.73546066  1.0
  H  H17  1  0.68340588  0.45279410  0.73540311  1.0
  H  H18  1  0.68368500  0.45269244  0.64844765  1.0
  H  H19  1  0.68253323  0.55215879  0.64882181  1.0
  H  H20  1  0.37508007  0.50321546  0.03294053  1.0
  H  H21  1  0.37758193  0.50211716  0.11906079  1.0
  H  H22  1  0.63471192  0.50151924  0.02929665  1.0
  H  H23  1  0.37283760  0.49950766  0.35491505  1.0
  H  H24  1  0.63249234  0.50078386  0.35276652  1.0
  H  H25  1  0.63123998  0.50112514  0.26655710  1.0
  H  H26  1  0.71477995  0.58187342  0.83272703  1.0
  H  H27  1  0.86752057  0.58527312  0.83281500  1.0
  H  H28  1  0.70919111  0.42158193  0.93476197  1.0
  H  H29  1  0.28814295  0.58786963  0.83772242  1.0
  H  H30  1  0.28450342  0.41912716  0.93456189  1.0
  H  H31  1  0.13185073  0.41622663  0.93568161  1.0
  H  H32  1  0.36987738  0.74372762  0.88386244  1.0
  H  H33  1  0.37432653  0.88361224  0.88394939  1.0
  H  H34  1  0.62945523  0.73612434  0.88310535  1.0
  H  H35  1  0.36648377  0.26391053  0.88526444  1.0
  H  H36  1  0.62615305  0.26439438  0.88393878  1.0
  H  H37  1  0.62689729  0.12448651  0.88406803  1.0
  C  C38  1  0.49515143  0.64636734  0.50142489  1.0
  C  C39  1  0.50252529  0.50031392  0.59061730  1.0
  C  C40  1  0.49628435  0.35379058  0.50004688  1.0
  C  C41  1  0.50235455  0.49936517  0.41024456  1.0
  C  C42  1  0.49697231  0.64834539  0.88330314  1.0
  C  C43  1  0.50240209  0.50089840  0.79439653  1.0
  C  C44  1  0.49532869  0.35584185  0.88508706  1.0
  C  C45  1  0.50306812  0.50221241  0.97472096  1.0
  C  C46  1  0.24856164  0.54726991  0.52623208  1.0
  C  C47  1  0.16473981  0.54835633  0.52712921  1.0
  C  C48  1  0.12114427  0.49916015  0.49853567  1.0
  C  C49  1  0.16654329  0.45059774  0.46992598  1.0
  C  C50  1  0.25070865  0.45260015  0.47121890  1.0
  C  C51  1  0.03586406  0.49933609  0.49907533  1.0
  C  C52  1  0.96217768  0.50101866  0.50063972  1.0
  C  C53  1  0.87690156  0.50144230  0.50131020  1.0
  C  C54  1  0.83175189  0.54845624  0.53100466  1.0
  C  C55  1  0.74758045  0.54650122  0.53006325  1.0
  C  C56  1  0.74906684  0.45556896  0.47276685  1.0
  C  C57  1  0.83288650  0.45409648  0.47174986  1.0
  C  C58  1  0.49645177  0.73000289  0.50106199  1.0
  C  C59  1  0.57001522  0.76888440  0.50092161  1.0
  C  C60  1  0.57049730  0.84622022  0.50034310  1.0
  C  C61  1  0.49747330  0.88752158  0.50000269  1.0
  C  C62  1  0.42399183  0.84704383  0.50008816  1.0
  C  C63  1  0.42331065  0.76959707  0.50053393  1.0
  C  C64  1  0.49979621  0.96610473  0.49965592  1.0
  C  C65  1  0.50491069  0.03403269  0.49956272  1.0
  C  C66  1  0.50459496  0.11267316  0.49969161  1.0
  C  C67  1  0.57625182  0.15576320  0.50001242  1.0
  C  C68  1  0.57364176  0.23321114  0.50033671  1.0
  C  C69  1  0.49888181  0.27015746  0.50010023  1.0
  C  C70  1  0.42701293  0.22862744  0.49983180  1.0
  C  C71  1  0.42984245  0.15132948  0.49968873  1.0
  C  C72  1  0.49470260  0.49972711  0.74286345  1.0
  C  C73  1  0.49483953  0.49954348  0.64220044  1.0
  C  C74  1  0.56506766  0.50105148  0.71621601  1.0
  C  C75  1  0.42188020  0.49720643  0.66838433  1.0
  C  C76  1  0.56517209  0.50102546  0.66840408  1.0
  C  C77  1  0.42179784  0.49734837  0.71715581  1.0
  C  C78  1  0.65659042  0.50217766  0.71923510  1.0
  C  C79  1  0.65675897  0.50213902  0.66492635  1.0
  C  C80  1  0.50468023  0.50202714  0.02619619  1.0
  C  C81  1  0.43210255  0.50240156  0.05145210  1.0
  C  C82  1  0.43354186  0.50190367  0.09904565  1.0
  C  C83  1  0.50763449  0.50114773  0.12314572  1.0
  C  C84  1  0.58005107  0.50103404  0.09693228  1.0
  C  C85  1  0.57880401  0.50143311  0.04924390  1.0
  C  C86  1  0.50705006  0.50071581  0.17153221  1.0
  C  C87  1  0.50250825  0.50044635  0.21338599  1.0
  C  C88  1  0.50134988  0.50023615  0.26178784  1.0
  C  C89  1  0.42850084  0.49985462  0.28758165  1.0
  C  C90  1  0.42904830  0.49959809  0.33525388  1.0
  C  C91  1  0.50280738  0.49965637  0.35874313  1.0
  C  C92  1  0.57576842  0.50025978  0.33393676  1.0
  C  C93  1  0.57502350  0.50054204  0.28631488  1.0
  C  C94  1  0.75038085  0.54675508  0.85547798  1.0
  C  C95  1  0.83417717  0.54828129  0.85565804  1.0
  C  C96  1  0.87704963  0.50117281  0.88572507  1.0
  C  C97  1  0.83087993  0.45452199  0.91481176  1.0
  C  C98  1  0.74675367  0.45649655  0.91270186  1.0
  C  C99  1  0.96232182  0.50140852  0.88598885  1.0
  C  C100  1  0.03602353  0.50321625  0.88491827  1.0
  C  C101  1  0.12130292  0.50371310  0.88492616  1.0
  C  C102  1  0.16695298  0.55240376  0.85687513  1.0
  C  C103  1  0.25112611  0.55089174  0.85873679  1.0
  C  C104  1  0.24851659  0.45622388  0.91323354  1.0
  C  C105  1  0.16470749  0.45475786  0.91359463  1.0
  C  C106  1  0.49938033  0.73194643  0.88320298  1.0
  C  C107  1  0.42732197  0.77338514  0.88356196  1.0
  C  C108  1  0.42981301  0.85067490  0.88370321  1.0
  C  C109  1  0.50438377  0.88940257  0.88366648  1.0
  C  C110  1  0.57624951  0.84638780  0.88338863  1.0
  C  C111  1  0.57398964  0.76893728  0.88311726  1.0
  C  C112  1  0.50441941  0.96803730  0.88403322  1.0
  C  C113  1  0.49926286  0.03596808  0.88437653  1.0
  C  C114  1  0.49710375  0.11458527  0.88459429  1.0
  C  C115  1  0.42369921  0.15540074  0.88495486  1.0
  C  C116  1  0.42313304  0.23287022  0.88512179  1.0
  C  C117  1  0.49632735  0.27217480  0.88483677  1.0
  C  C118  1  0.56983024  0.23296668  0.88434798  1.0
  C  C119  1  0.57019608  0.15561163  0.88433432  1.0
  Br  Br120  1  0.11540948  0.38279136  0.42977574  1.0
  Br  Br121  1  0.88348963  0.61413768  0.57226478  1.0
  Br  Br122  1  0.32364493  0.89919685  0.49950413  1.0
  Br  Br123  1  0.67868095  0.10712492  0.50002233  1.0
  Br  Br124  1  0.68159471  0.50038995  0.12733552  1.0
  Br  Br125  1  0.32736373  0.49981292  0.25673083  1.0
  Br  Br126  1  0.88101636  0.38926503  0.95666461  1.0
  Br  Br127  1  0.11608153  0.61994159  0.81668729  1.0
  Br  Br128  1  0.67846835  0.89508314  0.88364323  1.0
  Br  Br129  1  0.32328934  0.10361040  0.88516172  1.0
  Br  Br130  1  0.31961413  0.49233511  0.63850028  1.0
  Br  Br131  1  0.31941157  0.49281622  0.74763611  1.0
  N  N132  1  0.29026934  0.49999759  0.49886806  1.0
  N  N133  1  0.70763359  0.50096862  0.50142356  1.0
  N  N134  1  0.70791435  0.50156861  0.88348218  1.0
  N  N135  1  0.29047381  0.50358797  0.88637524  1.0
  O  O136  1  0.56351209  0.61327861  0.50295054  1.0
  O  O137  1  0.42626525  0.61489231  0.50001633  1.0
  O  O138  1  0.43843378  0.49982622  0.56690274  1.0
  O  O139  1  0.57435122  0.50151929  0.57444170  1.0
  O  O140  1  0.42695097  0.38445002  0.49786697  1.0
  O  O141  1  0.56403801  0.38769628  0.50214774  1.0
  O  O142  1  0.57024092  0.49918731  0.43065956  1.0
  O  O143  1  0.43291260  0.49941493  0.42960647  1.0
  O  O144  1  0.42756281  0.61790116  0.88547436  1.0
  O  O145  1  0.56475159  0.61425750  0.88135787  1.0
  O  O146  1  0.57436090  0.50094662  0.80997530  1.0
  O  O147  1  0.43843313  0.50200717  0.81863215  1.0
  O  O148  1  0.56370899  0.38845354  0.88211964  1.0
  O  O149  1  0.42667792  0.38778583  0.88820924  1.0
  O  O150  1  0.43320324  0.50413653  0.95635070  1.0
  O  O151  1  0.57044408  0.50040791  0.95334359  1.0
