# generated using pymatgen
data_AlH6C10SN2O5F
_symmetry_space_group_name_H-M   'P 1'
_cell_length_a   6.65463973
_cell_length_b   10.95008441
_cell_length_c   12.76877717
_cell_angle_alpha   91.61057875
_cell_angle_beta   104.86963947
_cell_angle_gamma   105.34287169
_symmetry_Int_Tables_number   1
_chemical_formula_structural   AlH6C10SN2O5F
_chemical_formula_sum   'Al2 H12 C20 S2 N4 O10 F2'
_cell_volume   862.62393490
_cell_formula_units_Z   2
loop_
 _symmetry_equiv_pos_site_id
 _symmetry_equiv_pos_as_xyz
  1  'x, y, z'
loop_
 _atom_site_type_symbol
 _atom_site_label
 _atom_site_symmetry_multiplicity
 _atom_site_fract_x
 _atom_site_fract_y
 _atom_site_fract_z
 _atom_site_occupancy
  Al  Al0  1  0.00478282  0.49863481  0.50628011  1.0
  Al  Al1  1  0.50406469  0.49928565  0.50542308  1.0
  H  H2  1  0.35149690  0.65901934  0.54926014  1.0
  H  H3  1  0.65652112  0.33977791  0.45305404  1.0
  H  H4  1  0.52194776  0.76393030  0.34874956  1.0
  H  H5  1  0.78177137  0.23416326  0.36600920  1.0
  H  H6  1  0.48636566  0.21158495  0.60063176  1.0
  H  H7  1  0.53173004  0.06785281  0.60738089  1.0
  H  H8  1  0.21060567  0.77820208  0.62997560  1.0
  H  H9  1  0.37381988  0.92356617  0.68546470  1.0
  H  H10  1  0.21310143  0.77566011  0.20955509  1.0
  H  H11  1  0.20820126  0.91183601  0.15249369  1.0
  H  H12  1  0.44382159  0.22818356  0.24528773  1.0
  H  H13  1  0.23001508  0.10027297  0.23056573  1.0
  C  C14  1  0.85195124  0.72422546  0.49017048  1.0
  C  C15  1  0.85172298  0.51341930  0.70235826  1.0
  C  C16  1  0.14926225  0.27145303  0.51233144  1.0
  C  C17  1  0.15457395  0.48449233  0.30884326  1.0
  C  C18  1  0.11592530  0.53852760  0.89402479  1.0
  C  C19  1  0.88915236  0.46233878  0.11762261  1.0
  C  C20  1  0.91192318  0.50966059  0.82084289  1.0
  C  C21  1  0.09323014  0.49052863  0.19069773  1.0
  C  C22  1  0.89497306  0.47951889  0.00911500  1.0
  C  C23  1  0.10966759  0.52163792  0.00239807  1.0
  C  C24  1  0.92424157  0.86406099  0.49025259  1.0
  C  C25  1  0.78376066  0.93100789  0.42805796  1.0
  C  C26  1  0.13541469  0.92760991  0.55137348  1.0
  C  C27  1  0.57835260  0.86755724  0.35637781  1.0
  C  C28  1  0.44756232  0.93268199  0.29318254  1.0
  C  C29  1  0.07493477  0.13076430  0.49930055  1.0
  C  C30  1  0.21581348  0.06265180  0.55157707  1.0
  C  C31  1  0.85938376  0.06694408  0.43384090  1.0
  C  C32  1  0.72340643  0.13168594  0.36779868  1.0
  C  C33  1  0.52074878  0.06852592  0.30020470  1.0
  S  S34  1  0.70628836  0.46213191  0.88490940  1.0
  S  S35  1  0.29890209  0.53822743  0.12643046  1.0
  N  N36  1  0.42782719  0.11943911  0.61395657  1.0
  N  N37  1  0.27805279  0.86858072  0.61571674  1.0
  N  N38  1  0.24339343  0.87151453  0.22336878  1.0
  N  N39  1  0.38922708  0.13157614  0.23193495  1.0
  O  O40  1  0.98581797  0.66370180  0.47779235  1.0
  O  O41  1  0.64971509  0.49439561  0.65696665  1.0
  O  O42  1  0.33869685  0.32656146  0.50289134  1.0
  O  O43  1  0.00388454  0.46341291  0.35599988  1.0
  O  O44  1  0.02166234  0.33178883  0.53282839  1.0
  O  O45  1  0.35666306  0.50129991  0.35301957  1.0
  O  O46  1  0.66744656  0.67120710  0.50494219  1.0
  O  O47  1  0.00384902  0.53484521  0.65584284  1.0
  O  O48  1  0.30534193  0.56668576  0.54825324  1.0
  O  O49  1  0.70365219  0.43230803  0.46254474  1.0
  F  F50  1  0.30334737  0.58021726  0.86723439  1.0
  F  F51  1  0.70213615  0.42070386  0.14477438  1.0
