# generated using pymatgen
data_AlH4C10SNO7
_symmetry_space_group_name_H-M   'P 1'
_cell_length_a   6.62578419
_cell_length_b   11.06157663
_cell_length_c   12.64890335
_cell_angle_alpha   90.20409660
_cell_angle_beta   104.10403788
_cell_angle_gamma   106.15091074
_symmetry_Int_Tables_number   1
_chemical_formula_structural   AlH4C10SNO7
_chemical_formula_sum   'Al2 H8 C20 S2 N2 O14'
_cell_volume   861.08986283
_cell_formula_units_Z   2
loop_
 _symmetry_equiv_pos_site_id
 _symmetry_equiv_pos_as_xyz
  1  'x, y, z'
loop_
 _atom_site_type_symbol
 _atom_site_label
 _atom_site_symmetry_multiplicity
 _atom_site_fract_x
 _atom_site_fract_y
 _atom_site_fract_z
 _atom_site_occupancy
  Al  Al0  1  0.01148827  0.50003558  0.50064576  1.0
  Al  Al1  1  0.50918883  0.49692602  0.49796144  1.0
  H  H2  1  0.37267778  0.63515235  0.59307161  1.0
  H  H3  1  0.66288950  0.41751390  0.36988391  1.0
  H  H4  1  0.25561244  0.55367556  0.84805267  1.0
  H  H5  1  0.75206875  0.42538090  0.14831461  1.0
  H  H6  1  0.51378521  0.76429359  0.34790636  1.0
  H  H7  1  0.75000113  0.23408515  0.38508292  1.0
  H  H8  1  0.37883128  0.11611658  0.57554819  1.0
  H  H9  1  0.25486315  0.87991974  0.56548769  1.0
  C  C10  1  0.86696797  0.72532838  0.48567099  1.0
  C  C11  1  0.84396339  0.49894818  0.69438292  1.0
  C  C12  1  0.14453774  0.27286714  0.50307801  1.0
  C  C13  1  0.16916702  0.48982599  0.30209285  1.0
  C  C14  1  0.11261761  0.52401000  0.87993093  1.0
  C  C15  1  0.89522425  0.45611021  0.11661859  1.0
  C  C16  1  0.90332537  0.49424963  0.81317001  1.0
  C  C17  1  0.10485782  0.48780807  0.18301440  1.0
  C  C18  1  0.89772499  0.46926339  0.00611710  1.0
  C  C19  1  0.10993059  0.51057596  0.99027356  1.0
  C  C20  1  0.92882496  0.86530581  0.47830333  1.0
  C  C21  1  0.77905417  0.93068804  0.42492438  1.0
  C  C22  1  0.14172399  0.93229368  0.52885704  1.0
  C  C23  1  0.56852422  0.86697791  0.35826629  1.0
  C  C24  1  0.43648712  0.93402216  0.30148657  1.0
  C  C25  1  0.06682119  0.13175801  0.49108442  1.0
  C  C26  1  0.21124944  0.06468131  0.53494301  1.0
  C  C27  1  0.84965661  0.06631020  0.43241866  1.0
  C  C28  1  0.70480070  0.13180324  0.37612344  1.0
  C  C29  1  0.50371411  0.06774316  0.31192751  1.0
  S  S30  1  0.70263632  0.44883104  0.88390361  1.0
  S  S31  1  0.30518304  0.53262444  0.11223743  1.0
  N  N32  1  0.23758868  0.86339379  0.21958256  1.0
  N  N33  1  0.35665029  0.14250780  0.26413777  1.0
  O  O34  1  0.00952977  0.67148970  0.47798371  1.0
  O  O35  1  0.64277855  0.47863857  0.64653825  1.0
  O  O36  1  0.33075387  0.32417180  0.48733598  1.0
  O  O37  1  0.01854894  0.46850649  0.35216103  1.0
  O  O38  1  0.01753472  0.32976765  0.52708274  1.0
  O  O39  1  0.37235765  0.51268410  0.34766239  1.0
  O  O40  1  0.68264209  0.67293803  0.50396145  1.0
  O  O41  1  0.99880494  0.52452278  0.64714531  1.0
  O  O42  1  0.31153207  0.55790277  0.54598239  1.0
  O  O43  1  0.71027289  0.44086964  0.44813297  1.0
  O  O44  1  0.11551714  0.77067974  0.24871475  1.0
  O  O45  1  0.21344541  0.90050154  0.12636783  1.0
  O  O46  1  0.43881622  0.25038362  0.23946832  1.0
  O  O47  1  0.16015477  0.09410742  0.25501426  1.0
