# generated using pymatgen
data_Zn2H8C23S5(NO5)2
_symmetry_space_group_name_H-M   'P 1'
_cell_length_a   11.41018178
_cell_length_b   12.69416193
_cell_length_c   23.76898047
_cell_angle_alpha   89.95699426
_cell_angle_beta   89.77132305
_cell_angle_gamma   89.67150576
_symmetry_Int_Tables_number   1
_chemical_formula_structural   Zn2H8C23S5(NO5)2
_chemical_formula_sum   'Zn4 H16 C46 S10 N4 O20'
_cell_volume   3442.67827790
_cell_formula_units_Z   2
loop_
 _symmetry_equiv_pos_site_id
 _symmetry_equiv_pos_as_xyz
  1  'x, y, z'
loop_
 _atom_site_type_symbol
 _atom_site_label
 _atom_site_symmetry_multiplicity
 _atom_site_fract_x
 _atom_site_fract_y
 _atom_site_fract_z
 _atom_site_occupancy
  Zn  Zn0  1  0.38086229  0.50509836  0.50066582  1.0
  Zn  Zn1  1  0.62398462  0.50373634  0.50395159  1.0
  Zn  Zn2  1  0.61906975  0.50269725  0.03540336  1.0
  Zn  Zn3  1  0.37620248  0.50447718  0.03936824  1.0
  H  H4  1  0.17418370  0.44276052  0.57712723  1.0
  H  H5  1  0.83239561  0.56699514  0.42257014  1.0
  H  H6  1  0.31758341  0.14870383  0.49380777  1.0
  H  H7  1  0.68811839  0.85952616  0.50083718  1.0
  H  H8  1  0.37321885  0.35634211  0.16383612  1.0
  H  H9  1  0.25611933  0.22553729  0.21547546  1.0
  H  H10  1  0.36994149  0.35300428  0.37386767  1.0
  H  H11  1  0.25364890  0.22429557  0.32056963  1.0
  H  H12  1  0.67075487  0.52642117  0.69246300  1.0
  H  H13  1  0.31268854  0.45116407  0.84797838  1.0
  H  H14  1  0.83233658  0.41799063  0.96551497  1.0
  H  H15  1  0.16179890  0.58739488  0.11224090  1.0
  H  H16  1  0.67663791  0.14445264  0.03994587  1.0
  H  H17  1  0.30354369  0.86161956  0.03900259  1.0
  H  H18  1  0.54656811  0.72629672  0.35231174  1.0
  H  H19  1  0.51668501  0.71086610  0.17890287  1.0
  C  C20  1  0.50337690  0.70843183  0.50263655  1.0
  C  C21  1  0.50845548  0.50646456  0.39217136  1.0
  C  C22  1  0.50333215  0.29977753  0.49793568  1.0
  C  C23  1  0.49114052  0.49494216  0.61195561  1.0
  C  C24  1  0.48886521  0.70778190  0.03399148  1.0
  C  C25  1  0.50691084  0.51345791  0.14751134  1.0
  C  C26  1  0.49442096  0.29897085  0.04472236  1.0
  C  C27  1  0.49728335  0.48840657  0.92799095  1.0
  C  C28  1  0.13251652  0.47223683  0.53901880  1.0
  C  C29  1  0.87218038  0.53653434  0.46113425  1.0
  C  C30  1  0.99308514  0.52552843  0.47311706  1.0
  C  C31  1  0.01177344  0.48265892  0.52720676  1.0
  C  C32  1  0.40677584  0.11829442  0.49545390  1.0
  C  C33  1  0.59891025  0.88996986  0.50003248  1.0
  C  C34  1  0.50317354  0.18374791  0.49702018  1.0
  C  C35  1  0.50254070  0.82444196  0.50037166  1.0
  C  C36  1  0.56422387  0.99687222  0.49881066  1.0
  C  C37  1  0.44130214  0.01132806  0.49706729  1.0
  C  C38  1  0.51009375  0.50868270  0.21077112  1.0
  C  C39  1  0.43975030  0.43261315  0.23918977  1.0
  C  C40  1  0.58522457  0.57423534  0.24031156  1.0
  C  C41  1  0.37229727  0.35686273  0.20966857  1.0
  C  C42  1  0.30667632  0.28373733  0.23865810  1.0
  C  C43  1  0.51283551  0.50292355  0.32895171  1.0
  C  C44  1  0.58925680  0.56890307  0.30018012  1.0
  C  C45  1  0.43932913  0.43118716  0.29949706  1.0
  C  C46  1  0.37014705  0.35499008  0.32804371  1.0
  C  C47  1  0.30539159  0.28298148  0.29812662  1.0
  C  C48  1  0.58428538  0.50782307  0.70888722  1.0
  C  C49  1  0.39949318  0.46815933  0.83141274  1.0
  C  C50  1  0.48972446  0.49084773  0.67395807  1.0
  C  C51  1  0.49437749  0.48628161  0.86604443  1.0
  C  C52  1  0.43191858  0.47540081  0.77410245  1.0
  C  C53  1  0.55173483  0.49908316  0.76599524  1.0
  C  C54  1  0.87043273  0.45935317  0.00109434  1.0
  C  C55  1  0.12383198  0.54558861  0.07677214  1.0
  C  C56  1  0.00386860  0.53194855  0.06398954  1.0
  C  C57  1  0.99004122  0.47240588  0.01425126  1.0
  C  C58  1  0.58717713  0.11561017  0.04138182  1.0
  C  C59  1  0.39301481  0.89061333  0.03929182  1.0
  C  C60  1  0.49174609  0.18293238  0.04431883  1.0
  C  C61  1  0.48914162  0.82375616  0.03665241  1.0
  C  C62  1  0.42841962  0.99692394  0.04194715  1.0
  C  C63  1  0.55151567  0.00932564  0.04046987  1.0
  C  C64  1  0.67562541  0.63378790  0.33333333  1.0
  C  C65  1  0.66046950  0.65206355  0.20901027  1.0
  S  S66  1  0.12563584  0.54843123  0.44146573  1.0
  S  S67  1  0.87929145  0.45942391  0.55870016  1.0
  S  S68  1  0.63592136  0.11600594  0.49994359  1.0
  S  S69  1  0.36949568  0.89211405  0.49853085  1.0
  S  S70  1  0.36069559  0.46416848  0.71042919  1.0
  S  S71  1  0.62324409  0.51194446  0.82929065  1.0
  S  S72  1  0.86892537  0.56567005  0.09044513  1.0
  S  S73  1  0.12501364  0.43874687  0.98789644  1.0
  S  S74  1  0.35803733  0.11750165  0.04604651  1.0
  S  S75  1  0.62241595  0.88928611  0.03741550  1.0
  N  N76  1  0.20042491  0.50451971  0.49701322  1.0
  N  N77  1  0.80448479  0.50423456  0.50325313  1.0
  N  N78  1  0.79933345  0.50521844  0.03812143  1.0
  N  N79  1  0.19521476  0.50021562  0.03972517  1.0
  O  O80  1  0.40437262  0.66336391  0.50954462  1.0
  O  O81  1  0.60250384  0.66281454  0.49733936  1.0
  O  O82  1  0.60438836  0.49071689  0.41767726  1.0
  O  O83  1  0.40918598  0.52635691  0.41437950  1.0
  O  O84  1  0.60083215  0.34388061  0.50885412  1.0
  O  O85  1  0.40624820  0.34667500  0.48786937  1.0
  O  O86  1  0.39382872  0.48086445  0.58655753  1.0
  O  O87  1  0.59011385  0.51272911  0.58886303  1.0
  O  O88  1  0.58815497  0.66170043  0.03829193  1.0
  O  O89  1  0.38977241  0.66296939  0.02801074  1.0
  O  O90  1  0.40826145  0.53309908  0.12487209  1.0
  O  O91  1  0.60346334  0.49690340  0.12229513  1.0
  O  O92  1  0.39735511  0.34673226  0.05486929  1.0
  O  O93  1  0.59258649  0.34240713  0.03466779  1.0
  O  O94  1  0.59773985  0.50370756  0.95014186  1.0
  O  O95  1  0.40076779  0.47581162  0.95440224  1.0
  O  O96  1  0.63104247  0.72172161  0.35868011  1.0
  O  O97  1  0.77861506  0.61138928  0.33856147  1.0
  O  O98  1  0.60098846  0.72392269  0.17688805  1.0
  O  O99  1  0.76662780  0.65528095  0.21151895  1.0
