# generated using pymatgen
data_Zn4H39C54N11O20
_symmetry_space_group_name_H-M   'P 1'
_cell_length_a   9.74129947
_cell_length_b   11.07161398
_cell_length_c   22.28547777
_cell_angle_alpha   89.72166578
_cell_angle_beta   88.93807792
_cell_angle_gamma   89.66129633
_symmetry_Int_Tables_number   1
_chemical_formula_structural   Zn4H39C54N11O20
_chemical_formula_sum   'Zn4 H39 C54 N11 O20'
_cell_volume   2403.04938771
_cell_formula_units_Z   1
loop_
 _symmetry_equiv_pos_site_id
 _symmetry_equiv_pos_as_xyz
  1  'x, y, z'
loop_
 _atom_site_type_symbol
 _atom_site_label
 _atom_site_symmetry_multiplicity
 _atom_site_fract_x
 _atom_site_fract_y
 _atom_site_fract_z
 _atom_site_occupancy
  Zn  Zn0  1  0.64457620  0.50345796  0.49589263  1.0
  Zn  Zn1  1  0.35861960  0.50017875  0.50096176  1.0
  Zn  Zn2  1  0.35141767  0.51103829  0.99493155  1.0
  Zn  Zn3  1  0.63844659  0.50522847  0.99678730  1.0
  H  H4  1  0.14364735  0.36804674  0.43233856  1.0
  H  H5  1  0.10728708  0.61182638  0.63117120  1.0
  H  H6  1  0.12717282  0.73429383  0.57898799  1.0
  H  H7  1  0.86880590  0.74476802  0.56842815  1.0
  H  H8  1  0.84930843  0.62408141  0.62124497  1.0
  H  H9  1  0.71372262  0.87862584  0.49873318  1.0
  H  H10  1  0.17295490  0.90033999  0.45716637  1.0
  H  H11  1  0.16907921  0.90640445  0.53727654  1.0
  H  H12  1  0.18370475  0.13183069  0.53336003  1.0
  H  H13  1  0.19089503  0.12705424  0.45329106  1.0
  H  H14  1  0.68688869  0.33785646  0.86016148  1.0
  H  H15  1  0.69075634  0.32765914  0.63666071  1.0
  H  H16  1  0.34524584  0.62072029  0.68941080  1.0
  H  H17  1  0.34125095  0.62472868  0.80163403  1.0
  H  H18  1  0.27704664  0.49609536  0.19131744  1.0
  H  H19  1  0.82349419  0.42087534  0.18924481  1.0
  H  H20  1  0.81415508  0.58192180  0.18995080  1.0
  H  H21  1  0.80954515  0.57729219  0.30338986  1.0
  H  H22  1  0.81826475  0.41657599  0.30136856  1.0
  H  H23  1  0.85642366  0.38424324  0.06810578  1.0
  H  H24  1  0.87990147  0.60619555  0.86137474  1.0
  H  H25  1  0.86589097  0.73348189  0.91028767  1.0
  H  H26  1  0.12538981  0.74021013  0.91635797  1.0
  H  H27  1  0.13845444  0.61220101  0.86788456  1.0
  H  H28  1  0.27948075  0.88822122  0.99069753  1.0
  H  H29  1  0.81601668  0.90006263  0.04039256  1.0
  H  H30  1  0.82678402  0.90544035  0.96032171  1.0
  H  H31  1  0.81520510  0.13118059  0.96255330  1.0
  H  H32  1  0.80059554  0.12760417  0.04246795  1.0
  H  H33  1  0.77159913  0.37768285  0.40559250  1.0
  H  H34  1  0.92803391  0.30341311  0.38970417  1.0
  H  H35  1  0.75741709  0.20025326  0.50906486  1.0
  H  H36  1  0.83367691  0.06054853  0.51717490  1.0
  H  H37  1  0.24406118  0.51865732  0.35162575  1.0
  H  H38  1  0.16101068  0.52220107  0.28338503  1.0
  H  H39  1  0.22961619  0.39437443  0.09134678  1.0
  H  H40  1  0.07375479  0.32257937  0.11079322  1.0
  H  H41  1  0.23841098  0.21204033  0.98034558  1.0
  H  H42  1  0.15942322  0.07209619  0.97351531  1.0
  C  C43  1  0.49219396  0.73590128  0.49817858  1.0
  C  C44  1  0.50848515  0.49642973  0.61613966  1.0
  C  C45  1  0.50568741  0.26516262  0.49800181  1.0
  C  C46  1  0.49674809  0.49466700  0.37861825  1.0
  C  C47  1  0.49942654  0.74201909  0.99634183  1.0
  C  C48  1  0.49718796  0.50660864  0.87771225  1.0
  C  C49  1  0.49133259  0.27107809  0.99369542  1.0
  C  C50  1  0.49845259  0.49668882  0.11512867  1.0
  C  C51  1  0.06884177  0.56127749  0.53729780  1.0
  C  C52  1  0.93555244  0.42909953  0.45650984  1.0
  C  C53  1  0.92762337  0.56576897  0.53228537  1.0
  C  C54  1  0.08146243  0.42545754  0.46191059  1.0
  C  C55  1  0.07211948  0.65001598  0.58852166  1.0
  C  C56  1  0.90956474  0.65652969  0.58239739  1.0
  C  C57  1  0.49415293  0.87066261  0.49820482  1.0
  C  C58  1  0.50690554  0.13178094  0.49705256  1.0
  C  C59  1  0.37529932  0.94232183  0.49710713  1.0
  C  C60  1  0.62946857  0.05944094  0.49899169  1.0
  C  C61  1  0.38375385  0.06761336  0.49577786  1.0
  C  C62  1  0.61925389  0.93206222  0.49882276  1.0
  C  C63  1  0.21954715  0.94227056  0.49645558  1.0
  C  C64  1  0.22934292  0.08471956  0.49447527  1.0
  C  C65  1  0.50336175  0.49608534  0.81053743  1.0
  C  C66  1  0.59759908  0.41709639  0.78011542  1.0
  C  C67  1  0.41350402  0.56619044  0.77754251  1.0
  C  C68  1  0.68716105  0.33796231  0.81135561  1.0
  C  C69  1  0.77249489  0.25948024  0.78081416  1.0
  C  C70  1  0.50773964  0.49070932  0.68345224  1.0
  C  C71  1  0.41570873  0.56388694  0.71462473  1.0
  C  C72  1  0.59855909  0.41356707  0.71557953  1.0
  C  C73  1  0.68730971  0.33047341  0.68549657  1.0
  C  C74  1  0.77252963  0.25539126  0.71723590  1.0
  C  C75  1  0.49667564  0.49394582  0.18211185  1.0
  C  C76  1  0.49308381  0.49178061  0.31220401  1.0
  C  C77  1  0.61742210  0.49354949  0.21500186  1.0
  C  C78  1  0.36819634  0.49384313  0.27896403  1.0
  C  C79  1  0.61409497  0.49162085  0.27739030  1.0
  C  C80  1  0.37356783  0.49372056  0.21546615  1.0
  C  C81  1  0.77255724  0.49912550  0.21051613  1.0
  C  C82  1  0.76941143  0.49646694  0.28143827  1.0
  C  C83  1  0.92515969  0.56356370  0.95605474  1.0
  C  C84  1  0.06316592  0.44019321  0.03992591  1.0
  C  C85  1  0.06652645  0.56713684  0.95949793  1.0
  C  C86  1  0.91713512  0.43676771  0.03585054  1.0
  C  C87  1  0.91903809  0.64720681  0.90236100  1.0
  C  C88  1  0.08202878  0.65144495  0.90621011  1.0
  C  C89  1  0.49855753  0.87664970  0.99471261  1.0
  C  C90  1  0.48884518  0.13776220  0.99403386  1.0
  C  C91  1  0.61807897  0.94590150  0.99687217  1.0
  C  C92  1  0.36556916  0.06775765  0.99070579  1.0
  C  C93  1  0.61109603  0.07132656  0.99713622  1.0
  C  C94  1  0.37427383  0.94015351  0.99164395  1.0
  C  C95  1  0.77348051  0.94274973  0.00009691  1.0
  C  C96  1  0.76538832  0.08544144  0.00096044  1.0
  N  N97  1  0.14841465  0.49198662  0.50186674  1.0
  N  N98  1  0.85630907  0.50206771  0.49298840  1.0
  N  N99  1  0.84792231  0.49867514  0.99438521  1.0
  N  N100  1  0.14021188  0.50765047  0.00011411  1.0
  N  N101  1  0.87256768  0.36137018  0.41542784  1.0
  N  N102  1  0.75790286  0.11072284  0.49868031  1.0
  N  N103  1  0.24150660  0.49284524  0.30776464  1.0
  N  N104  1  0.12787565  0.37795965  0.08322220  1.0
  N  N105  1  0.23834429  0.12160038  0.98882505  1.0
  N  N106  1  0.85080136  0.17189321  0.81670297  1.0
  N  N107  1  0.87234623  0.18159778  0.68303559  1.0
  O  O108  1  0.60700586  0.68155389  0.48947203  1.0
  O  O109  1  0.37662330  0.68465526  0.50667781  1.0
  O  O110  1  0.39220250  0.48758049  0.59178090  1.0
  O  O111  1  0.62393070  0.51193406  0.58976994  1.0
  O  O112  1  0.39082495  0.31857268  0.49050371  1.0
  O  O113  1  0.61929320  0.32077366  0.50681177  1.0
  O  O114  1  0.61268214  0.47600416  0.40357739  1.0
  O  O115  1  0.38540091  0.51712216  0.40799753  1.0
  O  O116  1  0.38307027  0.68948296  0.00053513  1.0
  O  O117  1  0.61588094  0.68921818  0.99365133  1.0
  O  O118  1  0.61079393  0.50047605  0.90483113  1.0
  O  O119  1  0.37902752  0.52207968  0.90152555  1.0
  O  O120  1  0.60731743  0.32218727  0.99977396  1.0
  O  O121  1  0.37746115  0.32880171  0.98698794  1.0
  O  O122  1  0.38397473  0.48713820  0.08824866  1.0
  O  O123  1  0.61483220  0.50902753  0.08928273  1.0
  O  O124  1  0.90699247  0.21005935  0.86227946  1.0
  O  O125  1  0.85059315  0.06542621  0.79991623  1.0
  O  O126  1  0.83249955  0.13376204  0.63628761  1.0
  O  O127  1  0.99072794  0.17624875  0.70230042  1.0
