# generated using pymatgen
data_AlH24C24(N5O2)3
_symmetry_space_group_name_H-M   'P 1'
_cell_length_a   3.86073412
_cell_length_b   15.86497692
_cell_length_c   15.87299405
_cell_angle_alpha   119.38453016
_cell_angle_beta   90.66523017
_cell_angle_gamma   91.68577234
_symmetry_Int_Tables_number   1
_chemical_formula_structural   AlH24C24(N5O2)3
_chemical_formula_sum   'Al1 H24 C24 N15 O6'
_cell_volume   846.40209669
_cell_formula_units_Z   1
loop_
 _symmetry_equiv_pos_site_id
 _symmetry_equiv_pos_as_xyz
  1  'x, y, z'
loop_
 _atom_site_type_symbol
 _atom_site_label
 _atom_site_symmetry_multiplicity
 _atom_site_fract_x
 _atom_site_fract_y
 _atom_site_fract_z
 _atom_site_occupancy
  Al  Al0  1  0.02929357  0.00301655  0.49936385  1.0
  H  H1  1  0.67088984  0.25011261  0.43947205  1.0
  H  H2  1  0.97585292  0.20727231  0.48220858  1.0
  H  H3  1  0.46829315  0.23229353  0.79903824  1.0
  H  H4  1  0.13204643  0.19822448  0.72105671  1.0
  H  H5  1  0.87921213  0.53290921  0.62648609  1.0
  H  H6  1  0.98077695  0.41705549  0.53476125  1.0
  H  H7  1  0.30651618  0.52265256  0.90909491  1.0
  H  H8  1  0.18274511  0.40254462  0.88349177  1.0
  H  H9  1  0.59798653  0.69799554  0.26190936  1.0
  H  H10  1  0.91148866  0.78501598  0.30681097  1.0
  H  H11  1  0.75676925  0.59648914  0.98029487  1.0
  H  H12  1  0.88771446  0.62330199  0.09823675  1.0
  H  H13  1  0.31077073  0.04953156  0.30848075  1.0
  H  H14  1  0.01119660  0.01628988  0.22234597  1.0
  H  H15  1  0.27816269  0.88269325  0.97003212  1.0
  H  H16  1  0.23281677  0.98504830  0.08267796  1.0
  H  H17  1  0.72954202  0.89056142  0.91352660  1.0
  H  H18  1  0.75896784  0.99330652  0.90355483  1.0
  H  H19  1  0.77605890  0.04892735  0.73043568  1.0
  H  H20  1  0.02098116  0.02633387  0.80202471  1.0
  H  H21  1  0.41629135  0.58565602  0.60902384  1.0
  H  H22  1  0.32751127  0.59829775  0.50964970  1.0
  H  H23  1  0.28451765  0.76842225  0.45426271  1.0
  H  H24  1  0.03599983  0.69887351  0.48048725  1.0
  C  C25  1  0.52445476  0.92674022  0.57483806  1.0
  C  C26  1  0.55057513  0.15467401  0.57622680  1.0
  C  C27  1  0.51546321  0.92820962  0.34843394  1.0
  C  C28  1  0.50455028  0.71608765  0.93109439  1.0
  C  C29  1  0.55691515  0.57188799  0.78737268  1.0
  C  C30  1  0.54485814  0.71703880  0.78629342  1.0
  C  C31  1  0.43553485  0.30782474  0.72491471  1.0
  C  C32  1  0.44128893  0.41037783  0.77808052  1.0
  C  C33  1  0.56740608  0.46647428  0.73501130  1.0
  C  C34  1  0.69656941  0.41598133  0.63863640  1.0
  C  C35  1  0.69649030  0.31362398  0.58774924  1.0
  C  C36  1  0.56227876  0.26250290  0.63162509  1.0
  C  C37  1  0.61321920  0.72564822  0.09223367  1.0
  C  C38  1  0.62980763  0.78004335  0.19443832  1.0
  C  C39  1  0.51186307  0.87414079  0.24071053  1.0
  C  C40  1  0.38677604  0.91842960  0.18959545  1.0
  C  C41  1  0.37469238  0.86588607  0.08743492  1.0
  C  C42  1  0.48874753  0.76841265  0.03672689  1.0
  C  C43  1  0.65644386  0.87006281  0.77798867  1.0
  C  C44  1  0.65444365  0.92049693  0.72553312  1.0
  C  C45  1  0.52733867  0.87307708  0.62966815  1.0
  C  C46  1  0.41083881  0.77587711  0.58318652  1.0
  C  C47  1  0.43071168  0.72299440  0.63301376  1.0
  C  C48  1  0.54634868  0.77029988  0.73215191  1.0
  N  N49  1  0.52299815  0.61850503  0.88468754  1.0
  N  N50  1  0.57782906  0.62028515  0.73703838  1.0
  N  N51  1  0.50601451  0.76675215  0.88293434  1.0
  N  N52  1  0.84782978  0.26743838  0.49447118  1.0
  N  N53  1  0.28543386  0.25583992  0.76914903  1.0
  N  N54  1  0.82580713  0.46033753  0.58970482  1.0
  N  N55  1  0.31810277  0.44953025  0.86887444  1.0
  N  N56  1  0.77788038  0.73591880  0.24558008  1.0
  N  N57  1  0.72555104  0.63320234  0.05303102  1.0
  N  N58  1  0.27115965  0.01516175  0.23538823  1.0
  N  N59  1  0.23161895  0.91175664  0.04188724  1.0
  N  N60  1  0.79394612  0.92083265  0.87175673  1.0
  N  N61  1  0.77381873  0.01915616  0.77450029  1.0
  N  N62  1  0.31314838  0.62694555  0.58258757  1.0
  N  N63  1  0.28476503  0.72559690  0.48544308  1.0
  O  O64  1  0.75597070  0.99292082  0.39327676  1.0
  O  O65  1  0.75167685  0.90735205  0.51043153  1.0
  O  O66  1  0.78182974  0.10966197  0.59503675  1.0
  O  O67  1  0.27623136  0.90848334  0.39193020  1.0
  O  O68  1  0.30825571  0.11116541  0.51212371  1.0
  O  O69  1  0.29697996  0.99023590  0.59421328  1.0
