# generated using pymatgen
data_AlH39(C13O2)3
_symmetry_space_group_name_H-M   'P 1'
_cell_length_a   4.23661254
_cell_length_b   16.02957134
_cell_length_c   16.19602770
_cell_angle_alpha   60.34374320
_cell_angle_beta   89.72233378
_cell_angle_gamma   89.43408610
_symmetry_Int_Tables_number   1
_chemical_formula_structural   AlH39(C13O2)3
_chemical_formula_sum   'Al1 H39 C39 O6'
_cell_volume   955.76807263
_cell_formula_units_Z   1
loop_
 _symmetry_equiv_pos_site_id
 _symmetry_equiv_pos_as_xyz
  1  'x, y, z'
loop_
 _atom_site_type_symbol
 _atom_site_label
 _atom_site_symmetry_multiplicity
 _atom_site_fract_x
 _atom_site_fract_y
 _atom_site_fract_z
 _atom_site_occupancy
  Al  Al0  1  0.99993106  0.50082010  0.99842369  1.0
  H  H1  1  0.49997423  0.91979928  0.16048316  1.0
  H  H2  1  0.56825756  0.92068236  0.42362495  1.0
  H  H3  1  0.43187710  0.65583260  0.42363274  1.0
  H  H4  1  0.71897120  0.44344395  0.33274955  1.0
  H  H5  1  0.72692244  0.45063522  0.21987576  1.0
  H  H6  1  0.04938699  0.49286755  0.25684841  1.0
  H  H7  1  0.27183048  0.83588749  0.94600026  1.0
  H  H8  1  0.25824250  0.72170928  0.95365688  1.0
  H  H9  1  0.93425699  0.76246521  0.99286135  1.0
  H  H10  1  0.06984550  0.56628727  0.33848056  1.0
  H  H11  1  0.93056981  0.65462569  0.36485783  1.0
  H  H12  1  0.73883097  0.54220468  0.41354426  1.0
  H  H13  1  0.90148886  0.84161762  0.06698595  1.0
  H  H14  1  0.01718782  0.86150967  0.16022572  1.0
  H  H15  1  0.22652325  0.91649958  0.05102862  1.0
  H  H16  1  0.72812172  0.21821753  0.94601195  1.0
  H  H17  1  0.74168996  0.32472782  0.95370402  1.0
  H  H18  1  0.06571766  0.24477491  0.99290595  1.0
  H  H19  1  0.09842801  0.09150388  0.06697810  1.0
  H  H20  1  0.98278194  0.97838127  0.16021540  1.0
  H  H21  1  0.77336975  0.03257696  0.05103093  1.0
  H  H22  1  0.28100530  0.22386845  0.33280302  1.0
  H  H23  1  0.27299133  0.32956110  0.21993068  1.0
  H  H24  1  0.95056129  0.25033856  0.25690517  1.0
  H  H25  1  0.93010539  0.09530789  0.33846835  1.0
  H  H26  1  0.06938135  0.98059897  0.36483671  1.0
  H  H27  1  0.26109507  0.04433022  0.41355611  1.0
  H  H28  1  0.23832299  0.91646163  0.53951036  1.0
  H  H29  1  0.04758724  0.86223934  0.48113531  1.0
  H  H30  1  0.91296666  0.84001658  0.59354363  1.0
  H  H31  1  0.98374636  0.75573460  0.76556301  1.0
  H  H32  1  0.36346076  0.75029118  0.81182864  1.0
  H  H33  1  0.25703084  0.84865433  0.69989216  1.0
  H  H34  1  0.76207524  0.54426662  0.53943512  1.0
  H  H35  1  0.95265375  0.65687908  0.48109873  1.0
  H  H36  1  0.08744677  0.56668108  0.59348440  1.0
  H  H37  1  0.01646790  0.47882351  0.76552271  1.0
  H  H38  1  0.63676016  0.43800712  0.81176300  1.0
  H  H39  1  0.74314209  0.45162665  0.69981078  1.0
  C  C40  1  0.50476137  0.35403484  0.07214697  1.0
  C  C41  1  0.49991172  0.57330955  0.85342489  1.0
  C  C42  1  0.49507796  0.57394053  0.07211196  1.0
  C  C43  1  0.52058700  0.93478717  0.28484725  1.0
  C  C44  1  0.49997859  0.88132675  0.23744324  1.0
  C  C45  1  0.47937465  0.78047300  0.28485591  1.0
  C  C46  1  0.46738538  0.73298589  0.38504793  1.0
  C  C47  1  0.50005367  0.78139031  0.43736505  1.0
  C  C48  1  0.53263964  0.88210383  0.38504206  1.0
  C  C49  1  0.33673108  0.71635314  0.08822937  1.0
  C  C50  1  0.31569169  0.76325917  0.14216628  1.0
  C  C51  1  0.47813354  0.72686923  0.23013805  1.0
  C  C52  1  0.64871093  0.63916119  0.26386087  1.0
  C  C53  1  0.63886939  0.58664660  0.21527419  1.0
  C  C54  1  0.49021527  0.62716907  0.12669564  1.0
  C  C55  1  0.68428742  0.09468360  0.14217523  1.0
  C  C56  1  0.66323727  0.19552028  0.08825189  1.0
  C  C57  1  0.50973503  0.24620972  0.12672413  1.0
  C  C58  1  0.36104539  0.19816307  0.21531072  1.0
  C  C59  1  0.35123494  0.09708099  0.26387021  1.0
  C  C60  1  0.52182324  0.04309482  0.23013674  1.0
  C  C61  1  0.33648153  0.76402593  0.59709877  1.0
  C  C62  1  0.35788001  0.71812237  0.69688384  1.0
  C  C63  1  0.50008471  0.62640493  0.74728343  1.0
  C  C64  1  0.64231864  0.58512389  0.69686360  1.0
  C  C65  1  0.66377936  0.63903478  0.59707271  1.0
  C  C66  1  0.50012397  0.72775105  0.54465867  1.0
  C  C67  1  0.79051009  0.48847903  0.25812429  1.0
  C  C68  1  0.19347866  0.76127991  0.99034995  1.0
  C  C69  1  0.85672532  0.59859006  0.34982993  1.0
  C  C70  1  0.10600754  0.85042091  0.10308167  1.0
  C  C71  1  0.80646458  0.24847511  0.99037383  1.0
  C  C72  1  0.89390803  0.04659681  0.10308351  1.0
  C  C73  1  0.20940997  0.25346307  0.25817281  1.0
  C  C74  1  0.14319013  0.05166173  0.34982611  1.0
  C  C75  1  0.12420246  0.85048253  0.55024401  1.0
  C  C76  1  0.23431490  0.77082273  0.74612449  1.0
  C  C77  1  0.87617675  0.59950085  0.55019443  1.0
  C  C78  1  0.76590898  0.48318688  0.74607417  1.0
  O  O79  1  0.73104634  0.58753383  0.01785837  1.0
  O  O80  1  0.73777960  0.39639801  0.08467502  1.0
  O  O81  1  0.73623334  0.51857374  0.89582163  1.0
  O  O82  1  0.26209444  0.51904047  0.08464672  1.0
  O  O83  1  0.26348549  0.58564765  0.89578552  1.0
  O  O84  1  0.26879827  0.39467157  0.01789729  1.0
