# generated using pymatgen
data_Zn3H16C33N2O16F
_symmetry_space_group_name_H-M   'P 1'
_cell_length_a   18.50326540
_cell_length_b   18.76247148
_cell_length_c   18.84531349
_cell_angle_alpha   109.66645839
_cell_angle_beta   109.33715222
_cell_angle_gamma   108.77324905
_symmetry_Int_Tables_number   1
_chemical_formula_structural   Zn3H16C33N2O16F
_chemical_formula_sum   'Zn6 H32 C66 N4 O32 F2'
_cell_volume   5075.35445155
_cell_formula_units_Z   2
loop_
 _symmetry_equiv_pos_site_id
 _symmetry_equiv_pos_as_xyz
  1  'x, y, z'
loop_
 _atom_site_type_symbol
 _atom_site_label
 _atom_site_symmetry_multiplicity
 _atom_site_fract_x
 _atom_site_fract_y
 _atom_site_fract_z
 _atom_site_occupancy
  Zn  Zn0  1  0.07180524  0.07883581  0.50245829  1.0
  Zn  Zn1  1  0.94686496  0.94503582  0.49239574  1.0
  Zn  Zn2  1  0.48322285  0.92885506  0.93810855  1.0
  Zn  Zn3  1  0.48471805  0.05255389  0.06506038  1.0
  Zn  Zn4  1  0.06326956  0.49213982  0.07149960  1.0
  Zn  Zn5  1  0.93397931  0.48352572  0.94218382  1.0
  H  H6  1  0.40047881  0.05094878  0.57009283  1.0
  H  H7  1  0.09008334  0.05562946  0.72046317  1.0
  H  H8  1  0.05581415  0.03581474  0.83128078  1.0
  H  H9  1  0.26229737  0.97559659  0.91335208  1.0
  H  H10  1  0.45579925  0.99139777  0.77698746  1.0
  H  H11  1  0.49318578  0.01819610  0.67144373  1.0
  H  H12  1  0.27380096  0.06094597  0.57807174  1.0
  H  H13  1  0.87678477  0.73230347  0.24238127  1.0
  H  H14  1  0.89074969  0.62519561  0.13646009  1.0
  H  H15  1  0.23890587  0.79107479  0.35333446  1.0
  H  H16  1  0.23327283  0.83898832  0.28560466  1.0
  H  H17  1  0.22455922  0.90624461  0.45401269  1.0
  H  H18  1  0.21834165  0.95395870  0.38605168  1.0
  H  H19  1  0.77644268  0.88033610  0.24381508  1.0
  H  H20  1  0.65061848  0.85336188  0.11734491  1.0
  H  H21  1  0.75602802  0.19353157  0.27352814  1.0
  H  H22  1  0.94021473  0.21392986  0.32407349  1.0
  H  H23  1  0.89301780  0.22238526  0.39340202  1.0
  H  H24  1  0.95223608  0.07083152  0.74912745  1.0
  H  H25  1  0.01239353  0.40023841  0.75604841  1.0
  H  H26  1  0.00028804  0.28775918  0.62315437  1.0
  H  H27  1  0.67092940  0.30888072  0.11088707  1.0
  H  H28  1  0.74363549  0.16218707  0.82722701  1.0
  H  H29  1  0.82790231  0.16895561  0.91533377  1.0
  H  H30  1  0.62941320  0.05210518  0.83602881  1.0
  H  H31  1  0.71515748  0.05991092  0.92310241  1.0
  H  H32  1  0.20042946  0.87341829  0.00178771  1.0
  H  H33  1  0.07915494  0.74084732  0.96999221  1.0
  H  H34  1  0.30628229  0.62730639  0.06407226  1.0
  H  H35  1  0.26418493  0.57328373  0.94976528  1.0
  H  H36  1  0.42551431  0.75413122  0.08008221  1.0
  H  H37  1  0.38018728  0.70212077  0.96512094  1.0
  C  C38  1  0.00597583  0.88465801  0.38598557  1.0
  C  C39  1  0.15200806  0.04183340  0.61900205  1.0
  C  C40  1  0.98014317  0.08959570  0.61783435  1.0
  C  C41  1  0.91410190  0.03077922  0.37849192  1.0
  C  C42  1  0.12786731  0.03758037  0.76171044  1.0
  C  C43  1  0.10790538  0.02653401  0.82227369  1.0
  C  C44  1  0.15783592  0.00287762  0.87535667  1.0
  C  C45  1  0.22587933  0.99223846  0.86945800  1.0
  C  C46  1  0.24884582  0.00465290  0.80776675  1.0
  C  C47  1  0.19697718  0.02592259  0.75078460  1.0
  C  C48  1  0.31933389  0.99524169  0.79995092  1.0
  C  C49  1  0.34174536  0.00989142  0.73947085  1.0
  C  C50  1  0.28959121  0.03134941  0.68231990  1.0
  C  C51  1  0.21673076  0.03632512  0.68739581  1.0
  C  C52  1  0.41584184  0.00646203  0.73372824  1.0
  C  C53  1  0.43635221  0.02118023  0.67460282  1.0
  C  C54  1  0.38397393  0.04000709  0.61729736  1.0
  C  C55  1  0.31281526  0.04497168  0.62106305  1.0
  C  C56  1  0.09715413  0.83222802  0.33153727  1.0
  C  C57  1  0.01604155  0.82106913  0.32335033  1.0
  C  C58  1  0.94170231  0.74407955  0.25153697  1.0
  C  C59  1  0.94942255  0.68314978  0.19202415  1.0
  C  C60  1  0.03188831  0.69161568  0.20430639  1.0
  C  C61  1  0.10514697  0.76790149  0.27544183  1.0
  C  C62  1  0.20461908  0.81986418  0.32316317  1.0
  C  C63  1  0.19543435  0.89244803  0.38662272  1.0
  C  C64  1  0.83741837  0.08651304  0.28871394  1.0
  C  C65  1  0.84363871  0.01921321  0.30122039  1.0
  C  C66  1  0.77402134  0.93501419  0.23690090  1.0
  C  C67  1  0.70238547  0.91970725  0.16582145  1.0
  C  C68  1  0.69341131  0.98855638  0.15763301  1.0
  C  C69  1  0.76317524  0.07121291  0.22077757  1.0
  C  C70  1  0.79443869  0.16642328  0.25266530  1.0
  C  C71  1  0.88080514  0.18440979  0.32780803  1.0
  C  C72  1  0.02462150  0.24222396  0.71994314  1.0
  C  C73  1  0.99172539  0.15511610  0.69843484  1.0
  C  C74  1  0.97589236  0.13658243  0.75944810  1.0
  C  C75  1  0.98977123  0.20161253  0.83518705  1.0
  C  C76  1  0.01603710  0.28805367  0.85404543  1.0
  C  C77  1  0.03423402  0.30477619  0.79331102  1.0
  C  C78  1  0.05830305  0.37489443  0.76921120  1.0
  C  C79  1  0.04991244  0.30408365  0.68653946  1.0
  C  C80  1  0.59715583  0.13003526  0.02171503  1.0
  C  C81  1  0.37513405  0.97772773  0.86285417  1.0
  C  C82  1  0.36439231  0.89705189  0.02028278  1.0
  C  C83  1  0.61199000  0.97545132  0.09039593  1.0
  C  C84  1  0.86183781  0.38613644  0.00093463  1.0
  C  C85  1  0.03336936  0.61929313  0.14139745  1.0
  C  C86  1  0.08389931  0.59511626  0.97040446  1.0
  C  C87  1  0.01819963  0.35978586  0.92381898  1.0
  C  C88  1  0.69455213  0.17302668  0.96070158  1.0
  C  C89  1  0.66128580  0.19625058  0.01595349  1.0
  C  C90  1  0.69359874  0.28520844  0.06623269  1.0
  C  C91  1  0.75619638  0.34544946  0.06066523  1.0
  C  C92  1  0.79186617  0.32300517  0.00627581  1.0
  C  C93  1  0.75743855  0.23424298  0.95615823  1.0
  C  C94  1  0.76373362  0.16591435  0.89072486  1.0
  C  C95  1  0.69260429  0.09713395  0.89611721  1.0
  C  C96  1  0.30141832  0.75266519  0.00949025  1.0
  C  C97  1  0.29228879  0.82423528  0.01193420  1.0
  C  C98  1  0.21085235  0.81889459  0.99956163  1.0
  C  C99  1  0.14217457  0.74378523  0.98194514  1.0
  C  C100  1  0.15285617  0.67244488  0.98137242  1.0
  C  C101  1  0.23518000  0.68051250  0.99793437  1.0
  C  C102  1  0.28988988  0.63546954  0.00677796  1.0
  C  C103  1  0.36428725  0.71641423  0.01770645  1.0
  N  N104  1  0.81151312  0.20016146  0.19399338  1.0
  N  N105  1  0.97297793  0.17454717  0.89585750  1.0
  N  N106  1  0.78650023  0.43715674  0.11572961  1.0
  N  N107  1  0.13560439  0.98893884  0.93935986  1.0
  O  O108  1  0.05704791  0.96494777  0.41753015  1.0
  O  O109  1  0.94566431  0.85341516  0.40394535  1.0
  O  O110  1  0.17697792  0.10198592  0.60012160  1.0
  O  O111  1  0.07318228  0.98264562  0.58217344  1.0
  O  O112  1  0.02202063  0.12049541  0.58459734  1.0
  O  O113  1  0.93130670  0.00841004  0.58854992  1.0
  O  O114  1  0.99320733  0.09144063  0.41309697  1.0
  O  O115  1  0.88954401  0.97804266  0.40463404  1.0
  O  O116  1  0.57081917  0.05149298  0.96970996  1.0
  O  O117  1  0.57294808  0.15539742  0.07798507  1.0
  O  O118  1  0.39546992  0.91849531  0.83508828  1.0
  O  O119  1  0.40031529  0.02509379  0.94190721  1.0
  O  O120  1  0.39844216  0.87384082  0.97424318  1.0
  O  O121  1  0.38911741  0.97634334  0.07166704  1.0
  O  O122  1  0.57863726  0.91785663  0.01130614  1.0
  O  O123  1  0.58204245  0.02412465  0.11862726  1.0
  O  O124  1  0.94061735  0.40894521  0.04952866  1.0
  O  O125  1  0.83425960  0.40463754  0.94092122  1.0
  O  O126  1  0.09041036  0.59602827  0.16980931  1.0
  O  O127  1  0.97589413  0.58294981  0.06248160  1.0
  O  O128  1  0.11027754  0.56159274  0.01483911  1.0
  O  O129  1  0.00225521  0.56630859  0.91824934  1.0
  O  O130  1  0.07676109  0.39670984  0.00279688  1.0
  O  O131  1  0.96143445  0.38035640  0.89243786  1.0
  O  O132  1  0.79572705  0.14771308  0.12257709  1.0
  O  O133  1  0.84118790  0.27914487  0.22306952  1.0
  O  O134  1  0.96447725  0.22398769  0.95156944  1.0
  O  O135  1  0.96834828  0.10446204  0.88713019  1.0
  O  O136  1  0.84752354  0.49051177  0.11582913  1.0
  O  O137  1  0.75067439  0.45686437  0.15844687  1.0
  O  O138  1  0.06342057  0.98009401  0.93107467  1.0
  O  O139  1  0.19017016  0.98683445  0.99764554  1.0
  F  F140  1  0.14271264  0.44542828  0.82552205  1.0
  F  F141  1  0.12915960  0.32418042  0.68670049  1.0
