# generated using pymatgen
data_Zn4H18C27O16
_symmetry_space_group_name_H-M   'P 1'
_cell_length_a   15.81536475
_cell_length_b   16.43007684
_cell_length_c   16.80314973
_cell_angle_alpha   114.25910595
_cell_angle_beta   116.32185395
_cell_angle_gamma   63.68913182
_symmetry_Int_Tables_number   1
_chemical_formula_structural   Zn4H18C27O16
_chemical_formula_sum   'Zn8 H36 C54 O32'
_cell_volume   3381.00305025
_cell_formula_units_Z   2
loop_
 _symmetry_equiv_pos_site_id
 _symmetry_equiv_pos_as_xyz
  1  'x, y, z'
loop_
 _atom_site_type_symbol
 _atom_site_label
 _atom_site_symmetry_multiplicity
 _atom_site_fract_x
 _atom_site_fract_y
 _atom_site_fract_z
 _atom_site_occupancy
  Zn  Zn0  1  0.05406333  0.86236745  0.94054712  1.0
  Zn  Zn1  1  0.04182334  0.06285154  0.94552203  1.0
  Zn  Zn2  1  0.09962713  0.01897494  0.13478555  1.0
  Zn  Zn3  1  0.87890479  0.05157299  0.99835277  1.0
  Zn  Zn4  1  0.48167737  0.63456457  0.51496843  1.0
  Zn  Zn5  1  0.43417905  0.48497950  0.54735177  1.0
  Zn  Zn6  1  0.65417326  0.44630475  0.56094587  1.0
  Zn  Zn7  1  0.48697579  0.43477689  0.36297644  1.0
  H  H8  1  0.25692371  0.72126418  0.86563998  1.0
  H  H9  1  0.38805194  0.69385843  0.89339402  1.0
  H  H10  1  0.30854345  0.81365608  0.90138552  1.0
  H  H11  1  0.19207889  0.80176820  0.50659648  1.0
  H  H12  1  0.04475914  0.93504879  0.54502402  1.0
  H  H13  1  0.02586928  0.97095797  0.69667678  1.0
  H  H14  1  0.15198185  0.71370258  0.12110256  1.0
  H  H15  1  0.12957810  0.72254664  0.22031534  1.0
  H  H16  1  0.13377078  0.82421348  0.20846896  1.0
  H  H17  1  0.58761610  0.59270414  0.25642202  1.0
  H  H18  1  0.55928273  0.66652168  0.13876778  1.0
  H  H19  1  0.38875742  0.76708216  0.06997014  1.0
  H  H20  1  0.72966264  0.68979003  0.59732783  1.0
  H  H21  1  0.85581594  0.68350694  0.62726005  1.0
  H  H22  1  0.83107177  0.60580494  0.65775393  1.0
  H  H23  1  0.62431712  0.65805046  0.82083870  1.0
  H  H24  1  0.66417676  0.76729267  0.97763874  1.0
  H  H25  1  0.76900120  0.86444894  0.01506082  1.0
  H  H26  1  0.37155584  0.23151692  0.36971837  1.0
  H  H27  1  0.41555079  0.11994952  0.29358868  1.0
  H  H28  1  0.44110456  0.22056951  0.30318410  1.0
  H  H29  1  0.13609778  0.52141631  0.35531423  1.0
  H  H30  1  0.97126283  0.50251085  0.24806046  1.0
  H  H31  1  0.96519197  0.34590732  0.13450451  1.0
  H  H32  1  0.91184542  0.25557439  0.86115363  1.0
  H  H33  1  0.84474473  0.37929360  0.88665504  1.0
  H  H34  1  0.81700674  0.30098483  0.91376892  1.0
  H  H35  1  0.51899882  0.20038549  0.54562222  1.0
  H  H36  1  0.56701644  0.05818165  0.59733287  1.0
  H  H37  1  0.70878803  0.03510603  0.74100411  1.0
  H  H38  1  0.79803641  0.28234690  0.14804445  1.0
  H  H39  1  0.77778171  0.39223885  0.23520004  1.0
  H  H40  1  0.88993059  0.29614167  0.26025263  1.0
  H  H41  1  0.79041247  0.17618279  0.47124158  1.0
  H  H42  1  0.93052260  0.03054868  0.43620203  1.0
  H  H43  1  0.99256862  0.00816269  0.31331864  1.0
  C  C44  1  0.31413762  0.73965366  0.86288098  1.0
  C  C45  1  0.23505425  0.77841661  0.71548039  1.0
  C  C46  1  0.24722113  0.76051966  0.63026136  1.0
  C  C47  1  0.17900158  0.81726301  0.57050584  1.0
  C  C48  1  0.09795646  0.89176519  0.59232112  1.0
  C  C49  1  0.08731920  0.91143167  0.67667274  1.0
  C  C50  1  0.15378582  0.85561284  0.73814299  1.0
  C  C51  1  0.12638768  0.88748546  0.82340485  1.0
  C  C52  1  0.33225640  0.68384043  0.60007233  1.0
  C  C53  1  0.16500992  0.74714506  0.19536146  1.0
  C  C54  1  0.33836724  0.71043662  0.21405065  1.0
  C  C55  1  0.43496598  0.65310871  0.25221901  1.0
  C  C56  1  0.51371584  0.63739947  0.22546996  1.0
  C  C57  1  0.49778559  0.67806214  0.15951781  1.0
  C  C58  1  0.40249689  0.73396170  0.12090380  1.0
  C  C59  1  0.32233089  0.75178453  0.14791986  1.0
  C  C60  1  0.22650389  0.82148862  0.10805042  1.0
  C  C61  1  0.45230995  0.60935793  0.32319056  1.0
  C  C62  1  0.80393388  0.67692349  0.64916829  1.0
  C  C63  1  0.76649116  0.74488703  0.79324046  1.0
  C  C64  1  0.70518080  0.69247278  0.77139784  1.0
  C  C65  1  0.67118997  0.69981525  0.83916981  1.0
  C  C66  1  0.69310108  0.76097939  0.92665613  1.0
  C  C67  1  0.75168651  0.81470457  0.94768472  1.0
  C  C68  1  0.79056444  0.80496829  0.88302899  1.0
  C  C69  1  0.85788196  0.86040224  0.91212110  1.0
  C  C70  1  0.66454877  0.63248423  0.67761546  1.0
  C  C71  1  0.38673772  0.19649182  0.30359689  1.0
  C  C72  1  0.21715019  0.29166896  0.23874502  1.0
  C  C73  1  0.22060549  0.38048051  0.30036399  1.0
  C  C74  1  0.13124935  0.45425886  0.30498582  1.0
  C  C75  1  0.03952112  0.44356931  0.24523773  1.0
  C  C76  1  0.03617076  0.35649859  0.18185168  1.0
  C  C77  1  0.12362552  0.28031700  0.18065871  1.0
  C  C78  1  0.11574992  0.18497922  0.12191426  1.0
  C  C79  1  0.31418439  0.40526116  0.35857834  1.0
  C  C80  1  0.83953275  0.30850191  0.86449891  1.0
  C  C81  1  0.72175794  0.23361204  0.73369936  1.0
  C  C82  1  0.63850438  0.24808199  0.65380563  1.0
  C  C83  1  0.58334315  0.18589623  0.60599729  1.0
  C  C84  1  0.60927185  0.10746723  0.63526010  1.0
  C  C85  1  0.68876836  0.09438323  0.71513162  1.0
  C  C86  1  0.74598577  0.15572275  0.76462877  1.0
  C  C87  1  0.83072828  0.12868270  0.84687196  1.0
  C  C88  1  0.60616215  0.33179788  0.62011180  1.0
  C  C89  1  0.80971659  0.31532757  0.22196048  1.0
  C  C90  1  0.80596404  0.21590381  0.29430648  1.0
  C  C91  1  0.77268887  0.22865347  0.36509762  1.0
  C  C92  1  0.81680844  0.16272632  0.41560896  1.0
  C  C93  1  0.89574498  0.08227991  0.39686643  1.0
  C  C94  1  0.93018494  0.06965547  0.32837365  1.0
  C  C95  1  0.88547043  0.13412809  0.27482053  1.0
  C  C96  1  0.92301179  0.10497404  0.19678893  1.0
  C  C97  1  0.69331141  0.31711456  0.39261827  1.0
  O  O98  1  0.01901042  0.99679757  0.00476145  1.0
  O  O99  1  0.30782662  0.72206948  0.76994013  1.0
  O  O100  1  0.13282711  0.96832912  0.87637694  1.0
  O  O101  1  0.09226703  0.83594838  0.83293706  1.0
  O  O102  1  0.36671747  0.60564399  0.61996780  1.0
  O  O103  1  0.36221545  0.70318498  0.55250909  1.0
  O  O104  1  0.26886681  0.71856451  0.24640203  1.0
  O  O105  1  0.20368219  0.90302839  0.16311369  1.0
  O  O106  1  0.17947764  0.79515151  0.02292209  1.0
  O  O107  1  0.45588316  0.52363408  0.29522612  1.0
  O  O108  1  0.46388769  0.66239768  0.40521378  1.0
  O  O109  1  0.80348510  0.74713717  0.73522245  1.0
  O  O110  1  0.82245370  0.94874109  0.94580219  1.0
  O  O111  1  0.94487995  0.81516730  0.90476662  1.0
  O  O112  1  0.70266816  0.54344625  0.66612018  1.0
  O  O113  1  0.59219159  0.67563701  0.61968860  1.0
  O  O114  1  0.29673421  0.21351710  0.22775020  1.0
  O  O115  1  0.15007896  0.12134766  0.16302522  1.0
  O  O116  1  0.07106204  0.17665912  0.03553850  1.0
  O  O117  1  0.37382005  0.38815570  0.31738312  1.0
  O  O118  1  0.32333291  0.44528917  0.44349887  1.0
  O  O119  1  0.76549467  0.30198804  0.77540341  1.0
  O  O120  1  0.80713977  0.12926764  0.91066294  1.0
  O  O121  1  0.91888714  0.10239293  0.84471150  1.0
  O  O122  1  0.67078533  0.34445770  0.60480585  1.0
  O  O123  1  0.51460548  0.38216571  0.60737929  1.0
  O  O124  1  0.75828477  0.28831249  0.25408842  1.0
  O  O125  1  0.01645162  0.06222760  0.21233898  1.0
  O  O126  1  0.85961784  0.11995524  0.11954612  1.0
  O  O127  1  0.60350008  0.32497972  0.34124561  1.0
  O  O128  1  0.72347952  0.37554908  0.46822171  1.0
  O  O129  1  0.51361773  0.49968366  0.49472133  1.0
