# generated using pymatgen
data_AlH7C16Cl2O5
_symmetry_space_group_name_H-M   'P 1'
_cell_length_a   6.62698153
_cell_length_b   23.94313309
_cell_length_c   25.14142331
_cell_angle_alpha   89.99508644
_cell_angle_beta   90.41159835
_cell_angle_gamma   89.70089471
_symmetry_Int_Tables_number   1
_chemical_formula_structural   AlH7C16Cl2O5
_chemical_formula_sum   'Al4 H28 C64 Cl8 O20'
_cell_volume   3989.04993486
_cell_formula_units_Z   4
loop_
 _symmetry_equiv_pos_site_id
 _symmetry_equiv_pos_as_xyz
  1  'x, y, z'
loop_
 _atom_site_type_symbol
 _atom_site_label
 _atom_site_symmetry_multiplicity
 _atom_site_fract_x
 _atom_site_fract_y
 _atom_site_fract_z
 _atom_site_occupancy
  Al  Al0  1  0.86676928  0.99785759  0.49842785  1.0
  Al  Al1  1  0.36639837  0.00399827  0.49886450  1.0
  Al  Al2  1  0.14358668  0.49698572  0.00319128  1.0
  Al  Al3  1  0.64247431  0.50450304  0.00144902  1.0
  H  H4  1  0.10163740  0.06851815  0.52368106  1.0
  H  H5  1  0.60425901  0.93192770  0.52078659  1.0
  H  H6  1  0.40829440  0.43353479  0.97623777  1.0
  H  H7  1  0.91117787  0.57104816  0.98319907  1.0
  H  H8  1  0.54055750  0.37839647  0.09188716  1.0
  H  H9  1  0.48476225  0.30277613  0.15885974  1.0
  H  H10  1  0.15916440  0.39223431  0.14374364  1.0
  H  H11  1  0.33601469  0.09941913  0.35555322  1.0
  H  H12  1  0.95161091  0.12755356  0.40443550  1.0
  H  H13  1  0.98423362  0.20107547  0.33430764  1.0
  H  H14  1  0.04476070  0.62169144  0.90637349  1.0
  H  H15  1  0.98016701  0.69303567  0.83610545  1.0
  H  H16  1  0.65978850  0.60515429  0.85472153  1.0
  H  H17  1  0.83527084  0.90444825  0.64503333  1.0
  H  H18  1  0.43554977  0.86613045  0.59145806  1.0
  H  H19  1  0.46917429  0.79351906  0.66216811  1.0
  H  H20  1  0.65405732  0.64648775  0.10336543  1.0
  H  H21  1  0.60310377  0.72019041  0.17252965  1.0
  H  H22  1  0.07587912  0.57668369  0.14149789  1.0
  H  H23  1  0.43924169  0.92572372  0.36052311  1.0
  H  H24  1  0.86137892  0.85436194  0.39646581  1.0
  H  H25  1  0.91911582  0.78069411  0.32757801  1.0
  H  H26  1  0.57125333  0.36805838  0.91224766  1.0
  H  H27  1  0.52363866  0.29574165  0.84208778  1.0
  H  H28  1  0.17023678  0.40006688  0.85495523  1.0
  H  H29  1  0.34292466  0.10116317  0.64672622  1.0
  H  H30  1  0.94318039  0.13208823  0.58982558  1.0
  H  H31  1  0.99434225  0.20293337  0.66115886  1.0
  C  C32  1  0.61616039  0.07016525  0.57030860  1.0
  C  C33  1  0.62784241  0.06729563  0.42754244  1.0
  C  C34  1  0.12986468  0.93539633  0.42685715  1.0
  C  C35  1  0.11587944  0.93175215  0.57019031  1.0
  C  C36  1  0.89461558  0.43151106  0.93071802  1.0
  C  C37  1  0.87737528  0.43345881  0.07249354  1.0
  C  C38  1  0.38130031  0.56614445  0.07396803  1.0
  C  C39  1  0.38859390  0.56917968  0.93016893  1.0
  C  C40  1  0.85295522  0.38918203  0.11350953  1.0
  C  C41  1  0.66224347  0.36440483  0.11813264  1.0
  C  C42  1  0.63101969  0.32287628  0.15539920  1.0
  C  C43  1  0.78653237  0.30651225  0.19093659  1.0
  C  C44  1  0.97679998  0.33287472  0.18636488  1.0
  C  C45  1  0.01146763  0.37282330  0.14723589  1.0
  C  C46  1  0.74940730  0.26553399  0.22988097  1.0
  C  C47  1  0.71095721  0.23003885  0.26311512  1.0
  C  C48  1  0.68346602  0.18981863  0.30336403  1.0
  C  C49  1  0.50113782  0.15987233  0.30954308  1.0
  C  C50  1  0.47826194  0.12139049  0.35060862  1.0
  C  C51  1  0.64174576  0.10979175  0.38449474  1.0
  C  C52  1  0.82551835  0.13782311  0.37808940  1.0
  C  C53  1  0.84404321  0.17818535  0.33905721  1.0
  C  C54  1  0.35663610  0.60988100  0.88578796  1.0
  C  C55  1  0.16459316  0.63422349  0.87964589  1.0
  C  C56  1  0.12830120  0.67370685  0.84058790  1.0
  C  C57  1  0.28179677  0.68949019  0.80506464  1.0
  C  C58  1  0.47302598  0.66313354  0.81041548  1.0
  C  C59  1  0.51117634  0.62443490  0.85071824  1.0
  C  C60  1  0.24208808  0.73055177  0.76617061  1.0
  C  C61  1  0.20108526  0.76702205  0.73385590  1.0
  C  C62  1  0.17376763  0.80825691  0.69438837  1.0
  C  C63  1  0.99515045  0.84068513  0.68921326  1.0
  C  C64  1  0.97401329  0.88016530  0.64883894  1.0
  C  C65  1  0.13324254  0.88939307  0.61357309  1.0
  C  C66  1  0.31259318  0.85841404  0.61889663  1.0
  C  C67  1  0.33151071  0.81817815  0.65811812  1.0
  C  C68  1  0.36636974  0.60782282  0.11776251  1.0
  C  C69  1  0.51705159  0.64762495  0.12705019  1.0
  C  C70  1  0.48886211  0.68842697  0.16558946  1.0
  C  C71  1  0.31207540  0.68998288  0.19676416  1.0
  C  C72  1  0.16615795  0.64770069  0.18833713  1.0
  C  C73  1  0.19147417  0.60789788  0.14885297  1.0
  C  C74  1  0.27941329  0.73250631  0.23452096  1.0
  C  C75  1  0.24505109  0.76957963  0.26657363  1.0
  C  C76  1  0.20972661  0.81196095  0.30428775  1.0
  C  C77  1  0.35378095  0.85459246  0.31325362  1.0
  C  C78  1  0.32493688  0.89427915  0.35265691  1.0
  C  C79  1  0.14820355  0.89386132  0.38303205  1.0
  C  C80  1  0.99951485  0.85364793  0.37323159  1.0
  C  C81  1  0.03145991  0.81288842  0.33486640  1.0
  C  C82  1  0.87313172  0.38849638  0.88806798  1.0
  C  C83  1  0.69090634  0.35906635  0.88408458  1.0
  C  C84  1  0.66417909  0.31890667  0.84520371  1.0
  C  C85  1  0.81726167  0.30745423  0.80788719  1.0
  C  C86  1  0.00003421  0.33773806  0.81213757  1.0
  C  C87  1  0.02867436  0.37728330  0.85212077  1.0
  C  C88  1  0.78186763  0.26708677  0.76813668  1.0
  C  C89  1  0.73639424  0.23178645  0.73518263  1.0
  C  C90  1  0.69995571  0.19184484  0.69510303  1.0
  C  C91  1  0.51587743  0.16223808  0.69044051  1.0
  C  C92  1  0.48538683  0.12347421  0.64986060  1.0
  C  C93  1  0.64004466  0.11240282  0.61360797  1.0
  C  C94  1  0.82384133  0.14106211  0.61808799  1.0
  C  C95  1  0.85262775  0.18037971  0.65766003  1.0
  Cl  Cl96  1  0.16771484  0.31534752  0.23048766  1.0
  Cl  Cl97  1  0.30538014  0.17101398  0.26505452  1.0
  Cl  Cl98  1  0.66126396  0.67985830  0.76610257  1.0
  Cl  Cl99  1  0.80145385  0.83106412  0.73379877  1.0
  Cl  Cl100  1  0.95211093  0.64598210  0.22705209  1.0
  Cl  Cl101  1  0.56953683  0.85691798  0.27524678  1.0
  Cl  Cl102  1  0.18985249  0.32544860  0.76687201  1.0
  Cl  Cl103  1  0.32674150  0.17438092  0.73593461  1.0
  O  O104  1  0.77837454  0.05638291  0.54665689  1.0
  O  O105  1  0.45872003  0.05993070  0.45027148  1.0
  O  O106  1  0.29017836  0.96188417  0.43842094  1.0
  O  O107  1  0.94083133  0.95103482  0.55882546  1.0
  O  O108  1  0.96123910  0.94106350  0.45054180  1.0
  O  O109  1  0.27974743  0.94491813  0.54714888  1.0
  O  O110  1  0.44049732  0.05142379  0.55948114  1.0
  O  O111  1  0.79182684  0.04201927  0.43902512  1.0
  O  O112  1  0.11258527  0.03577752  0.50121492  1.0
  O  O113  1  0.61300971  0.96622214  0.50049811  1.0
  O  O114  1  0.07006675  0.44983825  0.94230767  1.0
  O  O115  1  0.71728857  0.46050501  0.06102854  1.0
  O  O116  1  0.54715165  0.56135326  0.04881601  1.0
  O  O117  1  0.23000690  0.55600644  0.95557276  1.0
  O  O118  1  0.22169450  0.53863643  0.06388049  1.0
  O  O119  1  0.56660263  0.55124697  0.94039158  1.0
  O  O120  1  0.73093033  0.44621499  0.95316442  1.0
  O  O121  1  0.04952953  0.44053485  0.05113392  1.0
  O  O122  1  0.39802759  0.46559491  0.99960740  1.0
  O  O123  1  0.89731238  0.53537328  0.00091067  1.0
