# generated using pymatgen
data_AlH12C24(NO3)3
_symmetry_space_group_name_H-M   'P 1'
_cell_length_a   3.95366565
_cell_length_b   15.76759874
_cell_length_c   15.81159957
_cell_angle_alpha   60.11468460
_cell_angle_beta   87.65509279
_cell_angle_gamma   87.12870586
_symmetry_Int_Tables_number   1
_chemical_formula_structural   AlH12C24(NO3)3
_chemical_formula_sum   'Al1 H12 C24 N3 O9'
_cell_volume   853.40142817
_cell_formula_units_Z   1
loop_
 _symmetry_equiv_pos_site_id
 _symmetry_equiv_pos_as_xyz
  1  'x, y, z'
loop_
 _atom_site_type_symbol
 _atom_site_label
 _atom_site_symmetry_multiplicity
 _atom_site_fract_x
 _atom_site_fract_y
 _atom_site_fract_z
 _atom_site_occupancy
  Al  Al0  1  0.93242698  0.50156134  0.49967496  1.0
  H  H1  1  0.10748768  0.75036471  0.52704376  1.0
  H  H2  1  0.13815839  0.84683871  0.61342837  1.0
  H  H3  1  0.69409339  0.60546229  0.84414198  1.0
  H  H4  1  0.75722485  0.04478220  0.60883415  1.0
  H  H5  1  0.16315594  0.23512803  0.74749007  1.0
  H  H6  1  0.19068920  0.05154595  0.84461235  1.0
  H  H7  1  0.71329485  0.84708432  0.04678793  1.0
  H  H8  1  0.19012806  0.52178503  0.23165477  1.0
  H  H9  1  0.21861960  0.60857639  0.04857995  1.0
  H  H10  1  0.75510446  0.47917565  0.71194334  1.0
  H  H11  1  0.82117082  0.30248825  0.48274231  1.0
  H  H12  1  0.77123151  0.71608007  0.30405019  1.0
  C  C13  1  0.43959581  0.57918819  0.34825977  1.0
  C  C14  1  0.40365418  0.57545872  0.57807060  1.0
  C  C15  1  0.44774519  0.34954964  0.57373305  1.0
  C  C16  1  0.46433172  0.93008625  0.78560101  1.0
  C  C17  1  0.43420718  0.78603951  0.78682310  1.0
  C  C18  1  0.46095813  0.78691426  0.92974438  1.0
  C  C19  1  0.24313336  0.72103610  0.59511650  1.0
  C  C20  1  0.25710623  0.77408827  0.64300577  1.0
  C  C21  1  0.41781592  0.73129439  0.73376761  1.0
  C  C22  1  0.56893358  0.63782944  0.77420278  1.0
  C  C23  1  0.57973897  0.58719917  0.72234788  1.0
  C  C24  1  0.40871204  0.62846902  0.63221159  1.0
  C  C25  1  0.63242078  0.08617097  0.64022027  1.0
  C  C26  1  0.64635374  0.18843610  0.58977719  1.0
  C  C27  1  0.46856977  0.24238723  0.62852151  1.0
  C  C28  1  0.30071844  0.19217102  0.71977256  1.0
  C  C29  1  0.31283098  0.09108999  0.77306324  1.0
  C  C30  1  0.47215861  0.03812827  0.73150865  1.0
  C  C31  1  0.60359373  0.77521199  0.08702513  1.0
  C  C32  1  0.61491922  0.72362856  0.18906408  1.0
  C  C33  1  0.45825819  0.63181774  0.24145783  1.0
  C  C34  1  0.31155924  0.59182479  0.18990636  1.0
  C  C35  1  0.32428070  0.63973384  0.08915292  1.0
  C  C36  1  0.46457838  0.73308875  0.03756510  1.0
  N  N37  1  0.44370442  0.88422650  0.73354079  1.0
  N  N38  1  0.44132180  0.73400427  0.88478089  1.0
  N  N39  1  0.47441317  0.88509399  0.88349037  1.0
  O  O40  1  0.20046519  0.39379302  0.59172256  1.0
  O  O41  1  0.20908571  0.51712118  0.39177025  1.0
  O  O42  1  0.17108663  0.59484905  0.51679526  1.0
  O  O43  1  0.68042953  0.39528376  0.50796878  1.0
  O  O44  1  0.64111518  0.50875585  0.59615012  1.0
  O  O45  1  0.65808607  0.59893792  0.39470036  1.0
  O  O46  1  0.74947410  0.49983045  0.76190900  1.0
  O  O47  1  0.82103805  0.23169243  0.50422342  1.0
  O  O48  1  0.76776185  0.76524734  0.23349361  1.0
