# generated using pymatgen
data_Zn4H6C25S4Cl2O15
_symmetry_space_group_name_H-M   'P 1'
_cell_length_a   19.63390012
_cell_length_b   19.68241663
_cell_length_c   33.28308097
_cell_angle_alpha   79.16664880
_cell_angle_beta   79.30941841
_cell_angle_gamma   64.07515425
_symmetry_Int_Tables_number   1
_chemical_formula_structural   Zn4H6C25S4Cl2O15
_chemical_formula_sum   'Zn16 H24 C100 S16 Cl8 O60'
_cell_volume   11283.51042509
_cell_formula_units_Z   4
loop_
 _symmetry_equiv_pos_site_id
 _symmetry_equiv_pos_as_xyz
  1  'x, y, z'
loop_
 _atom_site_type_symbol
 _atom_site_label
 _atom_site_symmetry_multiplicity
 _atom_site_fract_x
 _atom_site_fract_y
 _atom_site_fract_z
 _atom_site_occupancy
  Zn  Zn0  1  0.05612515  0.40043372  0.47911309  1.0
  Zn  Zn1  1  0.98501716  0.48382099  0.55998582  1.0
  Zn  Zn2  1  0.05639050  0.56488203  0.48247464  1.0
  Zn  Zn3  1  0.90002897  0.55501672  0.47888265  1.0
  Zn  Zn4  1  0.69308875  0.35100671  0.27108528  1.0
  Zn  Zn5  1  0.68610898  0.19337677  0.26684498  1.0
  Zn  Zn6  1  0.77010126  0.26427817  0.18949008  1.0
  Zn  Zn7  1  0.84611387  0.19622466  0.27311260  1.0
  Zn  Zn8  1  0.26731648  0.76785090  0.68922880  1.0
  Zn  Zn9  1  0.35026747  0.69697515  0.77042750  1.0
  Zn  Zn10  1  0.19227573  0.84807232  0.77226622  1.0
  Zn  Zn11  1  0.19330672  0.68668070  0.76646470  1.0
  Zn  Zn12  1  0.56126929  0.05947207  0.98288318  1.0
  Zn  Zn13  1  0.40103817  0.05600246  0.97793363  1.0
  Zn  Zn14  1  0.55439638  0.90142038  0.97802984  1.0
  Zn  Zn15  1  0.48450287  0.98184175  0.06030943  1.0
  H  H16  1  0.95474262  0.25400585  0.34761578  1.0
  H  H17  1  0.74069121  0.45003432  0.35699560  1.0
  H  H18  1  0.00344397  0.30214694  0.39587280  1.0
  H  H19  1  0.09333340  0.60277407  0.69955009  1.0
  H  H20  1  0.21182254  0.69176383  0.59741105  1.0
  H  H21  1  0.04564534  0.55559335  0.65032719  1.0
  H  H22  1  0.46146970  0.24283690  0.34140528  1.0
  H  H23  1  0.48041866  0.69524036  0.59937442  1.0
  H  H24  1  0.20667739  0.98016944  0.60274198  1.0
  H  H25  1  0.94576554  0.97010086  0.34534749  1.0
  H  H26  1  0.55584682  0.04416226  0.15265495  1.0
  H  H27  1  0.64224295  0.16200810  0.04895401  1.0
  H  H28  1  0.60452919  0.09351183  0.20027234  1.0
  H  H29  1  0.55163915  0.76841371  0.14820658  1.0
  H  H30  1  0.16274984  0.14601051  0.04138022  1.0
  H  H31  1  0.49655605  0.79431294  0.90206863  1.0
  H  H32  1  0.30059601  0.00853987  0.89350338  1.0
  H  H33  1  0.44744151  0.74762216  0.85335936  1.0
  H  H34  1  0.30268527  0.28098334  0.90115910  1.0
  H  H35  1  0.78568668  0.01009768  0.90556577  1.0
  H  H36  1  0.78681424  0.57386526  0.36187850  1.0
  H  H37  1  0.10807960  0.74840235  0.53372751  1.0
  H  H38  1  0.78586492  0.14614549  0.07253933  1.0
  H  H39  1  0.17697359  0.96670073  0.88976748  1.0
  C  C40  1  0.06039043  0.31687588  0.56270485  1.0
  C  C41  1  0.07006762  0.57053093  0.56844590  1.0
  C  C42  1  0.18243264  0.44139881  0.43958617  1.0
  C  C43  1  0.93370027  0.68576653  0.43829139  1.0
  C  C44  1  0.93148847  0.43060191  0.43085917  1.0
  C  C45  1  0.81800530  0.55992347  0.56208636  1.0
  C  C46  1  0.56472707  0.31329512  0.31256565  1.0
  C  C47  1  0.68111086  0.18069398  0.18072170  1.0
  C  C48  1  0.68826751  0.43152108  0.18669237  1.0
  C  C49  1  0.93678256  0.18907522  0.19130640  1.0
  C  C50  1  0.81650560  0.32172635  0.32013862  1.0
  C  C51  1  0.80792371  0.06658145  0.30992550  1.0
  C  C52  1  0.43400466  0.68664110  0.68673295  1.0
  C  C53  1  0.31841618  0.82054284  0.81863387  1.0
  C  C54  1  0.19090560  0.93437521  0.68944615  1.0
  C  C55  1  0.06525216  0.80645974  0.81012316  1.0
  C  C56  1  0.18247966  0.67995389  0.68001527  1.0
  C  C57  1  0.31607057  0.56750446  0.81237475  1.0
  C  C58  1  0.43932372  0.18420536  0.93842396  1.0
  C  C59  1  0.42938417  0.93212338  0.92993762  1.0
  C  C60  1  0.68430117  0.93814950  0.93850807  1.0
  C  C61  1  0.56151852  0.81514846  0.06116717  1.0
  C  C62  1  0.56949183  0.06963571  0.06935627  1.0
  C  C63  1  0.31642508  0.06067645  0.06127338  1.0
  C  C64  1  0.89969407  0.40254001  0.40331622  1.0
  C  C65  1  0.84533105  0.34987986  0.34919336  1.0
  C  C66  1  0.82478956  0.44486171  0.39278722  1.0
  C  C67  1  0.91918989  0.30735024  0.36032963  1.0
  C  C68  1  0.79844870  0.41837141  0.36546092  1.0
  C  C69  1  0.94597097  0.33388217  0.38708839  1.0
  C  C70  1  0.10186674  0.59725482  0.59660208  1.0
  C  C71  1  0.15444088  0.65080594  0.65110936  1.0
  C  C72  1  0.14935616  0.63538532  0.58113161  1.0
  C  C73  1  0.10832656  0.61173548  0.66641566  1.0
  C  C74  1  0.17477586  0.66240026  0.60860776  1.0
  C  C75  1  0.08219860  0.58547357  0.63919695  1.0
  C  C76  1  0.30449012  0.45631082  0.40308184  1.0
  C  C77  1  0.44488181  0.29916887  0.34984353  1.0
  C  C78  1  0.25758429  0.41771707  0.41511753  1.0
  C  C79  1  0.49028736  0.33873283  0.33785721  1.0
  C  C80  1  0.37688059  0.34200580  0.37354338  1.0
  C  C81  1  0.37242856  0.41306717  0.37920938  1.0
  C  C82  1  0.72649709  0.57531535  0.62995306  1.0
  C  C83  1  0.52484831  0.66806628  0.61973935  1.0
  C  C84  1  0.74366130  0.58272971  0.58725079  1.0
  C  C85  1  0.50912924  0.66040836  0.66222312  1.0
  C  C86  1  0.60430347  0.63645189  0.60780068  1.0
  C  C87  1  0.64691732  0.60584152  0.64167542  1.0
  C  C88  1  0.07573349  0.22635624  0.63113521  1.0
  C  C89  1  0.17689298  0.02491666  0.62263719  1.0
  C  C90  1  0.08566871  0.24295780  0.58841327  1.0
  C  C91  1  0.16614609  0.00977298  0.66510858  1.0
  C  C92  1  0.14424668  0.10399629  0.61015743  1.0
  C  C93  1  0.10928299  0.14703581  0.64355582  1.0
  C  C94  1  0.83876860  0.80168756  0.39590664  1.0
  C  C95  1  0.90124953  0.94972263  0.35007679  1.0
  C  C96  1  0.90767735  0.75951331  0.41240479  1.0
  C  C97  1  0.83228487  0.99116133  0.33420897  1.0
  C  C98  1  0.90395392  0.88032103  0.37238708  1.0
  C  C99  1  0.83669153  0.87071692  0.37302715  1.0
  C  C100  1  0.65075928  0.15474579  0.15138638  1.0
  C  C101  1  0.59733645  0.09947643  0.09806303  1.0
  C  C102  1  0.66144224  0.17502305  0.10852055  1.0
  C  C103  1  0.58565881  0.08052627  0.14071253  1.0
  C  C104  1  0.63499880  0.14672232  0.08218372  1.0
  C  C105  1  0.61241038  0.10801453  0.16702508  1.0
  C  C106  1  0.67068611  0.52243971  0.11830273  1.0
  C  C107  1  0.57838695  0.72401149  0.12797090  1.0
  C  C108  1  0.66362352  0.50551449  0.16106456  1.0
  C  C109  1  0.58627134  0.73977219  0.08547654  1.0
  C  C110  1  0.60917800  0.64474244  0.14006182  1.0
  C  C111  1  0.63966027  0.60203212  0.10638737  1.0
  C  C112  1  0.08461090  0.12222764  0.17955107  1.0
  C  C113  1  0.17084946  0.12736251  0.07370754  1.0
  C  C114  1  0.01218659  0.16364014  0.16693756  1.0
  C  C115  1  0.24222007  0.08590931  0.08692485  1.0
  C  C116  1  0.11315061  0.14081513  0.10748055  1.0
  C  C117  1  0.14221534  0.10918092  0.14562396  1.0
  C  C118  1  0.34681098  0.85152086  0.84639858  1.0
  C  C119  1  0.40074916  0.90382697  0.90088600  1.0
  C  C120  1  0.30471485  0.92581139  0.85736167  1.0
  C  C121  1  0.44296234  0.83039765  0.88947154  1.0
  C  C122  1  0.33190179  0.95114578  0.88480407  1.0
  C  C123  1  0.41584410  0.80468152  0.86245649  1.0
  C  C124  1  0.41015086  0.45007356  0.85456785  1.0
  C  C125  1  0.34719135  0.30118894  0.89732426  1.0
  C  C126  1  0.34199929  0.49286147  0.83742510  1.0
  C  C127  1  0.41545908  0.25941508  0.91387924  1.0
  C  C128  1  0.34513657  0.37081735  0.87561548  1.0
  C  C129  1  0.41198726  0.38034721  0.87630809  1.0
  C  C130  1  0.94478396  0.79096734  0.84950646  1.0
  C  C131  1  0.80303517  0.95237383  0.89900443  1.0
  C  C132  1  0.99028153  0.83042908  0.83488152  1.0
  C  C133  1  0.75877578  0.91210165  0.91324086  1.0
  C  C134  1  0.87093572  0.90834846  0.87561216  1.0
  C  C135  1  0.87661917  0.83548300  0.87271502  1.0
  C  C136  1  0.76849491  0.51485965  0.41231714  1.0
  C  C137  1  0.17988479  0.64330573  0.53626671  1.0
  C  C138  1  0.69455350  0.23154380  0.08943551  1.0
  C  C139  1  0.23426973  0.98246709  0.83816787  1.0
  S  S140  1  0.29706375  0.32883811  0.39745186  1.0
  S  S141  1  0.45119315  0.42760998  0.35532263  1.0
  S  S142  1  0.66250783  0.62627736  0.56167644  1.0
  S  S143  1  0.58999612  0.61492466  0.68798364  1.0
  S  S144  1  0.13615274  0.16144887  0.56372179  1.0
  S  S145  1  0.11695825  0.09080737  0.69019356  1.0
  S  S146  1  0.96966497  0.80407193  0.39962935  1.0
  S  S147  1  0.77043846  0.94642885  0.34606387  1.0
  S  S148  1  0.61887098  0.58672495  0.18632882  1.0
  S  S149  1  0.63070908  0.65894645  0.05995985  1.0
  S  S150  1  0.01500625  0.18646271  0.11363869  1.0
  S  S151  1  0.24000200  0.06311225  0.14014802  1.0
  S  S152  1  0.28062625  0.44754719  0.84798911  1.0
  S  S153  1  0.47740801  0.30400075  0.90336236  1.0
  S  S154  1  0.94943071  0.92174677  0.84956405  1.0
  S  S155  1  0.79881847  0.82101453  0.89842417  1.0
  Cl  Cl156  1  0.28655730  0.54356836  0.41482515  1.0
  Cl  Cl157  1  0.79011922  0.53475415  0.66548356  1.0
  Cl  Cl158  1  0.02979820  0.29024971  0.66604291  1.0
  Cl  Cl159  1  0.76442888  0.77649817  0.40111004  1.0
  Cl  Cl160  1  0.70985367  0.45864888  0.08329378  1.0
  Cl  Cl161  1  0.10567318  0.08923459  0.22897154  1.0
  Cl  Cl162  1  0.48466490  0.47453564  0.85078993  1.0
  Cl  Cl163  1  0.96495206  0.70047363  0.84175986  1.0
  O  O164  1  0.00012730  0.50034036  0.49958103  1.0
  O  O165  1  0.08073266  0.31514205  0.52384397  1.0
  O  O166  1  0.04278476  0.52233139  0.58465791  1.0
  O  O167  1  0.15445224  0.50619989  0.45254906  1.0
  O  O168  1  0.02065574  0.37585956  0.58098202  1.0
  O  O169  1  0.15183197  0.39391419  0.44549296  1.0
  O  O170  1  0.07174234  0.59924172  0.53077168  1.0
  O  O171  1  0.00250905  0.65846540  0.44681882  1.0
  O  O172  1  0.89461694  0.50039830  0.43662251  1.0
  O  O173  1  0.88633691  0.65587942  0.45007824  1.0
  O  O174  1  0.99280302  0.38328630  0.44559126  1.0
  O  O175  1  0.87713825  0.53409631  0.58079157  1.0
  O  O176  1  0.81615271  0.56891110  0.52308791  1.0
  O  O177  1  0.74858507  0.25150379  0.24999807  1.0
  O  O178  1  0.59587872  0.36026065  0.30379642  1.0
  O  O179  1  0.65419965  0.17537419  0.21848431  1.0
  O  O180  1  0.72208900  0.37197340  0.16839853  1.0
  O  O181  1  0.59163190  0.24670738  0.30155499  1.0
  O  O182  1  0.67326220  0.43427840  0.22572993  1.0
  O  O183  1  0.73229245  0.20472257  0.16544849  1.0
  O  O184  1  0.87986014  0.22572777  0.17049229  1.0
  O  O185  1  0.85954922  0.25543178  0.30988244  1.0
  O  O186  1  0.93421578  0.17286539  0.23031465  1.0
  O  O187  1  0.75179980  0.36606131  0.30804354  1.0
  O  O188  1  0.74238386  0.09366664  0.29709029  1.0
  O  O189  1  0.85416471  0.09818268  0.30397798  1.0
  O  O190  1  0.25036653  0.75019889  0.74965525  1.0
  O  O191  1  0.37563771  0.72294112  0.66722387  1.0
  O  O192  1  0.36702138  0.76139416  0.80261293  1.0
  O  O193  1  0.17458953  0.93344077  0.72853947  1.0
  O  O194  1  0.43426573  0.67056400  0.72585564  1.0
  O  O195  1  0.22602513  0.87685937  0.66936189  1.0
  O  O196  1  0.24778554  0.85521559  0.81396444  1.0
  O  O197  1  0.09272150  0.85647422  0.80128677  1.0
  O  O198  1  0.16799522  0.66146191  0.71840910  1.0
  O  O199  1  0.09615698  0.73931948  0.79980091  1.0
  O  O200  1  0.21831190  0.72087951  0.66378023  1.0
  O  O201  1  0.35925321  0.60245465  0.80593305  1.0
  O  O202  1  0.25120240  0.59064190  0.79924695  1.0
  O  O203  1  0.49990610  0.00011317  0.99984492  1.0
  O  O204  1  0.50602070  0.15604925  0.94992759  1.0
  O  O205  1  0.38595866  0.99771949  0.94102379  1.0
  O  O206  1  0.65263925  0.89164922  0.94672801  1.0
  O  O207  1  0.39184722  0.15385234  0.94605791  1.0
  O  O208  1  0.65802947  0.00428394  0.94997791  1.0
  O  O209  1  0.49484824  0.88815294  0.94119212  1.0
  O  O210  1  0.57463678  0.81580488  0.02197450  1.0
  O  O211  1  0.53153612  0.03082980  0.08578850  1.0
  O  O212  1  0.52934375  0.87302921  0.08106214  1.0
  O  O213  1  0.58632654  0.08536885  0.03089255  1.0
  O  O214  1  0.31555044  0.07779015  0.02234459  1.0
  O  O215  1  0.37519287  0.02367235  0.08059370  1.0
  O  O216  1  0.75221868  0.58245148  0.38746064  1.0
  O  O217  1  0.73432358  0.51246239  0.44646504  1.0
  O  O218  1  0.15032809  0.71530342  0.51590868  1.0
  O  O219  1  0.23147600  0.59187223  0.51948837  1.0
  O  O220  1  0.76568596  0.20162975  0.06816322  1.0
  O  O221  1  0.65946227  0.29974122  0.08957208  1.0
  O  O222  1  0.16743168  0.00040657  0.86387550  1.0
  O  O223  1  0.23570442  0.01529229  0.80357280  1.0
