# generated using pymatgen
data_AlH8C14NO6F
_symmetry_space_group_name_H-M   'P 1'
_cell_length_a   6.76605613
_cell_length_b   15.36762354
_cell_length_c   17.04044543
_cell_angle_alpha   91.47848142
_cell_angle_beta   98.28045257
_cell_angle_gamma   101.95279899
_symmetry_Int_Tables_number   1
_chemical_formula_structural   AlH8C14NO6F
_chemical_formula_sum   'Al2 H16 C28 N2 O12 F2'
_cell_volume   1712.51389755
_cell_formula_units_Z   2
loop_
 _symmetry_equiv_pos_site_id
 _symmetry_equiv_pos_as_xyz
  1  'x, y, z'
loop_
 _atom_site_type_symbol
 _atom_site_label
 _atom_site_symmetry_multiplicity
 _atom_site_fract_x
 _atom_site_fract_y
 _atom_site_fract_z
 _atom_site_occupancy
  Al  Al0  1  0.99999945  0.49999973  0.49999951  1.0
  Al  Al1  1  0.49999833  0.49999770  0.50000215  1.0
  H  H2  1  0.18139430  0.40028818  0.44107110  1.0
  H  H3  1  0.81858504  0.59971398  0.55892687  1.0
  H  H4  1  0.65117645  0.49575444  0.74068955  1.0
  H  H5  1  0.71194358  0.49763169  0.88832781  1.0
  H  H6  1  0.07660444  0.49943518  0.89168287  1.0
  H  H7  1  0.92339295  0.50056426  0.10831489  1.0
  H  H8  1  0.28806671  0.50236970  0.11166950  1.0
  H  H9  1  0.34882732  0.50424291  0.25930562  1.0
  H  H10  1  0.69813395  0.76858798  0.49635027  1.0
  H  H11  1  0.30186657  0.23140558  0.50365350  1.0
  H  H12  1  0.93486201  0.22571969  0.50460271  1.0
  H  H13  1  0.85041315  0.06420489  0.50259899  1.0
  H  H14  1  0.06514670  0.77427844  0.49539801  1.0
  H  H15  1  0.14958092  0.93579670  0.49740506  1.0
  H  H16  1  0.98105058  0.49504695  0.68022993  1.0
  H  H17  1  0.01896954  0.50495032  0.31976379  1.0
  C  C18  1  0.67377682  0.33982089  0.50238614  1.0
  C  C19  1  0.69741983  0.50390207  0.35533571  1.0
  C  C20  1  0.32621238  0.66017399  0.49761526  1.0
  C  C21  1  0.30258262  0.49610144  0.64466588  1.0
  C  C22  1  0.33056976  0.49581508  0.73180692  1.0
  C  C23  1  0.52611701  0.49625038  0.77414877  1.0
  C  C24  1  0.56104971  0.49742763  0.85598203  1.0
  C  C25  1  0.39636555  0.49856503  0.89819978  1.0
  C  C26  1  0.20126683  0.49830190  0.85793036  1.0
  C  C27  1  0.16572016  0.49668210  0.77474611  1.0
  C  C28  1  0.79873168  0.50169683  0.14206570  1.0
  C  C29  1  0.60363659  0.50143502  0.10179649  1.0
  C  C30  1  0.43895438  0.50257038  0.14401258  1.0
  C  C31  1  0.47388591  0.50374829  0.22584577  1.0
  C  C32  1  0.66943279  0.50418570  0.26819231  1.0
  C  C33  1  0.83427982  0.50331661  0.22524945  1.0
  C  C34  1  0.37461664  0.75900655  0.49701852  1.0
  C  C35  1  0.62538074  0.24099288  0.50297924  1.0
  C  C36  1  0.57572057  0.80462069  0.49702155  1.0
  C  C37  1  0.62071385  0.89663716  0.49767529  1.0
  C  C38  1  0.42426855  0.19537130  0.50297042  1.0
  C  C39  1  0.37927363  0.10335752  0.50231720  1.0
  C  C40  1  0.77666059  0.19131835  0.50331953  1.0
  C  C41  1  0.72722217  0.09900236  0.50236498  1.0
  C  C42  1  0.22333540  0.80868118  0.49668226  1.0
  C  C43  1  0.27276683  0.90099515  0.49763466  1.0
  C  C44  1  0.47491359  0.95060529  0.49889481  1.0
  C  C45  1  0.52507956  0.04939474  0.50109921  1.0
  N  N46  1  0.41134833  0.50011149  0.98198496  1.0
  N  N47  1  0.58865676  0.49988852  0.01800971  1.0
  O  O48  1  0.85940433  0.37812755  0.50091796  1.0
  O  O49  1  0.54442072  0.50190388  0.39112519  1.0
  O  O50  1  0.47531030  0.62124804  0.49740357  1.0
  O  O51  1  0.11907593  0.49564220  0.60885062  1.0
  O  O52  1  0.14057783  0.62187127  0.49908014  1.0
  O  O53  1  0.45557975  0.49809564  0.60887686  1.0
  O  O54  1  0.52468106  0.37874498  0.50260439  1.0
  O  O55  1  0.88093094  0.50436726  0.39114950  1.0
  O  O56  1  0.21770345  0.46090482  0.46398602  1.0
  O  O57  1  0.78229164  0.53909279  0.53601924  1.0
  O  O58  1  0.97451002  0.49636011  0.73865129  1.0
  O  O59  1  0.02549565  0.50363516  0.26134045  1.0
  F  F60  1  0.82262415  0.93336640  0.49695088  1.0
  F  F61  1  0.17737988  0.06662837  0.50304781  1.0
