# generated using pymatgen
data_Zr3H14(C13O8)2
_symmetry_space_group_name_H-M   'P 1'
_cell_length_a   15.54230225
_cell_length_b   19.33553139
_cell_length_c   19.34562823
_cell_angle_alpha   88.62536444
_cell_angle_beta   89.90714564
_cell_angle_gamma   89.89048527
_symmetry_Int_Tables_number   1
_chemical_formula_structural   Zr3H14(C13O8)2
_chemical_formula_sum   'Zr6 H28 C52 O32'
_cell_volume   5812.03155277
_cell_formula_units_Z   2
loop_
 _symmetry_equiv_pos_site_id
 _symmetry_equiv_pos_as_xyz
  1  'x, y, z'
loop_
 _atom_site_type_symbol
 _atom_site_label
 _atom_site_symmetry_multiplicity
 _atom_site_fract_x
 _atom_site_fract_y
 _atom_site_fract_z
 _atom_site_occupancy
  Zr  Zr0  1  0.00826925  0.98994714  0.89946972  1.0
  Zr  Zr1  1  0.00408458  0.11146543  0.03802485  1.0
  Zr  Zr2  1  0.00585625  0.85027218  0.02497300  1.0
  Zr  Zr3  1  0.00495218  0.97103654  0.15943304  1.0
  Zr  Zr4  1  0.16611536  0.98175366  0.03136975  1.0
  Zr  Zr5  1  0.84532872  0.98110293  0.02986339  1.0
  H  H6  1  0.64431237  0.97594006  0.64526827  1.0
  H  H7  1  0.50398545  0.98299560  0.83767671  1.0
  H  H8  1  0.36664377  0.98918430  0.64391381  1.0
  H  H9  1  0.36599528  0.97608496  0.41985846  1.0
  H  H10  1  0.50200478  0.97812379  0.22501127  1.0
  H  H11  1  0.64365228  0.98540845  0.41652800  1.0
  H  H12  1  0.64410585  0.36944302  0.03246076  1.0
  H  H13  1  0.50711655  0.17578161  0.02700718  1.0
  H  H14  1  0.36622335  0.36852048  0.02556546  1.0
  H  H15  1  0.64417118  0.59410527  0.02813711  1.0
  H  H16  1  0.50790691  0.78890492  0.03029500  1.0
  H  H17  1  0.36623744  0.59704372  0.03312316  1.0
  H  H18  1  0.88722858  0.08987224  0.92340851  1.0
  H  H19  1  0.12601620  0.08193045  0.14189524  1.0
  H  H20  1  0.87906204  0.87510400  0.13442042  1.0
  H  H21  1  0.13287201  0.88162666  0.92567898  1.0
  H  H22  1  0.06329953  0.20953930  0.12235158  1.0
  H  H23  1  0.94759035  0.03731869  0.27224250  1.0
  H  H24  1  0.05083326  0.87181284  0.24898664  1.0
  H  H25  1  0.00552271  0.81815704  0.16789016  1.0
  H  H26  1  0.96057698  0.76204582  0.92942117  1.0
  H  H27  1  0.00389654  0.84840481  0.87160011  1.0
  H  H28  1  0.04217057  0.07897932  0.79962823  1.0
  H  H29  1  0.95970231  0.23065103  0.96730944  1.0
  H  H30  1  0.95734405  0.75361937  0.13107341  1.0
  H  H31  1  0.94927126  0.89317256  0.81476333  1.0
  H  H32  1  0.05987047  0.21857266  0.95751883  1.0
  H  H33  1  0.04851984  0.02945672  0.28694991  1.0
  C  C34  1  0.50552593  0.98245452  0.63612741  1.0
  C  C35  1  0.58346683  0.97875213  0.67306585  1.0
  C  C36  1  0.58312996  0.97874742  0.74569656  1.0
  C  C37  1  0.50447780  0.98282897  0.78138822  1.0
  C  C38  1  0.42638082  0.98681264  0.74489859  1.0
  C  C39  1  0.42704320  0.98638987  0.67229954  1.0
  C  C40  1  0.50493651  0.98110750  0.42669898  1.0
  C  C41  1  0.42622411  0.97783639  0.39100764  1.0
  C  C42  1  0.42494066  0.97659101  0.31840419  1.0
  C  C43  1  0.50287335  0.97895211  0.28126254  1.0
  C  C44  1  0.58187889  0.98218482  0.31648337  1.0
  C  C45  1  0.58260511  0.98317832  0.38910349  1.0
  C  C46  1  0.50504988  0.37745641  0.02928616  1.0
  C  C47  1  0.58369071  0.34110911  0.03071783  1.0
  C  C48  1  0.58458317  0.26849141  0.02993491  1.0
  C  C49  1  0.50645701  0.23207017  0.02753102  1.0
  C  C50  1  0.42765056  0.26790411  0.02577029  1.0
  C  C51  1  0.42712752  0.34056311  0.02673880  1.0
  C  C52  1  0.50511332  0.58700121  0.03075831  1.0
  C  C53  1  0.58388213  0.62286626  0.02927020  1.0
  C  C54  1  0.58515487  0.69556350  0.02900062  1.0
  C  C55  1  0.50710371  0.73258275  0.03051131  1.0
  C  C56  1  0.42802048  0.69719325  0.03221804  1.0
  C  C57  1  0.42738776  0.62447737  0.03215515  1.0
  C  C58  1  0.21659863  0.99397957  0.87027159  1.0
  C  C59  1  0.79514839  0.14330270  0.03406583  1.0
  C  C60  1  0.21779834  0.14248285  0.02506591  1.0
  C  C61  1  0.79340594  0.97464905  0.87075660  1.0
  C  C62  1  0.79929280  0.81618152  0.02502820  1.0
  C  C63  1  0.21254019  0.96954862  0.19635326  1.0
  C  C64  1  0.79350452  0.98240177  0.19231287  1.0
  C  C65  1  0.21477346  0.81993889  0.03400752  1.0
  C  C66  1  0.72906029  0.76753090  0.02531663  1.0
  C  C67  1  0.66396419  0.73252451  0.02707189  1.0
  C  C68  1  0.35010023  0.73555976  0.03380320  1.0
  C  C69  1  0.28554288  0.77132318  0.03502195  1.0
  C  C70  1  0.66247220  0.23022236  0.03149577  1.0
  C  C71  1  0.72499662  0.19222618  0.03290490  1.0
  C  C72  1  0.35036624  0.22910747  0.02349575  1.0
  C  C73  1  0.28802828  0.19108320  0.02222981  1.0
  C  C74  1  0.50450176  0.45070450  0.03006912  1.0
  C  C75  1  0.50444118  0.51374674  0.03054089  1.0
  C  C76  1  0.72321576  0.98489327  0.24098282  1.0
  C  C77  1  0.65945676  0.98391730  0.27769482  1.0
  C  C78  1  0.34644304  0.97299317  0.28130318  1.0
  C  C79  1  0.28227870  0.96996595  0.24544010  1.0
  C  C80  1  0.66039112  0.97524578  0.78452307  1.0
  C  C81  1  0.72283757  0.97299668  0.82240987  1.0
  C  C82  1  0.28641859  0.99401906  0.82116005  1.0
  C  C83  1  0.34870148  0.99093373  0.78313016  1.0
  C  C84  1  0.50590491  0.98216649  0.56289294  1.0
  C  C85  1  0.50575048  0.98189771  0.49989583  1.0
  O  O86  1  0.14022217  0.99711564  0.84704499  1.0
  O  O87  1  0.23941455  0.98964892  0.93375646  1.0
  O  O88  1  0.87151284  0.16699238  0.03215089  1.0
  O  O89  1  0.77313559  0.07980666  0.03640116  1.0
  O  O90  1  0.14148641  0.16561933  0.01783276  1.0
  O  O91  1  0.23930407  0.07953473  0.03687900  1.0
  O  O92  1  0.86937343  0.96790864  0.84818901  1.0
  O  O93  1  0.77112005  0.98442857  0.93366055  1.0
  O  O94  1  0.99317968  0.06546929  0.82801137  1.0
  O  O95  1  0.00563924  0.89051258  0.83709854  1.0
  O  O96  1  0.00282235  0.19831860  0.95030743  1.0
  O  O97  1  0.01187583  0.18538567  0.10837673  1.0
  O  O98  1  0.07507902  0.03916510  0.97955145  1.0
  O  O99  1  0.91786781  0.05952128  0.95574608  1.0
  O  O100  1  0.87648651  0.79256546  0.02534210  1.0
  O  O101  1  0.77654246  0.87942729  0.02544303  1.0
  O  O102  1  0.13526955  0.96612028  0.21968805  1.0
  O  O103  1  0.23505709  0.97390882  0.13331161  1.0
  O  O104  1  0.87046888  0.98521077  0.21551872  1.0
  O  O105  1  0.77161723  0.97594027  0.12943390  1.0
  O  O106  1  0.13832730  0.79706126  0.03434835  1.0
  O  O107  1  0.23803834  0.88352652  0.03167030  1.0
  O  O108  1  0.00665877  0.78423161  0.12623401  1.0
  O  O109  1  0.00682726  0.79559247  0.93271413  1.0
  O  O110  1  0.00169718  0.87686417  0.21815389  1.0
  O  O111  1  0.00563972  0.04548385  0.25347467  1.0
  O  O112  1  0.91516022  0.90324790  0.10403871  1.0
  O  O113  1  0.07355071  0.92405466  0.08381442  1.0
  O  O114  1  0.93886354  0.92989183  0.97733417  1.0
  O  O115  1  0.09145655  0.05338893  0.11219798  1.0
  O  O116  1  0.09657899  0.91045102  0.95407973  1.0
  O  O117  1  0.93537209  0.03380170  0.08831082  1.0
