# generated using pymatgen
data_ZnH27C31I4NO8
_symmetry_space_group_name_H-M   'P 1'
_cell_length_a   10.87561840
_cell_length_b   18.46483840
_cell_length_c   18.81028155
_cell_angle_alpha   89.83250713
_cell_angle_beta   88.68297183
_cell_angle_gamma   89.79796105
_symmetry_Int_Tables_number   1
_chemical_formula_structural   ZnH27C31I4NO8
_chemical_formula_sum   'Zn2 H54 C62 I8 N2 O16'
_cell_volume   3776.37893827
_cell_formula_units_Z   2
loop_
 _symmetry_equiv_pos_site_id
 _symmetry_equiv_pos_as_xyz
  1  'x, y, z'
loop_
 _atom_site_type_symbol
 _atom_site_label
 _atom_site_symmetry_multiplicity
 _atom_site_fract_x
 _atom_site_fract_y
 _atom_site_fract_z
 _atom_site_occupancy
  Zn  Zn0  1  0.48397328  0.58291307  0.50173338  1.0
  Zn  Zn1  1  0.48752268  0.41855248  0.50573827  1.0
  H  H2  1  0.43228324  0.69817500  0.60858433  1.0
  H  H3  1  0.54926840  0.69780328  0.39816829  1.0
  H  H4  1  0.43434893  0.83378674  0.61387079  1.0
  H  H5  1  0.56367008  0.83323843  0.39494272  1.0
  H  H6  1  0.43552621  0.93170540  0.39651400  1.0
  H  H7  1  0.56485034  0.93405797  0.61109705  1.0
  H  H8  1  0.11100981  0.65888964  0.54520207  1.0
  H  H9  1  0.85780402  0.66344059  0.47415835  1.0
  H  H10  1  0.62831504  0.41310855  0.85555160  1.0
  H  H11  1  0.53660473  0.43695473  0.12931169  1.0
  H  H12  1  0.57508891  0.62282365  0.69627084  1.0
  H  H13  1  0.71401946  0.59647332  0.31160746  1.0
  H  H14  1  0.56907463  0.61925988  0.06958528  1.0
  H  H15  1  0.55612193  0.62286669  0.93830739  1.0
  H  H16  1  0.31487777  0.00416148  0.33445753  1.0
  H  H17  1  0.46912169  0.01215796  0.30039970  1.0
  H  H18  1  0.42190309  0.13936570  0.25890668  1.0
  H  H19  1  0.32122239  0.07526823  0.22035974  1.0
  H  H20  1  0.26810823  0.13032535  0.29234186  1.0
  H  H21  1  0.53763717  0.01612341  0.70624711  1.0
  H  H22  1  0.68923509  0.00952640  0.66783196  1.0
  H  H23  1  0.68991476  0.08285553  0.78009608  1.0
  H  H24  1  0.73282520  0.13735852  0.70543731  1.0
  H  H25  1  0.58205404  0.14462334  0.74367131  1.0
  H  H26  1  0.25444134  0.12166673  0.47214468  1.0
  H  H27  1  0.13884505  0.16643350  0.52460775  1.0
  H  H28  1  0.13374552  0.05921717  0.60913508  1.0
  H  H29  1  0.09937697  0.03252503  0.52098251  1.0
  H  H30  1  0.24807802  0.01503064  0.55505582  1.0
  H  H31  1  0.84834166  0.17687183  0.47558416  1.0
  H  H32  1  0.73910628  0.12708383  0.52817622  1.0
  H  H33  1  0.86223201  0.07182316  0.38910162  1.0
  H  H34  1  0.90175656  0.04419981  0.47641992  1.0
  H  H35  1  0.75405613  0.02293315  0.44327012  1.0
  H  H36  1  0.28214964  0.25322620  0.66666667  1.0
  H  H37  1  0.16478822  0.25809963  0.60177920  1.0
  H  H38  1  0.13821394  0.39079256  0.62529390  1.0
  H  H39  1  0.11190212  0.33866400  0.70363807  1.0
  H  H40  1  0.25376532  0.38637774  0.69092172  1.0
  H  H41  1  0.59669038  0.31977916  0.32547066  1.0
  H  H42  1  0.70218318  0.24710399  0.34295123  1.0
  H  H43  1  0.87225670  0.33711800  0.35778296  1.0
  H  H44  1  0.80350309  0.34958043  0.27339659  1.0
  H  H45  1  0.76600337  0.40954578  0.34450053  1.0
  H  H46  1  0.00118413  0.48666191  0.89867268  1.0
  H  H47  1  0.88262132  0.51714440  0.84176206  1.0
  H  H48  1  0.88268234  0.39768626  0.77944805  1.0
  H  H49  1  0.03253692  0.43631995  0.77672498  1.0
  H  H50  1  0.99814253  0.36452583  0.83727570  1.0
  H  H51  1  0.94779725  0.38672946  0.13102271  1.0
  H  H52  1  0.89039353  0.47497274  0.14995367  1.0
  H  H53  1  0.07303511  0.43648943  0.02764009  1.0
  H  H54  1  0.11038515  0.48098323  0.10834414  1.0
  H  H55  1  0.01459121  0.52519672  0.04636042  1.0
  C  C56  1  0.54351714  0.51198403  0.36890757  1.0
  C  C57  1  0.48077860  0.50925567  0.63898184  1.0
  C  C58  1  0.64138583  0.58643799  0.79770344  1.0
  C  C59  1  0.71889133  0.56475848  0.20095177  1.0
  C  C60  1  0.58562111  0.57752783  0.73271695  1.0
  C  C61  1  0.67667535  0.56096403  0.27136406  1.0
  C  C62  1  0.54251958  0.50991851  0.70992365  1.0
  C  C63  1  0.58377241  0.51228361  0.29183393  1.0
  C  C64  1  0.76261100  0.48477668  0.95456090  1.0
  C  C65  1  0.76496214  0.47997508  0.02964182  1.0
  C  C66  1  0.69310271  0.52826167  0.07097117  1.0
  C  C67  1  0.68321766  0.53436006  0.92132984  1.0
  C  C68  1  0.62422520  0.58207126  0.03703434  1.0
  C  C69  1  0.61782546  0.58450500  0.96355572  1.0
  C  C70  1  0.45993664  0.73094091  0.56265054  1.0
  C  C71  1  0.52598597  0.73072549  0.44462036  1.0
  C  C72  1  0.46296568  0.80601798  0.56517760  1.0
  C  C73  1  0.53196721  0.80572344  0.44324572  1.0
  C  C74  1  0.49908199  0.84548016  0.50433594  1.0
  C  C75  1  0.46519368  0.96228782  0.44228487  1.0
  C  C76  1  0.53477699  0.96357653  0.56447903  1.0
  C  C77  1  0.71850123  0.49483448  0.52423871  1.0
  C  C78  1  0.25639737  0.49778571  0.48100432  1.0
  C  C79  1  0.46278857  0.03803268  0.44191175  1.0
  C  C80  1  0.53442028  0.03939993  0.56308744  1.0
  C  C81  1  0.49738533  0.07723992  0.50213888  1.0
  C  C82  1  0.50023968  0.92533844  0.50386155  1.0
  C  C83  1  0.39947213  0.19392358  0.53851433  1.0
  C  C84  1  0.58491323  0.19624322  0.46394829  1.0
  C  C85  1  0.40271301  0.27012565  0.54034896  1.0
  C  C86  1  0.57659349  0.27213482  0.46303350  1.0
  C  C87  1  0.49401559  0.15736681  0.50137135  1.0
  C  C88  1  0.92294183  0.55408292  0.50920488  1.0
  C  C89  1  0.04941479  0.55507972  0.49698157  1.0
  C  C90  1  0.85617266  0.49034278  0.51888448  1.0
  C  C91  1  0.11866557  0.49240655  0.48430714  1.0
  C  C92  1  0.92679129  0.42584786  0.51359829  1.0
  C  C93  1  0.05045010  0.42714880  0.48738001  1.0
  C  C94  1  0.05662809  0.63611787  0.50258308  1.0
  C  C95  1  0.91282914  0.63513348  0.51348937  1.0
  C  C96  1  0.56574663  0.44980243  0.75380265  1.0
  C  C97  1  0.53442498  0.46701354  0.24014968  1.0
  C  C98  1  0.61625346  0.45959529  0.82062146  1.0
  C  C99  1  0.57763556  0.47053865  0.16988967  1.0
  C  C100  1  0.65180540  0.52804375  0.84547369  1.0
  C  C101  1  0.66973423  0.51983627  0.14872904  1.0
  C  C102  1  0.38952055  0.04284291  0.32203618  1.0
  C  C103  1  0.34786869  0.10053743  0.27047064  1.0
  C  C104  1  0.61369716  0.04741963  0.68157065  1.0
  C  C105  1  0.65699970  0.10667733  0.73042395  1.0
  C  C106  1  0.21488903  0.12663395  0.52629882  1.0
  C  C107  1  0.17173582  0.05410128  0.55477030  1.0
  C  C108  1  0.77684785  0.13468021  0.47387195  1.0
  C  C109  1  0.82639298  0.06426076  0.44366185  1.0
  C  C110  1  0.23614020  0.28896622  0.62876955  1.0
  C  C111  1  0.18232730  0.35548932  0.66429601  1.0
  C  C112  1  0.68135511  0.30449153  0.35275733  1.0
  C  C113  1  0.78744850  0.35306447  0.33120121  1.0
  C  C114  1  0.92244421  0.46888947  0.86715472  1.0
  C  C115  1  0.96076780  0.41333844  0.81202969  1.0
  C  C116  1  0.92559729  0.43942255  0.10720404  1.0
  C  C117  1  0.03731279  0.47236424  0.06982990  1.0
  I  I118  1  0.86073434  0.32850906  0.55966118  1.0
  I  I119  1  0.12289667  0.33113320  0.44119440  1.0
  I  I120  1  0.11837350  0.69441075  0.40739005  1.0
  I  I121  1  0.84809181  0.67762824  0.61589022  1.0
  I  I122  1  0.53576255  0.34053997  0.72604541  1.0
  I  I123  1  0.38212530  0.39957727  0.26345629  1.0
  I  I124  1  0.71784380  0.68932814  0.81854100  1.0
  I  I125  1  0.85633153  0.64116314  0.17432329  1.0
  N  N126  1  0.49033579  0.69381495  0.50332084  1.0
  N  N127  1  0.48882693  0.30677010  0.50182146  1.0
  O  O128  1  0.51390837  0.57353606  0.39456373  1.0
  O  O129  1  0.47122772  0.57122450  0.60892099  1.0
  O  O130  1  0.54686668  0.45207124  0.40120927  1.0
  O  O131  1  0.44494434  0.44994772  0.61347123  1.0
  O  O132  1  0.67314187  0.55662291  0.51017085  1.0
  O  O133  1  0.29908842  0.56075856  0.49123097  1.0
  O  O134  1  0.65962330  0.43730423  0.53814444  1.0
  O  O135  1  0.31737829  0.43974370  0.47326512  1.0
  O  O136  1  0.42443597  0.07896683  0.38616196  1.0
  O  O137  1  0.57146123  0.08178489  0.61775313  1.0
  O  O138  1  0.30823953  0.15480161  0.57290350  1.0
  O  O139  1  0.67919522  0.16072889  0.42854268  1.0
  O  O140  1  0.32620055  0.31435470  0.57630863  1.0
  O  O141  1  0.65793776  0.31525630  0.42882867  1.0
  O  O142  1  0.83250643  0.43645761  0.91558449  1.0
  O  O143  1  0.82854424  0.42303354  0.05832613  1.0
