# generated using pymatgen
data_AlH9C15ClO5
_symmetry_space_group_name_H-M   'P 1'
_cell_length_a   6.62449320
_cell_length_b   10.99047273
_cell_length_c   17.59707831
_cell_angle_alpha   92.52470533
_cell_angle_beta   97.80772766
_cell_angle_gamma   106.00415755
_symmetry_Int_Tables_number   1
_chemical_formula_structural   AlH9C15ClO5
_chemical_formula_sum   'Al2 H18 C30 Cl2 O10'
_cell_volume   1215.62860296
_cell_formula_units_Z   2
loop_
 _symmetry_equiv_pos_site_id
 _symmetry_equiv_pos_as_xyz
  1  'x, y, z'
loop_
 _atom_site_type_symbol
 _atom_site_label
 _atom_site_symmetry_multiplicity
 _atom_site_fract_x
 _atom_site_fract_y
 _atom_site_fract_z
 _atom_site_occupancy
  Al  Al0  1  0.01283696  0.49890230  0.50200394  1.0
  Al  Al1  1  0.51270183  0.49895425  0.50029096  1.0
  H  H2  1  0.35327815  0.65444121  0.54302229  1.0
  H  H3  1  0.67366488  0.34177160  0.46501511  1.0
  H  H4  1  0.82630016  0.41437292  0.27471326  1.0
  H  H5  1  0.74039896  0.41595382  0.13170844  1.0
  H  H6  1  0.49177596  0.56619629  0.26223103  1.0
  H  H7  1  0.51542246  0.42365810  0.73341651  1.0
  H  H8  1  0.18579840  0.58261818  0.73297345  1.0
  H  H9  1  0.25249149  0.58090045  0.87646196  1.0
  H  H10  1  0.53853459  0.76529737  0.39490169  1.0
  H  H11  1  0.80602810  0.23416567  0.40025397  1.0
  H  H12  1  0.36562369  0.11362547  0.55145298  1.0
  H  H13  1  0.24110767  0.87654758  0.54285261  1.0
  H  H14  1  0.13242012  0.89591436  0.32832544  1.0
  H  H15  1  0.22751557  0.76184199  0.31359217  1.0
  H  H16  1  0.26255087  0.88261891  0.24849310  1.0
  H  H17  1  0.39942619  0.11703241  0.25174390  1.0
  H  H18  1  0.49909138  0.24640493  0.32418821  1.0
  H  H19  1  0.26187701  0.12537107  0.33012948  1.0
  C  C20  1  0.86845490  0.72418524  0.48636426  1.0
  C  C21  1  0.80879747  0.50758966  0.63984852  1.0
  C  C22  1  0.14969107  0.27187256  0.50203227  1.0
  C  C23  1  0.21155173  0.48767068  0.36162551  1.0
  C  C24  1  0.16356852  0.48906698  0.27651834  1.0
  C  C25  1  0.95148684  0.44746739  0.23992645  1.0
  C  C26  1  0.90407103  0.44879784  0.16091871  1.0
  C  C27  1  0.06653207  0.49465803  0.11614292  1.0
  C  C28  1  0.27949227  0.53811118  0.15436128  1.0
  C  C29  1  0.32774423  0.53371614  0.23341574  1.0
  C  C30  1  0.01528514  0.49648993  0.03594761  1.0
  C  C31  1  0.96622959  0.49606951  0.96652357  1.0
  C  C32  1  0.92299111  0.49828487  0.88604014  1.0
  C  C33  1  0.71431149  0.45276614  0.84436607  1.0
  C  C34  1  0.67641594  0.45737816  0.76500839  1.0
  C  C35  1  0.84718666  0.50434967  0.72514794  1.0
  C  C36  1  0.05530654  0.54780349  0.76522594  1.0
  C  C37  1  0.09210131  0.54631225  0.84449836  1.0
  C  C38  1  0.93394857  0.86416854  0.48075830  1.0
  C  C39  1  0.79700824  0.93053578  0.44252702  1.0
  C  C40  1  0.13772713  0.92967399  0.51634464  1.0
  C  C41  1  0.59629276  0.86852111  0.39783906  1.0
  C  C42  1  0.47303983  0.93431610  0.35710284  1.0
  C  C43  1  0.07528445  0.13078081  0.48893442  1.0
  C  C44  1  0.20820874  0.06272619  0.52096628  1.0
  C  C45  1  0.87148956  0.06676791  0.44571483  1.0
  C  C46  1  0.74420597  0.13181938  0.40217693  1.0
  C  C47  1  0.54955583  0.06975716  0.35903771  1.0
  C  C48  1  0.26335674  0.86461001  0.30959530  1.0
  C  C49  1  0.42176304  0.14380524  0.31402245  1.0
  Cl  Cl50  1  0.48201551  0.59763853  0.10191172  1.0
  Cl  Cl51  1  0.50435944  0.39029681  0.89299004  1.0
  O  O52  1  0.00893973  0.66676322  0.47975385  1.0
  O  O53  1  0.61773425  0.48940198  0.60735583  1.0
  O  O54  1  0.34207574  0.32595512  0.49493324  1.0
  O  O55  1  0.05174484  0.46444838  0.39727577  1.0
  O  O56  1  0.01780545  0.32917316  0.52001200  1.0
  O  O57  1  0.40496055  0.50860245  0.39237736  1.0
  O  O58  1  0.68170949  0.67164733  0.50037987  1.0
  O  O59  1  0.97235479  0.52977013  0.60607447  1.0
  O  O60  1  0.30444143  0.56286237  0.53280622  1.0
  O  O61  1  0.72139543  0.43406930  0.46908519  1.0
