# generated using pymatgen
data_ZnH15C21NO6
_symmetry_space_group_name_H-M   'P 1'
_cell_length_a   13.26018390
_cell_length_b   16.39315586
_cell_length_c   17.82570285
_cell_angle_alpha   94.84414023
_cell_angle_beta   90.18893879
_cell_angle_gamma   92.13266185
_symmetry_Int_Tables_number   1
_chemical_formula_structural   ZnH15C21NO6
_chemical_formula_sum   'Zn2 H30 C42 N2 O12'
_cell_volume   3858.28885585
_cell_formula_units_Z   2
loop_
 _symmetry_equiv_pos_site_id
 _symmetry_equiv_pos_as_xyz
  1  'x, y, z'
loop_
 _atom_site_type_symbol
 _atom_site_label
 _atom_site_symmetry_multiplicity
 _atom_site_fract_x
 _atom_site_fract_y
 _atom_site_fract_z
 _atom_site_occupancy
  Zn  Zn0  1  0.50626984  0.41553294  0.49801160  1.0
  Zn  Zn1  1  0.49372753  0.58446691  0.50194734  1.0
  H  H2  1  0.39019737  0.71573870  0.42331039  1.0
  H  H3  1  0.39822811  0.86705443  0.42593418  1.0
  H  H4  1  0.63295543  0.86390073  0.59717123  1.0
  H  H5  1  0.61219230  0.71547334  0.58623127  1.0
  H  H6  1  0.36705672  0.13609228  0.40281637  1.0
  H  H7  1  0.60173278  0.13295497  0.57409614  1.0
  H  H8  1  0.60976581  0.28427137  0.57670540  1.0
  H  H9  1  0.38782791  0.28451483  0.41373856  1.0
  H  H10  1  0.50102575  0.61571239  0.26250541  1.0
  H  H11  1  0.50204114  0.60996812  0.12419265  1.0
  H  H12  1  0.49607171  0.34428756  0.11813160  1.0
  H  H13  1  0.49593991  0.35377792  0.25367466  1.0
  H  H14  1  0.50393646  0.65571783  0.88182220  1.0
  H  H15  1  0.49808105  0.39004029  0.87577398  1.0
  H  H16  1  0.49906390  0.38429355  0.73746432  1.0
  H  H17  1  0.50401005  0.64622441  0.74627541  1.0
  H  H18  1  0.83098626  0.39190657  0.49622294  1.0
  H  H19  1  0.80913938  0.65121594  0.50492889  1.0
  H  H20  1  0.16901091  0.60809152  0.50354063  1.0
  H  H21  1  0.19086158  0.34879521  0.49512578  1.0
  H  H22  1  0.62756387  0.96396421  0.59601260  1.0
  H  H23  1  0.37241107  0.03603910  0.40400885  1.0
  H  H24  1  0.49292810  0.35269138  0.02987606  1.0
  H  H25  1  0.50713167  0.64732073  0.97008401  1.0
  H  H26  1  0.01971706  0.26691142  0.44206249  1.0
  H  H27  1  0.91269735  0.29871129  0.49398792  1.0
  H  H28  1  0.02232222  0.27179549  0.54159624  1.0
  H  H29  1  0.97884516  0.72778116  0.45761524  1.0
  H  H30  1  0.08732432  0.70132944  0.50688991  1.0
  H  H31  1  0.97911755  0.73344266  0.55718429  1.0
  C  C32  1  0.49778834  0.48973009  0.35177630  1.0
  C  C33  1  0.30168779  0.48997344  0.49906251  1.0
  C  C34  1  0.50221176  0.51026364  0.64818216  1.0
  C  C35  1  0.69831184  0.51004303  0.50087702  1.0
  C  C36  1  0.44228574  0.75233785  0.46114954  1.0
  C  C37  1  0.44726879  0.83718667  0.46286387  1.0
  C  C38  1  0.51560172  0.88336154  0.51226116  1.0
  C  C39  1  0.57605653  0.83691821  0.55705455  1.0
  C  C40  1  0.56619309  0.75213579  0.55211847  1.0
  C  C41  1  0.52657734  0.97306478  0.51962609  1.0
  C  C42  1  0.47341416  0.02693795  0.48038581  1.0
  C  C43  1  0.42394281  0.16307477  0.44294256  1.0
  C  C44  1  0.48438682  0.11664242  0.48774859  1.0
  C  C45  1  0.55270620  0.16281788  0.53715375  1.0
  C  C46  1  0.55769020  0.24767102  0.53885609  1.0
  C  C47  1  0.43381087  0.24785968  0.44786706  1.0
  C  C48  1  0.49766237  0.48534199  0.26761071  1.0
  C  C49  1  0.49956321  0.55664747  0.22943101  1.0
  C  C50  1  0.50017226  0.55328462  0.15132197  1.0
  C  C51  1  0.49853557  0.47743180  0.10670131  1.0
  C  C52  1  0.49672107  0.40612803  0.14665126  1.0
  C  C53  1  0.49649942  0.40976296  0.22476287  1.0
  C  C54  1  0.49864437  0.46901972  0.02401587  1.0
  C  C55  1  0.50142233  0.53099545  0.97594390  1.0
  C  C56  1  0.50330697  0.59388287  0.85330359  1.0
  C  C57  1  0.50152707  0.52257723  0.89326188  1.0
  C  C58  1  0.49991701  0.44672929  0.84864728  1.0
  C  C59  1  0.50050910  0.44335849  0.77053252  1.0
  C  C60  1  0.50235633  0.51466277  0.73234587  1.0
  C  C61  1  0.50349420  0.59023751  0.77519276  1.0
  C  C62  1  0.86982461  0.45167157  0.49843069  1.0
  C  C63  1  0.85777409  0.59888080  0.50349174  1.0
  C  C64  1  0.96146562  0.61068405  0.50377660  1.0
  C  C65  1  0.02357767  0.54064574  0.50132269  1.0
  C  C66  1  0.13016818  0.54832873  0.50140038  1.0
  C  C67  1  0.14223256  0.40112392  0.49647771  1.0
  C  C68  1  0.03852980  0.38932335  0.49612629  1.0
  C  C69  1  0.97642425  0.45935633  0.49852761  1.0
  C  C70  1  0.81114889  0.51979632  0.50094197  1.0
  C  C71  1  0.18884433  0.48021228  0.49896999  1.0
  C  C72  1  0.99518304  0.30261686  0.49334283  1.0
  C  C73  1  0.00482315  0.69737981  0.50647731  1.0
  N  N74  1  0.50001962  0.71004620  0.50506806  1.0
  N  N75  1  0.49997535  0.28995048  0.49492260  1.0
  O  O76  1  0.50203559  0.42234294  0.38237845  1.0
  O  O77  1  0.49388313  0.56077514  0.38657450  1.0
  O  O78  1  0.34030886  0.56259561  0.50144887  1.0
  O  O79  1  0.35085511  0.42446608  0.49677574  1.0
  O  O80  1  0.49782706  0.57766304  0.61757790  1.0
  O  O81  1  0.50624207  0.43924923  0.61338501  1.0
  O  O82  1  0.65968284  0.43743048  0.49836913  1.0
  O  O83  1  0.64914510  0.57557747  0.50330398  1.0
  O  O84  1  0.59679591  0.00729568  0.57090959  1.0
  O  O85  1  0.40319625  0.99270522  0.42909768  1.0
  O  O86  1  0.49571772  0.39001771  0.99029787  1.0
  O  O87  1  0.50434370  0.60999745  0.00966581  1.0
