# generated using pymatgen
data_ZnH19C22(NO2)3
_symmetry_space_group_name_H-M   'P 1'
_cell_length_a   9.60507295
_cell_length_b   14.12506212
_cell_length_c   14.47500000
_cell_angle_alpha   99.66893223
_cell_angle_beta   103.35451320
_cell_angle_gamma   107.15371374
_symmetry_Int_Tables_number   1
_chemical_formula_structural   ZnH19C22(NO2)3
_chemical_formula_sum   'Zn2 H38 C44 N6 O12'
_cell_volume   1765.91035613
_cell_formula_units_Z   2
loop_
 _symmetry_equiv_pos_site_id
 _symmetry_equiv_pos_as_xyz
  1  'x, y, z'
loop_
 _atom_site_type_symbol
 _atom_site_label
 _atom_site_symmetry_multiplicity
 _atom_site_fract_x
 _atom_site_fract_y
 _atom_site_fract_z
 _atom_site_occupancy
  Zn  Zn0  1  0.37348032  0.54078297  0.67399577  1.0
  Zn  Zn1  1  0.62651901  0.45921464  0.32600926  1.0
  H  H2  1  0.41943179  0.84607169  0.59298532  1.0
  H  H3  1  0.58055509  0.15392669  0.40700894  1.0
  H  H4  1  0.54989875  0.02978245  0.59933512  1.0
  H  H5  1  0.45009336  0.97021363  0.40065612  1.0
  H  H6  1  0.94877148  0.03497843  0.81295589  1.0
  H  H7  1  0.05121781  0.96501842  0.18703919  1.0
  H  H8  1  0.81183340  0.85210876  0.81104126  1.0
  H  H9  1  0.18814987  0.14788885  0.18895786  1.0
  H  H10  1  0.54775999  0.31617323  0.81099597  1.0
  H  H11  1  0.45224495  0.68382285  0.18900208  1.0
  H  H12  1  0.68327070  0.18848074  0.82562818  1.0
  H  H13  1  0.31672758  0.81151074  0.17436394  1.0
  H  H14  1  0.81776421  0.23765522  0.56936283  1.0
  H  H15  1  0.18224780  0.76234622  0.43063510  1.0
  H  H16  1  0.67642386  0.36083580  0.55206345  1.0
  H  H17  1  0.32359521  0.63917101  0.44794128  1.0
  H  H18  1  0.41217091  0.68574942  0.86366493  1.0
  H  H19  1  0.58782652  0.31425279  0.13633504  1.0
  H  H20  1  0.28658723  0.68558779  0.00028493  1.0
  H  H21  1  0.71341447  0.31441442  0.99971846  1.0
  H  H22  1  0.93825354  0.40126529  0.82081666  1.0
  H  H23  1  0.06175220  0.59873232  0.17919281  1.0
  H  H24  1  0.07301222  0.41603510  0.69054168  1.0
  H  H25  1  0.92698603  0.58396251  0.30946457  1.0
  H  H26  1  0.31402546  0.45625470  0.45920024  1.0
  H  H27  1  0.68598025  0.54374904  0.54080470  1.0
  H  H28  1  0.89710032  0.39320513  0.43394815  1.0
  H  H29  1  0.10290151  0.60679938  0.56605287  1.0
  H  H30  1  0.85134894  0.28799637  0.33191392  1.0
  H  H31  1  0.14865649  0.71200890  0.66808709  1.0
  H  H32  1  0.93249868  0.28015989  0.45336833  1.0
  H  H33  1  0.06750782  0.71984538  0.54663491  1.0
  H  H34  1  0.00264277  0.30446830  0.24174476  1.0
  H  H35  1  0.99736319  0.69554004  0.75825682  1.0
  H  H36  1  0.14903600  0.42702149  0.27574412  1.0
  H  H37  1  0.85097288  0.57298837  0.72425886  1.0
  H  H38  1  0.19684317  0.31820014  0.29492458  1.0
  H  H39  1  0.80316239  0.68180743  0.70507682  1.0
  C  C40  1  0.53004008  0.72910131  0.70002859  1.0
  C  C41  1  0.46994399  0.27089783  0.29996883  1.0
  C  C42  1  0.60786571  0.83787977  0.70161215  1.0
  C  C43  1  0.39211772  0.16211401  0.29838360  1.0
  C  C44  1  0.53453207  0.88818185  0.64194873  1.0
  C  C45  1  0.46545627  0.11181730  0.35804658  1.0
  C  C46  1  0.60736084  0.99008979  0.64467874  1.0
  C  C47  1  0.39262885  0.00990782  0.35531307  1.0
  C  C48  1  0.75703932  0.04152262  0.70612828  1.0
  C  C49  1  0.24295092  0.95847193  0.29386380  1.0
  C  C50  1  0.83257351  0.99255640  0.76560754  1.0
  C  C51  1  0.16741578  0.00744044  0.23438616  1.0
  C  C52  1  0.75689482  0.89141143  0.76380446  1.0
  C  C53  1  0.24308765  0.10858465  0.23619083  1.0
  C  C54  1  0.52328488  0.42095454  0.67350177  1.0
  C  C55  1  0.47672379  0.57904460  0.32649804  1.0
  C  C56  1  0.60628069  0.34709323  0.68197656  1.0
  C  C57  1  0.39372771  0.65290744  0.31802276  1.0
  C  C58  1  0.60709179  0.29784827  0.75856807  1.0
  C  C59  1  0.39291248  0.70214857  0.24142861  1.0
  C  C60  1  0.68188539  0.22768305  0.76682467  1.0
  C  C61  1  0.31811662  0.77231149  0.23317198  1.0
  C  C62  1  0.75747457  0.20730668  0.69815158  1.0
  C  C63  1  0.24252823  0.79268940  0.30184406  1.0
  C  C64  1  0.75869521  0.25598554  0.62194519  1.0
  C  C65  1  0.24131466  0.74401590  0.37805311  1.0
  C  C66  1  0.68212218  0.32554406  0.61361694  1.0
  C  C67  1  0.31788848  0.67445891  0.38638449  1.0
  C  C68  1  0.30604710  0.62562225  0.85757141  1.0
  C  C69  1  0.69394914  0.37437766  0.14243076  1.0
  C  C70  1  0.23798969  0.62475740  0.93255934  1.0
  C  C71  1  0.76201083  0.37524251  0.06744486  1.0
  C  C72  1  0.10625830  0.54192589  0.92076120  1.0
  C  C73  1  0.89374396  0.45807326  0.07924523  1.0
  C  C74  1  0.04282909  0.46501961  0.83250832  1.0
  C  C75  1  0.95717491  0.53497877  0.16750032  1.0
  C  C76  1  0.11668121  0.47315254  0.76080663  1.0
  C  C77  1  0.88331851  0.52684583  0.23919928  1.0
  C  C78  1  0.20213775  0.42740834  0.47202640  1.0
  C  C79  1  0.79786582  0.57259540  0.52797684  1.0
  C  C80  1  0.93309133  0.33107020  0.40363383  1.0
  C  C81  1  0.06691743  0.66893737  0.59636738  1.0
  C  C82  1  0.11058469  0.35441188  0.29622061  1.0
  C  C83  1  0.88942075  0.64559340  0.70378246  1.0
  N  N84  1  0.24631185  0.55129213  0.77332038  1.0
  N  N85  1  0.75368573  0.44870625  0.22668244  1.0
  N  N86  1  0.04297696  0.54346024  0.99993067  1.0
  N  N87  1  0.95702930  0.45654043  0.00007593  1.0
  N  N88  1  0.08539439  0.37156327  0.39289584  1.0
  N  N89  1  0.91460970  0.62844353  0.60710590  1.0
  O  O90  1  0.40569636  0.67589445  0.63034930  1.0
  O  O91  1  0.59430031  0.32410010  0.36964515  1.0
  O  O92  1  0.58584075  0.69053480  0.76614891  1.0
  O  O93  1  0.41413674  0.30946817  0.23385503  1.0
  O  O94  1  0.52648007  0.46880839  0.60660476  1.0
  O  O95  1  0.47353087  0.53119305  0.39339646  1.0
  O  O96  1  0.44951310  0.43455156  0.73511225  1.0
  O  O97  1  0.55049264  0.56544605  0.26488686  1.0
  O  O98  1  0.83841375  0.14083448  0.70741374  1.0
  O  O99  1  0.16158279  0.85915777  0.29257686  1.0
  O  O100  1  0.18462362  0.44713283  0.55642972  1.0
  O  O101  1  0.81537983  0.55286862  0.44357312  1.0
