# generated using pymatgen
data_MgH3C7SO3
_symmetry_space_group_name_H-M   'P 1'
_cell_length_a   6.84072429
_cell_length_b   26.98348855
_cell_length_c   26.99262775
_cell_angle_alpha   119.26326630
_cell_angle_beta   94.85733505
_cell_angle_gamma   94.82239918
_symmetry_Int_Tables_number   1
_chemical_formula_structural   MgH3C7SO3
_chemical_formula_sum   'Mg6 H18 C42 S6 O18'
_cell_volume   4285.67036217
_cell_formula_units_Z   6
loop_
 _symmetry_equiv_pos_site_id
 _symmetry_equiv_pos_as_xyz
  1  'x, y, z'
loop_
 _atom_site_type_symbol
 _atom_site_label
 _atom_site_symmetry_multiplicity
 _atom_site_fract_x
 _atom_site_fract_y
 _atom_site_fract_z
 _atom_site_occupancy
  Mg  Mg0  1  0.52312469  0.62565914  0.32868033  1.0
  Mg  Mg1  1  0.47688308  0.37434090  0.67132014  1.0
  Mg  Mg2  1  0.19438383  0.67142201  0.29690256  1.0
  Mg  Mg3  1  0.80562069  0.32857836  0.70309695  1.0
  Mg  Mg4  1  0.89743835  0.70316453  0.37438254  1.0
  Mg  Mg5  1  0.10256799  0.29683533  0.62561819  1.0
  H  H6  1  0.18327208  0.40733320  0.86648372  1.0
  H  H7  1  0.88056215  0.43955514  0.83869591  1.0
  H  H8  1  0.80189817  0.46766212  0.93642945  1.0
  H  H9  1  0.81671160  0.59266773  0.13351464  1.0
  H  H10  1  0.11943849  0.56044507  0.16130774  1.0
  H  H11  1  0.19809538  0.53234342  0.06357524  1.0
  H  H12  1  0.31709056  0.13352268  0.54083166  1.0
  H  H13  1  0.04236169  0.16117117  0.60075047  1.0
  H  H14  1  0.86604311  0.06350945  0.53088932  1.0
  H  H15  1  0.68291318  0.86647523  0.45916583  1.0
  H  H16  1  0.95764681  0.83882896  0.39925139  1.0
  H  H17  1  0.13396354  0.93648904  0.46911046  1.0
  H  H18  1  0.77561258  0.45907619  0.59259258  1.0
  H  H19  1  0.44128820  0.39929718  0.56058180  1.0
  H  H20  1  0.33423938  0.46904838  0.53258521  1.0
  H  H21  1  0.22438768  0.54092364  0.40741069  1.0
  H  H22  1  0.55871170  0.60070551  0.43941789  1.0
  H  H23  1  0.66574436  0.53095257  0.46741617  1.0
  C  C24  1  0.48608586  0.43963953  0.90826743  1.0
  C  C25  1  0.33739542  0.41431042  0.86103412  1.0
  C  C26  1  0.38056450  0.39595950  0.80496101  1.0
  C  C27  1  0.58107658  0.40592350  0.79671071  1.0
  C  C28  1  0.72845073  0.43266713  0.84556684  1.0
  C  C29  1  0.68396705  0.44824092  0.89979649  1.0
  C  C30  1  0.21521700  0.36632125  0.75706562  1.0
  C  C31  1  0.51389931  0.56036246  0.09173284  1.0
  C  C32  1  0.66259369  0.58569132  0.13896548  1.0
  C  C33  1  0.61943391  0.60403999  0.19503892  1.0
  C  C34  1  0.41892544  0.59407624  0.20329033  1.0
  C  C35  1  0.27154917  0.56733234  0.15443607  1.0
  C  C36  1  0.31601817  0.55176151  0.10020637  1.0
  C  C37  1  0.78479646  0.63367758  0.24293279  1.0
  C  C38  1  0.57820777  0.09169522  0.53117016  1.0
  C  C39  1  0.47663451  0.13892204  0.55324507  1.0
  C  C40  1  0.57594972  0.19495546  0.59106909  1.0
  C  C41  1  0.78464745  0.20318090  0.60926321  1.0
  C  C42  1  0.88333183  0.15431905  0.58701691  1.0
  C  C43  1  0.78465049  0.10014393  0.54823774  1.0
  C  C44  1  0.45843072  0.24286267  0.60937512  1.0
  C  C45  1  0.42179818  0.90830362  0.46883084  1.0
  C  C46  1  0.52336968  0.86107840  0.44675666  1.0
  C  C47  1  0.42405938  0.80504260  0.40892726  1.0
  C  C48  1  0.21535739  0.79681897  0.39073452  1.0
  C  C49  1  0.11667088  0.84568099  0.41298227  1.0
  C  C50  1  0.21535801  0.89985663  0.45176369  1.0
  C  C51  1  0.54157301  0.75713545  0.39062215  1.0
  C  C52  1  0.04628000  0.46872073  0.56044695  1.0
  C  C53  1  0.92285779  0.44668987  0.58565599  1.0
  C  C54  1  0.98447562  0.40892100  0.60398479  1.0
  C  C55  1  0.17514451  0.39076228  0.59407365  1.0
  C  C56  1  0.29597160  0.41300201  0.56744584  1.0
  C  C57  1  0.23573837  0.45170791  0.55192014  1.0
  C  C58  1  0.84880648  0.39057666  0.63356631  1.0
  C  C59  1  0.95371239  0.53128283  0.43955446  1.0
  C  C60  1  0.07714470  0.55331412  0.41434758  1.0
  C  C61  1  0.01551779  0.59107978  0.39601557  1.0
  C  C62  1  0.82486117  0.60924050  0.40592870  1.0
  C  C63  1  0.70403121  0.58700170  0.43255573  1.0
  C  C64  1  0.76425323  0.54829361  0.44807881  1.0
  C  C65  1  0.15119086  0.60942301  0.36643423  1.0
  S  S66  1  0.57292177  0.54312014  0.02340701  1.0
  S  S67  1  0.42705339  0.45688444  0.97659414  1.0
  S  S68  1  0.54869755  0.97666461  0.51992405  1.0
  S  S69  1  0.45131122  0.02333329  0.48007472  1.0
  S  S70  1  0.02987182  0.48021852  0.45688954  1.0
  S  S71  1  0.97011554  0.51978075  0.54311489  1.0
  O  O72  1  0.95927229  0.64494066  0.23450483  1.0
  O  O73  1  0.74855225  0.64812614  0.29427691  1.0
  O  O74  1  0.36134627  0.60901820  0.25447388  1.0
  O  O75  1  0.04073255  0.35505943  0.76549269  1.0
  O  O76  1  0.25145186  0.35187085  0.70572224  1.0
  O  O77  1  0.63866044  0.39098010  0.74552915  1.0
  O  O78  1  0.72445038  0.76550179  0.41030838  1.0
  O  O79  1  0.45413705  0.70579489  0.35370143  1.0
  O  O80  1  0.10668601  0.74565471  0.35443121  1.0
  O  O81  1  0.27555909  0.23449685  0.58968812  1.0
  O  O82  1  0.54586238  0.29420333  0.64629593  1.0
  O  O83  1  0.89332463  0.25434548  0.64556899  1.0
  O  O84  1  0.31439342  0.58971672  0.35511567  1.0
  O  O85  1  0.10055459  0.64638074  0.35203532  1.0
  O  O86  1  0.75236311  0.64553871  0.39101525  1.0
  O  O87  1  0.68560147  0.41028662  0.64488510  1.0
  O  O88  1  0.89945386  0.35361895  0.64796395  1.0
  O  O89  1  0.24764539  0.35446185  0.60898617  1.0
