# generated using pymatgen
data_Al4H67C86(NO6)5
_symmetry_space_group_name_H-M   'P 1'
_cell_length_a   6.68041304
_cell_length_b   20.29032560
_cell_length_c   24.12770955
_cell_angle_alpha   89.32252401
_cell_angle_beta   89.72042494
_cell_angle_gamma   88.13683554
_symmetry_Int_Tables_number   1
_chemical_formula_structural   Al4H67C86(NO6)5
_chemical_formula_sum   'Al4 H67 C86 N5 O30'
_cell_volume   3268.46631047
_cell_formula_units_Z   1
loop_
 _symmetry_equiv_pos_site_id
 _symmetry_equiv_pos_as_xyz
  1  'x, y, z'
loop_
 _atom_site_type_symbol
 _atom_site_label
 _atom_site_symmetry_multiplicity
 _atom_site_fract_x
 _atom_site_fract_y
 _atom_site_fract_z
 _atom_site_occupancy
  Al  Al0  1  0.10324218  0.50261399  0.49905266  1.0
  Al  Al1  1  0.60073028  0.50352506  0.49942735  1.0
  Al  Al2  1  0.71583571  0.99965372  0.99903159  1.0
  Al  Al3  1  0.21807211  0.00098798  0.99965636  1.0
  H  H4  1  0.65677014  0.71395910  0.53056014  1.0
  H  H5  1  0.10598830  0.67547579  0.93294537  1.0
  H  H6  1  0.90052453  0.88446118  0.83739550  1.0
  H  H7  1  0.95172579  0.61232854  0.74824146  1.0
  H  H8  1  0.67625756  0.82037954  0.57926790  1.0
  H  H9  1  0.66836357  0.33765032  0.77235843  1.0
  H  H10  1  0.23812859  0.29721330  0.72694750  1.0
  H  H11  1  0.15607137  0.16040426  0.72584748  1.0
  H  H12  1  0.79352385  0.19050094  0.66732780  1.0
  H  H13  1  0.25456395  0.65453336  0.22171407  1.0
  H  H14  1  0.63071872  0.69854610  0.18468673  1.0
  H  H15  1  0.73313750  0.72404047  0.29647214  1.0
  H  H16  1  0.37295582  0.37924517  0.15581472  1.0
  H  H17  1  0.33651992  0.38242847  0.33574155  1.0
  H  H18  1  0.43440794  0.32357045  0.07147270  1.0
  H  H19  1  0.34072715  0.38124331  0.25665236  1.0
  H  H20  1  0.58506779  0.11739034  0.25475937  1.0
  H  H21  1  0.50966832  0.17921986  0.44317718  1.0
  H  H22  1  0.20192367  0.39684928  0.79884752  1.0
  H  H23  1  0.95034072  0.41760868  0.81669759  1.0
  H  H24  1  0.13732389  0.41626192  0.86816810  1.0
  H  H25  1  0.93833809  0.31336159  0.87683684  1.0
  H  H26  1  0.18856910  0.29332746  0.85836862  1.0
  H  H27  1  0.13327538  0.75919284  0.11800395  1.0
  H  H28  1  0.00077560  0.69806082  0.15511548  1.0
  H  H29  1  0.87135200  0.76828780  0.12601089  1.0
  H  H30  1  0.91466113  0.77865684  0.22986369  1.0
  H  H31  1  0.02939940  0.84239877  0.19229931  1.0
  H  H32  1  0.25733471  0.92066259  0.32645901  1.0
  H  H33  1  0.06687225  0.90421161  0.27866081  1.0
  H  H34  1  0.00807723  0.91466352  0.34992897  1.0
  H  H35  1  0.00905575  0.79479056  0.33062294  1.0
  H  H36  1  0.21250152  0.81070406  0.37362980  1.0
  H  H37  1  0.48425449  0.86872842  0.37445920  1.0
  H  H38  1  0.72090682  0.82831099  0.36753150  1.0
  H  H39  1  0.70080005  0.91589257  0.36656568  1.0
  H  H40  1  0.75208860  0.87318071  0.26968091  1.0
  H  H41  1  0.51966456  0.91528159  0.27596109  1.0
  H  H42  1  0.10889033  0.31118028  0.51653749  1.0
  H  H43  1  0.15825532  0.22473892  0.52064352  1.0
  H  H44  1  0.21098705  0.27575994  0.57821992  1.0
  H  H45  1  0.52823052  0.24330670  0.52607971  1.0
  H  H46  1  0.48253400  0.32936128  0.52496777  1.0
  H  H47  1  0.32860690  0.08306218  0.40736268  1.0
  H  H48  1  0.35388936  0.03941039  0.34444613  1.0
  H  H49  1  0.49349478  0.01243870  0.40362919  1.0
  H  H50  1  0.70967449  0.07227245  0.33463432  1.0
  H  H51  1  0.69700948  0.11357473  0.39837553  1.0
  H  H52  1  0.17241544  0.18521871  0.98668572  1.0
  H  H53  1  0.18711168  0.27235235  0.98176113  1.0
  H  H54  1  0.28011189  0.22161826  0.92677721  1.0
  H  H55  1  0.55973268  0.26382705  0.98661127  1.0
  H  H56  1  0.55643978  0.17725228  0.98409777  1.0
  H  H57  1  0.69618189  0.03541320  0.13927529  1.0
  H  H58  1  0.73690416  0.06814255  0.20526635  1.0
  H  H59  1  0.59840120  0.99503292  0.19883918  1.0
  H  H60  1  0.34987869  0.08721168  0.21386808  1.0
  H  H61  1  0.32925573  0.05706935  0.14675520  1.0
  H  H62  1  0.49480605  0.89212142  0.63804013  1.0
  H  H63  1  0.56515971  0.94124168  0.69469116  1.0
  H  H64  1  0.57499106  0.97400105  0.62598619  1.0
  H  H65  1  0.91772786  0.94258981  0.65961245  1.0
  H  H66  1  0.85585793  0.89575150  0.60179777  1.0
  H  H67  1  0.35114746  0.48994645  0.57139829  1.0
  H  H68  1  0.85519624  0.47081013  0.43347171  1.0
  H  H69  1  0.46516378  0.01135596  0.92702144  1.0
  H  H70  1  0.96857848  0.97579583  0.06712389  1.0
  C  C71  1  0.34360868  0.58418052  0.42570237  1.0
  C  C72  1  0.36489364  0.40417238  0.44362839  1.0
  C  C73  1  0.85901205  0.42448634  0.57616292  1.0
  C  C74  1  0.84112388  0.59931269  0.55652792  1.0
  C  C75  1  0.99293699  0.83876388  0.91220682  1.0
  C  C76  1  0.83154858  0.66000253  0.59168652  1.0
  C  C77  1  0.06730293  0.72052380  0.91016896  1.0
  C  C78  1  0.05775372  0.77931600  0.93795032  1.0
  C  C79  1  0.95436220  0.83828145  0.85600747  1.0
  C  C80  1  0.97879638  0.78043841  0.82402134  1.0
  C  C81  1  0.02046321  0.71945843  0.85325337  1.0
  C  C82  1  0.95630344  0.78048099  0.76428590  1.0
  C  C83  1  0.94904024  0.71974317  0.73591176  1.0
  C  C84  1  0.97122791  0.66005235  0.76692578  1.0
  C  C85  1  0.00958522  0.66009058  0.82246663  1.0
  C  C86  1  0.93336491  0.83941100  0.73106222  1.0
  C  C87  1  0.85881924  0.84091190  0.67785927  1.0
  C  C88  1  0.82998966  0.77864246  0.65123606  1.0
  C  C89  1  0.90515959  0.71925287  0.67719721  1.0
  C  C90  1  0.74122415  0.77572023  0.59814484  1.0
  C  C91  1  0.73218243  0.71695194  0.57034819  1.0
  C  C92  1  0.92131274  0.66262885  0.64327272  1.0
  C  C93  1  0.77871010  0.29880386  0.76177777  1.0
  C  C94  1  0.97972452  0.28281404  0.79348097  1.0
  C  C95  1  0.95142686  0.12514760  0.87803630  1.0
  C  C96  1  0.86367088  0.37655662  0.62056953  1.0
  C  C97  1  0.73489653  0.22445983  0.75862434  1.0
  C  C98  1  0.93513079  0.20606695  0.79237423  1.0
  C  C99  1  0.84936971  0.21647139  0.70318340  1.0
  C  C100  1  0.89462745  0.29285874  0.70440087  1.0
  C  C101  1  0.04873617  0.20051261  0.73500510  1.0
  C  C102  1  0.09464885  0.27542993  0.73687070  1.0
  C  C103  1  0.94633739  0.16223427  0.83798195  1.0
  C  C104  1  0.87378648  0.33732002  0.65912166  1.0
  C  C105  1  0.53409224  0.72320071  0.21523991  1.0
  C  C106  1  0.32516862  0.69957504  0.23495311  1.0
  C  C107  1  0.34295639  0.63227210  0.38157623  1.0
  C  C108  1  0.47751097  0.87580181  0.12166050  1.0
  C  C109  1  0.59156513  0.73829411  0.27630253  1.0
  C  C110  1  0.38264797  0.71373607  0.29704442  1.0
  C  C111  1  0.50279963  0.81044161  0.27038272  1.0
  C  C112  1  0.44427997  0.79579170  0.20762089  1.0
  C  C113  1  0.29109071  0.78679519  0.29005742  1.0
  C  C114  1  0.23296270  0.77117376  0.22855626  1.0
  C  C115  1  0.35577124  0.67063650  0.34255040  1.0
  C  C116  1  0.46955455  0.83855361  0.16165331  1.0
  C  C117  1  0.45539285  0.15800855  0.09142543  1.0
  C  C118  1  0.38419738  0.33901748  0.41533894  1.0
  C  C119  1  0.44167490  0.27556793  0.09254936  1.0
  C  C120  1  0.46069721  0.21866459  0.06189044  1.0
  C  C121  1  0.44884049  0.15302988  0.14928736  1.0
  C  C122  1  0.44702346  0.21247523  0.18097830  1.0
  C  C123  1  0.42889960  0.27379950  0.15090376  1.0
  C  C124  1  0.45700870  0.21576855  0.24124557  1.0
  C  C125  1  0.41223529  0.27617611  0.26873551  1.0
  C  C126  1  0.37556546  0.33458788  0.23641784  1.0
  C  C127  1  0.39217908  0.33370965  0.18003296  1.0
  C  C128  1  0.52548090  0.16131233  0.27478657  1.0
  C  C129  1  0.53346275  0.16175640  0.33165129  1.0
  C  C130  1  0.47116305  0.22033812  0.36042090  1.0
  C  C131  1  0.41603576  0.27810704  0.32872645  1.0
  C  C132  1  0.47223112  0.22371357  0.41902142  1.0
  C  C133  1  0.43087359  0.28146030  0.44736073  1.0
  C  C134  1  0.37367262  0.33683330  0.35818080  1.0
  C  C135  1  0.45455766  0.09645378  0.05743322  1.0
  C  C136  1  0.47777628  0.92052981  0.07502902  1.0
  C  C137  1  0.98148871  0.90299011  0.94287321  1.0
  C  C138  1  0.95628401  0.07975015  0.92423895  1.0
  C  C139  1  0.05022839  0.31832222  0.84340864  1.0
  C  C140  1  0.08668316  0.39102746  0.83107686  1.0
  C  C141  1  0.03772466  0.78884873  0.20079763  1.0
  C  C142  1  0.00931409  0.75136880  0.14699670  1.0
  C  C143  1  0.15330675  0.81965524  0.33150738  1.0
  C  C144  1  0.11940952  0.89379745  0.32101261  1.0
  C  C145  1  0.60462208  0.87076548  0.28996354  1.0
  C  C146  1  0.62908229  0.87096434  0.35307464  1.0
  C  C147  1  0.42607534  0.28253273  0.50984825  1.0
  C  C148  1  0.21366076  0.27292270  0.53275387  1.0
  C  C149  1  0.60757643  0.10038941  0.36220370  1.0
  C  C150  1  0.43643534  0.05622156  0.38067386  1.0
  C  C151  1  0.47276961  0.22100600  0.99939566  1.0
  C  C152  1  0.26565102  0.22543713  0.97198461  1.0
  C  C153  1  0.42882824  0.08420564  0.17391672  1.0
  C  C154  1  0.62622314  0.04345523  0.17989777  1.0
  C  C155  1  0.81866032  0.90410226  0.64563178  1.0
  C  C156  1  0.59996500  0.92926239  0.65143512  1.0
  N  N157  1  0.02619842  0.59447271  0.84952460  1.0
  N  N158  1  0.54866203  0.19325051  0.77344509  1.0
  N  N159  1  0.04775852  0.60451157  0.66025963  1.0
  N  N160  1  0.10394063  0.77817534  0.99753468  1.0
  N  N161  1  0.01510785  0.90149559  0.75148492  1.0
  O  O162  1  0.53062925  0.42972695  0.45575838  1.0
  O  O163  1  0.17482892  0.56505627  0.44334961  1.0
  O  O164  1  0.01345991  0.57606148  0.54439474  1.0
  O  O165  1  0.19112035  0.42915240  0.45339880  1.0
  O  O166  1  0.02866140  0.44221391  0.55787795  1.0
  O  O167  1  0.51544992  0.56414132  0.44280754  1.0
  O  O168  1  0.35061409  0.50602378  0.53336597  1.0
  O  O169  1  0.68664346  0.44495941  0.55961574  1.0
  O  O170  1  0.67312085  0.57879263  0.54181085  1.0
  O  O171  1  0.85312233  0.49718505  0.46676099  1.0
  O  O172  1  0.30714784  0.94348053  0.05904018  1.0
  O  O173  1  0.62434303  0.06922251  0.04664190  1.0
  O  O174  1  0.78748649  0.06438820  0.94451325  1.0
  O  O175  1  0.64668330  0.93456748  0.05388640  1.0
  O  O176  1  0.80909077  0.92962351  0.94933701  1.0
  O  O177  1  0.28524256  0.07657656  0.04184048  1.0
  O  O178  1  0.46736184  0.99658574  0.96538156  1.0
  O  O179  1  0.15000296  0.92475776  0.95613367  1.0
  O  O180  1  0.12778249  0.05840747  0.94038576  1.0
  O  O181  1  0.96594542  0.00094475  0.03261408  1.0
  O  O182  1  0.10265911  0.54906557  0.82187249  1.0
  O  O183  1  0.95976776  0.58843913  0.89739095  1.0
  O  O184  1  0.50673479  0.14259746  0.74800548  1.0
  O  O185  1  0.44955453  0.21765617  0.81229741  1.0
  O  O186  1  0.22639888  0.61462918  0.66871294  1.0
  O  O187  1  0.96724938  0.55050204  0.66385785  1.0
  O  O188  1  0.01690260  0.82038326  0.02635266  1.0
  O  O189  1  0.22459802  0.73499858  0.01470823  1.0
  O  O190  1  0.90054260  0.95033067  0.75667817  1.0
  O  O191  1  0.19769459  0.90021884  0.76021220  1.0
