# generated using pymatgen
data_Zn4H12C58O13F24
_symmetry_space_group_name_H-M   'P 1'
_cell_length_a   21.62217457
_cell_length_b   21.62222836
_cell_length_c   34.51706633
_cell_angle_alpha   90.00001663
_cell_angle_beta   89.99999989
_cell_angle_gamma   89.99986829
_symmetry_Int_Tables_number   1
_chemical_formula_structural   Zn4H12C58O13F24
_chemical_formula_sum   'Zn8 H24 C116 O26 F48'
_cell_volume   16137.40491230
_cell_formula_units_Z   2
loop_
 _symmetry_equiv_pos_site_id
 _symmetry_equiv_pos_as_xyz
  1  'x, y, z'
loop_
 _atom_site_type_symbol
 _atom_site_label
 _atom_site_symmetry_multiplicity
 _atom_site_fract_x
 _atom_site_fract_y
 _atom_site_fract_z
 _atom_site_occupancy
  Zn  Zn0  1  0.44775149  0.55115196  0.96642970  1.0
  Zn  Zn1  1  0.55224930  0.55115070  0.03357174  1.0
  Zn  Zn2  1  0.55225035  0.44884509  0.96643027  1.0
  Zn  Zn3  1  0.44775021  0.44884499  0.03357318  1.0
  Zn  Zn4  1  0.55115286  0.44774889  0.53356991  1.0
  Zn  Zn5  1  0.55115552  0.55224875  0.46642632  1.0
  Zn  Zn6  1  0.44884805  0.55225073  0.53356876  1.0
  Zn  Zn7  1  0.44884678  0.44775270  0.46642631  1.0
  H  H8  1  0.57887210  0.43954673  0.84810359  1.0
  H  H9  1  0.42113020  0.56045212  0.84810447  1.0
  H  H10  1  0.43954692  0.57887291  0.65189660  1.0
  H  H11  1  0.56045399  0.42112908  0.65189514  1.0
  H  H12  1  0.63147409  0.46582516  0.76098900  1.0
  H  H13  1  0.61595861  0.39644196  0.78645727  1.0
  H  H14  1  0.36852497  0.53417503  0.76098959  1.0
  H  H15  1  0.38404137  0.60355779  0.78645816  1.0
  H  H16  1  0.46582405  0.63147478  0.73901061  1.0
  H  H17  1  0.39644066  0.61595749  0.71354234  1.0
  H  H18  1  0.53417501  0.36852540  0.73901001  1.0
  H  H19  1  0.60355840  0.38404175  0.71354203  1.0
  H  H20  1  0.42112987  0.43954814  0.15189581  1.0
  H  H21  1  0.57887196  0.56045039  0.15189553  1.0
  H  H22  1  0.56045288  0.57887131  0.34810224  1.0
  H  H23  1  0.43954617  0.42113100  0.34810223  1.0
  H  H24  1  0.36852551  0.46582534  0.23900982  1.0
  H  H25  1  0.38404345  0.39644209  0.21354039  1.0
  H  H26  1  0.63147401  0.53417415  0.23901012  1.0
  H  H27  1  0.61595930  0.60355646  0.21354127  1.0
  H  H28  1  0.53417610  0.63147552  0.26098795  1.0
  H  H29  1  0.60355766  0.61595623  0.28645680  1.0
  H  H30  1  0.46582527  0.36852583  0.26098880  1.0
  H  H31  1  0.39644231  0.38404282  0.28645620  1.0
  C  C32  1  0.50000234  0.66382231  0.00000198  1.0
  C  C33  1  0.66503126  0.49999811  0.00000487  1.0
  C  C34  1  0.50000346  0.49999851  0.89511715  1.0
  C  C35  1  0.49999948  0.33617569  0.00000311  1.0
  C  C36  1  0.33496964  0.50000312  0.00000661  1.0
  C  C37  1  0.50000253  0.49999786  0.10488516  1.0
  C  C38  1  0.66382324  0.49999453  0.50000014  1.0
  C  C39  1  0.50000003  0.66503229  0.49999842  1.0
  C  C40  1  0.50000022  0.50000122  0.60488333  1.0
  C  C41  1  0.33617812  0.50000416  0.49999840  1.0
  C  C42  1  0.50000041  0.33496917  0.49999491  1.0
  C  C43  1  0.50000068  0.50000024  0.39511203  1.0
  C  C44  1  0.73436610  0.49999850  0.00000371  1.0
  C  C45  1  0.76806767  0.45157537  0.98307740  1.0
  C  C46  1  0.83246407  0.45169138  0.98318633  1.0
  C  C47  1  0.76807033  0.54842455  0.01692346  1.0
  C  C48  1  0.83246580  0.54831209  0.01680844  1.0
  C  C49  1  0.86607858  0.50000135  0.99999947  1.0
  C  C50  1  0.93428309  0.50000081  0.99999860  1.0
  C  C51  1  0.96781487  0.50008333  0.03466308  1.0
  C  C52  1  0.96781395  0.49991705  0.96533314  1.0
  C  C53  1  0.26563526  0.50000181  0.00000284  1.0
  C  C54  1  0.23193509  0.54842493  0.98307857  1.0
  C  C55  1  0.16753823  0.54830845  0.98318924  1.0
  C  C56  1  0.23193242  0.45157530  0.01692345  1.0
  C  C57  1  0.16753556  0.45168591  0.01680901  1.0
  C  C58  1  0.13392511  0.49999803  0.99999918  1.0
  C  C59  1  0.06571597  0.50000088  0.99999918  1.0
  C  C60  1  0.03218558  0.50008277  0.96533517  1.0
  C  C61  1  0.03218372  0.49991745  0.03466222  1.0
  C  C62  1  0.59453843  0.43265563  0.76861537  1.0
  C  C63  1  0.40546201  0.56734364  0.76861625  1.0
  C  C64  1  0.43265536  0.59453691  0.73138511  1.0
  C  C65  1  0.56734416  0.40546235  0.73138480  1.0
  C  C66  1  0.54461927  0.46584748  0.83181397  1.0
  C  C67  1  0.54560067  0.46620820  0.79151767  1.0
  C  C68  1  0.45538303  0.53415182  0.83181397  1.0
  C  C69  1  0.45440024  0.53379154  0.79151768  1.0
  C  C70  1  0.46584634  0.54461924  0.66818448  1.0
  C  C71  1  0.46620662  0.54560204  0.70848165  1.0
  C  C72  1  0.53415225  0.45537998  0.66818621  1.0
  C  C73  1  0.53379105  0.45440137  0.70848106  1.0
  C  C74  1  0.50000161  0.50000127  0.85210277  1.0
  C  C75  1  0.50000115  0.50000218  0.77121091  1.0
  C  C76  1  0.49999976  0.49999984  0.64789654  1.0
  C  C77  1  0.50000069  0.50000309  0.72878667  1.0
  C  C78  1  0.40546355  0.43265619  0.23138287  1.0
  C  C79  1  0.59453874  0.56734283  0.23138375  1.0
  C  C80  1  0.56734394  0.59453665  0.26861432  1.0
  C  C81  1  0.43265650  0.40546147  0.26861459  1.0
  C  C82  1  0.45538033  0.46584974  0.16818544  1.0
  C  C83  1  0.45439939  0.46620679  0.20848145  1.0
  C  C84  1  0.54461965  0.53415111  0.16818602  1.0
  C  C85  1  0.54560152  0.53379038  0.20848145  1.0
  C  C86  1  0.53415215  0.54461909  0.33181262  1.0
  C  C87  1  0.53379140  0.54560140  0.29151661  1.0
  C  C88  1  0.46584460  0.45538368  0.33181232  1.0
  C  C89  1  0.46620719  0.45440043  0.29151660  1.0
  C  C90  1  0.50000161  0.49999972  0.14789808  1.0
  C  C91  1  0.50000300  0.49999558  0.22878619  1.0
  C  C92  1  0.49999883  0.50000116  0.35210258  1.0
  C  C93  1  0.50000161  0.49999837  0.27121071  1.0
  C  C94  1  0.49999864  0.26669673  0.00000195  1.0
  C  C95  1  0.52773965  0.23268886  0.96998415  1.0
  C  C96  1  0.52757508  0.16820892  0.97009162  1.0
  C  C97  1  0.47225586  0.23268732  0.03001753  1.0
  C  C98  1  0.47241873  0.16820876  0.02990801  1.0
  C  C99  1  0.49999740  0.13431721  0.00000049  1.0
  C  C100  1  0.49999887  0.06595285  0.00000077  1.0
  C  C101  1  0.44470058  0.03221263  0.00003322  1.0
  C  C102  1  0.55530001  0.03221458  0.99996698  1.0
  C  C103  1  0.50000134  0.73329849  0.00000083  1.0
  C  C104  1  0.52774365  0.76730791  0.03001816  1.0
  C  C105  1  0.52758032  0.83178647  0.02990981  1.0
  C  C106  1  0.47225988  0.76730866  0.96998420  1.0
  C  C107  1  0.47242630  0.83178767  0.97009226  1.0
  C  C108  1  0.50000396  0.86567477  0.00000055  1.0
  C  C109  1  0.50000018  0.93404422  0.00000114  1.0
  C  C110  1  0.55529754  0.96778490  0.00003417  1.0
  C  C111  1  0.44470090  0.96778294  0.99996706  1.0
  C  C112  1  0.50000088  0.73436603  0.49999929  1.0
  C  C113  1  0.45157555  0.76806798  0.51692310  1.0
  C  C114  1  0.45169156  0.83246375  0.51681041  1.0
  C  C115  1  0.54842381  0.76807110  0.48307462  1.0
  C  C116  1  0.54831182  0.83246733  0.48318646  1.0
  C  C117  1  0.49999934  0.86607863  0.50000046  1.0
  C  C118  1  0.49999834  0.93428298  0.49999931  1.0
  C  C119  1  0.50008524  0.96781374  0.46533559  1.0
  C  C120  1  0.49991736  0.96781561  0.53466362  1.0
  C  C121  1  0.49999910  0.26563451  0.49999635  1.0
  C  C122  1  0.54842489  0.23193303  0.51691957  1.0
  C  C123  1  0.54830842  0.16753726  0.51680861  1.0
  C  C124  1  0.45157339  0.23193082  0.48307573  1.0
  C  C125  1  0.45168493  0.16753459  0.48318987  1.0
  C  C126  1  0.49999879  0.13392190  0.50000011  1.0
  C  C127  1  0.50000165  0.06571617  0.49999952  1.0
  C  C128  1  0.50008308  0.03218540  0.53466324  1.0
  C  C129  1  0.49991705  0.03218585  0.46533579  1.0
  C  C130  1  0.26670038  0.50000100  0.49999666  1.0
  C  C131  1  0.23269405  0.52774287  0.53001399  1.0
  C  C132  1  0.16821395  0.52757644  0.52990796  1.0
  C  C133  1  0.23269041  0.47225643  0.46998107  1.0
  C  C134  1  0.16821170  0.47242115  0.47009117  1.0
  C  C135  1  0.13432192  0.49999838  0.50000014  1.0
  C  C136  1  0.06595322  0.49999753  0.50000101  1.0
  C  C137  1  0.03221477  0.44469707  0.49996624  1.0
  C  C138  1  0.03221418  0.55529575  0.50003115  1.0
  C  C139  1  0.73330146  0.49999722  0.49999840  1.0
  C  C140  1  0.76731049  0.52773900  0.46998224  1.0
  C  C141  1  0.83179013  0.52757613  0.47009117  1.0
  C  C142  1  0.76730963  0.47225398  0.53001543  1.0
  C  C143  1  0.83178927  0.47241763  0.52990679  1.0
  C  C144  1  0.86568037  0.49999707  0.49999898  1.0
  C  C145  1  0.93404630  0.49999746  0.49999985  1.0
  C  C146  1  0.96778521  0.55529745  0.49996625  1.0
  C  C147  1  0.96778487  0.44469831  0.50003316  1.0
  O  O148  1  0.50000022  0.49999830  0.00000052  1.0
  O  O149  1  0.45340253  0.63772259  0.98455640  1.0
  O  O150  1  0.63899870  0.52333571  0.02960356  1.0
  O  O151  1  0.52985296  0.45651637  0.91202096  1.0
  O  O152  1  0.54659852  0.63772226  0.01544738  1.0
  O  O153  1  0.47015350  0.54348296  0.91202154  1.0
  O  O154  1  0.63899413  0.47666543  0.97040802  1.0
  O  O155  1  0.54659699  0.36227493  0.98455695  1.0
  O  O156  1  0.36100451  0.47666924  0.02960443  1.0
  O  O157  1  0.45340516  0.36227343  0.01544939  1.0
  O  O158  1  0.36100585  0.52333948  0.97040802  1.0
  O  O159  1  0.52984592  0.54348548  0.08798048  1.0
  O  O160  1  0.47015961  0.45650978  0.08798076  1.0
  O  O161  1  0.49999930  0.50000027  0.49999840  1.0
  O  O162  1  0.63772602  0.45340316  0.51544612  1.0
  O  O163  1  0.52333722  0.63899793  0.47039740  1.0
  O  O164  1  0.45651798  0.52985156  0.58797923  1.0
  O  O165  1  0.63772406  0.54659475  0.48455155  1.0
  O  O166  1  0.54348386  0.47015271  0.58797864  1.0
  O  O167  1  0.47666476  0.63899661  0.52959218  1.0
  O  O168  1  0.36227720  0.54660016  0.51544149  1.0
  O  O169  1  0.47666323  0.36100305  0.47039361  1.0
  O  O170  1  0.36227731  0.45340254  0.48455184  1.0
  O  O171  1  0.52333291  0.36100579  0.52959042  1.0
  O  O172  1  0.54348795  0.52984356  0.41201845  1.0
  O  O173  1  0.45651157  0.47015971  0.41201873  1.0
  F  F174  1  0.73933357  0.59764292  0.03259165  1.0
  F  F175  1  0.86274484  0.59682556  0.03255138  1.0
  F  F176  1  0.73933380  0.40235706  0.96740833  1.0
  F  F177  1  0.86274091  0.40318015  0.96743991  1.0
  F  F178  1  0.93761994  0.49942526  0.06887717  1.0
  F  F179  1  0.06237310  0.50057693  0.06887833  1.0
  F  F180  1  0.93762364  0.50057612  0.93111789  1.0
  F  F181  1  0.06237403  0.49942184  0.93111905  1.0
  F  F182  1  0.13725837  0.40317106  0.03255137  1.0
  F  F183  1  0.26066548  0.40235694  0.03259366  1.0
  F  F184  1  0.13726139  0.59682106  0.96744370  1.0
  F  F185  1  0.26066896  0.59764461  0.96740835  1.0
  F  F186  1  0.44631302  0.26112106  0.06067107  1.0
  F  F187  1  0.44643711  0.13807870  0.06007773  1.0
  F  F188  1  0.55368243  0.26112391  0.93933351  1.0
  F  F189  1  0.55356093  0.13808201  0.93992162  1.0
  F  F190  1  0.38998034  0.06226394  0.99956486  1.0
  F  F191  1  0.38997979  0.93773268  0.00043426  1.0
  F  F192  1  0.61002157  0.06226624  0.00043505  1.0
  F  F193  1  0.61002057  0.93773636  0.99956813  1.0
  F  F194  1  0.44644460  0.86191687  0.93991937  1.0
  F  F195  1  0.44632172  0.73887775  0.93932863  1.0
  F  F196  1  0.55356472  0.86191747  0.06007953  1.0
  F  F197  1  0.55368372  0.73887604  0.06067256  1.0
  F  F198  1  0.59764369  0.73933672  0.46740469  1.0
  F  F199  1  0.59682355  0.86274583  0.46743976  1.0
  F  F200  1  0.40235759  0.73933557  0.53259302  1.0
  F  F201  1  0.40317929  0.86274144  0.53255566  1.0
  F  F202  1  0.49942716  0.93762351  0.43111918  1.0
  F  F203  1  0.50057560  0.06237468  0.43111939  1.0
  F  F204  1  0.50057829  0.93762261  0.56887886  1.0
  F  F205  1  0.49942261  0.06237703  0.56887878  1.0
  F  F206  1  0.40316903  0.13725654  0.46744751  1.0
  F  F207  1  0.40235306  0.26066750  0.46740783  1.0
  F  F208  1  0.59682208  0.13726049  0.53255415  1.0
  F  F209  1  0.59764331  0.26066683  0.53258834  1.0
  F  F210  1  0.26112699  0.44631365  0.43932783  1.0
  F  F211  1  0.13808063  0.44643496  0.43992232  1.0
  F  F212  1  0.26112872  0.55368605  0.56066608  1.0
  F  F213  1  0.13808790  0.55355901  0.56007912  1.0
  F  F214  1  0.06226547  0.38997650  0.50043470  1.0
  F  F215  1  0.93773615  0.38997780  0.49956324  1.0
  F  F216  1  0.06226383  0.61001857  0.49956269  1.0
  F  F217  1  0.93773405  0.61001756  0.50043530  1.0
  F  F218  1  0.86191902  0.44643277  0.56007563  1.0
  F  F219  1  0.73887820  0.44631405  0.56066896  1.0
  F  F220  1  0.86191843  0.55356416  0.43992262  1.0
  F  F221  1  0.73887900  0.55368131  0.43932784  1.0
