# generated using pymatgen
data_Al2H8C13(SO6)2
_symmetry_space_group_name_H-M   'P 1'
_cell_length_a   6.86861361
_cell_length_b   8.84080593
_cell_length_c   12.57133537
_cell_angle_alpha   100.15693326
_cell_angle_beta   102.88969323
_cell_angle_gamma   105.46196704
_symmetry_Int_Tables_number   1
_chemical_formula_structural   Al2H8C13(SO6)2
_chemical_formula_sum   'Al2 H8 C13 S2 O12'
_cell_volume   694.25468782
_cell_formula_units_Z   1
loop_
 _symmetry_equiv_pos_site_id
 _symmetry_equiv_pos_as_xyz
  1  'x, y, z'
loop_
 _atom_site_type_symbol
 _atom_site_label
 _atom_site_symmetry_multiplicity
 _atom_site_fract_x
 _atom_site_fract_y
 _atom_site_fract_z
 _atom_site_occupancy
  Al  Al0  1  0.00148716  0.50158917  0.50345416  1.0
  Al  Al1  1  0.50128761  0.50093738  0.50185475  1.0
  H  H2  1  0.85158081  0.63580250  0.63679327  1.0
  H  H3  1  0.14176142  0.33065101  0.38424107  1.0
  H  H4  1  0.12008326  0.51650586  0.87494788  1.0
  H  H5  1  0.70728784  0.86759069  0.50237890  1.0
  H  H6  1  0.29876324  0.13426308  0.50398982  1.0
  H  H7  1  0.02101180  0.50460851  0.21506254  1.0
  H  H8  1  0.03481847  0.58873330  0.09703685  1.0
  H  H9  1  0.94553608  0.37489344  0.07708781  1.0
  C  C10  1  0.33577237  0.51427612  0.70059250  1.0
  C  C11  1  0.35101066  0.78671304  0.51143859  1.0
  C  C12  1  0.67022431  0.49131801  0.30545509  1.0
  C  C13  1  0.65174315  0.21406063  0.49267129  1.0
  C  C14  1  0.59952926  0.04303882  0.49847675  1.0
  C  C15  1  0.40370830  0.95779091  0.50582359  1.0
  C  C16  1  0.72611289  0.49528744  0.10797399  1.0
  C  C17  1  0.28032938  0.51169356  0.89660819  1.0
  C  C18  1  0.61348943  0.49673605  0.18679867  1.0
  C  C19  1  0.39595796  0.51025297  0.81936112  1.0
  C  C20  1  0.39943870  0.50658816  0.00264865  1.0
  C  C21  1  0.60259380  0.50069631  0.00337162  1.0
  C  C22  1  0.94369398  0.49027897  0.12635880  1.0
  S  S23  1  0.36365584  0.50591780  0.13384777  1.0
  S  S24  1  0.64781325  0.50169393  0.87433166  1.0
  O  O25  1  0.14926614  0.51337819  0.65631610  1.0
  O  O26  1  0.49745235  0.71999658  0.51056047  1.0
  O  O27  1  0.52184134  0.48512262  0.35270333  1.0
  O  O28  1  0.83546233  0.28324382  0.48769119  1.0
  O  O29  1  0.85525302  0.49190324  0.35222999  1.0
  O  O30  1  0.50442142  0.28047912  0.49274288  1.0
  O  O31  1  0.48221061  0.51930975  0.65206811  1.0
  O  O32  1  0.16790216  0.71775998  0.51706772  1.0
  O  O33  1  0.79927662  0.57826333  0.55772690  1.0
  O  O34  1  0.20301645  0.42332765  0.44895334  1.0
  O  O35  1  0.75942740  0.98167153  0.49710871  1.0
  O  O36  1  0.24428843  0.01960920  0.50764711  1.0
