# generated using pymatgen
data_Hf3H32C60N9O16
_symmetry_space_group_name_H-M   'P 1'
_cell_length_a   19.67215908
_cell_length_b   19.76079689
_cell_length_c   19.76432138
_cell_angle_alpha   91.31653206
_cell_angle_beta   91.78088472
_cell_angle_gamma   91.30311100
_symmetry_Int_Tables_number   1
_chemical_formula_structural   Hf3H32C60N9O16
_chemical_formula_sum   'Hf6 H64 C120 N18 O32'
_cell_volume   7675.28001971
_cell_formula_units_Z   2
loop_
 _symmetry_equiv_pos_site_id
 _symmetry_equiv_pos_as_xyz
  1  'x, y, z'
loop_
 _atom_site_type_symbol
 _atom_site_label
 _atom_site_symmetry_multiplicity
 _atom_site_fract_x
 _atom_site_fract_y
 _atom_site_fract_z
 _atom_site_occupancy
  Hf  Hf0  1  0.81408216  0.95698508  0.86335526  1.0
  Hf  Hf1  1  0.77070937  0.86384685  0.00494111  1.0
  Hf  Hf2  1  0.97906579  0.98209030  0.93127057  1.0
  Hf  Hf3  1  0.91048331  0.81772238  0.91013264  1.0
  Hf  Hf4  1  0.83936047  0.02779923  0.02627799  1.0
  Hf  Hf5  1  0.93610776  0.88889806  0.07276221  1.0
  H  H6  1  0.77228959  0.81984201  0.86831810  1.0
  H  H7  1  0.88138708  0.08028268  0.90349197  1.0
  H  H8  1  0.03431773  0.86082834  0.97584704  1.0
  H  H9  1  0.81371424  0.93214794  0.12649340  1.0
  H  H10  1  0.26649414  0.78723012  0.79841373  1.0
  H  H11  1  0.19138612  0.94467457  0.67185735  1.0
  H  H12  1  0.08415402  0.94674710  0.73708567  1.0
  H  H13  1  0.15406745  0.77979107  0.85462096  1.0
  H  H14  1  0.54445851  0.89749506  0.67129623  1.0
  H  H15  1  0.42937432  0.85330735  0.84679329  1.0
  H  H16  1  0.53676318  0.86014106  0.91930139  1.0
  H  H17  1  0.65079096  0.90761570  0.74382035  1.0
  H  H18  1  0.31722893  0.00128584  0.09035553  1.0
  H  H19  1  0.20308874  0.96255769  0.26773734  1.0
  H  H20  1  0.09592395  0.95201881  0.19599993  1.0
  H  H21  1  0.20922893  0.99426798  0.01874764  1.0
  H  H22  1  0.55867219  0.91344959  0.26644762  1.0
  H  H23  1  0.47699555  0.05766202  0.12833525  1.0
  H  H24  1  0.58722913  0.06146097  0.06821910  1.0
  H  H25  1  0.66448772  0.90822460  0.19949503  1.0
  H  H26  1  0.26956097  0.94037515  0.39711911  1.0
  H  H27  1  0.48758899  0.94082484  0.41576924  1.0
  H  H28  1  0.47997212  0.91646729  0.53935542  1.0
  H  H29  1  0.26190848  0.91586262  0.52063544  1.0
  H  H30  1  0.71742204  0.32138307  0.84393565  1.0
  H  H31  1  0.57136891  0.23818990  0.97803998  1.0
  H  H32  1  0.63352272  0.12895310  0.97844059  1.0
  H  H33  1  0.77350794  0.20914363  0.83578253  1.0
  H  H34  1  0.57944097  0.59247878  0.95538666  1.0
  H  H35  1  0.75437906  0.48099867  0.89800203  1.0
  H  H36  1  0.82576365  0.58832943  0.90484997  1.0
  H  H37  1  0.65114482  0.69869352  0.96553392  1.0
  H  H38  1  0.99697899  0.36196299  0.04444899  1.0
  H  H39  1  0.17460184  0.25101425  0.99468225  1.0
  H  H40  1  0.10393698  0.14386812  0.98484656  1.0
  H  H41  1  0.92667860  0.25391717  0.03814200  1.0
  H  H42  1  0.18586488  0.61210569  0.98357026  1.0
  H  H43  1  0.01792093  0.51519473  0.07928132  1.0
  H  H44  1  0.95700659  0.62478094  0.08310925  1.0
  H  H45  1  0.12360324  0.72092551  0.98276132  1.0
  H  H46  1  0.32305333  0.53461622  0.99662498  1.0
  H  H47  1  0.30318889  0.31846766  0.97283001  1.0
  H  H48  1  0.42747087  0.31214898  0.94912928  1.0
  H  H49  1  0.44738168  0.52825611  0.97303354  1.0
  H  H50  1  0.89144538  0.62323530  0.28645824  1.0
  H  H51  1  0.75038001  0.76508368  0.36606987  1.0
  H  H52  1  0.74430397  0.82236626  0.25448250  1.0
  H  H53  1  0.89462724  0.68741331  0.17876191  1.0
  H  H54  1  0.85571480  0.62521531  0.63946162  1.0
  H  H55  1  0.80263963  0.80086989  0.52699803  1.0
  H  H56  1  0.80854363  0.87164124  0.63453395  1.0
  H  H57  1  0.86537526  0.69637695  0.74591809  1.0
  H  H58  1  0.95051578  0.04643085  0.40690815  1.0
  H  H59  1  0.89765184  0.22276860  0.29548387  1.0
  H  H60  1  0.89174238  0.15288731  0.18787112  1.0
  H  H61  1  0.94809922  0.97701376  0.29846477  1.0
  H  H62  1  0.87218413  0.22643571  0.65442085  1.0
  H  H63  1  0.98794958  0.07017405  0.56120619  1.0
  H  H64  1  0.99364718  0.00862378  0.67035819  1.0
  H  H65  1  0.87100158  0.16162612  0.76161853  1.0
  H  H66  1  0.89130594  0.36834487  0.58014175  1.0
  H  H67  1  0.87657289  0.35163007  0.36320656  1.0
  H  H68  1  0.85491640  0.47598087  0.35716389  1.0
  H  H69  1  0.86972354  0.49271044  0.57418265  1.0
  C  C70  1  0.92322589  0.18593886  0.53594132  1.0
  C  C71  1  0.89962475  0.27930406  0.47502512  1.0
  C  C72  1  0.92111661  0.17933118  0.42101032  1.0
  C  C73  1  0.82679492  0.65813762  0.39911568  1.0
  C  C74  1  0.82927565  0.66685371  0.51391822  1.0
  C  C75  1  0.84856199  0.56541528  0.46159434  1.0
  C  C76  1  0.13881918  0.49126557  0.02385936  1.0
  C  C77  1  0.13113615  0.37631812  0.01878792  1.0
  C  C78  1  0.23227885  0.43017174  0.00049833  1.0
  C  C79  1  0.60979493  0.35306455  0.91964679  1.0
  C  C80  1  0.62009075  0.46770316  0.92588297  1.0
  C  C81  1  0.51815783  0.41581018  0.94534992  1.0
  C  C82  1  0.44524456  0.98011098  0.23391545  1.0
  C  C83  1  0.38302968  0.95697517  0.32599951  1.0
  C  C84  1  0.32990564  0.98006715  0.22528217  1.0
  C  C85  1  0.30244876  0.87362076  0.70075745  1.0
  C  C86  1  0.36596971  0.89935196  0.61028563  1.0
  C  C87  1  0.41767884  0.87603073  0.71167483  1.0
  C  C88  1  0.92454251  0.04023807  0.78460461  1.0
  C  C89  1  0.66502246  0.89506618  0.87637885  1.0
  C  C90  1  0.84699271  0.82811225  0.76123235  1.0
  C  C91  1  0.74873170  0.10054364  0.91553170  1.0
  C  C92  1  0.82698731  0.79995056  0.14820905  1.0
  C  C93  1  0.08226990  0.95851061  0.06249747  1.0
  C  C94  1  0.78270104  0.71451083  0.94493524  1.0
  C  C95  1  0.69345881  0.97561276  0.08782445  1.0
  C  C96  1  0.97057749  0.12878507  0.99854222  1.0
  C  C97  1  0.05211846  0.87118058  0.84253341  1.0
  C  C98  1  0.99575885  0.74195797  0.02279086  1.0
  C  C99  1  0.90908897  0.02068724  0.17269016  1.0
  C  C100  1  0.22502973  0.81986666  0.78338202  1.0
  C  C101  1  0.23543850  0.86635743  0.73194685  1.0
  C  C102  1  0.18288387  0.90940507  0.71249561  1.0
  C  C103  1  0.12290279  0.90953681  0.74776515  1.0
  C  C104  1  0.11258769  0.86307145  0.79927410  1.0
  C  C105  1  0.16283241  0.81643245  0.81518680  1.0
  C  C106  1  0.54330462  0.88943587  0.72555581  1.0
  C  C107  1  0.48053520  0.87515676  0.75472762  1.0
  C  C108  1  0.47842063  0.86391560  0.82467733  1.0
  C  C109  1  0.53796001  0.86798959  0.86491900  1.0
  C  C110  1  0.60005019  0.88479590  0.83585639  1.0
  C  C111  1  0.60221360  0.89484567  0.76577165  1.0
  C  C112  1  0.26823576  0.99189106  0.11305718  1.0
  C  C113  1  0.26650617  0.98195145  0.18322452  1.0
  C  C114  1  0.20381581  0.96948646  0.21328343  1.0
  C  C115  1  0.14453989  0.96381752  0.17359591  1.0
  C  C116  1  0.14649683  0.97188177  0.10324118  1.0
  C  C117  1  0.20840402  0.98766075  0.07335249  1.0
  C  C118  1  0.56535731  0.94516769  0.22263346  1.0
  C  C119  1  0.51143213  0.98543217  0.20084329  1.0
  C  C120  1  0.51952898  0.02719803  0.14505806  1.0
  C  C121  1  0.58063720  0.02873802  0.11130927  1.0
  C  C122  1  0.63253040  0.98507866  0.13029462  1.0
  C  C123  1  0.62452865  0.94331995  0.18609025  1.0
  C  C124  1  0.31532129  0.93507900  0.42877671  1.0
  C  C125  1  0.37898440  0.94210123  0.39889520  1.0
  C  C126  1  0.43844082  0.93525811  0.43923535  1.0
  C  C127  1  0.43418165  0.92175686  0.50772052  1.0
  C  C128  1  0.37051103  0.91465207  0.53754884  1.0
  C  C129  1  0.31105981  0.92152202  0.49720490  1.0
  C  C130  1  0.69803242  0.27810596  0.87123842  1.0
  C  C131  1  0.64119363  0.28631672  0.91149337  1.0
  C  C132  1  0.61590684  0.23120242  0.94745193  1.0
  C  C133  1  0.64983826  0.17033464  0.94673956  1.0
  C  C134  1  0.70688038  0.16231555  0.90680431  1.0
  C  C135  1  0.72947409  0.21572934  0.86727261  1.0
  C  C136  1  0.63335044  0.59210611  0.94457810  1.0
  C  C137  1  0.66266075  0.53042863  0.92638895  1.0
  C  C138  1  0.73215623  0.52921425  0.91176773  1.0
  C  C139  1  0.77178887  0.58866924  0.91582731  1.0
  C  C140  1  0.74261524  0.64968356  0.93600280  1.0
  C  C141  1  0.67303850  0.65090870  0.94997717  1.0
  C  C142  1  0.02000673  0.31367323  0.03259431  1.0
  C  C143  1  0.08984565  0.31284971  0.01951537  1.0
  C  C144  1  0.12034123  0.25105224  0.00395200  1.0
  C  C145  1  0.08125882  0.19178882  0.99870195  1.0
  C  C146  1  0.01119904  0.19285496  0.01031368  1.0
  C  C147  1  0.98102547  0.25386450  0.02881073  1.0
  C  C148  1  0.13590513  0.61571766  0.00551935  1.0
  C  C149  1  0.10535518  0.55709534  0.03101340  1.0
  C  C150  1  0.04117940  0.56103900  0.05980474  1.0
  C  C151  1  0.00740484  0.62214806  0.06183627  1.0
  C  C152  1  0.03659004  0.67963790  0.03323958  1.0
  C  C153  1  0.10127294  0.67626074  0.00570654  1.0
  C  C154  1  0.34643172  0.48617718  0.98613250  1.0
  C  C155  1  0.30558104  0.42688575  0.98622447  1.0
  C  C156  1  0.33526044  0.36410117  0.97282492  1.0
  C  C157  1  0.40407521  0.36054352  0.95974268  1.0
  C  C158  1  0.44495705  0.41981781  0.95977119  1.0
  C  C159  1  0.41530764  0.48262464  0.97307907  1.0
  C  C160  1  0.85988957  0.66723068  0.27898100  1.0
  C  C161  1  0.82099725  0.69067496  0.33269612  1.0
  C  C162  1  0.77966342  0.74687150  0.32373907  1.0
  C  C163  1  0.77695118  0.77907921  0.26179112  1.0
  C  C164  1  0.81902653  0.75815445  0.20981608  1.0
  C  C165  1  0.86065850  0.70220617  0.21879040  1.0
  C  C166  1  0.84559025  0.67913292  0.63892224  1.0
  C  C167  1  0.82887942  0.70882073  0.57688461  1.0
  C  C168  1  0.81516057  0.77835622  0.57548990  1.0
  C  C169  1  0.81876920  0.81764974  0.63504595  1.0
  C  C170  1  0.83776807  0.78814256  0.69642280  1.0
  C  C171  1  0.85071572  0.71853174  0.69785434  1.0
  C  C172  1  0.93900008  0.06939923  0.35841792  1.0
  C  C173  1  0.92397790  0.13862794  0.35747969  1.0
  C  C174  1  0.90859036  0.16902127  0.29548947  1.0
  C  C175  1  0.90554905  0.13040097  0.23600746  1.0
  C  C176  1  0.91916033  0.06094527  0.23710365  1.0
  C  C177  1  0.93738469  0.03091056  0.29840944  1.0
  C  C178  1  0.89859067  0.17875900  0.65865733  1.0
  C  C179  1  0.92990898  0.15190638  0.60145847  1.0
  C  C180  1  0.96442902  0.09071369  0.60615957  1.0
  C  C181  1  0.96728094  0.05645384  0.66690558  1.0
  C  C182  1  0.93300637  0.08166422  0.72277048  1.0
  C  C183  1  0.89884662  0.14299649  0.71838059  1.0
  C  C184  1  0.88315677  0.39240816  0.53159137  1.0
  C  C185  1  0.88540602  0.35245701  0.47196383  1.0
  C  C186  1  0.87497407  0.38305860  0.40907163  1.0
  C  C187  1  0.86306824  0.45194543  0.40572106  1.0
  C  C188  1  0.86125012  0.49200110  0.46531714  1.0
  C  C189  1  0.87124389  0.46134209  0.52825226  1.0
  N  N190  1  0.90633552  0.25154665  0.53638532  1.0
  N  N191  1  0.90514779  0.24489661  0.41606334  1.0
  N  N192  1  0.93275586  0.14805565  0.47974222  1.0
  N  N193  1  0.81751206  0.69721750  0.45460902  1.0
  N  N194  1  0.84364863  0.60095028  0.51994546  1.0
  N  N195  1  0.84302333  0.59244095  0.39978523  1.0
  N  N196  1  0.09999997  0.43501825  0.03076587  1.0
  N  N197  1  0.19713902  0.37129532  0.00402648  1.0
  N  N198  1  0.20505961  0.49157217  0.00873659  1.0
  N  N199  1  0.64958048  0.40850529  0.91170757  1.0
  N  N200  1  0.55447484  0.47392778  0.94186319  1.0
  N  N201  1  0.54423362  0.35391887  0.93682617  1.0
  N  N202  1  0.44499960  0.96193333  0.29909740  1.0
  N  N203  1  0.32425765  0.96421069  0.29070735  1.0
  N  N204  1  0.38934003  0.99149093  0.19524805  1.0
  N  N205  1  0.30360334  0.89313229  0.63608979  1.0
  N  N206  1  0.42424559  0.89280274  0.64654434  1.0
  N  N207  1  0.35785005  0.86257568  0.74032257  1.0
  O  O208  1  0.97353951  0.03322169  0.82677375  1.0
  O  O209  1  0.67324690  0.86948600  0.93442578  1.0
  O  O210  1  0.82019985  0.88570649  0.76859734  1.0
  O  O211  1  0.75661107  0.05856056  0.86719263  1.0
  O  O212  1  0.77507667  0.09756851  0.97564130  1.0
  O  O213  1  0.88261691  0.79829781  0.80685272  1.0
  O  O214  1  0.71011300  0.93039628  0.84607261  1.0
  O  O215  1  0.86395773  0.01562423  0.78887561  1.0
  O  O216  1  0.79111192  0.95617448  0.96403849  1.0
  O  O217  1  0.90771022  0.91789160  0.88479885  1.0
  O  O218  1  0.80155123  0.84932410  0.89687951  1.0
  O  O219  1  0.87916030  0.03498698  0.92116685  1.0
  O  O220  1  0.77735510  0.80812910  0.10701489  1.0
  O  O221  1  0.07428347  0.98213201  0.00351327  1.0
  O  O222  1  0.84031285  0.72213452  0.91825954  1.0
  O  O223  1  0.73518377  0.02409918  0.07864956  1.0
  O  O224  1  0.91214748  0.12139297  0.02362080  1.0
  O  O225  1  0.01143417  0.82201372  0.85262992  1.0
  O  O226  1  0.98959970  0.78548366  0.07009369  1.0
  O  O227  1  0.93513569  0.96268315  0.16561762  1.0
  O  O228  1  0.97057639  0.74485102  0.96230389  1.0
  O  O229  1  0.87144655  0.04955735  0.12805463  1.0
  O  O230  1  0.75284575  0.75999194  0.98006267  1.0
  O  O231  1  0.04856642  0.93144786  0.86779001  1.0
  O  O232  1  0.99956548  0.08479779  0.96086352  1.0
  O  O233  1  0.69763785  0.91473009  0.06437202  1.0
  O  O234  1  0.88716428  0.82582403  0.14421386  1.0
  O  O235  1  0.03876302  0.92090724  0.09230603  1.0
  O  O236  1  0.92916108  0.97726698  0.02076063  1.0
  O  O237  1  0.87183671  0.84012321  0.00291740  1.0
  O  O238  1  0.98853383  0.87786994  0.97346303  1.0
  O  O239  1  0.83066279  0.92936646  0.08103232  1.0
