# generated using pymatgen
data_ZnC16S2NCl6(O2F)2
_symmetry_space_group_name_H-M   'P 1'
_cell_length_a   12.62548498
_cell_length_b   12.62600886
_cell_length_c   38.25713007
_cell_angle_alpha   89.98863428
_cell_angle_beta   88.85719812
_cell_angle_gamma   89.94197747
_symmetry_Int_Tables_number   1
_chemical_formula_structural   ZnC16S2NCl6(O2F)2
_chemical_formula_sum   'Zn4 C64 S8 N4 Cl24 O16 F8'
_cell_volume   6097.33313689
_cell_formula_units_Z   4
loop_
 _symmetry_equiv_pos_site_id
 _symmetry_equiv_pos_as_xyz
  1  'x, y, z'
loop_
 _atom_site_type_symbol
 _atom_site_label
 _atom_site_symmetry_multiplicity
 _atom_site_fract_x
 _atom_site_fract_y
 _atom_site_fract_z
 _atom_site_occupancy
  Zn  Zn0  1  0.49838977  0.49901986  0.96009177  1.0
  Zn  Zn1  1  0.49917607  0.50339111  0.03992794  1.0
  Zn  Zn2  1  0.50171583  0.49908523  0.53989489  1.0
  Zn  Zn3  1  0.50090177  0.50352143  0.46004894  1.0
  C  C4  1  0.49968852  0.30092526  0.01420310  1.0
  C  C5  1  0.69953328  0.50067005  0.98533718  1.0
  C  C6  1  0.50178810  0.70317121  0.01134881  1.0
  C  C7  1  0.29701518  0.49805457  0.98907671  1.0
  C  C8  1  0.50050909  0.30103227  0.48577703  1.0
  C  C9  1  0.30057429  0.50086527  0.51464950  1.0
  C  C10  1  0.49816493  0.70329083  0.48863973  1.0
  C  C11  1  0.70306467  0.49797539  0.51087295  1.0
  C  C12  1  0.52946920  0.58227694  0.61888220  1.0
  C  C13  1  0.52756846  0.58589515  0.65565077  1.0
  C  C14  1  0.48013020  0.40593605  0.61876187  1.0
  C  C15  1  0.48099419  0.40088142  0.65548274  1.0
  C  C16  1  0.50365610  0.49313942  0.67436561  1.0
  C  C17  1  0.50193443  0.49285232  0.71318939  1.0
  C  C18  1  0.40489024  0.49412901  0.73176965  1.0
  C  C19  1  0.59707975  0.49163072  0.73157791  1.0
  C  C20  1  0.51991486  0.40590572  0.88131617  1.0
  C  C21  1  0.51905419  0.40089857  0.84459257  1.0
  C  C22  1  0.47054497  0.58234577  0.88118764  1.0
  C  C23  1  0.47257010  0.58603556  0.84442104  1.0
  C  C24  1  0.49645158  0.49324072  0.82570718  1.0
  C  C25  1  0.49819467  0.49296233  0.78688422  1.0
  C  C26  1  0.59524884  0.49404031  0.76830227  1.0
  C  C27  1  0.40305438  0.49187283  0.76849653  1.0
  C  C28  1  0.58508912  0.52858291  0.38065015  1.0
  C  C29  1  0.58964783  0.52659598  0.34388655  1.0
  C  C30  1  0.40833378  0.48044953  0.38170964  1.0
  C  C31  1  0.40432479  0.48110691  0.34498642  1.0
  C  C32  1  0.49718035  0.50361499  0.32564472  1.0
  C  C33  1  0.49808191  0.50341143  0.28682841  1.0
  C  C34  1  0.50027351  0.40730733  0.26836925  1.0
  C  C35  1  0.49778692  0.59950561  0.26833709  1.0
  C  C36  1  0.41499129  0.52816809  0.11933148  1.0
  C  C37  1  0.41043052  0.52628047  0.15609382  1.0
  C  C38  1  0.59189832  0.48030753  0.11828658  1.0
  C  C39  1  0.59595185  0.48109718  0.15501050  1.0
  C  C40  1  0.50300299  0.50350750  0.17434201  1.0
  C  C41  1  0.50208990  0.50336731  0.21316310  1.0
  C  C42  1  0.50207808  0.59949071  0.23162209  1.0
  C  C43  1  0.50020076  0.40728156  0.23164129  1.0
  C  C44  1  0.50470993  0.89136082  0.98473617  1.0
  C  C45  1  0.50208353  0.11391248  0.04267276  1.0
  C  C46  1  0.50364385  0.81987884  0.01217456  1.0
  C  C47  1  0.50137107  0.18427758  0.01487178  1.0
  C  C48  1  0.50337465  0.00655563  0.03212043  1.0
  C  C49  1  0.50418544  0.99809254  0.99553387  1.0
  C  C50  1  0.88873513  0.49743618  0.95709074  1.0
  C  C51  1  0.10691035  0.49803236  0.01545312  1.0
  C  C52  1  0.81623419  0.49962395  0.98475084  1.0
  C  C53  1  0.18039841  0.49695473  0.98813599  1.0
  C  C54  1  0.00099389  0.49819395  0.00445646  1.0
  C  C55  1  0.99529879  0.49671160  0.96784925  1.0
  C  C56  1  0.49518706  0.89143331  0.51523972  1.0
  C  C57  1  0.49805697  0.11406098  0.45729958  1.0
  C  C58  1  0.49627556  0.81998817  0.48780463  1.0
  C  C59  1  0.49880037  0.18438819  0.48510035  1.0
  C  C60  1  0.49662451  0.00668297  0.46784859  1.0
  C  C61  1  0.49575611  0.99816916  0.50443535  1.0
  C  C62  1  0.11139802  0.49735432  0.54288404  1.0
  C  C63  1  0.89325788  0.49809611  0.48450807  1.0
  C  C64  1  0.18389676  0.49971511  0.51522773  1.0
  C  C65  1  0.81971798  0.49687978  0.51181440  1.0
  C  C66  1  0.99915911  0.49824420  0.49552015  1.0
  C  C67  1  0.00483100  0.49661921  0.53212601  1.0
  S  S68  1  0.50279126  0.88470742  0.05247968  1.0
  S  S69  1  0.50241614  0.11891997  0.97479878  1.0
  S  S70  1  0.87853200  0.50114153  0.02494037  1.0
  S  S71  1  0.11873505  0.49552148  0.94771092  1.0
  S  S72  1  0.49718836  0.88482942  0.44749847  1.0
  S  S73  1  0.49761894  0.11896766  0.52517421  1.0
  S  S74  1  0.12160317  0.50132862  0.47503751  1.0
  S  S75  1  0.88136735  0.49533109  0.55224727  1.0
  N  N76  1  0.50465132  0.49451119  0.60126998  1.0
  N  N77  1  0.49537006  0.49451029  0.89880138  1.0
  N  N78  1  0.49647302  0.50490849  0.39872813  1.0
  N  N79  1  0.50368209  0.50458765  0.10126173  1.0
  Cl  Cl80  1  0.44743286  0.29738209  0.59484790  1.0
  Cl  Cl81  1  0.45465528  0.28467901  0.67695842  1.0
  Cl  Cl82  1  0.56264739  0.69141930  0.59511701  1.0
  Cl  Cl83  1  0.55352428  0.70143115  0.67727754  1.0
  Cl  Cl84  1  0.28869720  0.49894308  0.70933201  1.0
  Cl  Cl85  1  0.28454108  0.48727012  0.79116732  1.0
  Cl  Cl86  1  0.71560854  0.48681082  0.70891472  1.0
  Cl  Cl87  1  0.71143385  0.49867421  0.79074483  1.0
  Cl  Cl88  1  0.44667442  0.70166002  0.82280587  1.0
  Cl  Cl89  1  0.43718705  0.69145069  0.90494821  1.0
  Cl  Cl90  1  0.54530445  0.28461942  0.82311731  1.0
  Cl  Cl91  1  0.55253731  0.29722683  0.90522307  1.0
  Cl  Cl92  1  0.29890080  0.44823590  0.40620154  1.0
  Cl  Cl93  1  0.28863361  0.45506545  0.32407082  1.0
  Cl  Cl94  1  0.69390681  0.56051141  0.40384089  1.0
  Cl  Cl95  1  0.70594695  0.55181969  0.32165088  1.0
  Cl  Cl96  1  0.50358468  0.29004013  0.29096037  1.0
  Cl  Cl97  1  0.49726454  0.28997574  0.20909031  1.0
  Cl  Cl98  1  0.49173024  0.71689567  0.29087283  1.0
  Cl  Cl99  1  0.50769959  0.71685105  0.20906283  1.0
  Cl  Cl100  1  0.71172622  0.45537484  0.17593053  1.0
  Cl  Cl101  1  0.70144424  0.44816431  0.09380738  1.0
  Cl  Cl102  1  0.29407322  0.55141633  0.17832729  1.0
  Cl  Cl103  1  0.30604357  0.55984956  0.09612819  1.0
  O  O104  1  0.49897644  0.34391155  0.98421758  1.0
  O  O105  1  0.49920622  0.34855093  0.04382470  1.0
  O  O106  1  0.65479271  0.50254572  0.01534031  1.0
  O  O107  1  0.65351792  0.49937106  0.95574600  1.0
  O  O108  1  0.50123511  0.65845615  0.04167157  1.0
  O  O109  1  0.50023116  0.65713969  0.98206625  1.0
  O  O110  1  0.34342816  0.49657176  0.95874239  1.0
  O  O111  1  0.34142943  0.50090272  0.01832792  1.0
  O  O112  1  0.50117410  0.34398589  0.51576502  1.0
  O  O113  1  0.50102631  0.34869972  0.45615764  1.0
  O  O114  1  0.34527301  0.50280813  0.48464258  1.0
  O  O115  1  0.34662689  0.49956962  0.54423860  1.0
  O  O116  1  0.49867377  0.65858796  0.45832621  1.0
  O  O117  1  0.49980846  0.65723673  0.51792548  1.0
  O  O118  1  0.65666546  0.49649132  0.54121289  1.0
  O  O119  1  0.65868101  0.50082052  0.48161799  1.0
  F  F120  1  0.50606131  0.86483612  0.95060988  1.0
  F  F121  1  0.50139752  0.14250213  0.07658583  1.0
  F  F122  1  0.86270338  0.49631233  0.92312984  1.0
  F  F123  1  0.13092544  0.49880373  0.04962131  1.0
  F  F124  1  0.49373641  0.86489600  0.54936620  1.0
  F  F125  1  0.49884171  0.14265896  0.42338259  1.0
  F  F126  1  0.13742304  0.49611717  0.57684451  1.0
  F  F127  1  0.86925296  0.49901015  0.45033908  1.0
