# generated using pymatgen
data_AlH8C16N3O7
_symmetry_space_group_name_H-M   'P 1'
_cell_length_a   6.62758384
_cell_length_b   21.61585238
_cell_length_c   24.65674799
_cell_angle_alpha   109.60854049
_cell_angle_beta   92.37721277
_cell_angle_gamma   91.49949110
_symmetry_Int_Tables_number   1
_chemical_formula_structural   AlH8C16N3O7
_chemical_formula_sum   'Al4 H32 C64 N12 O28'
_cell_volume   3321.61677655
_cell_formula_units_Z   4
loop_
 _symmetry_equiv_pos_site_id
 _symmetry_equiv_pos_as_xyz
  1  'x, y, z'
loop_
 _atom_site_type_symbol
 _atom_site_label
 _atom_site_symmetry_multiplicity
 _atom_site_fract_x
 _atom_site_fract_y
 _atom_site_fract_z
 _atom_site_occupancy
  Al  Al0  1  0.12076524  0.49961086  0.49980336  1.0
  Al  Al1  1  0.62125805  0.50055184  0.50018094  1.0
  Al  Al2  1  0.66909603  0.99953141  0.99905204  1.0
  Al  Al3  1  0.16924741  0.99889642  0.00052303  1.0
  H  H4  1  0.14436331  0.21339354  0.07267912  1.0
  H  H5  1  0.33652594  0.77457924  0.93849553  1.0
  H  H6  1  0.11342393  0.39544323  0.24427226  1.0
  H  H7  1  0.42330726  0.59684264  0.76574110  1.0
  H  H8  1  0.17252712  0.32424898  0.14950948  1.0
  H  H9  1  0.37288803  0.66454150  0.86376425  1.0
  H  H10  1  0.71593612  0.28118815  0.44266308  1.0
  H  H11  1  0.32703815  0.72095906  0.54946455  1.0
  H  H12  1  0.81394934  0.14519859  0.27608358  1.0
  H  H13  1  0.30866232  0.85140217  0.72246822  1.0
  H  H14  1  0.98911688  0.41580667  0.34110313  1.0
  H  H15  1  0.45087868  0.58317389  0.66308473  1.0
  H  H16  1  0.60185057  0.86600013  0.08205336  1.0
  H  H17  1  0.10705302  0.13052397  0.91332847  1.0
  H  H18  1  0.59978244  0.79572365  0.14489981  1.0
  H  H19  1  0.10702491  0.20274519  0.85226813  1.0
  H  H20  1  0.22317001  0.85435296  0.19830624  1.0
  H  H21  1  0.70691312  0.14419067  0.80210582  1.0
  H  H22  1  0.22608966  0.92215220  0.13346213  1.0
  H  H23  1  0.71093486  0.07567338  0.86602627  1.0
  H  H24  1  0.56947407  0.65088606  0.30355054  1.0
  H  H25  1  0.08661448  0.35345878  0.69699965  1.0
  H  H26  1  0.55542834  0.58729735  0.37188978  1.0
  H  H27  1  0.07208007  0.41560535  0.62742356  1.0
  H  H28  1  0.18630950  0.63481403  0.41949218  1.0
  H  H29  1  0.68353585  0.36706410  0.58461178  1.0
  H  H30  1  0.19839636  0.70182649  0.35412594  1.0
  H  H31  1  0.69432999  0.30101935  0.65091350  1.0
  H  H32  1  0.35807021  0.45351019  0.42696397  1.0
  H  H33  1  0.88757982  0.54638334  0.57326616  1.0
  H  H34  1  0.43606014  0.03529190  0.07618348  1.0
  H  H35  1  0.91228408  0.98896517  0.92553540  1.0
  C  C36  1  0.37244501  0.43699446  0.56502204  1.0
  C  C37  1  0.86987716  0.56394858  0.43550347  1.0
  C  C38  1  0.39308537  0.60887330  0.57208059  1.0
  C  C39  1  0.84693958  0.39186943  0.42671213  1.0
  C  C40  1  0.09760871  0.28265179  0.15717910  1.0
  C  C41  1  0.37788949  0.70901432  0.85216924  1.0
  C  C42  1  0.96951856  0.17024276  0.12356267  1.0
  C  C43  1  0.38386591  0.82691236  0.87905096  1.0
  C  C44  1  0.76320115  0.27328498  0.39919551  1.0
  C  C45  1  0.34878901  0.72818652  0.59518930  1.0
  C  C46  1  0.76218314  0.20957122  0.35925244  1.0
  C  C47  1  0.32219100  0.79023225  0.63588630  1.0
  C  C48  1  0.81433404  0.19661000  0.30293779  1.0
  C  C49  1  0.34238826  0.80241195  0.69458830  1.0
  C  C50  1  0.87311409  0.24858695  0.28359285  1.0
  C  C51  1  0.39229196  0.75128611  0.71569306  1.0
  C  C52  1  0.89348084  0.31369820  0.32525147  1.0
  C  C53  1  0.41073696  0.68668288  0.67491685  1.0
  C  C54  1  0.92450944  0.23879176  0.22443183  1.0
  C  C55  1  0.40581219  0.75985961  0.77681108  1.0
  C  C56  1  0.02275155  0.29200770  0.21207825  1.0
  C  C57  1  0.40042348  0.70280053  0.79381238  1.0
  C  C58  1  0.04318159  0.35547741  0.25552932  1.0
  C  C59  1  0.41905036  0.63938152  0.75136319  1.0
  C  C60  1  0.97514278  0.36661235  0.30922057  1.0
  C  C61  1  0.43219507  0.63183086  0.69448864  1.0
  C  C62  1  0.88887223  0.17997378  0.17681831  1.0
  C  C63  1  0.41432660  0.82114223  0.82218948  1.0
  C  C64  1  0.07975030  0.22209055  0.11439463  1.0
  C  C65  1  0.35998668  0.76973690  0.89377422  1.0
  C  C66  1  0.83322894  0.32449289  0.38233717  1.0
  C  C67  1  0.39149415  0.67708059  0.61502406  1.0
  C  C68  1  0.73715466  0.86240904  0.10730520  1.0
  C  C69  1  0.23859664  0.13461060  0.88941019  1.0
  C  C70  1  0.73578415  0.82381919  0.14236132  1.0
  C  C71  1  0.23793301  0.17438065  0.85526207  1.0
  C  C72  1  0.91189250  0.82045262  0.17501402  1.0
  C  C73  1  0.40820443  0.17862191  0.82422088  1.0
  C  C74  1  0.08851775  0.85666716  0.17226946  1.0
  C  C75  1  0.57779591  0.14189850  0.82739448  1.0
  C  C76  1  0.08990183  0.89434157  0.13635455  1.0
  C  C77  1  0.57977995  0.10380830  0.86285974  1.0
  C  C78  1  0.91468475  0.89727261  0.10354303  1.0
  C  C79  1  0.41108908  0.10019065  0.89432055  1.0
  C  C80  1  0.89757911  0.71317501  0.28161376  1.0
  C  C81  1  0.40380072  0.28963866  0.72068350  1.0
  C  C82  1  0.91088680  0.77892410  0.21148268  1.0
  C  C83  1  0.41104784  0.22160563  0.78908458  1.0
  C  C84  1  0.70310142  0.64761777  0.32960404  1.0
  C  C85  1  0.21543223  0.35596949  0.67164318  1.0
  C  C86  1  0.69571110  0.61207727  0.36723840  1.0
  C  C87  1  0.20793050  0.39082442  0.63347920  1.0
  C  C88  1  0.87130680  0.60631240  0.39870833  1.0
  C  C89  1  0.37780665  0.39582198  0.60284875  1.0
  C  C90  1  0.05202592  0.63917614  0.39422407  1.0
  C  C91  1  0.55318007  0.36329570  0.60903474  1.0
  C  C92  1  0.05895306  0.67608146  0.35782364  1.0
  C  C93  1  0.55968421  0.32689891  0.64598794  1.0
  C  C94  1  0.88564846  0.67914903  0.32401851  1.0
  C  C95  1  0.39224947  0.32414493  0.67854633  1.0
  C  C96  1  0.39120954  0.89285735  0.92600197  1.0
  C  C97  1  0.94760793  0.10576112  0.07515365  1.0
  C  C98  1  0.41788186  0.06052612  0.93340186  1.0
  C  C99  1  0.91458475  0.93732468  0.06475388  1.0
  N  N100  1  0.08167780  0.77812245  0.24347460  1.0
  N  N101  1  0.57736590  0.22277463  0.75910492  1.0
  N  N102  1  0.07466241  0.74468191  0.27914864  1.0
  N  N103  1  0.57350851  0.25729504  0.72427044  1.0
  N  N104  1  0.73801638  0.70596323  0.24353012  1.0
  N  N105  1  0.25263362  0.29684871  0.75736600  1.0
  N  N106  1  0.74485992  0.73946975  0.20784314  1.0
  N  N107  1  0.25616446  0.26215289  0.79218835  1.0
  N  N108  1  0.75678231  0.12532460  0.18072298  1.0
  N  N109  1  0.47201926  0.88275097  0.81196682  1.0
  N  N110  1  0.70557041  0.15378652  0.37837789  1.0
  N  N111  1  0.25982112  0.84387664  0.61503195  1.0
  O  O112  1  0.56109104  0.58547090  0.55434276  1.0
  O  O113  1  0.02179005  0.41958442  0.44119430  1.0
  O  O114  1  0.19903658  0.45019572  0.54846360  1.0
  O  O115  1  0.69917272  0.54355826  0.44654277  1.0
  O  O116  1  0.22032418  0.57995625  0.55716682  1.0
  O  O117  1  0.68190385  0.41568794  0.44678173  1.0
  O  O118  1  0.04210642  0.54978725  0.45205315  1.0
  O  O119  1  0.54215645  0.45725709  0.55322713  1.0
  O  O120  1  0.36513777  0.48750188  0.46458542  1.0
  O  O121  1  0.87734873  0.51273131  0.53546210  1.0
  O  O122  1  0.25030983  0.03914630  0.94528736  1.0
  O  O123  1  0.74403481  0.94519745  0.04277618  1.0
  O  O124  1  0.56328550  0.92251677  0.93777773  1.0
  O  O125  1  0.11191892  0.08545071  0.05225815  1.0
  O  O126  1  0.59267923  0.05131398  0.95238110  1.0
  O  O127  1  0.08368826  0.96112799  0.05621363  1.0
  O  O128  1  0.77275478  0.07811268  0.06138301  1.0
  O  O129  1  0.22785924  0.91183976  0.94981268  1.0
  O  O130  1  0.42645587  0.01148843  0.03504297  1.0
  O  O131  1  0.91425170  0.98823791  0.96464027  1.0
  O  O132  1  0.83757924  0.07369613  0.17867370  1.0
  O  O133  1  0.57414759  0.13532687  0.18459013  1.0
  O  O134  1  0.63623344  0.88465254  0.79043893  1.0
  O  O135  1  0.35510630  0.92858073  0.82738395  1.0
  O  O136  1  0.65365938  0.16728651  0.42867115  1.0
  O  O137  1  0.71399375  0.09755709  0.34316063  1.0
  O  O138  1  0.24307981  0.83117850  0.56205364  1.0
  O  O139  1  0.22706890  0.89755445  0.65161319  1.0
