# generated using pymatgen
data_Zn8H46C78Cl2O31
_symmetry_space_group_name_H-M   'P 1'
_cell_length_a   18.35388919
_cell_length_b   18.48180728
_cell_length_c   18.43633835
_cell_angle_alpha   60.61379317
_cell_angle_beta   60.37746459
_cell_angle_gamma   60.42814393
_symmetry_Int_Tables_number   1
_chemical_formula_structural   Zn8H46C78Cl2O31
_chemical_formula_sum   'Zn8 H46 C78 Cl2 O31'
_cell_volume   4469.38882027
_cell_formula_units_Z   1
loop_
 _symmetry_equiv_pos_site_id
 _symmetry_equiv_pos_as_xyz
  1  'x, y, z'
loop_
 _atom_site_type_symbol
 _atom_site_label
 _atom_site_symmetry_multiplicity
 _atom_site_fract_x
 _atom_site_fract_y
 _atom_site_fract_z
 _atom_site_occupancy
  Zn  Zn0  1  0.54205792  0.04092208  0.87353557  1.0
  Zn  Zn1  1  0.54216675  0.86606760  0.04472010  1.0
  Zn  Zn2  1  0.36870523  0.04164826  0.04480128  1.0
  Zn  Zn3  1  0.54419343  0.03776803  0.04639096  1.0
  Zn  Zn4  1  0.95442418  0.46661537  0.62696119  1.0
  Zn  Zn5  1  0.12679101  0.46359497  0.45809184  1.0
  Zn  Zn6  1  0.95194649  0.63900659  0.45658063  1.0
  Zn  Zn7  1  0.95529350  0.46388906  0.45322283  1.0
  H  H8  1  0.80248746  0.28906073  0.59742330  1.0
  H  H9  1  0.69140635  0.89206864  0.37816681  1.0
  H  H10  1  0.90805390  0.96468105  0.32250147  1.0
  H  H11  1  0.00672791  0.87901408  0.21710728  1.0
  H  H12  1  0.94781613  0.79933201  0.19376743  1.0
  H  H13  1  0.06559716  0.14717795  0.31574653  1.0
  H  H14  1  0.20628055  0.03861605  0.34557252  1.0
  H  H15  1  0.27457533  0.89714999  0.31678293  1.0
  H  H16  1  0.06363466  0.97274715  0.22580137  1.0
  H  H17  1  0.99461981  0.11404250  0.25535001  1.0
  H  H18  1  0.70985900  0.19421988  0.69168866  1.0
  H  H19  1  0.26874843  0.29915206  0.28575724  1.0
  H  H20  1  0.09070886  0.80928488  0.34071437  1.0
  H  H21  1  0.40443559  0.69534038  0.16279727  1.0
  H  H22  1  0.41359445  0.52396344  0.30744870  1.0
  H  H23  1  0.42707277  0.34581958  0.21122860  1.0
  H  H24  1  0.30435599  0.46205003  0.15203022  1.0
  H  H25  1  0.23739320  0.60930989  0.16949288  1.0
  H  H26  1  0.46141634  0.14197176  0.57966531  1.0
  H  H27  1  0.40654805  0.01839422  0.69930169  1.0
  H  H28  1  0.69942192  0.21709504  0.85164601  1.0
  H  H29  1  0.62085437  0.12685960  0.52795256  1.0
  H  H30  1  0.18859432  0.22504690  0.18397125  1.0
  H  H31  1  0.75606905  0.80773610  0.59677138  1.0
  H  H32  1  0.74449316  0.69791371  0.90569117  1.0
  H  H33  1  0.77255071  0.53318980  0.93285360  1.0
  H  H34  1  0.87874867  0.39584909  0.99899535  1.0
  H  H35  1  0.04172061  0.36833987  0.92462402  1.0
  H  H36  1  0.09742934  0.47908500  0.78375077  1.0
  H  H37  1  0.99109679  0.61694714  0.71853137  1.0
  H  H38  1  0.08931894  0.27698152  0.81361133  1.0
  H  H39  1  0.25862551  0.30976033  0.66029824  1.0
  H  H40  1  0.18361834  0.19775567  0.90884177  1.0
  H  H41  1  0.34619185  0.19163087  0.22833600  1.0
  H  H42  1  0.34305053  0.19082468  0.73668484  1.0
  H  H43  1  0.09470015  0.30920898  0.28859537  1.0
  H  H44  1  0.55938365  0.51719943  0.18125217  1.0
  H  H45  1  0.79593933  0.35010820  0.77764959  1.0
  H  H46  1  0.68353775  0.97958875  0.44093670  1.0
  H  H47  1  0.44632633  0.87855870  0.79432891  1.0
  H  H48  1  0.77400637  0.93224352  0.61937417  1.0
  H  H49  1  0.52118995  0.58771399  0.27757541  1.0
  H  H50  1  0.57071760  0.66598053  0.31252297  1.0
  H  H51  1  0.76327087  0.55929260  0.05503605  1.0
  H  H52  1  0.79129861  0.58804335  0.30664351  1.0
  H  H53  1  0.71015755  0.91189662  0.19063150  1.0
  C  C54  1  0.64289159  0.85937621  0.13483471  1.0
  C  C55  1  0.30895816  0.18884410  0.19902224  1.0
  C  C56  1  0.58513937  0.59832241  0.23649584  1.0
  C  C57  1  0.35953872  0.12924483  0.86537106  1.0
  C  C58  1  0.61325085  0.64236694  0.25603531  1.0
  C  C59  1  0.69380905  0.65917988  0.20405229  1.0
  C  C60  1  0.74677347  0.62765935  0.13201039  1.0
  C  C61  1  0.72067638  0.58297417  0.11130959  1.0
  C  C62  1  0.63888581  0.56889429  0.16341326  1.0
  C  C63  1  0.77311880  0.65948227  0.28052752  1.0
  C  C64  1  0.80289568  0.69948643  0.30367322  1.0
  C  C65  1  0.68847752  0.19546853  0.81381612  1.0
  C  C66  1  0.78135681  0.79200515  0.27045555  1.0
  C  C67  1  0.72806444  0.84044891  0.21708239  1.0
  C  C68  1  0.69832860  0.80041572  0.19393794  1.0
  C  C69  1  0.62952083  0.85772166  0.86656356  1.0
  C  C70  1  0.72166782  0.70779474  0.22537338  1.0
  C  C71  1  0.76052767  0.88974833  0.34212723  1.0
  C  C72  1  0.79413888  0.93414192  0.35540453  1.0
  C  C73  1  0.88310263  0.93023332  0.31057575  1.0
  C  C74  1  0.93740880  0.88226397  0.25227692  1.0
  C  C75  1  0.90472728  0.83723766  0.23904310  1.0
  C  C76  1  0.16011961  0.26872616  0.78221514  1.0
  C  C77  1  0.81614731  0.83992260  0.28496071  1.0
  C  C78  1  0.17489295  0.02430202  0.31925543  1.0
  C  C79  1  0.21344730  0.94501547  0.30274516  1.0
  C  C80  1  0.17377195  0.92534629  0.26920015  1.0
  C  C81  1  0.36210735  0.13386471  0.14119295  1.0
  C  C82  1  0.09448983  0.98692500  0.25277246  1.0
  C  C83  1  0.05608554  0.06658408  0.26880853  1.0
  C  C84  1  0.09607297  0.08532877  0.30233093  1.0
  C  C85  1  0.15951676  0.78548160  0.30014114  1.0
  C  C86  1  0.19319644  0.70005396  0.29755435  1.0
  C  C87  1  0.18951123  0.31240057  0.69512741  1.0
  C  C88  1  0.28279207  0.66554410  0.24803343  1.0
  C  C89  1  0.33554403  0.71911383  0.20328155  1.0
  C  C90  1  0.30175238  0.80469992  0.20578954  1.0
  C  C91  1  0.21240843  0.83896889  0.25607648  1.0
  C  C92  1  0.39104084  0.51187479  0.27096694  1.0
  C  C93  1  0.36133257  0.85971496  0.14720559  1.0
  C  C94  1  0.42761467  0.42931691  0.26121295  1.0
  C  C95  1  0.39723584  0.41054206  0.21843821  1.0
  C  C96  1  0.32862569  0.47602968  0.18557454  1.0
  C  C97  1  0.29098206  0.55861193  0.19537370  1.0
  C  C98  1  0.21595837  0.21393404  0.83729638  1.0
  C  C99  1  0.32167309  0.57723651  0.23842545  1.0
  C  C100  1  0.47650640  0.01152272  0.67530215  1.0
  C  C101  1  0.53617065  0.93318859  0.71179848  1.0
  C  C102  1  0.62666380  0.92228703  0.68192293  1.0
  C  C103  1  0.65524834  0.99400369  0.61600949  1.0
  C  C104  1  0.59625577  0.07284546  0.57866611  1.0
  C  C105  1  0.63509439  0.13684381  0.86594597  1.0
  C  C106  1  0.50747292  0.08064332  0.60856423  1.0
  C  C107  1  0.75386737  0.78488553  0.66454201  1.0
  C  C108  1  0.81256231  0.70171139  0.69607455  1.0
  C  C109  1  0.30543596  0.18076300  0.80670661  1.0
  C  C110  1  0.81060634  0.66852656  0.78407865  1.0
  C  C111  1  0.74708612  0.72083583  0.83780516  1.0
  C  C112  1  0.68873935  0.80366402  0.80628408  1.0
  C  C113  1  0.69065093  0.83722345  0.71825135  1.0
  C  C114  1  0.84380106  0.52167653  0.90043825  1.0
  C  C115  1  0.90363810  0.44410939  0.93729431  1.0
  C  C116  1  0.99494322  0.42849853  0.89546889  1.0
  C  C117  1  0.77593803  0.27702430  0.66828933  1.0
  C  C118  1  0.02616731  0.49072570  0.81647835  1.0
  C  C119  1  0.96644391  0.56801966  0.77959239  1.0
  C  C120  1  0.16679505  0.28778320  0.27051336  1.0
  C  C121  1  0.87444198  0.58445282  0.82098535  1.0
  C  C122  1  0.13867892  0.36840281  0.36136927  1.0
  C  C123  1  0.86904999  0.64698881  0.63638688  1.0
  C  C124  1  0.13183057  0.36737375  0.64020321  1.0
  C  C125  1  0.85591649  0.64108904  0.36494294  1.0
  C  C126  1  0.13393938  0.64480729  0.35569843  1.0
  C  C127  1  0.85459363  0.37555549  0.63199533  1.0
  C  C128  1  0.79735571  0.31908698  0.69468399  1.0
  C  C129  1  0.72301301  0.22033069  0.72427350  1.0
  C  C130  1  0.19796726  0.31499320  0.30217552  1.0
  C  C131  1  0.22116012  0.23290386  0.21449157  1.0
  Cl  Cl132  1  0.84714531  0.64666789  0.06395716  1.0
  Cl  Cl133  1  0.51219718  0.34858473  0.30370458  1.0
  O  O134  1  0.49860238  0.99534940  0.00335354  1.0
  O  O135  1  0.86318215  0.67647312  0.40439787  1.0
  O  O136  1  0.17194029  0.56281485  0.38814374  1.0
  O  O137  1  0.61273918  0.94147903  0.12394859  1.0
  O  O138  1  0.88336952  0.38828233  0.54982432  1.0
  O  O139  1  0.05067645  0.68477195  0.37007766  1.0
  O  O140  1  0.86913848  0.40657449  0.67071902  1.0
  O  O141  1  0.04830768  0.37997292  0.67780462  1.0
  O  O142  1  0.88884855  0.55905744  0.37416987  1.0
  O  O143  1  0.17784012  0.38837143  0.38693018  1.0
  O  O144  1  0.89519698  0.68727165  0.55347142  1.0
  O  O145  1  0.61581931  0.94005139  0.83020539  1.0
  O  O146  1  0.44350645  0.10850513  0.82617688  1.0
  O  O147  1  0.60092796  0.81659269  0.94885378  1.0
  O  O148  1  0.32117432  0.11869031  0.11340814  1.0
  O  O149  1  0.44445354  0.81920987  0.13381644  1.0
  O  O150  1  0.61309276  0.11345552  0.95007236  1.0
  O  O151  1  0.32409374  0.94152047  0.11336212  1.0
  O  O152  1  0.61422263  0.11378576  0.82542551  1.0
  O  O153  1  0.61586044  0.52602702  0.13896665  1.0
  O  O154  1  0.76980918  0.31309849  0.77979536  1.0
  O  O155  1  0.74358360  0.98235046  0.41189658  1.0
  O  O156  1  0.44591793  0.10610240  0.12442275  1.0
  O  O157  1  0.51001256  0.86287816  0.77850666  1.0
  O  O158  1  0.74089528  0.99016599  0.58746199  1.0
  O  O159  1  0.63016859  0.82382922  0.09980772  1.0
  O  O160  1  0.31890027  0.11064240  0.94860735  1.0
  O  O161  1  0.99639707  0.50887273  0.49794451  1.0
  O  O162  1  0.05493700  0.38988361  0.38235943  1.0
  O  O163  1  0.88360732  0.56437085  0.67350927  1.0
  O  O164  1  0.17177391  0.39851284  0.55766631  1.0
