# generated using pymatgen
data_Zn4H20C44O29
_symmetry_space_group_name_H-M   'P 1'
_cell_length_a   23.67254015
_cell_length_b   23.67191860
_cell_length_c   23.67036468
_cell_angle_alpha   114.32811203
_cell_angle_beta   107.10323132
_cell_angle_gamma   107.09880667
_symmetry_Int_Tables_number   1
_chemical_formula_structural   Zn4H20C44O29
_chemical_formula_sum   'Zn8 H40 C88 O58'
_cell_volume   10154.78159335
_cell_formula_units_Z   2
loop_
 _symmetry_equiv_pos_site_id
 _symmetry_equiv_pos_as_xyz
  1  'x, y, z'
loop_
 _atom_site_type_symbol
 _atom_site_label
 _atom_site_symmetry_multiplicity
 _atom_site_fract_x
 _atom_site_fract_y
 _atom_site_fract_z
 _atom_site_occupancy
  Zn  Zn0  1  0.94190104  0.89985527  0.45631080  1.0
  Zn  Zn1  1  0.94189213  0.04202901  0.48556593  1.0
  Zn  Zn2  1  0.05811318  0.04368811  0.60015400  1.0
  Zn  Zn3  1  0.05810876  0.01443143  0.45796924  1.0
  Zn  Zn4  1  0.05646439  0.60014261  0.04204135  1.0
  Zn  Zn5  1  0.94353305  0.45795980  0.89984448  1.0
  Zn  Zn6  1  0.05646665  0.45632802  0.01442709  1.0
  Zn  Zn7  1  0.94354234  0.48557661  0.04367774  1.0
  H  H8  1  0.08424187  0.79186711  0.89966189  1.0
  H  H9  1  0.91576193  0.60034386  0.70810999  1.0
  H  H10  1  0.04457508  0.90536007  0.79342494  1.0
  H  H11  1  0.95546369  0.70656600  0.59461533  1.0
  H  H12  1  0.91574540  0.31538656  0.20758934  1.0
  H  H13  1  0.08423708  0.29237773  0.18458928  1.0
  H  H14  1  0.95549650  0.24890985  0.36084768  1.0
  H  H15  1  0.04453827  0.13917641  0.25111369  1.0
  H  H16  1  0.38806946  0.79343479  0.24892072  1.0
  H  H17  1  0.38805503  0.59464477  0.13919026  1.0
  H  H18  1  0.60777760  0.89961740  0.31542163  1.0
  H  H19  1  0.60779575  0.70812752  0.29243873  1.0
  H  H20  1  0.61192454  0.25107895  0.70654693  1.0
  H  H21  1  0.61196438  0.36080238  0.90535995  1.0
  H  H22  1  0.39222201  0.18455334  0.60036967  1.0
  H  H23  1  0.39222580  0.20761155  0.79190471  1.0
  H  H24  1  0.16403129  0.89943868  0.34935279  1.0
  H  H25  1  0.94991859  0.60060908  0.26464696  1.0
  H  H26  1  0.05009073  0.81469039  0.15066312  1.0
  H  H27  1  0.83596065  0.68530072  0.23534566  1.0
  H  H28  1  0.16401863  0.26462578  0.81471375  1.0
  H  H29  1  0.94992860  0.34931099  0.68527809  1.0
  H  H30  1  0.05009631  0.23540049  0.89944935  1.0
  H  H31  1  0.83594597  0.15065804  0.60056274  1.0
  H  H32  1  0.09042430  0.70676312  0.99111630  1.0
  H  H33  1  0.90959048  0.50887990  0.79320495  1.0
  H  H34  1  0.04505394  0.99933390  0.71137827  1.0
  H  H35  1  0.95502054  0.78862057  0.50064385  1.0
  H  H36  1  0.90955320  0.40064344  0.11629261  1.0
  H  H37  1  0.09040588  0.38364427  0.09929722  1.0
  H  H38  1  0.95502985  0.16639974  0.45436305  1.0
  H  H39  1  0.04500878  0.04568273  0.33364286  1.0
  H  H40  1  0.21204662  0.71138074  0.16638168  1.0
  H  H41  1  0.21203094  0.50067050  0.04565549  1.0
  H  H42  1  0.78433253  0.99108704  0.40069476  1.0
  H  H43  1  0.78435235  0.79323933  0.38370164  1.0
  H  H44  1  0.78794664  0.33362289  0.78858939  1.0
  H  H45  1  0.78798533  0.45434096  0.99932625  1.0
  H  H46  1  0.21566298  0.09929142  0.50889799  1.0
  H  H47  1  0.21566571  0.11636330  0.70679335  1.0
  C  C48  1  0.81473506  0.90735420  0.40737617  1.0
  C  C49  1  0.99999491  0.13731834  0.63735249  1.0
  C  C50  1  0.00003432  0.90940559  0.59059699  1.0
  C  C51  1  0.18527447  0.09264118  0.59265315  1.0
  C  C52  1  0.99998722  0.86266487  0.36264089  1.0
  C  C53  1  0.00001138  0.09061082  0.40941363  1.0
  C  C54  1  0.00000246  0.59262739  0.90735665  1.0
  C  C55  1  0.99997460  0.36265057  0.86264572  1.0
  C  C56  1  0.18119910  0.59060691  0.09060036  1.0
  C  C57  1  0.99999068  0.40735494  0.09261477  1.0
  C  C58  1  0.00001483  0.63733836  0.13735177  1.0
  C  C59  1  0.81880754  0.40940856  0.90938002  1.0
  C  C60  1  0.99999651  0.80440968  0.30439353  1.0
  C  C61  1  0.00000912  0.69559461  0.19560190  1.0
  C  C62  1  0.04258640  0.82071415  0.27650460  1.0
  C  C63  1  0.95580256  0.67929065  0.22187451  1.0
  C  C64  1  0.04420999  0.76607591  0.22349312  1.0
  C  C65  1  0.95741214  0.73392944  0.27811920  1.0
  C  C66  1  0.99998459  0.19557510  0.69559680  1.0
  C  C67  1  0.99998380  0.30439328  0.80439917  1.0
  C  C68  1  0.04257714  0.22186981  0.76609141  1.0
  C  C69  1  0.95578334  0.27649092  0.73390488  1.0
  C  C70  1  0.04418942  0.27812664  0.82072143  1.0
  C  C71  1  0.95740187  0.22346444  0.67927471  1.0
  C  C72  1  0.00000332  0.62903288  0.87095136  1.0
  C  C73  1  0.04829082  0.70181666  0.90651920  1.0
  C  C74  1  0.04745179  0.73661134  0.87135592  1.0
  C  C75  1  0.99999997  0.70010181  0.79988842  1.0
  C  C76  1  0.95254802  0.62864252  0.76337275  1.0
  C  C77  1  0.95171774  0.59347546  0.79816414  1.0
  C  C78  1  0.00000009  0.73569385  0.76429819  1.0
  C  C79  1  0.00000267  0.76635817  0.73362890  1.0
  C  C80  1  0.00002270  0.80196305  0.69802187  1.0
  C  C81  1  0.02522462  0.87542007  0.73658901  1.0
  C  C82  1  0.02497154  0.91084821  0.70201805  1.0
  C  C83  1  0.00004100  0.87304846  0.62694589  1.0
  C  C84  1  0.97510494  0.79797966  0.58913471  1.0
  C  C85  1  0.97483057  0.76340250  0.62455948  1.0
  C  C86  1  0.99998341  0.37093833  0.12900901  1.0
  C  C87  1  0.95169509  0.35819860  0.15349402  1.0
  C  C88  1  0.95253541  0.32387806  0.18912838  1.0
  C  C89  1  0.99999321  0.29988217  0.20008829  1.0
  C  C90  1  0.04744678  0.31083597  0.17609132  1.0
  C  C91  1  0.04827695  0.34645382  0.14175102  1.0
  C  C92  1  0.99999727  0.26430538  0.23568300  1.0
  C  C93  1  0.00000895  0.23363894  0.26636756  1.0
  C  C94  1  0.00002310  0.19805067  0.30198346  1.0
  C  C95  1  0.97484714  0.21143050  0.35026195  1.0
  C  C96  1  0.97510850  0.17711996  0.38595413  1.0
  C  C97  1  0.00002278  0.12697363  0.37307072  1.0
  C  C98  1  0.02493992  0.11409169  0.32292611  1.0
  C  C99  1  0.02519869  0.14977385  0.28860360  1.0
  C  C100  1  0.25390307  0.62695711  0.12696019  1.0
  C  C101  1  0.29116910  0.70202296  0.17711088  1.0
  C  C102  1  0.36117424  0.73660234  0.21143628  1.0
  C  C103  1  0.39606554  0.69804104  0.19805255  1.0
  C  C104  1  0.36116443  0.62458493  0.14977843  1.0
  C  C105  1  0.29116323  0.58915726  0.11408254  1.0
  C  C106  1  0.46727253  0.73363972  0.23365110  1.0
  C  C107  1  0.52861402  0.76429503  0.26433058  1.0
  C  C108  1  0.59979026  0.79987503  0.29992763  1.0
  C  C109  1  0.63473823  0.87132715  0.32391426  1.0
  C  C110  1  0.70469445  0.90649833  0.35824897  1.0
  C  C111  1  0.74192379  0.87095160  0.37099233  1.0
  C  C112  1  0.70470430  0.79817659  0.34651786  1.0
  C  C113  1  0.63474613  0.76337943  0.31089333  1.0
  C  C114  1  0.74610373  0.37304635  0.87303017  1.0
  C  C115  1  0.70883076  0.32289382  0.79795789  1.0
  C  C116  1  0.63882736  0.28856492  0.76338516  1.0
  C  C117  1  0.60394170  0.30194148  0.80195273  1.0
  C  C118  1  0.63884966  0.35021551  0.87541508  1.0
  C  C119  1  0.70884920  0.38591767  0.91083853  1.0
  C  C120  1  0.53273202  0.26634181  0.76635847  1.0
  C  C121  1  0.47139535  0.23567046  0.73571408  1.0
  C  C122  1  0.40021603  0.20008013  0.70013476  1.0
  C  C123  1  0.36526434  0.17607934  0.62866969  1.0
  C  C124  1  0.29530778  0.14175302  0.59350063  1.0
  C  C125  1  0.25808622  0.12903453  0.62906170  1.0
  C  C126  1  0.29530771  0.15352707  0.70184840  1.0
  C  C127  1  0.36526878  0.18914648  0.73664605  1.0
  C  C128  1  0.08145672  0.89584958  0.29759496  1.0
  C  C129  1  0.90176688  0.60415139  0.18561394  1.0
  C  C130  1  0.09825053  0.78385043  0.20239980  1.0
  C  C131  1  0.91852637  0.71615297  0.31437301  1.0
  C  C132  1  0.08145917  0.18562375  0.78388616  1.0
  C  C133  1  0.90175027  0.29758599  0.71610760  1.0
  C  C134  1  0.09823285  0.31440725  0.89587437  1.0
  C  C135  1  0.91852433  0.20235259  0.60412323  1.0
  O  O136  1  0.00000435  0.00000172  0.50000128  1.0
  O  O137  1  0.84651095  0.87489033  0.42225497  1.0
  O  O138  1  0.94715970  0.09973212  0.57779742  1.0
  O  O139  1  0.02537188  0.97767795  0.62694992  1.0
  O  O140  1  0.84649904  0.97159091  0.42424311  1.0
  O  O141  1  0.97467929  0.87305413  0.52231050  1.0
  O  O142  1  0.05281771  0.13061469  0.65262189  1.0
  O  O143  1  0.15350597  0.07777734  0.62512804  1.0
  O  O144  1  0.05281827  0.92221096  0.40021472  1.0
  O  O145  1  0.15350444  0.07574820  0.52840178  1.0
  O  O146  1  0.94716469  0.84740961  0.36934698  1.0
  O  O147  1  0.97466074  0.10160662  0.45233940  1.0
  O  O148  1  0.02534922  0.04767747  0.39840770  1.0
  O  O149  1  0.99999951  0.49999993  0.99999612  1.0
  O  O150  1  0.04735144  0.62510341  0.97160883  1.0
  O  O151  1  0.97800722  0.40020978  0.84737998  1.0
  O  O152  1  0.14926564  0.52232774  0.04766104  1.0
  O  O153  1  0.95264924  0.52838617  0.87487844  1.0
  O  O154  1  0.14927516  0.62695378  0.10160444  1.0
  O  O155  1  0.02194593  0.36936756  0.92219804  1.0
  O  O156  1  0.04735893  0.42225848  0.07575076  1.0
  O  O157  1  0.97804731  0.57779832  0.13064755  1.0
  O  O158  1  0.95263728  0.42423882  0.07772710  1.0
  O  O159  1  0.02197893  0.65258810  0.09978119  1.0
  O  O160  1  0.85072562  0.39840340  0.87302685  1.0
  O  O161  1  0.85074395  0.45235022  0.97766377  1.0
  O  O162  1  0.14901544  0.92864185  0.33626489  1.0
  O  O163  1  0.05294805  0.92370858  0.27635341  1.0
  O  O164  1  0.90763660  0.57138632  0.22041039  1.0
  O  O165  1  0.85267483  0.57626416  0.12922244  1.0
  O  O166  1  0.09237490  0.81274961  0.16373821  1.0
  O  O167  1  0.14734597  0.77657188  0.22363021  1.0
  O  O168  1  0.85096594  0.68724466  0.27957535  1.0
  O  O169  1  0.94702197  0.72343381  0.37075552  1.0
  O  O170  1  0.14901838  0.22041564  0.81280057  1.0
  O  O171  1  0.05296610  0.12925692  0.77662220  1.0
  O  O172  1  0.90763242  0.33622691  0.68718914  1.0
  O  O173  1  0.85264641  0.27636347  0.72337200  1.0
  O  O174  1  0.09237534  0.27963741  0.92866691  1.0
  O  O175  1  0.14731752  0.37079178  0.92374749  1.0
  O  O176  1  0.85096134  0.16370895  0.57133863  1.0
  O  O177  1  0.94702902  0.22355531  0.57624191  1.0
  O  O178  1  0.09569452  0.73947101  0.97466553  1.0
  O  O179  1  0.90432205  0.52532920  0.76049371  1.0
  O  O180  1  0.04828830  0.98087567  0.74229830  1.0
  O  O181  1  0.95178956  0.75770399  0.51910243  1.0
  O  O182  1  0.90428504  0.37892406  0.14373160  1.0
  O  O183  1  0.09567560  0.35620214  0.12101359  1.0
  O  O184  1  0.95180925  0.19409222  0.43267741  1.0
  O  O185  1  0.04824125  0.06737130  0.30595525  1.0
  O  O186  1  0.26142310  0.74229824  0.19407731  1.0
  O  O187  1  0.26140778  0.51913124  0.06735188  1.0
  O  O188  1  0.73517476  0.97463373  0.37898148  1.0
  O  O189  1  0.73519346  0.76053023  0.35627703  1.0
  O  O190  1  0.73857010  0.30592687  0.75767421  1.0
  O  O191  1  0.73860947  0.43264365  0.98086896  1.0
  O  O192  1  0.26482157  0.12100162  0.52535311  1.0
  O  O193  1  0.26482669  0.14379048  0.73950703  1.0
