# generated using pymatgen
data_Cu4SiH24(C11N2)4
_symmetry_space_group_name_H-M   'P 1'
_cell_length_a   31.92168657
_cell_length_b   31.95710847
_cell_length_c   32.87913590
_cell_angle_alpha   89.97139155
_cell_angle_beta   90.00178722
_cell_angle_gamma   89.94018584
_symmetry_Int_Tables_number   1
_chemical_formula_structural   Cu4SiH24(C11N2)4
_chemical_formula_sum   'Cu12 Si3 H72 C132 N24'
_cell_volume   33540.79946781
_cell_formula_units_Z   3
loop_
 _symmetry_equiv_pos_site_id
 _symmetry_equiv_pos_as_xyz
  1  'x, y, z'
loop_
 _atom_site_type_symbol
 _atom_site_label
 _atom_site_symmetry_multiplicity
 _atom_site_fract_x
 _atom_site_fract_y
 _atom_site_fract_z
 _atom_site_occupancy
  Cu  Cu0  1  0.76784548  0.76770379  0.83387530  1.0
  Cu  Cu1  1  0.84080081  0.77144756  0.76882025  1.0
  Cu  Cu2  1  0.76976290  0.84215062  0.77043802  1.0
  Cu  Cu3  1  0.76784707  0.23249065  0.16446212  1.0
  Cu  Cu4  1  0.84148323  0.23039163  0.22884615  1.0
  Cu  Cu5  1  0.77045909  0.15963742  0.22971684  1.0
  Cu  Cu6  1  0.23284870  0.76674547  0.16809277  1.0
  Cu  Cu7  1  0.15811455  0.76993699  0.23146913  1.0
  Cu  Cu8  1  0.22902487  0.84043905  0.23239160  1.0
  Cu  Cu9  1  0.23354398  0.23141670  0.83314274  1.0
  Cu  Cu10  1  0.15959588  0.22904058  0.76880640  1.0
  Cu  Cu11  1  0.23005790  0.15763382  0.76930521  1.0
  Si  Si12  1  0.99876850  0.00094756  0.49998906  1.0
  Si  Si13  1  0.00120536  0.50039038  0.99861008  1.0
  Si  Si14  1  0.49953976  0.99890398  0.00158817  1.0
  H  H15  1  0.79638094  0.68998489  0.88667945  1.0
  H  H16  1  0.90035972  0.69859824  0.80229782  1.0
  H  H17  1  0.69641693  0.89986919  0.80594245  1.0
  H  H18  1  0.69152819  0.79493736  0.88937004  1.0
  H  H19  1  0.89449962  0.80193097  0.69323991  1.0
  H  H20  1  0.79892388  0.89833764  0.69613867  1.0
  H  H21  1  0.79569847  0.30880642  0.10943091  1.0
  H  H22  1  0.89975390  0.30363797  0.19398475  1.0
  H  H23  1  0.69704174  0.10093696  0.19602189  1.0
  H  H24  1  0.69083489  0.20409385  0.11060163  1.0
  H  H25  1  0.89665067  0.20094002  0.30391373  1.0
  H  H26  1  0.80019042  0.10560013  0.30532157  1.0
  H  H27  1  0.20537878  0.68978935  0.11370405  1.0
  H  H28  1  0.09958692  0.69748713  0.19601323  1.0
  H  H29  1  0.30187891  0.89940218  0.19840727  1.0
  H  H30  1  0.31075657  0.79480533  0.11498382  1.0
  H  H31  1  0.10214437  0.79984029  0.30579810  1.0
  H  H32  1  0.19860584  0.89518450  0.30734714  1.0
  H  H33  1  0.20585540  0.30840883  0.88732678  1.0
  H  H34  1  0.10155087  0.30269212  0.80312363  1.0
  H  H35  1  0.30249375  0.09830293  0.80404009  1.0
  H  H36  1  0.31107755  0.20334100  0.88695750  1.0
  H  H37  1  0.10474991  0.19926152  0.69361003  1.0
  H  H38  1  0.19996068  0.10247403  0.69486562  1.0
  H  H39  1  0.98132190  0.61584075  0.89791506  1.0
  H  H40  1  0.02231776  0.56616651  0.93958404  1.0
  H  H41  1  0.90758168  0.51375847  0.98683422  1.0
  H  H42  1  0.86672454  0.56409345  0.94553172  1.0
  H  H43  1  0.89665923  0.38544496  0.01840098  1.0
  H  H44  1  0.93909541  0.43505537  0.97817878  1.0
  H  H45  1  0.98917807  0.48731013  0.08901396  1.0
  H  H46  1  0.94709830  0.43702968  0.12914203  1.0
  H  H47  1  0.13540836  0.56404883  0.05229885  1.0
  H  H48  1  0.09483092  0.51375538  0.01082250  1.0
  H  H49  1  0.97978111  0.56625240  0.05738240  1.0
  H  H50  1  0.02045451  0.61592110  0.09920780  1.0
  H  H51  1  0.10517206  0.38490942  0.97795556  1.0
  H  H52  1  0.06323162  0.43470142  0.01853603  1.0
  H  H53  1  0.01278161  0.48769448  0.90810186  1.0
  H  H54  1  0.05436051  0.43727015  0.86762151  1.0
  H  H55  1  0.56296649  0.94588377  0.87088880  1.0
  H  H56  1  0.51233351  0.98748446  0.91129127  1.0
  H  H57  1  0.56539409  0.93743964  0.02186719  1.0
  H  H58  1  0.61536936  0.89545460  0.98136828  1.0
  H  H59  1  0.38420350  0.01833577  0.90073215  1.0
  H  H60  1  0.43368340  0.97751374  0.94285605  1.0
  H  H61  1  0.48641404  0.09225672  0.98937499  1.0
  H  H62  1  0.43628957  0.13298117  0.94762577  1.0
  H  H63  1  0.56323861  0.05253131  0.13193406  1.0
  H  H64  1  0.51266025  0.01063358  0.09185590  1.0
  H  H65  1  0.56517355  0.06028049  0.98092681  1.0
  H  H66  1  0.61509454  0.10254746  0.02109847  1.0
  H  H67  1  0.43665977  0.86476566  0.05547479  1.0
  H  H68  1  0.48678712  0.90556613  0.01386078  1.0
  H  H69  1  0.43373050  0.02025026  0.06036467  1.0
  H  H70  1  0.38421506  0.97937731  0.10234261  1.0
  H  H71  1  0.89471513  0.98223916  0.61230946  1.0
  H  H72  1  0.93669038  0.02271484  0.56303043  1.0
  H  H73  1  0.98624987  0.90769055  0.51366444  1.0
  H  H74  1  0.94460345  0.86735688  0.56356181  1.0
  H  H75  1  0.01791819  0.89692090  0.38787072  1.0
  H  H76  1  0.97729120  0.93907975  0.43689887  1.0
  H  H77  1  0.09234551  0.98828538  0.48659196  1.0
  H  H78  1  0.13281119  0.94641790  0.43697721  1.0
  H  H79  1  0.10280631  0.01917950  0.61240959  1.0
  H  H80  1  0.06057683  0.97891851  0.56320897  1.0
  H  H81  1  0.01166934  0.09417103  0.51365666  1.0
  H  H82  1  0.05362552  0.13430960  0.56343087  1.0
  H  H83  1  0.98006612  0.10466464  0.38745706  1.0
  H  H84  1  0.02043897  0.06271148  0.43681911  1.0
  H  H85  1  0.90519015  0.01367024  0.48624103  1.0
  H  H86  1  0.86493221  0.05527426  0.43625756  1.0
  C  C87  1  0.81809291  0.69747728  0.86237720  1.0
  C  C88  1  0.85761517  0.67991613  0.85381250  1.0
  C  C89  1  0.87140899  0.70206700  0.81923317  1.0
  C  C90  1  0.70067896  0.87074299  0.82238147  1.0
  C  C91  1  0.67973677  0.85627171  0.85739438  1.0
  C  C92  1  0.69825917  0.81708814  0.86524671  1.0
  C  C93  1  0.86779118  0.82192015  0.69950147  1.0
  C  C94  1  0.85545964  0.85926938  0.68005120  1.0
  C  C95  1  0.81894984  0.87137820  0.70110890  1.0
  C  C96  1  0.81764144  0.30202646  0.13375207  1.0
  C  C97  1  0.85678735  0.32047934  0.14200581  1.0
  C  C98  1  0.87082991  0.29945102  0.17717463  1.0
  C  C99  1  0.70100836  0.12973367  0.17898106  1.0
  C  C100  1  0.67962268  0.14343157  0.14390967  1.0
  C  C101  1  0.69791516  0.18247180  0.13509258  1.0
  C  C102  1  0.86973978  0.18100151  0.29854808  1.0
  C  C103  1  0.85738778  0.14445184  0.31934623  1.0
  C  C104  1  0.82026381  0.13227828  0.29938924  1.0
  C  C105  1  0.18311629  0.69702827  0.13760732  1.0
  C  C106  1  0.14342102  0.67939893  0.14513495  1.0
  C  C107  1  0.12886362  0.70116047  0.17966262  1.0
  C  C108  1  0.29843848  0.87033107  0.18173422  1.0
  C  C109  1  0.32063147  0.85624276  0.14729433  1.0
  C  C110  1  0.30313717  0.81668554  0.13908004  1.0
  C  C111  1  0.12913577  0.81970977  0.30055586  1.0
  C  C112  1  0.14128608  0.85642218  0.32114158  1.0
  C  C113  1  0.17860844  0.86844747  0.30145226  1.0
  C  C114  1  0.18385322  0.30145477  0.86312883  1.0
  C  C115  1  0.14468366  0.31991575  0.85480634  1.0
  C  C116  1  0.13053392  0.29859388  0.81988649  1.0
  C  C117  1  0.29900738  0.12747422  0.82055411  1.0
  C  C118  1  0.32100523  0.14165995  0.85506237  1.0
  C  C119  1  0.30357384  0.18135773  0.86293348  1.0
  C  C120  1  0.13147787  0.17914892  0.69943921  1.0
  C  C121  1  0.14346207  0.14192332  0.67958423  1.0
  C  C122  1  0.18012298  0.12948962  0.70020491  1.0
  C  C123  1  0.92114760  0.59323486  0.91863778  1.0
  C  C124  1  0.96537047  0.59316552  0.91723515  1.0
  C  C125  1  0.98811624  0.56496420  0.94064686  1.0
  C  C126  1  0.87897083  0.64867842  0.87560705  1.0
  C  C127  1  0.92408022  0.53584170  0.96721199  1.0
  C  C128  1  0.90084822  0.56409557  0.94410531  1.0
  C  C129  1  0.89804391  0.62250412  0.89534926  1.0
  C  C130  1  0.96810604  0.53556241  0.96599264  1.0
  C  C131  1  0.91899813  0.40771179  0.07663369  1.0
  C  C132  1  0.91680506  0.40801179  0.03372459  1.0
  C  C133  1  0.94069890  0.43618179  0.01136907  1.0
  C  C134  1  0.87752812  0.35170217  0.11961226  1.0
  C  C135  1  0.96885149  0.46517052  0.07324837  1.0
  C  C136  1  0.94529980  0.43698672  0.09603729  1.0
  C  C137  1  0.89616275  0.37801315  0.09968331  1.0
  C  C138  1  0.96727731  0.46534499  0.03053460  1.0
  C  C139  1  0.08081534  0.59325835  0.07889988  1.0
  C  C140  1  0.10127425  0.56409420  0.05354821  1.0
  C  C141  1  0.07819028  0.53583757  0.03035085  1.0
  C  C142  1  0.12249100  0.64844366  0.12262169  1.0
  C  C143  1  0.01398940  0.56500057  0.05653461  1.0
  C  C144  1  0.03656095  0.59321616  0.08001945  1.0
  C  C145  1  0.10369916  0.62245663  0.10244377  1.0
  C  C146  1  0.03416804  0.53553975  0.03134349  1.0
  C  C147  1  0.08266749  0.40759136  0.91990841  1.0
  C  C148  1  0.08508522  0.40770917  0.96280284  1.0
  C  C149  1  0.06147015  0.43597568  0.98535949  1.0
  C  C150  1  0.12396857  0.35135723  0.87697806  1.0
  C  C151  1  0.03311439  0.46537468  0.92370276  1.0
  C  C152  1  0.05637984  0.43709663  0.90071487  1.0
  C  C153  1  0.10535850  0.37783077  0.89675546  1.0
  C  C154  1  0.03497458  0.46542623  0.96641024  1.0
  C  C155  1  0.59253568  0.91779912  0.92331931  1.0
  C  C156  1  0.56303808  0.94395826  0.90398440  1.0
  C  C157  1  0.53467601  0.96717359  0.92688757  1.0
  C  C158  1  0.64853546  0.87674239  0.88000508  1.0
  C  C159  1  0.56412843  0.93901288  0.98868063  1.0
  C  C160  1  0.59248381  0.91544506  0.96620934  1.0
  C  C161  1  0.62223928  0.89517643  0.90012630  1.0
  C  C162  1  0.53460813  0.96529696  0.96956825  1.0
  C  C163  1  0.40700495  0.07850649  0.92109434  1.0
  C  C164  1  0.40688882  0.03432737  0.92000635  1.0
  C  C165  1  0.43496458  0.01168081  0.94365077  1.0
  C  C166  1  0.35197038  0.12045283  0.87736348  1.0
  C  C167  1  0.46425786  0.07576199  0.96983202  1.0
  C  C168  1  0.43614138  0.09889056  0.94648525  1.0
  C  C169  1  0.37793378  0.10150981  0.89748587  1.0
  C  C170  1  0.46436857  0.03179673  0.96890624  1.0
  C  C171  1  0.59252113  0.08046700  0.07929751  1.0
  C  C172  1  0.56321890  0.05430350  0.09882886  1.0
  C  C173  1  0.53487683  0.03091452  0.07610512  1.0
  C  C174  1  0.64835349  0.12239017  0.12193409  1.0
  C  C175  1  0.56402562  0.05884547  0.01412283  1.0
  C  C176  1  0.59235154  0.08256971  0.03640284  1.0
  C  C177  1  0.62213095  0.10343493  0.10223231  1.0
  C  C178  1  0.53467715  0.03257985  0.03341521  1.0
  C  C179  1  0.40720753  0.91922716  0.08199401  1.0
  C  C180  1  0.43646400  0.89885182  0.05668133  1.0
  C  C181  1  0.46457916  0.92202006  0.03341471  1.0
  C  C182  1  0.35183673  0.87738535  0.12531580  1.0
  C  C183  1  0.43509268  0.98608054  0.05957587  1.0
  C  C184  1  0.40701038  0.96341904  0.08312976  1.0
  C  C185  1  0.37799035  0.89626424  0.10541533  1.0
  C  C186  1  0.46459033  0.96597349  0.03437669  1.0
  C  C187  1  0.91676420  0.92193394  0.59144127  1.0
  C  C188  1  0.91460116  0.96607491  0.59039647  1.0
  C  C189  1  0.93824428  0.98855463  0.56241254  1.0
  C  C190  1  0.87574325  0.88032365  0.64810053  1.0
  C  C191  1  0.96608334  0.92437395  0.53503440  1.0
  C  C192  1  0.94275256  0.90142088  0.56304124  1.0
  C  C193  1  0.89421562  0.89912827  0.62121106  1.0
  C  C194  1  0.96458217  0.96834088  0.53414574  1.0
  C  C195  1  0.07826865  0.91875072  0.40892075  1.0
  C  C196  1  0.03406602  0.91677961  0.40978468  1.0
  C  C197  1  0.01149100  0.94052154  0.43762269  1.0
  C  C198  1  0.12018506  0.87712640  0.35283625  1.0
  C  C199  1  0.07566144  0.96818483  0.46519985  1.0
  C  C200  1  0.09870034  0.94471934  0.43734362  1.0
  C  C201  1  0.10122663  0.89594386  0.37941549  1.0
  C  C202  1  0.03162837  0.96683360  0.46591937  1.0
  C  C203  1  0.08116305  0.07961662  0.59140944  1.0
  C  C204  1  0.08300797  0.03544848  0.59047005  1.0
  C  C205  1  0.05922297  0.01309203  0.56253362  1.0
  C  C206  1  0.12276155  0.12110485  0.64774107  1.0
  C  C207  1  0.03175182  0.07739217  0.53504491  1.0
  C  C208  1  0.05525611  0.10023482  0.56298854  1.0
  C  C209  1  0.10399070  0.10233395  0.62103484  1.0
  C  C210  1  0.03299093  0.03342384  0.53422035  1.0
  C  C211  1  0.91958089  0.08288888  0.40828917  1.0
  C  C212  1  0.96379056  0.08489833  0.40938420  1.0
  C  C213  1  0.98623461  0.06125928  0.43742684  1.0
  C  C214  1  0.87815288  0.12401884  0.35145534  1.0
  C  C215  1  0.92198010  0.03370384  0.46485013  1.0
  C  C216  1  0.89903525  0.05702386  0.43676279  1.0
  C  C217  1  0.89683824  0.10551044  0.37844964  1.0
  C  C218  1  0.96599954  0.03505760  0.46577116  1.0
  N  N219  1  0.84237905  0.73050556  0.80836607  1.0
  N  N220  1  0.80938436  0.72769553  0.83515955  1.0
  N  N221  1  0.72784579  0.80911874  0.83715738  1.0
  N  N222  1  0.72942057  0.84239131  0.81062656  1.0
  N  N223  1  0.81053607  0.84350612  0.73068299  1.0
  N  N224  1  0.84085123  0.81289090  0.72973619  1.0
  N  N225  1  0.84231627  0.27076519  0.18862000  1.0
  N  N226  1  0.80932537  0.27243646  0.16172085  1.0
  N  N227  1  0.72779631  0.19107586  0.16269108  1.0
  N  N228  1  0.72977735  0.15837319  0.18986689  1.0
  N  N229  1  0.81159651  0.15932482  0.26914081  1.0
  N  N230  1  0.84223525  0.18957685  0.26864831  1.0
  N  N231  1  0.15761879  0.72942860  0.19145421  1.0
  N  N232  1  0.19121435  0.72690285  0.16532165  1.0
  N  N233  1  0.27289497  0.80822081  0.16635667  1.0
  N  N234  1  0.27002409  0.84143830  0.19285008  1.0
  N  N235  1  0.18758630  0.84115526  0.27152686  1.0
  N  N236  1  0.15695153  0.81090657  0.27100838  1.0
  N  N237  1  0.15899214  0.26972100  0.80866096  1.0
  N  N238  1  0.19207043  0.27155222  0.83544789  1.0
  N  N239  1  0.27355385  0.18981968  0.83540568  1.0
  N  N240  1  0.27078112  0.15646227  0.80907880  1.0
  N  N241  1  0.18895047  0.15706870  0.72989660  1.0
  N  N242  1  0.15876218  0.18782047  0.72948131  1.0
