# generated using pymatgen
data_LuH24C24(NO2)6
_symmetry_space_group_name_H-M   'P 1'
_cell_length_a   15.76925498
_cell_length_b   15.76926393
_cell_length_c   16.84664766
_cell_angle_alpha   90.00002200
_cell_angle_beta   89.99997311
_cell_angle_gamma   120.00000723
_symmetry_Int_Tables_number   1
_chemical_formula_structural   LuH24C24(NO2)6
_chemical_formula_sum   'Lu4 H96 C96 N24 O48'
_cell_volume   3627.99508830
_cell_formula_units_Z   4
loop_
 _symmetry_equiv_pos_site_id
 _symmetry_equiv_pos_as_xyz
  1  'x, y, z'
loop_
 _atom_site_type_symbol
 _atom_site_label
 _atom_site_symmetry_multiplicity
 _atom_site_fract_x
 _atom_site_fract_y
 _atom_site_fract_z
 _atom_site_occupancy
  Lu  Lu0  1  0.33333333  0.66666667  0.67143798  1.0
  Lu  Lu1  1  0.66666667  0.33333333  0.82856068  1.0
  Lu  Lu2  1  0.66666667  0.33333333  0.32856091  1.0
  Lu  Lu3  1  0.33333333  0.66666667  0.17143940  1.0
  H  H4  1  0.26256187  0.74920424  0.49454050  1.0
  H  H5  1  0.48664296  0.73743855  0.49454105  1.0
  H  H6  1  0.25079505  0.51335756  0.49454046  1.0
  H  H7  1  0.51335861  0.25079601  0.00545985  1.0
  H  H8  1  0.74920419  0.26256183  0.00545862  1.0
  H  H9  1  0.73743823  0.48664202  0.00545985  1.0
  H  H10  1  0.73743851  0.25079539  0.50546017  1.0
  H  H11  1  0.51335616  0.26256109  0.50545963  1.0
  H  H12  1  0.74920443  0.48664281  0.50546021  1.0
  H  H13  1  0.48664214  0.74920435  0.99454023  1.0
  H  H14  1  0.25079529  0.73743854  0.99454087  1.0
  H  H15  1  0.26256188  0.51335834  0.99453964  1.0
  H  H16  1  0.15776433  0.80813036  0.43332361  1.0
  H  H17  1  0.65036503  0.84223418  0.43332351  1.0
  H  H18  1  0.19186954  0.34963503  0.43332352  1.0
  H  H19  1  0.34963523  0.19187055  0.06667562  1.0
  H  H20  1  0.80812985  0.15776478  0.06667610  1.0
  H  H21  1  0.84223565  0.65036529  0.06667559  1.0
  H  H22  1  0.84223705  0.19187000  0.56667588  1.0
  H  H23  1  0.34963371  0.15776471  0.56667598  1.0
  H  H24  1  0.80813130  0.65036679  0.56667597  1.0
  H  H25  1  0.65036488  0.80812981  0.93332387  1.0
  H  H26  1  0.19186926  0.84223485  0.93332398  1.0
  H  H27  1  0.15776410  0.34963435  0.93332389  1.0
  H  H28  1  0.97962598  0.72862066  0.46645125  1.0
  H  H29  1  0.74899558  0.02037320  0.46644999  1.0
  H  H30  1  0.27137821  0.25100543  0.46645073  1.0
  H  H31  1  0.25100660  0.27137972  0.03354782  1.0
  H  H32  1  0.72862170  0.97962651  0.03354902  1.0
  H  H33  1  0.02037349  0.74899470  0.03354855  1.0
  H  H34  1  0.02037441  0.27137898  0.53354764  1.0
  H  H35  1  0.25100380  0.97962569  0.53354950  1.0
  H  H36  1  0.72862164  0.74899567  0.53354935  1.0
  H  H37  1  0.74899515  0.72862138  0.96645108  1.0
  H  H38  1  0.27137742  0.02037313  0.96645046  1.0
  H  H39  1  0.97962626  0.25100493  0.96645154  1.0
  H  H40  1  0.90656695  0.58469812  0.55744976  1.0
  H  H41  1  0.67813241  0.09343319  0.55744854  1.0
  H  H42  1  0.41530134  0.32186872  0.55744923  1.0
  H  H43  1  0.32187064  0.41530235  0.94255004  1.0
  H  H44  1  0.58469870  0.90656730  0.94255066  1.0
  H  H45  1  0.09343280  0.67813083  0.94255014  1.0
  H  H46  1  0.09343216  0.41530151  0.44254972  1.0
  H  H47  1  0.32186770  0.90656717  0.44255095  1.0
  H  H48  1  0.58469941  0.67813164  0.44255026  1.0
  H  H49  1  0.67813010  0.58469801  0.05745004  1.0
  H  H50  1  0.41530078  0.09343307  0.05744942  1.0
  H  H51  1  0.90656658  0.32186807  0.05744935  1.0
  H  H52  1  0.91438545  0.46707209  0.63415284  1.0
  H  H53  1  0.55268715  0.08561570  0.63415285  1.0
  H  H54  1  0.53292843  0.44731302  0.63415232  1.0
  H  H55  1  0.44731401  0.53292843  0.86584694  1.0
  H  H56  1  0.46707221  0.91438473  0.86584700  1.0
  H  H57  1  0.08561597  0.55268730  0.86584702  1.0
  H  H58  1  0.08561493  0.53292754  0.36584724  1.0
  H  H59  1  0.44731233  0.91438467  0.36584723  1.0
  H  H60  1  0.46707168  0.55268734  0.36584776  1.0
  H  H61  1  0.55268637  0.46707120  0.13415255  1.0
  H  H62  1  0.53292791  0.08561564  0.13415248  1.0
  H  H63  1  0.91438404  0.44731160  0.13415306  1.0
  H  H64  1  0.01114028  0.31988160  0.68075557  1.0
  H  H65  1  0.30874306  0.98886083  0.68075503  1.0
  H  H66  1  0.68011769  0.69125796  0.68075490  1.0
  H  H67  1  0.69125871  0.68011800  0.81924435  1.0
  H  H68  1  0.31988235  0.01113948  0.81924431  1.0
  H  H69  1  0.98885912  0.30874191  0.81924481  1.0
  H  H70  1  0.98885974  0.68011730  0.31924451  1.0
  H  H71  1  0.69125705  0.01113952  0.31924505  1.0
  H  H72  1  0.31988242  0.30874240  0.31924459  1.0
  H  H73  1  0.30874203  0.31988235  0.18075573  1.0
  H  H74  1  0.68011713  0.98886088  0.18075518  1.0
  H  H75  1  0.01114063  0.69125773  0.18075527  1.0
  H  H76  1  0.90857457  0.33570981  0.69668454  1.0
  H  H77  1  0.42713665  0.09142605  0.69668520  1.0
  H  H78  1  0.66429067  0.57286422  0.69668404  1.0
  H  H79  1  0.57286450  0.66429000  0.80331521  1.0
  H  H80  1  0.33571035  0.90857357  0.80331471  1.0
  H  H81  1  0.09142601  0.42713540  0.80331527  1.0
  H  H82  1  0.09142581  0.66428982  0.30331494  1.0
  H  H83  1  0.57286346  0.90857431  0.30331488  1.0
  H  H84  1  0.33570971  0.42713541  0.30331544  1.0
  H  H85  1  0.42713588  0.33570963  0.19668488  1.0
  H  H86  1  0.66428939  0.09142605  0.19668537  1.0
  H  H87  1  0.90857374  0.57286423  0.19668481  1.0
  H  H88  1  0.11252550  0.49500449  0.65490296  1.0
  H  H89  1  0.38248103  0.88747533  0.65490178  1.0
  H  H90  1  0.50499516  0.61752058  0.65490230  1.0
  H  H91  1  0.61752097  0.50499513  0.84509755  1.0
  H  H92  1  0.49500553  0.11252433  0.84509750  1.0
  H  H93  1  0.88747531  0.38248067  0.84509806  1.0
  H  H94  1  0.88747452  0.50499442  0.34509771  1.0
  H  H95  1  0.61751909  0.11252504  0.34509830  1.0
  H  H96  1  0.49500469  0.38248052  0.34509837  1.0
  H  H97  1  0.38248014  0.49500596  0.15490253  1.0
  H  H98  1  0.50499422  0.88747530  0.15490258  1.0
  H  H99  1  0.11252508  0.61751897  0.15490143  1.0
  C  C100  1  0.14588219  0.63466605  0.56209816  1.0
  C  C101  1  0.48878373  0.85411854  0.56209753  1.0
  C  C102  1  0.36533528  0.51121723  0.56209750  1.0
  C  C103  1  0.51121799  0.36533501  0.93790117  1.0
  C  C104  1  0.63466565  0.14588118  0.93790170  1.0
  C  C105  1  0.85411801  0.48878251  0.93790231  1.0
  C  C106  1  0.85411702  0.36533504  0.43790251  1.0
  C  C107  1  0.51121765  0.14588182  0.43790314  1.0
  C  C108  1  0.63466384  0.48878240  0.43790436  1.0
  C  C109  1  0.48878213  0.63466536  0.06209832  1.0
  C  C110  1  0.36533473  0.85411845  0.06209779  1.0
  C  C111  1  0.14588147  0.51121786  0.06209659  1.0
  C  C112  1  0.18456360  0.71396041  0.50768260  1.0
  C  C113  1  0.52939752  0.81543683  0.50768254  1.0
  C  C114  1  0.28603938  0.47060310  0.50768253  1.0
  C  C115  1  0.47060397  0.28603991  0.99231733  1.0
  C  C116  1  0.71396088  0.18456365  0.99231667  1.0
  C  C117  1  0.81543649  0.52939588  0.99231730  1.0
  C  C118  1  0.81543715  0.28603995  0.49231808  1.0
  C  C119  1  0.47060286  0.18456280  0.49231873  1.0
  C  C120  1  0.71396010  0.52939727  0.49231874  1.0
  C  C121  1  0.52939641  0.71395972  0.00768275  1.0
  C  C122  1  0.28603923  0.81543671  0.00768282  1.0
  C  C123  1  0.18456262  0.47060375  0.00768159  1.0
  C  C124  1  0.12560099  0.74663328  0.47463272  1.0
  C  C125  1  0.62103243  0.87439889  0.47463204  1.0
  C  C126  1  0.25336647  0.37896816  0.47463262  1.0
  C  C127  1  0.37896901  0.25336763  0.02536711  1.0
  C  C128  1  0.74663354  0.12560079  0.02536700  1.0
  C  C129  1  0.87439910  0.62103145  0.02536706  1.0
  C  C130  1  0.87439976  0.25336709  0.52536736  1.0
  C  C131  1  0.37896632  0.12560001  0.52536804  1.0
  C  C132  1  0.74663338  0.62103294  0.52536805  1.0
  C  C133  1  0.62103173  0.74663273  0.97463238  1.0
  C  C134  1  0.25336658  0.87439958  0.97463248  1.0
  C  C135  1  0.12560028  0.37896745  0.97463242  1.0
  C  C136  1  0.02485716  0.70159564  0.49253065  1.0
  C  C137  1  0.67673919  0.97514225  0.49252937  1.0
  C  C138  1  0.29840380  0.32326171  0.49252993  1.0
  C  C139  1  0.32326246  0.29840450  0.00746920  1.0
  C  C140  1  0.70159627  0.02485742  0.00746967  1.0
  C  C141  1  0.97514293  0.67673794  0.00746913  1.0
  C  C142  1  0.97514323  0.29840400  0.50746943  1.0
  C  C143  1  0.32326019  0.02485664  0.50747012  1.0
  C  C144  1  0.70159668  0.67673938  0.50746956  1.0
  C  C145  1  0.67673829  0.70159586  0.99253028  1.0
  C  C146  1  0.29840321  0.97514294  0.99252982  1.0
  C  C147  1  0.02485708  0.32326096  0.99253036  1.0
  C  C148  1  0.98417768  0.62202812  0.54284447  1.0
  C  C149  1  0.63785165  0.01582300  0.54284266  1.0
  C  C150  1  0.37797139  0.36214892  0.54284337  1.0
  C  C151  1  0.36215073  0.37797239  0.95715590  1.0
  C  C152  1  0.62202878  0.98417749  0.95715654  1.0
  C  C153  1  0.01582262  0.63785060  0.95715543  1.0
  C  C154  1  0.01582207  0.37797151  0.45715620  1.0
  C  C155  1  0.36214847  0.98417737  0.45715742  1.0
  C  C156  1  0.62202872  0.63785144  0.45715671  1.0
  C  C157  1  0.63785039  0.62202872  0.04284418  1.0
  C  C158  1  0.37797069  0.01582287  0.04284354  1.0
  C  C159  1  0.98417776  0.36214902  0.04284406  1.0
  C  C160  1  0.04223433  0.58676533  0.57806812  1.0
  C  C161  1  0.54453193  0.95776672  0.57806630  1.0
  C  C162  1  0.41323520  0.45546905  0.57806683  1.0
  C  C163  1  0.45546986  0.41323496  0.92193244  1.0
  C  C164  1  0.58676536  0.04223372  0.92193293  1.0
  C  C165  1  0.95776617  0.54453073  0.92193294  1.0
  C  C166  1  0.95776542  0.41323431  0.42193315  1.0
  C  C167  1  0.45546882  0.04223364  0.42193438  1.0
  C  C168  1  0.58676492  0.54453132  0.42193385  1.0
  C  C169  1  0.54453089  0.58676540  0.07806764  1.0
  C  C170  1  0.41323475  0.95776664  0.07806655  1.0
  C  C171  1  0.04223321  0.45546816  0.07806654  1.0
  C  C172  1  0.99369328  0.50199007  0.62635365  1.0
  C  C173  1  0.50829856  0.00630888  0.62635248  1.0
  C  C174  1  0.49801019  0.49170258  0.62635257  1.0
  C  C175  1  0.49170386  0.49801048  0.87364669  1.0
  C  C176  1  0.50198983  0.99369154  0.87364678  1.0
  C  C177  1  0.00630813  0.50829770  0.87364680  1.0
  C  C178  1  0.00630647  0.49800957  0.37364643  1.0
  C  C179  1  0.49170192  0.99369222  0.37364760  1.0
  C  C180  1  0.50198892  0.50829704  0.37364751  1.0
  C  C181  1  0.50829689  0.50198989  0.12635339  1.0
  C  C182  1  0.49800992  0.00630809  0.12635271  1.0
  C  C183  1  0.99369199  0.49170267  0.12635328  1.0
  C  C184  1  0.98771807  0.36923505  0.70570413  1.0
  C  C185  1  0.38151766  0.01228252  0.70570420  1.0
  C  C186  1  0.63076588  0.61848324  0.70570366  1.0
  C  C187  1  0.61848377  0.63076552  0.79429559  1.0
  C  C188  1  0.36923555  0.98771709  0.79429571  1.0
  C  C189  1  0.01228254  0.38151709  0.79429568  1.0
  C  C190  1  0.01228167  0.63076457  0.29429595  1.0
  C  C191  1  0.61848182  0.98771784  0.29429588  1.0
  C  C192  1  0.36923487  0.38151713  0.29429583  1.0
  C  C193  1  0.38151697  0.36923484  0.20570390  1.0
  C  C194  1  0.63076419  0.01228254  0.20570437  1.0
  C  C195  1  0.98771784  0.61848254  0.20570381  1.0
  N  N196  1  0.03747790  0.46073089  0.66229198  1.0
  N  N197  1  0.42325306  0.96252191  0.66229139  1.0
  N  N198  1  0.53926908  0.57674685  0.66229189  1.0
  N  N199  1  0.57674797  0.53926943  0.83770796  1.0
  N  N200  1  0.46073094  0.03747773  0.83770790  1.0
  N  N201  1  0.96252262  0.42325369  0.83770786  1.0
  N  N202  1  0.96252212  0.53926802  0.33770751  1.0
  N  N203  1  0.57674605  0.03747771  0.33770810  1.0
  N  N204  1  0.46073140  0.42325424  0.33770819  1.0
  N  N205  1  0.42325377  0.46073166  0.16229212  1.0
  N  N206  1  0.53926817  0.96252190  0.16229218  1.0
  N  N207  1  0.03747676  0.57674520  0.16229163  1.0
  N  N208  1  0.20873293  0.71562484  0.76195098  1.0
  N  N209  1  0.50689144  0.79126536  0.76194974  1.0
  N  N210  1  0.28437497  0.49310948  0.76195330  1.0
  N  N211  1  0.49310928  0.28437476  0.73804953  1.0
  N  N212  1  0.71562658  0.20873292  0.73804887  1.0
  N  N213  1  0.79126691  0.50689168  0.73804950  1.0
  N  N214  1  0.79126528  0.28437552  0.23804969  1.0
  N  N215  1  0.49310867  0.20873500  0.23805212  1.0
  N  N216  1  0.71562514  0.50689088  0.23804856  1.0
  N  N217  1  0.50688910  0.71562340  0.26194996  1.0
  N  N218  1  0.28437344  0.79126598  0.26195180  1.0
  N  N219  1  0.20873283  0.49310794  0.26194939  1.0
  O  O220  1  0.20104367  0.60493169  0.59618030  1.0
  O  O221  1  0.40388817  0.79895684  0.59618029  1.0
  O  O222  1  0.39506897  0.59611256  0.59617966  1.0
  O  O223  1  0.59611214  0.39506720  0.90381841  1.0
  O  O224  1  0.60493207  0.20104211  0.90381897  1.0
  O  O225  1  0.79895699  0.40388717  0.90382015  1.0
  O  O226  1  0.79895544  0.39506793  0.40382038  1.0
  O  O227  1  0.59611267  0.20104498  0.40382098  1.0
  O  O228  1  0.60493015  0.40388708  0.40382279  1.0
  O  O229  1  0.40388761  0.60493243  0.09618048  1.0
  O  O230  1  0.39506794  0.79895679  0.09618052  1.0
  O  O231  1  0.20104249  0.59611319  0.09617815  1.0
  O  O232  1  0.21553628  0.63877327  0.77532930  1.0
  O  O233  1  0.42323704  0.78446130  0.77532928  1.0
  O  O234  1  0.36122475  0.57676512  0.77533519  1.0
  O  O235  1  0.57676488  0.36122636  0.72467179  1.0
  O  O236  1  0.63877486  0.21553547  0.72467116  1.0
  O  O237  1  0.78446430  0.42323752  0.72466938  1.0
  O  O238  1  0.78446157  0.36122636  0.22466900  1.0
  O  O239  1  0.57676334  0.21553833  0.22467318  1.0
  O  O240  1  0.63877419  0.42323670  0.22466667  1.0
  O  O241  1  0.42323360  0.63877327  0.27532888  1.0
  O  O242  1  0.36122306  0.78446050  0.27533249  1.0
  O  O243  1  0.21553444  0.57676137  0.27532892  1.0
  O  O244  1  0.15984494  0.73862693  0.80480225  1.0
  O  O245  1  0.57878283  0.84015463  0.80480099  1.0
  O  O246  1  0.26136992  0.42121742  0.80480395  1.0
  O  O247  1  0.42121813  0.26137558  0.69519829  1.0
  O  O248  1  0.73862808  0.15984368  0.69519701  1.0
  O  O249  1  0.84015525  0.57878376  0.69519825  1.0
  O  O250  1  0.84015281  0.26137124  0.19519842  1.0
  O  O251  1  0.42121838  0.15984793  0.19519968  1.0
  O  O252  1  0.73863273  0.57878294  0.19519613  1.0
  O  O253  1  0.57877972  0.73862406  0.30480120  1.0
  O  O254  1  0.26137130  0.84015522  0.30480248  1.0
  O  O255  1  0.15984614  0.42121661  0.30480242  1.0
  O  O256  1  0.25627750  0.76656219  0.70147426  1.0
  O  O257  1  0.51028538  0.74372345  0.70147242  1.0
  O  O258  1  0.23344268  0.48971623  0.70147303  1.0
  O  O259  1  0.48971546  0.23343670  0.79852506  1.0
  O  O260  1  0.76656415  0.25627704  0.79852559  1.0
  O  O261  1  0.74372493  0.51028418  0.79852683  1.0
  O  O262  1  0.74372508  0.23344184  0.29852819  1.0
  O  O263  1  0.48971500  0.25627618  0.29853004  1.0
  O  O264  1  0.76655544  0.51028268  0.29852943  1.0
  O  O265  1  0.51028446  0.76656074  0.20147265  1.0
  O  O266  1  0.23343887  0.74372406  0.20147330  1.0
  O  O267  1  0.25627382  0.48971472  0.20147147  1.0
