# generated using pymatgen
data_ZnH18C35(NO2)2
_symmetry_space_group_name_H-M   'P 1'
_cell_length_a   14.12614958
_cell_length_b   15.20412527
_cell_length_c   15.66138212
_cell_angle_alpha   77.01648865
_cell_angle_beta   89.89143388
_cell_angle_gamma   79.97658729
_symmetry_Int_Tables_number   1
_chemical_formula_structural   ZnH18C35(NO2)2
_chemical_formula_sum   'Zn2 H36 C70 N4 O8'
_cell_volume   3225.23569764
_cell_formula_units_Z   2
loop_
 _symmetry_equiv_pos_site_id
 _symmetry_equiv_pos_as_xyz
  1  'x, y, z'
loop_
 _atom_site_type_symbol
 _atom_site_label
 _atom_site_symmetry_multiplicity
 _atom_site_fract_x
 _atom_site_fract_y
 _atom_site_fract_z
 _atom_site_occupancy
  Zn  Zn0  1  0.47173668  0.60147155  0.50971684  1.0
  Zn  Zn1  1  0.52226888  0.40706572  0.48745633  1.0
  H  H2  1  0.97554124  0.60049728  0.52303767  1.0
  H  H3  1  0.36068988  0.72210693  0.24088351  1.0
  H  H4  1  0.30273454  0.75723075  0.08362851  1.0
  H  H5  1  0.57446324  0.20461109  0.92540098  1.0
  H  H6  1  0.35006749  0.59731284  0.85296369  1.0
  H  H7  1  0.49118996  0.35096401  0.16219892  1.0
  H  H8  1  0.40017969  0.65915760  0.65936610  1.0
  H  H9  1  0.66934722  0.32623906  0.39523617  1.0
  H  H10  1  0.85211334  0.03807053  0.44263229  1.0
  H  H11  1  0.99400214  0.00190444  0.35484685  1.0
  H  H12  1  0.97581807  0.94307950  0.22059313  1.0
  H  H13  1  0.01945943  0.41868639  0.46167280  1.0
  H  H14  1  0.81413610  0.92132280  0.17461612  1.0
  H  H15  1  0.67220264  0.95768618  0.26235487  1.0
  H  H16  1  0.51564804  0.83152020  0.82131861  1.0
  H  H17  1  0.46980607  0.84489467  0.97129158  1.0
  H  H18  1  0.34572969  0.97509034  0.99317774  1.0
  H  H19  1  0.26627956  0.09088539  0.86323748  1.0
  H  H20  1  0.31185775  0.07759371  0.71319760  1.0
  H  H21  1  0.38424021  0.91921549  0.37826040  1.0
  H  H22  1  0.40120606  0.94439318  0.21708137  1.0
  H  H23  1  0.53624133  0.85089748  0.15658641  1.0
  H  H24  1  0.73457121  0.17889730  0.35305829  1.0
  H  H25  1  0.65313047  0.73167959  0.25844815  1.0
  H  H26  1  0.63478230  0.70590985  0.41927093  1.0
  H  H27  1  0.36120369  0.17500480  0.41656407  1.0
  H  H28  1  0.19050695  0.19887245  0.45791754  1.0
  H  H29  1  0.14558080  0.25652144  0.59228163  1.0
  H  H30  1  0.27245058  0.29202578  0.68303848  1.0
  H  H31  1  0.44244178  0.27058190  0.63984976  1.0
  H  H32  1  0.38329184  0.79177728  0.73175192  1.0
  H  H33  1  0.64387631  0.88072816  0.42676113  1.0
  H  H34  1  0.46762112  0.09044164  0.64474109  1.0
  H  H35  1  0.44042762  0.52864011  0.78159665  1.0
  H  H36  1  0.49193582  0.45172878  0.22553213  1.0
  H  H37  1  0.57476634  0.25990534  0.76273774  1.0
  C  C38  1  0.46708604  0.56100295  0.33374062  1.0
  C  C39  1  0.48354792  0.37362542  0.09115066  1.0
  C  C40  1  0.33921159  0.64229595  0.97237181  1.0
  C  C41  1  0.51096417  0.30981370  0.04123611  1.0
  C  C42  1  0.67470019  0.18296245  0.39675443  1.0
  C  C43  1  0.41861065  0.79455807  0.66951472  1.0
  C  C44  1  0.63756286  0.26507077  0.41752010  1.0
  C  C45  1  0.42543184  0.72219336  0.62925271  1.0
  C  C46  1  0.51350614  0.20430802  0.49581073  1.0
  C  C47  1  0.49303117  0.80060203  0.50496250  1.0
  C  C48  1  0.55628118  0.11408473  0.48926413  1.0
  C  C49  1  0.51041622  0.43464869  0.66709173  1.0
  C  C50  1  0.49937535  0.87438936  0.54592598  1.0
  C  C51  1  0.63494574  0.10422492  0.43275332  1.0
  C  C52  1  0.45643020  0.87306937  0.62911467  1.0
  C  C53  1  0.68100381  0.50586498  0.49826226  1.0
  C  C54  1  0.31437350  0.50695501  0.50019229  1.0
  C  C55  1  0.52082147  0.03331142  0.53552807  1.0
  C  C56  1  0.54423492  0.95165649  0.50531271  1.0
  C  C57  1  0.61878341  0.94578363  0.44435345  1.0
  C  C58  1  0.47515077  0.03043076  0.61680008  1.0
  C  C59  1  0.66805125  0.01634973  0.41293829  1.0
  C  C60  1  0.41886117  0.53441039  0.10376799  1.0
  C  C61  1  0.44959348  0.95199313  0.66677680  1.0
  C  C62  1  0.21463721  0.49842616  0.49367668  1.0
  C  C63  1  0.78027233  0.51786797  0.49820804  1.0
  C  C64  1  0.03465675  0.47903918  0.48248528  1.0
  C  C65  1  0.96004837  0.53996773  0.50277233  1.0
  C  C66  1  0.86392520  0.52844338  0.49952344  1.0
  C  C67  1  0.13075524  0.48995767  0.48764325  1.0
  C  C68  1  0.42997827  0.58416956  0.24024892  1.0
  C  C69  1  0.50691402  0.39831051  0.76417065  1.0
  C  C70  1  0.34410246  0.69006492  0.11471747  1.0
  C  C71  1  0.46418950  0.42890768  0.90668217  1.0
  C  C72  1  0.54368014  0.27542375  0.89395851  1.0
  C  C73  1  0.37570632  0.67107903  0.20143163  1.0
  C  C74  1  0.54397034  0.30572902  0.80396213  1.0
  C  C75  1  0.44947915  0.51727701  0.19229017  1.0
  C  C76  1  0.46668843  0.45769981  0.81501515  1.0
  C  C77  1  0.27952513  0.72690355  0.93132467  1.0
  C  C78  1  0.54616764  0.21660217  0.08407572  1.0
  C  C79  1  0.75245152  0.99996241  0.35854803  1.0
  C  C80  1  0.84356522  0.01338188  0.38330002  1.0
  C  C81  1  0.92341071  0.99267172  0.33407276  1.0
  C  C82  1  0.36629261  0.62341703  0.06407907  1.0
  C  C83  1  0.91333207  0.95926393  0.25900217  1.0
  C  C84  1  0.82286771  0.94658078  0.23351632  1.0
  C  C85  1  0.74298302  0.96651404  0.28295370  1.0
  C  C86  1  0.41671338  0.95349546  0.75653177  1.0
  C  C87  1  0.45997516  0.88781478  0.83028233  1.0
  C  C88  1  0.43476685  0.89588842  0.91474019  1.0
  C  C89  1  0.36540290  0.96898588  0.92710222  1.0
  C  C90  1  0.32110506  0.03397680  0.85431028  1.0
  C  C91  1  0.34656449  0.02649989  0.76982664  1.0
  C  C92  1  0.50830386  0.81069129  0.40913924  1.0
  C  C93  1  0.50607421  0.33639412  0.94693537  1.0
  C  C94  1  0.44285063  0.87793075  0.35153568  1.0
  C  C95  1  0.45249636  0.89194666  0.26109954  1.0
  C  C96  1  0.52821930  0.83942435  0.22728649  1.0
  C  C97  1  0.59363027  0.77273842  0.28431583  1.0
  C  C98  1  0.58389373  0.75809634  0.37487151  1.0
  C  C99  1  0.41299720  0.22137777  0.52559903  1.0
  C  C100  1  0.34134422  0.20093413  0.47490643  1.0
  C  C101  1  0.24555489  0.21403670  0.49843829  1.0
  C  C102  1  0.22043957  0.24648469  0.57356572  1.0
  C  C103  1  0.29150583  0.26644182  0.62438712  1.0
  C  C104  1  0.44312443  0.46627931  0.05212173  1.0
  C  C105  1  0.38726208  0.25436452  0.60051152  1.0
  C  C106  1  0.42592955  0.49202590  0.96008102  1.0
  C  C107  1  0.37080902  0.57953621  0.92240500  1.0
  N  N108  1  0.55659462  0.27648878  0.46414887  1.0
  N  N109  1  0.46076270  0.72517908  0.54795390  1.0
  N  N110  1  0.22993602  0.79576401  0.89719606  1.0
  N  N111  1  0.57409395  0.13980949  0.11857541  1.0
  O  O112  1  0.44378918  0.62150335  0.37808536  1.0
  O  O113  1  0.52970886  0.37492793  0.62110237  1.0
  O  O114  1  0.51831122  0.48189215  0.36090384  1.0
  O  O115  1  0.49316777  0.52095502  0.63895500  1.0
  O  O116  1  0.61936602  0.57650259  0.50301750  1.0
  O  O117  1  0.37467555  0.44266798  0.48021688  1.0
  O  O118  1  0.66481937  0.42747032  0.49375723  1.0
  O  O119  1  0.33224909  0.57705835  0.52446901  1.0
