# generated using pymatgen
data_ZnH3C11NO4
_symmetry_space_group_name_H-M   'P 1'
_cell_length_a   10.63741414
_cell_length_b   11.91044153
_cell_length_c   16.09390976
_cell_angle_alpha   89.98839829
_cell_angle_beta   90.13748937
_cell_angle_gamma   89.99138480
_symmetry_Int_Tables_number   1
_chemical_formula_structural   ZnH3C11NO4
_chemical_formula_sum   'Zn2 H6 C22 N2 O8'
_cell_volume   2039.03286968
_cell_formula_units_Z   2
loop_
 _symmetry_equiv_pos_site_id
 _symmetry_equiv_pos_as_xyz
  1  'x, y, z'
loop_
 _atom_site_type_symbol
 _atom_site_label
 _atom_site_symmetry_multiplicity
 _atom_site_fract_x
 _atom_site_fract_y
 _atom_site_fract_z
 _atom_site_occupancy
  Zn  Zn0  1  0.62844060  0.49999105  0.50000306  1.0
  Zn  Zn1  1  0.37156026  0.50000780  0.49999725  1.0
  H  H2  1  0.40400489  0.67356643  0.05158558  1.0
  H  H3  1  0.59599315  0.32643410  0.94841349  1.0
  H  H4  1  0.61975152  0.66143851  0.94852733  1.0
  H  H5  1  0.38024746  0.33856117  0.05147175  1.0
  H  H6  1  0.28272297  0.51234529  0.94908597  1.0
  H  H7  1  0.71727602  0.48765439  0.05091372  1.0
  C  C8  1  0.49999202  0.84057160  0.50000122  1.0
  C  C9  1  0.50000417  0.05668798  0.49999928  1.0
  C  C10  1  0.56670350  0.58972364  0.97230539  1.0
  C  C11  1  0.43329548  0.41027688  0.02769431  1.0
  C  C12  1  0.44650613  0.59647730  0.02773298  1.0
  C  C13  1  0.55349286  0.40352322  0.97226672  1.0
  C  C14  1  0.49948866  0.50016460  0.24915591  1.0
  C  C15  1  0.50051032  0.49983676  0.75084441  1.0
  C  C16  1  0.62086231  0.49315268  0.02753039  1.0
  C  C17  1  0.37913667  0.50684785  0.97246993  1.0
  C  C18  1  0.50101378  0.49984702  0.08550644  1.0
  C  C19  1  0.50000884  0.15942892  0.49999910  1.0
  C  C20  1  0.49898520  0.50015351  0.91449388  1.0
  C  C21  1  0.50004726  0.50003395  0.17339105  1.0
  C  C22  1  0.49995172  0.49996657  0.82660988  1.0
  C  C23  1  0.06430675  0.50000197  0.49999539  1.0
  C  C24  1  0.93569317  0.49999687  0.50000493  1.0
  C  C25  1  0.49999546  0.71930154  0.49999595  1.0
  C  C26  1  0.50000446  0.28069815  0.50000374  1.0
  C  C27  1  0.49964910  0.50009684  0.33863778  1.0
  C  C28  1  0.50034894  0.49990369  0.66136254  1.0
  C  C29  1  0.49999669  0.94331255  0.50000104  1.0
  N  N30  1  0.17350254  0.50000877  0.49998804  1.0
  N  N31  1  0.82650490  0.49999092  0.50001290  1.0
  O  O32  1  0.60740429  0.67181652  0.49996511  1.0
  O  O33  1  0.39259563  0.32818233  0.50003334  1.0
  O  O34  1  0.39261045  0.67182870  0.50002270  1.0
  O  O35  1  0.60739041  0.32817098  0.49997699  1.0
  O  O36  1  0.60704763  0.50005685  0.37436912  1.0
  O  O37  1  0.39295229  0.49994367  0.62563120  1.0
  O  O38  1  0.39253855  0.50004971  0.37437353  1.0
  O  O39  1  0.60746137  0.49995165  0.62562679  1.0
