# generated using pymatgen
data_ZnH29C26NO10
_symmetry_space_group_name_H-M   'P 1'
_cell_length_a   10.89509067
_cell_length_b   14.08305778
_cell_length_c   15.24713035
_cell_angle_alpha   89.71283146
_cell_angle_beta   91.10894230
_cell_angle_gamma   89.84215068
_symmetry_Int_Tables_number   1
_chemical_formula_structural   ZnH29C26NO10
_chemical_formula_sum   'Zn2 H58 C52 N2 O20'
_cell_volume   2338.98454368
_cell_formula_units_Z   2
loop_
 _symmetry_equiv_pos_site_id
 _symmetry_equiv_pos_as_xyz
  1  'x, y, z'
loop_
 _atom_site_type_symbol
 _atom_site_label
 _atom_site_symmetry_multiplicity
 _atom_site_fract_x
 _atom_site_fract_y
 _atom_site_fract_z
 _atom_site_occupancy
  Zn  Zn0  1  0.50109135  0.40094417  0.49864219  1.0
  Zn  Zn1  1  0.50644526  0.60725995  0.50250336  1.0
  H  H2  1  0.11258337  0.65894891  0.52148737  1.0
  H  H3  1  0.88196320  0.65156138  0.51070792  1.0
  H  H4  1  0.44645494  0.07359240  0.63625374  1.0
  H  H5  1  0.54133598  0.07162629  0.36252055  1.0
  H  H6  1  0.44544707  0.25245318  0.62780477  1.0
  H  H7  1  0.54002362  0.25074084  0.36683214  1.0
  H  H8  1  0.36574160  0.38181711  0.22290783  1.0
  H  H9  1  0.58815798  0.36789464  0.78921615  1.0
  H  H10  1  0.57946505  0.63320546  0.05673816  1.0
  H  H11  1  0.37972402  0.63837067  0.93126631  1.0
  H  H12  1  0.72872048  0.25496148  0.57757770  1.0
  H  H13  1  0.77267997  0.34632173  0.65128250  1.0
  H  H14  1  0.84177163  0.22039482  0.76239967  1.0
  H  H15  1  0.68268184  0.21131221  0.73473336  1.0
  H  H16  1  0.78925518  0.13073010  0.68868101  1.0
  H  H17  1  0.06861104  0.14939849  0.43681576  1.0
  H  H18  1  0.22677491  0.16125977  0.46801735  1.0
  H  H19  1  0.27368445  0.21738196  0.31480884  1.0
  H  H20  1  0.21350349  0.10009505  0.31501943  1.0
  H  H21  1  0.11797371  0.19805402  0.28250255  1.0
  H  H22  1  0.94789518  0.33133552  0.34908873  1.0
  H  H23  1  0.79258217  0.35900813  0.37980751  1.0
  H  H24  1  0.82704415  0.24789365  0.32945118  1.0
  H  H25  1  0.22365012  0.26592804  0.71008464  1.0
  H  H26  1  0.08506020  0.33227100  0.69313131  1.0
  H  H27  1  0.23079984  0.38104176  0.66076715  1.0
  H  H28  1  0.22321119  0.46886015  0.98792029  1.0
  H  H29  1  0.15901234  0.41189177  0.08142173  1.0
  H  H30  1  0.15764405  0.25627651  0.99800500  1.0
  H  H31  1  0.06741373  0.34520465  0.94355654  1.0
  H  H32  1  0.21624784  0.31666792  0.90470570  1.0
  H  H33  1  0.72638379  0.44193588  0.01158535  1.0
  H  H34  1  0.76595214  0.36939344  0.92046858  1.0
  H  H35  1  0.74110036  0.22319759  0.01574030  1.0
  H  H36  1  0.85454031  0.30148144  0.05980531  1.0
  H  H37  1  0.70563671  0.29747539  0.10632830  1.0
  H  H38  1  0.70663325  0.76277796  0.23785450  1.0
  H  H39  1  0.60191766  0.76206659  0.14543332  1.0
  H  H40  1  0.73473977  0.68609041  0.14676092  1.0
  H  H41  1  0.29820421  0.77083114  0.73654711  1.0
  H  H42  1  0.38206397  0.76577504  0.83901245  1.0
  H  H43  1  0.24366446  0.69789327  0.82433675  1.0
  H  H44  1  0.12461482  0.97167468  0.41552290  1.0
  H  H45  1  0.19520277  0.97302334  0.52264864  1.0
  H  H46  1  0.17083144  0.86159730  0.46689396  1.0
  H  H47  1  0.78595318  0.99837384  0.48109637  1.0
  H  H48  1  0.83468015  0.88817768  0.53226630  1.0
  H  H49  1  0.86104110  0.99998716  0.58647758  1.0
  H  H50  1  0.40567200  0.72754990  0.29714586  1.0
  H  H51  1  0.30208620  0.82770516  0.30219606  1.0
  H  H52  1  0.20643371  0.68862906  0.22204628  1.0
  H  H53  1  0.23095694  0.61660531  0.31712019  1.0
  H  H54  1  0.12548129  0.71384456  0.31984945  1.0
  H  H55  1  0.59448148  0.72718163  0.70312960  1.0
  H  H56  1  0.69312963  0.83026575  0.70402994  1.0
  H  H57  1  0.79001374  0.69235628  0.78597697  1.0
  H  H58  1  0.77526615  0.62137460  0.68995160  1.0
  H  H59  1  0.87659726  0.72094132  0.69140801  1.0
  C  C60  1  0.48503419  0.50026167  0.33103250  1.0
  C  C61  1  0.51246867  0.49555345  0.67070894  1.0
  C  C62  1  0.53415346  0.58110161  0.18619161  1.0
  C  C63  1  0.43962006  0.57971733  0.80793526  1.0
  C  C64  1  0.52985047  0.58039557  0.09445059  1.0
  C  C65  1  0.42716694  0.58034497  0.89913034  1.0
  C  C66  1  0.46655531  0.50924846  0.04827860  1.0
  C  C67  1  0.47442325  0.50611880  0.95155485  1.0
  C  C68  1  0.40526973  0.90193205  0.45802619  1.0
  C  C69  1  0.59295869  0.90529794  0.54501028  1.0
  C  C70  1  0.41366599  0.80221195  0.45757790  1.0
  C  C71  1  0.59201243  0.80540784  0.54555806  1.0
  C  C72  1  0.49767323  0.95405937  0.50089358  1.0
  C  C73  1  0.46718787  0.11009820  0.57519272  1.0
  C  C74  1  0.52038555  0.10908691  0.42276938  1.0
  C  C75  1  0.46644840  0.20860778  0.57130525  1.0
  C  C76  1  0.51972891  0.20766264  0.42438146  1.0
  C  C77  1  0.49481396  0.05899753  0.49970156  1.0
  C  C78  1  0.27233241  0.51173458  0.51704926  1.0
  C  C79  1  0.73767028  0.50136835  0.49858573  1.0
  C  C80  1  0.07254865  0.42187720  0.52018957  1.0
  C  C81  1  0.94475123  0.41679418  0.51906103  1.0
  C  C82  1  0.13600701  0.50784294  0.52062372  1.0
  C  C83  1  0.87367704  0.49992378  0.51193037  1.0
  C  C84  1  0.06479800  0.59101010  0.52024169  1.0
  C  C85  1  0.93703740  0.58685447  0.51448611  1.0
  C  C86  1  0.94375046  0.30652470  0.52367692  1.0
  C  C87  1  0.09343961  0.31486659  0.51724809  1.0
  C  C88  1  0.40324264  0.43935205  0.09526685  1.0
  C  C89  1  0.53442548  0.42983772  0.91139396  1.0
  C  C90  1  0.41098627  0.43825049  0.18661445  1.0
  C  C91  1  0.54358561  0.42795363  0.82045513  1.0
  C  C92  1  0.47646670  0.50750109  0.23300059  1.0
  C  C93  1  0.49804635  0.50189219  0.76789861  1.0
  C  C94  1  0.79129802  0.27234018  0.63238794  1.0
  C  C95  1  0.77586328  0.20473413  0.70894709  1.0
  C  C96  1  0.15441301  0.18750846  0.42259760  1.0
  C  C97  1  0.19162439  0.17486774  0.32802668  1.0
  C  C98  1  0.86185309  0.30249934  0.37456785  1.0
  C  C99  1  0.17545226  0.31604859  0.66597839  1.0
  C  C100  1  0.21603145  0.40045922  0.02314271  1.0
  C  C101  1  0.16135480  0.32502126  0.96384713  1.0
  C  C102  1  0.71375691  0.37110535  0.98195848  1.0
  C  C103  1  0.75601198  0.29354339  0.04475568  1.0
  C  C104  1  0.66323449  0.71814813  0.18749914  1.0
  C  C105  1  0.32608095  0.72475751  0.79160491  1.0
  C  C106  1  0.19303610  0.93718040  0.45862275  1.0
  C  C107  1  0.79820182  0.95992263  0.54373393  1.0
  C  C108  1  0.31785054  0.75340461  0.32217517  1.0
  C  C109  1  0.21348574  0.68935631  0.29406260  1.0
  C  C110  1  0.68285128  0.75625665  0.68232024  1.0
  C  C111  1  0.78795440  0.69405060  0.71386644  1.0
  N  N112  1  0.50467552  0.75635958  0.50158889  1.0
  N  N113  1  0.49354403  0.25607515  0.49748856  1.0
  O  O114  1  0.50939909  0.41845810  0.36270405  1.0
  O  O115  1  0.49080208  0.41504097  0.63621772  1.0
  O  O116  1  0.46488311  0.57551703  0.37406477  1.0
  O  O117  1  0.54758832  0.56989031  0.63104144  1.0
  O  O118  1  0.32319071  0.43492448  0.49326627  1.0
  O  O119  1  0.68321919  0.42228857  0.50919100  1.0
  O  O120  1  0.32518683  0.58929952  0.53631811  1.0
  O  O121  1  0.68804253  0.57998946  0.47710973  1.0
  O  O122  1  0.91650721  0.26432047  0.60394209  1.0
  O  O123  1  0.13717284  0.28781646  0.43532518  1.0
  O  O124  1  0.88137317  0.25516570  0.45719979  1.0
  O  O125  1  0.16441060  0.26919373  0.58323385  1.0
  O  O126  1  0.33690074  0.36971791  0.05172458  1.0
  O  O127  1  0.58509917  0.35708726  0.96181516  1.0
  O  O128  1  0.59685368  0.64789423  0.23412280  1.0
  O  O129  1  0.39463150  0.64981412  0.75374396  1.0
  O  O130  1  0.30967324  0.94853963  0.41615965  1.0
  O  O131  1  0.68309567  0.95501332  0.58909571  1.0
  O  O132  1  0.32688541  0.74832733  0.41818292  1.0
  O  O133  1  0.68208736  0.75464730  0.58603629  1.0
