# generated using pymatgen
data_Al3H13C54Br6(Cl3O7)2
_symmetry_space_group_name_H-M   'P 1'
_cell_length_a   12.06564786
_cell_length_b   13.31805853
_cell_length_c   26.46692520
_cell_angle_alpha   89.89872194
_cell_angle_beta   89.74345246
_cell_angle_gamma   64.91951481
_symmetry_Int_Tables_number   1
_chemical_formula_structural   Al3H13C54Br6(Cl3O7)2
_chemical_formula_sum   'Al6 H26 C108 Br12 Cl12 O28'
_cell_volume   3851.95680009
_cell_formula_units_Z   2
loop_
 _symmetry_equiv_pos_site_id
 _symmetry_equiv_pos_as_xyz
  1  'x, y, z'
loop_
 _atom_site_type_symbol
 _atom_site_label
 _atom_site_symmetry_multiplicity
 _atom_site_fract_x
 _atom_site_fract_y
 _atom_site_fract_z
 _atom_site_occupancy
  Al  Al0  1  0.55094323  0.27804066  0.24880321  1.0
  Al  Al1  1  0.27332552  0.46085735  0.25000804  1.0
  Al  Al2  1  0.31425102  0.22368434  0.25004449  1.0
  Al  Al3  1  0.68637610  0.52684971  0.75042468  1.0
  Al  Al4  1  0.53691232  0.79362611  0.74997536  1.0
  Al  Al5  1  0.80897052  0.70159606  0.75038124  1.0
  H  H6  1  0.88708240  0.67967729  0.89194087  1.0
  H  H7  1  0.34111164  0.17375131  0.10061600  1.0
  H  H8  1  0.07564402  0.56979721  0.36701577  1.0
  H  H9  1  0.56626137  0.35031057  0.10699073  1.0
  H  H10  1  0.89666434  0.35426070  0.87867762  1.0
  H  H11  1  0.84337498  0.86350525  0.61216861  1.0
  H  H12  1  0.35918319  0.82282354  0.89387202  1.0
  H  H13  1  0.90136736  0.35040606  0.62313273  1.0
  H  H14  1  0.84264873  0.86473920  0.88643896  1.0
  H  H15  1  0.36127075  0.82458706  0.60449889  1.0
  H  H16  1  0.72333087  0.00643093  0.36405109  1.0
  H  H17  1  0.45791295  0.02928590  0.64396136  1.0
  H  H18  1  0.04381989  0.26007858  0.12819428  1.0
  H  H19  1  0.33178157  0.68900068  0.35710051  1.0
  H  H20  1  0.72460859  0.00852220  0.13479797  1.0
  H  H21  1  0.04589433  0.25917669  0.37305993  1.0
  H  H22  1  0.32789905  0.68880791  0.14135854  1.0
  H  H23  1  0.54395777  0.47557005  0.85978223  1.0
  H  H24  1  0.88677726  0.67759714  0.60968008  1.0
  H  H25  1  0.45675357  0.02836069  0.85648951  1.0
  H  H26  1  0.53757829  0.47736003  0.63897784  1.0
  H  H27  1  0.34046484  0.17500367  0.40023570  1.0
  H  H28  1  0.07760436  0.56896679  0.13387692  1.0
  H  H29  1  0.56494538  0.34987629  0.39254410  1.0
  H  H30  1  0.74435528  0.24986768  0.27865034  1.0
  H  H31  1  0.74289990  0.33937238  0.72913843  1.0
  C  C32  1  0.43094511  0.47597225  0.17889440  1.0
  C  C33  1  0.48386861  0.66870747  0.81985827  1.0
  C  C34  1  0.93908814  0.29604019  0.52165021  1.0
  C  C35  1  0.82741368  0.92978598  0.98589370  1.0
  C  C36  1  0.33300935  0.79923855  0.50248878  1.0
  C  C37  1  0.80317779  0.94850365  0.46195205  1.0
  C  C38  1  0.95750728  0.28324620  0.03118498  1.0
  C  C39  1  0.33286154  0.77251824  0.45231463  1.0
  C  C40  1  0.80348235  0.94884634  0.03675946  1.0
  C  C41  1  0.95805035  0.28189870  0.47021636  1.0
  C  C42  1  0.33148882  0.77174276  0.04617829  1.0
  C  C43  1  0.66482264  0.87558780  0.68113873  1.0
  C  C44  1  0.86543930  0.53824253  0.82512071  1.0
  C  C45  1  0.96271036  0.46550581  0.03843218  1.0
  C  C46  1  0.58290806  0.04101931  0.48005565  1.0
  C  C47  1  0.44927080  0.57364646  0.02674903  1.0
  C  C48  1  0.96188726  0.46469842  0.46285889  1.0
  C  C49  1  0.58293231  0.04065023  0.01969100  1.0
  C  C50  1  0.44841785  0.57450299  0.47206793  1.0
  C  C51  1  0.60797688  0.01498455  0.53207301  1.0
  C  C52  1  0.13965509  0.38222196  0.31741253  1.0
  C  C53  1  0.93245176  0.48422721  0.98506786  1.0
  C  C54  1  0.44336579  0.60161507  0.52402455  1.0
  C  C55  1  0.60753308  0.01461893  0.96759678  1.0
  C  C56  1  0.93186121  0.48290006  0.51635459  1.0
  C  C57  1  0.44557597  0.60028956  0.97474808  1.0
  C  C58  1  0.99566186  0.62960957  0.03385735  1.0
  C  C59  1  0.36886421  0.15876622  0.50245323  1.0
  C  C60  1  0.57215456  0.37572423  0.00555642  1.0
  C  C61  1  0.99394413  0.62920941  0.46729568  1.0
  C  C62  1  0.36836841  0.15728692  0.99825900  1.0
  C  C63  1  0.49946211  0.13039868  0.17659646  1.0
  C  C64  1  0.56957784  0.37652118  0.49365930  1.0
  C  C65  1  0.39141573  0.12975694  0.55242669  1.0
  C  C66  1  0.89747789  0.66917285  0.00154869  1.0
  C  C67  1  0.55302291  0.40105023  0.54414022  1.0
  C  C68  1  0.39053012  0.12835853  0.94822586  1.0
  C  C69  1  0.89586303  0.66828137  0.49997710  1.0
  C  C70  1  0.55773021  0.39979447  0.95498412  1.0
  C  C71  1  0.04641816  0.51390350  0.11437866  1.0
  C  C72  1  0.43432942  0.12684671  0.41244530  1.0
  C  C73  1  0.51613892  0.43503252  0.09382338  1.0
  C  C74  1  0.43344385  0.47541983  0.32007205  1.0
  C  C75  1  0.04485281  0.51429642  0.38659863  1.0
  C  C76  1  0.43491418  0.12615962  0.08792445  1.0
  C  C77  1  0.51597407  0.43507530  0.40532706  1.0
  C  C78  1  0.53331692  0.00828557  0.61734774  1.0
  C  C79  1  0.89931475  0.60187466  0.90958412  1.0
  C  C80  1  0.49514692  0.54207473  0.61100420  1.0
  C  C81  1  0.53231686  0.00774213  0.88271484  1.0
  C  C82  1  0.89931297  0.59984872  0.59196783  1.0
  C  C83  1  0.49995772  0.54027670  0.88773297  1.0
  C  C84  1  0.89710828  0.51503298  0.87978428  1.0
  C  C85  1  0.13953333  0.38129398  0.18342627  1.0
  C  C86  1  0.65164868  0.93578792  0.63220196  1.0
  C  C87  1  0.45282208  0.65098496  0.87246164  1.0
  C  C88  1  0.89953848  0.51210898  0.62202871  1.0
  C  C89  1  0.65079955  0.93612784  0.86732615  1.0
  C  C90  1  0.45194174  0.65269397  0.62607779  1.0
  C  C91  1  0.52859204  0.08912113  0.37669276  1.0
  C  C92  1  0.06519908  0.41124664  0.13638070  1.0
  C  C93  1  0.44719558  0.51630270  0.37073133  1.0
  C  C94  1  0.52969190  0.08934545  0.12313784  1.0
  C  C95  1  0.06473088  0.41151295  0.36459288  1.0
  C  C96  1  0.49797175  0.13003288  0.32321509  1.0
  C  C97  1  0.44539894  0.51639156  0.12813237  1.0
  C  C98  1  0.99529366  0.54120664  0.06727919  1.0
  C  C99  1  0.46067267  0.10798188  0.46410442  1.0
  C  C100  1  0.51464673  0.46109388  0.04271134  1.0
  C  C101  1  0.99367810  0.54105058  0.43385822  1.0
  C  C102  1  0.46073073  0.10711723  0.03617336  1.0
  C  C103  1  0.51345544  0.46167257  0.45635752  1.0
  C  C104  1  0.51050459  0.05094291  0.56831855  1.0
  C  C105  1  0.91127430  0.58842451  0.96104126  1.0
  C  C106  1  0.49431864  0.51475740  0.56048266  1.0
  C  C107  1  0.49028424  0.66806299  0.67779887  1.0
  C  C108  1  0.50973816  0.05011687  0.93181883  1.0
  C  C109  1  0.91020291  0.58707630  0.54043658  1.0
  C  C110  1  0.49890699  0.51331458  0.93842826  1.0
  C  C111  1  0.02777075  0.33952060  0.11114021  1.0
  C  C112  1  0.65028626  0.03008233  0.39206246  1.0
  C  C113  1  0.38205556  0.62701499  0.11366206  1.0
  C  C114  1  0.02837129  0.33897365  0.39001540  1.0
  C  C115  1  0.65130648  0.03096339  0.10722252  1.0
  C  C116  1  0.38450004  0.62721822  0.38496706  1.0
  C  C117  1  0.75059466  0.91411608  0.59939759  1.0
  C  C118  1  0.66465955  0.87650662  0.81832324  1.0
  C  C119  1  0.90606181  0.41726589  0.90218332  1.0
  C  C120  1  0.39536824  0.73893804  0.59181826  1.0
  C  C121  1  0.74986838  0.91473089  0.89966715  1.0
  C  C122  1  0.90850951  0.41450193  0.59956211  1.0
  C  C123  1  0.39543832  0.73724244  0.90678154  1.0
  C  C124  1  0.97744245  0.36412682  0.06173828  1.0
  C  C125  1  0.67938703  0.00348775  0.44323678  1.0
  C  C126  1  0.38784902  0.65833999  0.06343446  1.0
  C  C127  1  0.97769664  0.36311415  0.43955022  1.0
  C  C128  1  0.67980865  0.00378042  0.05600024  1.0
  C  C129  1  0.87206047  0.53418907  0.67718853  1.0
  C  C130  1  0.38887735  0.65896152  0.43518672  1.0
  C  C131  1  0.73048328  0.95287488  0.54924752  1.0
  C  C132  1  0.92583175  0.39875170  0.95486311  1.0
  C  C133  1  0.38836915  0.71481658  0.54047148  1.0
  C  C134  1  0.72998724  0.95303079  0.94988107  1.0
  C  C135  1  0.92627356  0.39690644  0.54669002  1.0
  C  C136  1  0.38917650  0.71339688  0.95818577  1.0
  C  C137  1  0.93895438  0.29761453  0.97979541  1.0
  C  C138  1  0.82761323  0.92964605  0.51272786  1.0
  C  C139  1  0.33223395  0.79816969  0.99598157  1.0
  Br  Br140  1  0.93999773  0.18017833  0.93927359  1.0
  Br  Br141  1  0.93418511  0.90344292  0.08358247  1.0
  Br  Br142  1  0.97454043  0.14857659  0.43887334  1.0
  Br  Br143  1  0.25953229  0.88495349  0.09527925  1.0
  Br  Br144  1  0.98941086  0.87586878  0.53756409  1.0
  Br  Br145  1  0.25601895  0.94755664  0.97422474  1.0
  Br  Br146  1  0.93847002  0.17864864  0.56195115  1.0
  Br  Br147  1  0.98906959  0.87541503  0.96027442  1.0
  Br  Br148  1  0.25778127  0.94893339  0.52398377  1.0
  Br  Br149  1  0.93375639  0.90282953  0.41453897  1.0
  Br  Br150  1  0.97375784  0.14986626  0.06246432  1.0
  Br  Br151  1  0.26207084  0.88546821  0.40310214  1.0
  Cl  Cl152  1  0.75270642  0.71964468  0.03081139  1.0
  Cl  Cl153  1  0.22984866  0.25701387  0.01701886  1.0
  Cl  Cl154  1  0.13813145  0.60014664  0.49192628  1.0
  Cl  Cl155  1  0.65604010  0.24291916  0.02585561  1.0
  Cl  Cl156  1  0.27794621  0.18810221  0.59702692  1.0
  Cl  Cl157  1  0.61162136  0.29621230  0.91057177  1.0
  Cl  Cl158  1  0.75107777  0.71894837  0.47130198  1.0
  Cl  Cl159  1  0.27650968  0.18620747  0.90417790  1.0
  Cl  Cl160  1  0.60533668  0.29760692  0.58868973  1.0
  Cl  Cl161  1  0.23051085  0.25927136  0.48427584  1.0
  Cl  Cl162  1  0.13975884  0.60095030  0.00869425  1.0
  Cl  Cl163  1  0.65478800  0.24360669  0.47363468  1.0
  O  O164  1  0.56712837  0.17048677  0.19596900  1.0
  O  O165  1  0.80134376  0.49400704  0.80612840  1.0
  O  O166  1  0.44717109  0.76462526  0.69883795  1.0
  O  O167  1  0.77164308  0.81544279  0.80082780  1.0
  O  O168  1  0.51718445  0.38952506  0.19550387  1.0
  O  O169  1  0.16084148  0.46116570  0.29884438  1.0
  O  O170  1  0.40352319  0.12835045  0.19770076  1.0
  O  O171  1  0.52002202  0.38884230  0.30335427  1.0
  O  O172  1  0.15915734  0.46028785  0.20272970  1.0
  O  O173  1  0.40128597  0.12874772  0.30281999  1.0
  O  O174  1  0.57173922  0.58094621  0.69622638  1.0
  O  O175  1  0.32870336  0.52828649  0.29866180  1.0
  O  O176  1  0.56501862  0.88558431  0.79783877  1.0
  O  O177  1  0.89981415  0.60836048  0.69781845  1.0
  O  O178  1  0.55268308  0.58205926  0.79654515  1.0
  O  O179  1  0.56443599  0.88341345  0.70087910  1.0
  O  O180  1  0.89914304  0.60680613  0.80231959  1.0
  O  O181  1  0.37825515  0.32015868  0.25004549  1.0
  O  O182  1  0.67833393  0.67595547  0.75054110  1.0
  O  O183  1  0.18580606  0.28162926  0.20015941  1.0
  O  O184  1  0.56595936  0.16941400  0.30323956  1.0
  O  O185  1  0.32599095  0.52918595  0.20062835  1.0
  O  O186  1  0.18452892  0.28321651  0.30004038  1.0
  O  O187  1  0.81702961  0.48408173  0.69907736  1.0
  O  O188  1  0.44701218  0.76808716  0.80219371  1.0
  O  O189  1  0.77105061  0.81573608  0.69911693  1.0
  O  O190  1  0.70879022  0.24093435  0.24729385  1.0
  O  O191  1  0.68679685  0.39438916  0.75183904  1.0
