# generated using pymatgen
data_FeHC4N3ClO
_symmetry_space_group_name_H-M   'P 1'
_cell_length_a   7.95162926
_cell_length_b   14.03049618
_cell_length_c   14.03433401
_cell_angle_alpha   116.50555820
_cell_angle_beta   100.87984275
_cell_angle_gamma   100.90228097
_symmetry_Int_Tables_number   1
_chemical_formula_structural   FeHC4N3ClO
_chemical_formula_sum   'Fe6 H6 C24 N18 Cl6 O6'
_cell_volume   1307.71808232
_cell_formula_units_Z   6
loop_
 _symmetry_equiv_pos_site_id
 _symmetry_equiv_pos_as_xyz
  1  'x, y, z'
loop_
 _atom_site_type_symbol
 _atom_site_label
 _atom_site_symmetry_multiplicity
 _atom_site_fract_x
 _atom_site_fract_y
 _atom_site_fract_z
 _atom_site_occupancy
  Fe  Fe0  1  0.71808435  0.43606659  0.71806155  1.0
  Fe  Fe1  1  0.99997571  0.28199610  0.71806181  1.0
  Fe  Fe2  1  0.28203915  0.28203974  0.56408055  1.0
  Fe  Fe3  1  0.28191581  0.56393636  0.28194014  1.0
  Fe  Fe4  1  0.00002373  0.71800403  0.28194124  1.0
  Fe  Fe5  1  0.71796142  0.71796226  0.43592293  1.0
  H  H6  1  0.76276441  0.58007262  0.58007035  1.0
  H  H7  1  0.81730748  0.00000028  0.58007007  1.0
  H  H8  1  0.18269261  0.00000481  0.41993323  1.0
  H  H9  1  0.18267063  0.41983109  0.99999903  1.0
  H  H10  1  0.81733025  0.58016450  0.99999865  1.0
  H  H11  1  0.23723661  0.41992695  0.41993131  1.0
  C  C12  1  0.93320210  0.47317956  0.57125544  1.0
  C  C13  1  0.63805179  0.09807622  0.57125431  1.0
  C  C14  1  0.45999126  0.09810423  0.52690932  1.0
  C  C15  1  0.36192225  0.42874677  0.90194724  1.0
  C  C16  1  0.54002621  0.47319358  0.90194563  1.0
  C  C17  1  0.06691368  0.42880461  0.52690865  1.0
  C  C18  1  0.06679792  0.52681731  0.42874436  1.0
  C  C19  1  0.36194538  0.90192838  0.42874484  1.0
  C  C20  1  0.54000519  0.90189882  0.47308996  1.0
  C  C21  1  0.63808206  0.57124548  0.09805297  1.0
  C  C22  1  0.45997539  0.52680146  0.09805401  1.0
  C  C23  1  0.93308378  0.57119140  0.47308945  1.0
  C  C24  1  0.86370859  0.54639336  0.54638480  1.0
  C  C25  1  0.68267648  0.99999347  0.54638441  1.0
  C  C26  1  0.31732510  0.00001215  0.45361744  1.0
  C  C27  1  0.31731946  0.45355142  0.99999993  1.0
  C  C28  1  0.68267985  0.54644432  0.99999958  1.0
  C  C29  1  0.13628844  0.45360308  0.45361457  1.0
  C  C30  1  0.79186001  0.58338076  0.79155812  1.0
  C  C31  1  0.99969403  0.20817981  0.79155904  1.0
  C  C32  1  0.20842014  0.20840559  0.41681957  1.0
  C  C33  1  0.20813901  0.41662358  0.20844244  1.0
  C  C34  1  0.00030356  0.79181975  0.20844345  1.0
  C  C35  1  0.79158631  0.79159298  0.58317858  1.0
  N  N36  1  0.89547027  0.42886923  0.63738912  1.0
  N  N37  1  0.74191984  0.20852148  0.63738874  1.0
  N  N38  1  0.46657263  0.20853829  0.57127391  1.0
  N  N39  1  0.25808017  0.36266202  0.79154572  1.0
  N  N40  1  0.53346420  0.42888281  0.79154481  1.0
  N  N41  1  0.10469849  0.36273574  0.57127252  1.0
  N  N42  1  0.10453005  0.57112963  0.36261183  1.0
  N  N43  1  0.25807989  0.79148273  0.36261337  1.0
  N  N44  1  0.53342782  0.79146664  0.42872892  1.0
  N  N45  1  0.74191899  0.63733697  0.20845536  1.0
  N  N46  1  0.46653568  0.57111815  0.20845572  1.0
  N  N47  1  0.89530067  0.63726283  0.42872898  1.0
  N  N48  1  0.00009274  0.36481551  0.63534661  1.0
  N  N49  1  0.63525359  0.27053283  0.63534734  1.0
  N  N50  1  0.36478168  0.36478352  0.72956619  1.0
  N  N51  1  0.99990829  0.63518406  0.36465505  1.0
  N  N52  1  0.36474571  0.72947181  0.36465604  1.0
  N  N53  1  0.63521633  0.63521804  0.27043517  1.0
  Cl  Cl54  1  0.92233416  0.42233415  0.84466574  1.0
  Cl  Cl55  1  0.50009498  0.42237933  0.57776603  1.0
  Cl  Cl56  1  0.07767017  0.15538842  0.57776899  1.0
  Cl  Cl57  1  0.07766872  0.57766767  0.15533482  1.0
  Cl  Cl58  1  0.49990361  0.57762460  0.42223664  1.0
  Cl  Cl59  1  0.92233256  0.84461371  0.42223607  1.0
  O  O60  1  0.84068855  0.68080037  0.84005331  1.0
  O  O61  1  0.99936110  0.15925580  0.84005438  1.0
  O  O62  1  0.15973409  0.15970044  0.31942514  1.0
  O  O63  1  0.15931162  0.31920509  0.15994586  1.0
  O  O64  1  0.00063921  0.84074305  0.15994657  1.0
  O  O65  1  0.84028135  0.84029609  0.68057766  1.0
