# generated using pymatgen
data_HgH18C22(N2Cl)2
_symmetry_space_group_name_H-M   'P 1'
_cell_length_a   11.19524144
_cell_length_b   11.19533084
_cell_length_c   14.55828375
_cell_angle_alpha   105.36680575
_cell_angle_beta   105.36638660
_cell_angle_gamma   100.15558788
_symmetry_Int_Tables_number   1
_chemical_formula_structural   HgH18C22(N2Cl)2
_chemical_formula_sum   'Hg2 H36 C44 N8 Cl4'
_cell_volume   1635.79381790
_cell_formula_units_Z   2
loop_
 _symmetry_equiv_pos_site_id
 _symmetry_equiv_pos_as_xyz
  1  'x, y, z'
loop_
 _atom_site_type_symbol
 _atom_site_label
 _atom_site_symmetry_multiplicity
 _atom_site_fract_x
 _atom_site_fract_y
 _atom_site_fract_z
 _atom_site_occupancy
  Hg  Hg0  1  0.62545545  0.37454116  0.24999844  1.0
  Hg  Hg1  1  0.37454459  0.62545738  0.75000287  1.0
  H  H2  1  0.68196796  0.69289523  0.25509806  1.0
  H  H3  1  0.30710426  0.31803635  0.24490055  1.0
  H  H4  1  0.31803204  0.30709682  0.74490053  1.0
  H  H5  1  0.69289581  0.68196406  0.75509840  1.0
  H  H6  1  0.65539681  0.89817229  0.22280247  1.0
  H  H7  1  0.10182533  0.34460460  0.27719735  1.0
  H  H8  1  0.34459933  0.10181876  0.77719718  1.0
  H  H9  1  0.89817666  0.65539815  0.72280522  1.0
  H  H10  1  0.46865102  0.89958905  0.08875917  1.0
  H  H11  1  0.10040766  0.53135014  0.41124246  1.0
  H  H12  1  0.53134705  0.10040435  0.91124274  1.0
  H  H13  1  0.89959529  0.46865287  0.58875899  1.0
  H  H14  1  0.29705112  0.69758086  0.98117640  1.0
  H  H15  1  0.30241811  0.70295256  0.51882409  1.0
  H  H16  1  0.70294602  0.30241415  0.01882427  1.0
  H  H17  1  0.69758488  0.29705232  0.48117431  1.0
  H  H18  1  0.35187196  0.28055430  0.03752977  1.0
  H  H19  1  0.71944646  0.64812695  0.46247251  1.0
  H  H20  1  0.64812327  0.71944207  0.96247079  1.0
  H  H21  1  0.28055360  0.35187345  0.53752781  1.0
  H  H22  1  0.17852308  0.30525495  0.90384523  1.0
  H  H23  1  0.69474459  0.82147902  0.59615409  1.0
  H  H24  1  0.82147122  0.69474398  0.09615223  1.0
  H  H25  1  0.30525644  0.17852257  0.40384461  1.0
  H  H26  1  0.21144972  0.44410171  0.86877047  1.0
  H  H27  1  0.55589791  0.78855278  0.63123001  1.0
  H  H28  1  0.78854746  0.55589887  0.13123204  1.0
  H  H29  1  0.44410220  0.21145135  0.36876765  1.0
  H  H30  1  0.03595709  0.53306094  0.84599941  1.0
  H  H31  1  0.46693498  0.96404710  0.65399954  1.0
  H  H32  1  0.96404295  0.46693852  0.15400415  1.0
  H  H33  1  0.53306801  0.03595871  0.34599769  1.0
  H  H34  1  0.13500793  0.39069441  0.09595360  1.0
  H  H35  1  0.60930738  0.86499140  0.40404739  1.0
  H  H36  1  0.86499115  0.60930388  0.90404883  1.0
  H  H37  1  0.39069366  0.13501113  0.59595014  1.0
  C  C38  1  0.50314975  0.58124060  0.13609656  1.0
  C  C39  1  0.41875909  0.49685057  0.36390014  1.0
  C  C40  1  0.49684739  0.41875350  0.86390049  1.0
  C  C41  1  0.58124389  0.50315338  0.63609808  1.0
  C  C42  1  0.59845410  0.69474152  0.19679553  1.0
  C  C43  1  0.30525916  0.40155113  0.30320588  1.0
  C  C44  1  0.40154496  0.30525584  0.80320739  1.0
  C  C45  1  0.69473997  0.59845275  0.69679291  1.0
  C  C46  1  0.58299046  0.80764359  0.17772650  1.0
  C  C47  1  0.19235786  0.41701301  0.32227173  1.0
  C  C48  1  0.41700859  0.19235007  0.82227291  1.0
  C  C49  1  0.80764414  0.58298975  0.67772810  1.0
  C  C50  1  0.47564695  0.80874109  0.10091454  1.0
  C  C51  1  0.19125781  0.52435791  0.39908520  1.0
  C  C52  1  0.52435305  0.19125281  0.89908649  1.0
  C  C53  1  0.80874229  0.47564621  0.60091452  1.0
  C  C54  1  0.37946803  0.69677399  0.04074743  1.0
  C  C55  1  0.30322305  0.62053319  0.45924769  1.0
  C  C56  1  0.62053007  0.30322035  0.95925055  1.0
  C  C57  1  0.69677704  0.37946909  0.54074890  1.0
  C  C58  1  0.39539655  0.58362013  0.05969953  1.0
  C  C59  1  0.41637914  0.60460764  0.44029964  1.0
  C  C60  1  0.60460250  0.41637445  0.94030076  1.0
  C  C61  1  0.58362193  0.39539767  0.55969846  1.0
  C  C62  1  0.38637438  0.38438897  0.05999843  1.0
  C  C63  1  0.61561420  0.61362689  0.44000095  1.0
  C  C64  1  0.61362277  0.61560697  0.94000106  1.0
  C  C65  1  0.38438684  0.38637470  0.55999775  1.0
  C  C66  1  0.20062496  0.41068242  0.93138780  1.0
  C  C67  1  0.58931607  0.79937990  0.56861285  1.0
  C  C68  1  0.79937316  0.58931563  0.06861232  1.0
  C  C69  1  0.41068402  0.20062238  0.43138442  1.0
  C  C70  1  0.09599934  0.45610517  0.96662520  1.0
  C  C71  1  0.54389716  0.90400155  0.53337596  1.0
  C  C72  1  0.90399880  0.54389658  0.03337706  1.0
  C  C73  1  0.45610581  0.09600240  0.46662362  1.0
  C  C74  1  0.02008516  0.51871942  0.91361111  1.0
  C  C75  1  0.48127912  0.97991896  0.58638974  1.0
  C  C76  1  0.97991680  0.48128146  0.08639382  1.0
  C  C77  1  0.51872387  0.02008777  0.41360974  1.0
  C  C78  1  0.07534150  0.43795781  0.05321713  1.0
  C  C79  1  0.56204574  0.92466190  0.44678475  1.0
  C  C80  1  0.92465951  0.56204376  0.94678638  1.0
  C  C81  1  0.43795726  0.07534391  0.55321248  1.0
  N  N82  1  0.32349602  0.45644625  0.01284570  1.0
  N  N83  1  0.54355186  0.67650833  0.48715376  1.0
  N  N84  1  0.67650112  0.54354784  0.98715272  1.0
  N  N85  1  0.45644921  0.32349698  0.51284434  1.0
  N  N86  1  0.49409744  0.45493770  0.13343962  1.0
  N  N87  1  0.54506193  0.50590295  0.36656078  1.0
  N  N88  1  0.50589874  0.54505707  0.86655943  1.0
  N  N89  1  0.45494007  0.49409889  0.63343886  1.0
  Cl  Cl90  1  0.49456659  0.15566149  0.19180379  1.0
  Cl  Cl91  1  0.84433438  0.50543599  0.30819180  1.0
  Cl  Cl92  1  0.50543824  0.84433552  0.80819544  1.0
  Cl  Cl93  1  0.15566000  0.49457591  0.69181384  1.0
