# generated using pymatgen
data_Zn2H26C25N8O
_symmetry_space_group_name_H-M   'P 1'
_cell_length_a   14.29691315
_cell_length_b   14.68166383
_cell_length_c   14.94269656
_cell_angle_alpha   64.01435892
_cell_angle_beta   65.29599531
_cell_angle_gamma   77.83910123
_symmetry_Int_Tables_number   1
_chemical_formula_structural   Zn2H26C25N8O
_chemical_formula_sum   'Zn4 H52 C50 N16 O2'
_cell_volume   2559.92656522
_cell_formula_units_Z   2
loop_
 _symmetry_equiv_pos_site_id
 _symmetry_equiv_pos_as_xyz
  1  'x, y, z'
loop_
 _atom_site_type_symbol
 _atom_site_label
 _atom_site_symmetry_multiplicity
 _atom_site_fract_x
 _atom_site_fract_y
 _atom_site_fract_z
 _atom_site_occupancy
  Zn  Zn120  1  0.12439475  0.93557381  0.44798267  1.0
  Zn  Zn121  1  0.87547835  0.10619011  0.50068072  1.0
  Zn  Zn122  1  0.96667413  0.00103873  0.70861969  1.0
  Zn  Zn123  1  0.99253178  0.02073700  0.30290605  1.0
  H  H50  1  0.89250322  0.80210259  0.88127922  1.0
  H  H51  1  0.54101570  0.25587799  0.80717852  1.0
  H  H52  1  0.57551699  0.04173817  0.56133403  1.0
  H  H53  1  0.49587589  0.04494092  0.68992300  1.0
  H  H54  1  0.13679031  0.51335326  0.04493295  1.0
  H  H55  1  0.10771727  0.38115988  0.10533528  1.0
  H  H56  1  0.14650379  0.43334655  0.17242876  1.0
  H  H57  1  0.90210890  0.43397926  0.47654113  1.0
  H  H58  1  0.98153902  0.45994360  0.34126002  1.0
  H  H59  1  0.46359507  0.17666095  0.80699346  1.0
  H  H60  1  0.16729403  0.60430320  0.24023927  1.0
  H  H61  1  0.33027096  0.02730048  0.00569385  1.0
  H  H62  1  0.30132010  0.82973897  0.51028915  1.0
  H  H63  1  0.18071301  0.42802199  0.29140791  1.0
  H  H64  1  0.48800524  0.98335055  0.89215607  1.0
  H  H65  1  0.14354110  0.54553847  0.51836356  1.0
  H  H66  1  0.49051568  0.02291822  0.14941032  1.0
  H  H67  1  0.00863437  0.56610488  0.56983824  1.0
  H  H68  1  0.48786381  0.15510467  0.11265786  1.0
  H  H69  1  0.98069036  0.39926851  0.61072472  1.0
  H  H70  1  0.62416363  0.17953374  0.94720658  1.0
  H  H71  1  0.11470862  0.37612305  0.57889246  1.0
  H  H72  1  0.64656250  0.04771004  0.00396627  1.0
  H  H73  1  0.23938882  0.58651681  0.31827864  1.0
  H  H74  1  0.37290333  0.94772138  0.11088961  1.0
  H  H75  1  0.70182852  0.93893856  0.66335522  1.0
  H  H76  1  0.84177966  0.33195123  0.35324157  1.0
  H  H77  1  0.23078371  0.40985980  0.38762609  1.0
  H  H78  1  0.90810296  0.60234811  0.44968338  1.0
  H  H79  1  0.54134305  0.93431429  0.99196357  1.0
  H  H80  1  0.45928950  0.79341300  0.56707800  1.0
  H  H81  1  0.88761986  0.62759184  0.00212418  1.0
  H  H82  1  0.34014216  0.87543262  0.74371254  1.0
  H  H83  1  0.01101502  0.65654171  0.11412706  1.0
  H  H84  1  0.41837372  0.26877372  0.96557141  1.0
  H  H85  1  0.64209598  0.78042890  0.52547394  1.0
  H  H86  1  0.84830065  0.44958680  0.06711910  1.0
  H  H87  1  0.75522490  0.96627195  0.89292981  1.0
  H  H88  1  0.06173599  0.21230990  0.64603646  1.0
  H  H89  1  0.03086851  0.80760058  0.23326312  1.0
  H  H90  1  0.16783141  0.15050837  0.08723305  1.0
  H  H91  1  0.64696827  0.19366575  0.64882606  1.0
  H  H92  1  0.02100162  0.28515767  0.35061176  1.0
  H  H93  1  0.12744412  0.70808511  0.50122520  1.0
  H  H94  1  0.33834301  0.04527351  0.29725322  1.0
  H  H95  1  0.83826599  0.84585524  0.39585419  1.0
  H  H96  1  0.93841371  0.21975022  0.10345721  1.0
  H  H97  1  0.04899870  0.86635360  0.03949706  1.0
  H  H98  1  0.13447470  0.90369394  0.78845288  1.0
  H  H99  1  0.97449823  0.62906182  0.31171279  1.0
  H  H100  1  0.33175073  0.22183946  0.94071556  1.0
  H  H101  1  0.43925424  0.02437783  0.61330327  1.0
  C  C0  1  0.92965871  0.83459863  0.91048752  1.0
  C  C1  1  0.05291959  0.29507236  0.48143438  1.0
  C  C2  1  0.10333956  0.44881605  0.12120701  1.0
  C  C3  1  0.65866434  0.08533047  0.80777817  1.0
  C  C4  1  0.07897058  0.71112560  0.37451240  1.0
  C  C5  1  0.29556834  0.10672657  0.15140003  1.0
  C  C6  1  0.97647524  0.58045132  0.39176105  1.0
  C  C7  1  0.40437578  0.20406390  0.95466799  1.0
  C  C8  1  0.24594409  0.85114879  0.57500039  1.0
  C  C9  1  0.97526874  0.46753903  0.41346584  1.0
  C  C10  1  0.49387193  0.18821078  0.85791729  1.0
  C  C11  1  0.16872747  0.56436489  0.32159237  1.0
  C  C12  1  0.39271971  0.01506436  0.03504524  1.0
  C  C13  1  0.07110683  0.53648492  0.51421332  1.0
  C  C14  1  0.49040192  0.09707554  0.08366831  1.0
  C  C15  1  0.07389905  0.60105039  0.39915920  1.0
  C  C16  1  0.39363765  0.10826016  0.05822098  1.0
  C  C17  1  0.06441395  0.40569293  0.44981809  1.0
  C  C18  1  0.56218102  0.09540036  0.89716811  1.0
  C  C19  1  0.16787821  0.44786723  0.35858965  1.0
  C  C20  1  0.49778085  0.99967765  0.95285717  1.0
  C  C21  1  0.74932041  0.92589172  0.59123142  1.0
  C  C22  1  0.86618003  0.28718661  0.30509440  1.0
  C  C23  1  0.05635585  0.42378853  0.54678341  1.0
  C  C24  1  0.72934457  0.86863251  0.54632191  1.0
  C  C25  1  0.58844401  0.10598301  0.98273038  1.0
  C  C26  1  0.63567228  0.82564675  0.56972739  1.0
  C  C27  1  0.89068665  0.42663792  0.12024534  1.0
  C  C28  1  0.53819705  0.84714172  0.62954039  1.0
  C  C29  1  0.93796418  0.50005587  0.11712460  1.0
  C  C30  1  0.89044890  0.32104482  0.19443993  1.0
  C  C31  1  0.34958865  0.84896298  0.68240679  1.0
  C  C32  1  0.97085138  0.68030215  0.05872426  1.0
  C  C33  1  0.44661462  0.82395223  0.62633610  1.0
  C  C34  1  0.93040725  0.60683837  0.05459709  1.0
  C  C35  1  0.74227347  0.01845147  0.82037675  1.0
  C  C36  1  0.04773660  0.21425771  0.57917075  1.0
  C  C37  1  0.05632896  0.79969263  0.29548849  1.0
  C  C38  1  0.19447238  0.12098612  0.15343792  1.0
  C  C39  1  0.68800381  0.13550311  0.69609998  1.0
  C  C40  1  0.02739795  0.25098836  0.42868741  1.0
  C  C41  1  0.10539124  0.74845549  0.43196285  1.0
  C  C42  1  0.28172304  0.06711701  0.25993860  1.0
  C  C43  1  0.81970320  0.87788286  0.45472004  1.0
  C  C44  1  0.91428543  0.23054151  0.17756733  1.0
  C  C45  1  0.01049306  0.86854707  0.98918703  1.0
  C  C46  1  0.15946845  0.88888638  0.71651890  1.0
  C  C47  1  0.96763288  0.78689981  0.99354112  1.0
  C  C48  1  0.25796580  0.85608559  0.66125718  1.0
  C  C49  1  0.50758704  0.00966976  0.63459355  1.0
  N  N102  1  0.95036975  0.93429112  0.86179097  1.0
  N  N103  1  0.01890620  0.12988651  0.58462932  1.0
  N  N104  1  0.81606864  0.02834961  0.72392445  1.0
  N  N105  1  0.06921965  0.88332895  0.30481949  1.0
  N  N106  1  0.12580861  0.08966386  0.25550624  1.0
  N  N107  1  0.78270244  0.10152743  0.64673053  1.0
  N  N108  1  0.00544119  0.15181082  0.49166718  1.0
  N  N109  1  0.14828049  0.88117016  0.57880659  1.0
  N  N110  1  0.09953112  0.85062613  0.39005228  1.0
  N  N111  1  0.17980570  0.05706550  0.32151284  1.0
  N  N112  1  0.88516314  0.93883181  0.44436401  1.0
  N  N113  1  0.90579633  0.14978451  0.27057393  1.0
  N  N114  1  0.00091370  0.95641898  0.91013452  1.0
  N  N115  1  0.09448398  0.90489463  0.66649091  1.0
  N  N116  1  0.84244410  0.96783331  0.52866555  1.0
  N  N117  1  0.87553061  0.18552575  0.35020706  1.0
  O  O118  1  0.52422134  0.90270336  0.68987326  1.0
  O  O119  1  0.99866332  0.47239442  0.17871253  1.0
