# generated using pymatgen
data_Al2H5C12NO12
_symmetry_space_group_name_H-M   'P 1'
_cell_length_a   6.68938857
_cell_length_b   14.78534947
_cell_length_c   16.75918091
_cell_angle_alpha   93.62182453
_cell_angle_beta   89.99916457
_cell_angle_gamma   89.99971534
_symmetry_Int_Tables_number   1
_chemical_formula_structural   Al2H5C12NO12
_chemical_formula_sum   'Al4 H10 C24 N2 O24'
_cell_volume   1654.25531941
_cell_formula_units_Z   2
loop_
 _symmetry_equiv_pos_site_id
 _symmetry_equiv_pos_as_xyz
  1  'x, y, z'
loop_
 _atom_site_type_symbol
 _atom_site_label
 _atom_site_symmetry_multiplicity
 _atom_site_fract_x
 _atom_site_fract_y
 _atom_site_fract_z
 _atom_site_occupancy
  Al  Al0  1  0.88622640  0.49907683  0.49963655  1.0
  Al  Al1  1  0.38624348  0.50093187  0.50035316  1.0
  Al  Al2  1  0.37122179  0.99996696  0.00056001  1.0
  Al  Al3  1  0.87120798  0.00006622  0.99942973  1.0
  H  H4  1  0.42507646  0.18165893  0.19727314  1.0
  H  H5  1  0.92499394  0.81851449  0.80254838  1.0
  H  H6  1  0.96386682  0.18837278  0.20921101  1.0
  H  H7  1  0.46375924  0.81162941  0.79081019  1.0
  H  H8  1  0.98945251  0.31475257  0.28925801  1.0
  H  H9  1  0.48954148  0.68510750  0.71087740  1.0
  H  H10  1  0.63390962  0.38062552  0.48401119  1.0
  H  H11  1  0.13387737  0.61941934  0.51566228  1.0
  H  H12  1  0.62060230  0.11501620  0.98236175  1.0
  H  H13  1  0.12058285  0.88500326  0.01759517  1.0
  C  C14  1  0.63657100  0.60692507  0.39644471  1.0
  C  C15  1  0.13652140  0.39311938  0.60356058  1.0
  C  C16  1  0.63811032  0.61088789  0.61186017  1.0
  C  C17  1  0.13822004  0.38913097  0.38810925  1.0
  C  C18  1  0.28117041  0.20419809  0.22222335  1.0
  C  C19  1  0.78107846  0.79592208  0.77765836  1.0
  C  C20  1  0.11319015  0.17102369  0.18706307  1.0
  C  C21  1  0.61315358  0.82901237  0.81289804  1.0
  C  C22  1  0.28563728  0.26870784  0.29121253  1.0
  C  C23  1  0.78547041  0.73144835  0.70864404  1.0
  C  C24  1  0.13364849  0.32146229  0.31939549  1.0
  C  C25  1  0.63357940  0.67854996  0.68059428  1.0
  C  C26  1  0.12451412  0.16959000  0.83399113  1.0
  C  C27  1  0.62444603  0.83048553  0.16605902  1.0
  C  C28  1  0.12843291  0.22219195  0.78054101  1.0
  C  C29  1  0.62830822  0.77788999  0.21949538  1.0
  C  C30  1  0.13216805  0.28017386  0.72149660  1.0
  C  C31  1  0.63208648  0.71987935  0.27851707  1.0
  C  C32  1  0.13585662  0.33259542  0.66794612  1.0
  C  C33  1  0.63581114  0.66745438  0.33206754  1.0
  C  C34  1  0.62015119  0.89139619  0.88559229  1.0
  C  C35  1  0.12015346  0.10862487  0.11438675  1.0
  C  C36  1  0.62240351  0.89251608  0.10319500  1.0
  C  C37  1  0.12245163  0.10754576  0.89681511  1.0
  N  N38  1  0.48782361  0.27487739  0.32876590  1.0
  N  N39  1  0.98744808  0.72548766  0.67087898  1.0
  O  O40  1  0.46716999  0.58604977  0.58512080  1.0
  O  O41  1  0.96732068  0.41385755  0.41496382  1.0
  O  O42  1  0.80701907  0.58284450  0.42111524  1.0
  O  O43  1  0.30694903  0.41706627  0.57875455  1.0
  O  O44  1  0.80686616  0.58296983  0.58562054  1.0
  O  O45  1  0.30701823  0.41716959  0.41423120  1.0
  O  O46  1  0.96586576  0.41524378  0.57773039  1.0
  O  O47  1  0.46591763  0.58490596  0.42237683  1.0
  O  O48  1  0.63545714  0.44564028  0.49655265  1.0
  O  O49  1  0.13544822  0.55435969  0.50340783  1.0
  O  O50  1  0.79202242  0.91693602  0.07768141  1.0
  O  O51  1  0.29208944  0.08307609  0.92227865  1.0
  O  O52  1  0.45012605  0.91484067  0.91461859  1.0
  O  O53  1  0.95009841  0.08514428  0.08540564  1.0
  O  O54  1  0.45174764  0.91677238  0.07856025  1.0
  O  O55  1  0.95178803  0.08331587  0.92147110  1.0
  O  O56  1  0.29076906  0.08497654  0.08630225  1.0
  O  O57  1  0.79081043  0.91507552  0.91364883  1.0
  O  O58  1  0.62116171  0.05471579  0.00197307  1.0
  O  O59  1  0.12116256  0.94530913  0.99799401  1.0
  O  O60  1  0.62230533  0.30238839  0.28565153  1.0
  O  O61  1  0.50884864  0.24855338  0.39657767  1.0
  O  O62  1  0.12234204  0.69805351  0.71384300  1.0
  O  O63  1  0.00788402  0.75191442  0.60308395  1.0
