# generated using pymatgen
data_Zn2H17C30S2N8O9
_symmetry_space_group_name_H-M   'P 1'
_cell_length_a   18.96942679
_cell_length_b   19.12262007
_cell_length_c   19.53100092
_cell_angle_alpha   102.75219168
_cell_angle_beta   111.67443730
_cell_angle_gamma   109.48649279
_symmetry_Int_Tables_number   1
_chemical_formula_structural   Zn2H17C30S2N8O9
_chemical_formula_sum   'Zn4 H34 C60 S4 N16 O18'
_cell_volume   5708.41531027
_cell_formula_units_Z   2
loop_
 _symmetry_equiv_pos_site_id
 _symmetry_equiv_pos_as_xyz
  1  'x, y, z'
loop_
 _atom_site_type_symbol
 _atom_site_label
 _atom_site_symmetry_multiplicity
 _atom_site_fract_x
 _atom_site_fract_y
 _atom_site_fract_z
 _atom_site_occupancy
  Zn  Zn0  1  0.11905358  0.60522271  0.98631393  1.0
  Zn  Zn1  1  0.89459191  0.40410663  0.01566015  1.0
  Zn  Zn2  1  0.88360434  0.50044061  0.87149747  1.0
  Zn  Zn3  1  0.12681084  0.50010679  0.12647550  1.0
  H  H4  1  0.34895669  0.02588260  0.52832792  1.0
  H  H5  1  0.12537362  0.32856427  0.13554608  1.0
  H  H6  1  0.37838407  0.88957146  0.51814536  1.0
  H  H7  1  0.55553174  0.13585872  0.50471926  1.0
  H  H8  1  0.09491763  0.85461349  0.13386050  1.0
  H  H9  1  0.15832331  0.90266581  0.09296975  1.0
  H  H10  1  0.20667055  0.88152933  0.17906814  1.0
  H  H11  1  0.83070190  0.10952722  0.90185882  1.0
  H  H12  1  0.88897176  0.13767234  0.84981522  1.0
  H  H13  1  0.78124998  0.12439044  0.81175009  1.0
  H  H14  1  0.60300254  0.91710303  0.59646548  1.0
  H  H15  1  0.58603078  0.00008901  0.49590738  1.0
  H  H16  1  0.50809597  0.87259484  0.60453345  1.0
  H  H17  1  0.61045739  0.92801350  0.69292926  1.0
  H  H18  1  0.41740259  0.15343677  0.42378943  1.0
  H  H19  1  0.32332223  0.09976471  0.42955005  1.0
  H  H20  1  0.31616507  0.09523356  0.33429993  1.0
  H  H21  1  0.87513305  0.33639418  0.25629396  1.0
  H  H22  1  0.19865975  0.58228791  0.76086756  1.0
  H  H23  1  0.74203075  0.66443846  0.95495561  1.0
  H  H24  1  0.64714969  0.57236993  0.88380515  1.0
  H  H25  1  0.70353022  0.63928208  0.84935060  1.0
  H  H26  1  0.82193125  0.49320457  0.10227620  1.0
  H  H27  1  0.35412036  0.41154476  0.10751989  1.0
  H  H28  1  0.25604681  0.32856407  0.02676226  1.0
  H  H29  1  0.28593280  0.33828189  0.12838766  1.0
  H  H30  1  0.42422896  0.69137917  0.35979251  1.0
  H  H31  1  0.65689179  0.27380053  0.61125061  1.0
  H  H32  1  0.22420339  0.54035709  0.92072877  1.0
  H  H33  1  0.27565032  0.79036070  0.13423501  1.0
  H  H34  1  0.70437877  0.23441161  0.89318665  1.0
  H  H35  1  0.13609459  0.60216728  0.30004563  1.0
  H  H36  1  0.86737217  0.38867112  0.70295973  1.0
  H  H37  1  0.87303538  0.66284439  0.84812047  1.0
  C  C38  1  0.05906627  0.73561488  0.00750868  1.0
  C  C39  1  0.41870612  0.02316349  0.44827729  1.0
  C  C40  1  0.41833102  0.94490145  0.51642080  1.0
  C  C41  1  0.51645149  0.08084130  0.50774179  1.0
  C  C42  1  0.36196877  0.82112473  0.30866184  1.0
  C  C43  1  0.59626407  0.20228169  0.71880434  1.0
  C  C44  1  0.53386390  0.00614579  0.50367522  1.0
  C  C45  1  0.40138535  0.02003490  0.52095223  1.0
  C  C46  1  0.43596562  0.94723798  0.44347675  1.0
  C  C47  1  0.49949220  0.07869373  0.58094292  1.0
  C  C48  1  0.40038136  0.87965677  0.37194966  1.0
  C  C49  1  0.94290458  0.26987376  0.97682022  1.0
  C  C50  1  0.54296259  0.14661541  0.65421624  1.0
  C  C51  1  0.00799503  0.51267259  0.34327308  1.0
  C  C52  1  0.99143432  0.47846451  0.65500569  1.0
  C  C53  1  0.94289218  0.45251827  0.19337831  1.0
  C  C54  1  0.05856145  0.54186018  0.80514100  1.0
  C  C55  1  0.00477152  0.50648187  0.40362624  1.0
  C  C56  1  0.99508816  0.48243213  0.59422294  1.0
  C  C57  1  0.00173954  0.49841814  0.46895085  1.0
  C  C58  1  0.99826944  0.48948083  0.52864323  1.0
  C  C59  1  0.33181996  0.47187175  0.99426510  1.0
  C  C60  1  0.00797569  0.50957089  0.27127848  1.0
  C  C61  1  0.69251228  0.53614682  0.01425412  1.0
  C  C62  1  0.39955836  0.48042129  0.99514103  1.0
  C  C63  1  0.62397061  0.52519278  0.01258978  1.0
  C  C64  1  0.47575114  0.49419468  0.00038378  1.0
  C  C65  1  0.54740377  0.50990385  0.00706490  1.0
  C  C66  1  0.99259862  0.82719876  0.97215852  1.0
  C  C67  1  0.99813157  0.16931881  0.00889200  1.0
  C  C68  1  0.99117732  0.89232618  0.97918186  1.0
  C  C69  1  0.99738820  0.10339114  0.00222480  1.0
  C  C70  1  0.99250170  0.96421378  0.98722170  1.0
  C  C71  1  0.99258378  0.48365459  0.72779725  1.0
  C  C72  1  0.99483987  0.03107971  0.99440438  1.0
  C  C73  1  0.79106178  0.55108626  0.95237663  1.0
  C  C74  1  0.22524964  0.45352985  0.04785967  1.0
  C  C75  1  0.26429623  0.67158628  0.23107455  1.0
  C  C76  1  0.72186293  0.33858777  0.78306560  1.0
  C  C77  1  0.82052461  0.51033690  0.05260037  1.0
  C  C78  1  0.21600259  0.51405920  0.96269244  1.0
  C  C79  1  0.26455463  0.74417848  0.15814310  1.0
  C  C80  1  0.71867507  0.27487700  0.86367809  1.0
  C  C81  1  0.07350709  0.55273174  0.25649514  1.0
  C  C82  1  0.76485944  0.53776129  0.00985541  1.0
  C  C83  1  0.93003225  0.43886999  0.74477275  1.0
  C  C84  1  0.93410607  0.67791175  0.89711108  1.0
  C  C85  1  0.06638984  0.31858590  0.08721088  1.0
  C  C86  1  0.99445859  0.75334024  0.96152461  1.0
  C  C87  1  0.00173131  0.24550567  0.02130733  1.0
  C  C88  1  0.14871184  0.86034201  0.12246212  1.0
  C  C89  1  0.84126415  0.14465561  0.86591910  1.0
  C  C90  1  0.57181196  0.92460909  0.63337358  1.0
  C  C91  1  0.35598373  0.09823646  0.39325125  1.0
  C  C92  1  0.71012689  0.61508077  0.89595437  1.0
  C  C93  1  0.26040886  0.47409730  0.99795077  1.0
  C  C94  1  0.28777301  0.37123458  0.08928716  1.0
  C  C95  1  0.30521311  0.75158890  0.23786643  1.0
  C  C96  1  0.66937611  0.26758359  0.78561086  1.0
  C  C97  1  0.51591537  0.00238744  0.57582810  1.0
  S  S98  1  0.84240564  0.37434797  0.15946304  1.0
  S  S99  1  0.15218920  0.62723120  0.83582606  1.0
  S  S100  1  0.28850670  0.62663609  0.29854048  1.0
  S  S101  1  0.70141260  0.37956361  0.71168603  1.0
  N  N102  1  0.03864483  0.65741280  0.97254261  1.0
  N  N103  1  0.16221050  0.51862651  0.99056577  1.0
  N  N104  1  0.20357716  0.66750288  0.11043984  1.0
  N  N105  1  0.79337670  0.34323007  0.90138664  1.0
  N  N106  1  0.04896987  0.52232694  0.17749206  1.0
  N  N107  1  0.95719051  0.46939148  0.82457355  1.0
  N  N108  1  0.96069314  0.62221451  0.90341799  1.0
  N  N109  1  0.04722440  0.37888454  0.08292913  1.0
  N  N110  1  0.97045372  0.34963684  0.01424590  1.0
  N  N111  1  0.96873062  0.46114197  0.13949130  1.0
  N  N112  1  0.03652637  0.53161771  0.86098185  1.0
  N  N113  1  0.85481855  0.53187237  0.96072157  1.0
  N  N114  1  0.16716852  0.48033978  0.04273538  1.0
  N  N115  1  0.20346773  0.62293523  0.15513898  1.0
  N  N116  1  0.79614516  0.38171793  0.85154995  1.0
  N  N117  1  0.87242107  0.50528657  0.02189541  1.0
  O  O118  1  0.13433338  0.78289732  0.07457412  1.0
  O  O119  1  0.21243325  0.59239980  0.81684476  1.0
  O  O120  1  0.76173156  0.57501820  0.89245806  1.0
  O  O121  1  0.24243345  0.41667048  0.09879055  1.0
  O  O122  1  0.29225347  0.66707056  0.37213041  1.0
  O  O123  1  0.23428814  0.54030822  0.25336384  1.0
  O  O124  1  0.38242512  0.63772214  0.31756087  1.0
  O  O125  1  0.61650728  0.37112331  0.67976139  1.0
  O  O126  1  0.77465393  0.45803406  0.74503874  1.0
  O  O127  1  0.70897764  0.32568445  0.64064415  1.0
  O  O128  1  0.86804670  0.22836106  0.90857119  1.0
  O  O129  1  0.56618596  0.99880775  0.64544665  1.0
  O  O130  1  0.36808015  0.02729128  0.37919472  1.0
  O  O131  1  0.79400427  0.40342688  0.18849347  1.0
  O  O132  1  0.80941993  0.33097204  0.07490817  1.0
  O  O133  1  0.86395966  0.31486374  0.20078435  1.0
  O  O134  1  0.13638362  0.67411162  0.78944129  1.0
  O  O135  1  0.19346183  0.66273834  0.92269936  1.0
