# generated using pymatgen
data_ZnH8C16N3Cl3O4
_symmetry_space_group_name_H-M   'P 1'
_cell_length_a   13.76425687
_cell_length_b   14.23394830
_cell_length_c   15.22102497
_cell_angle_alpha   91.34887669
_cell_angle_beta   90.77664109
_cell_angle_gamma   95.40567270
_symmetry_Int_Tables_number   1
_chemical_formula_structural   ZnH8C16N3Cl3O4
_chemical_formula_sum   'Zn2 H16 C32 N6 Cl6 O8'
_cell_volume   2967.64111190
_cell_formula_units_Z   2
loop_
 _symmetry_equiv_pos_site_id
 _symmetry_equiv_pos_as_xyz
  1  'x, y, z'
loop_
 _atom_site_type_symbol
 _atom_site_label
 _atom_site_symmetry_multiplicity
 _atom_site_fract_x
 _atom_site_fract_y
 _atom_site_fract_z
 _atom_site_occupancy
  Zn  Zn0  1  0.51623673  0.39619065  0.49811912  1.0
  Zn  Zn1  1  0.49251432  0.60499976  0.50093796  1.0
  H  H2  1  0.54271801  0.35830044  0.05760938  1.0
  H  H3  1  0.66215534  0.79124285  0.64294128  1.0
  H  H4  1  0.37886268  0.29984057  0.39989875  1.0
  H  H5  1  0.33508754  0.18907213  0.36542363  1.0
  H  H6  1  0.59392926  0.90705651  0.70227846  1.0
  H  H7  1  0.58442307  0.01758486  0.66040855  1.0
  H  H8  1  0.43367787  0.98524319  0.32980698  1.0
  H  H9  1  0.41840086  0.09633643  0.29282878  1.0
  H  H10  1  0.53530750  0.64367852  0.94414509  1.0
  H  H11  1  0.54249370  0.35951778  0.22152517  1.0
  H  H12  1  0.54420849  0.64291957  0.78137256  1.0
  H  H13  1  0.43296946  0.63161983  0.22566243  1.0
  H  H14  1  0.45738528  0.34516841  0.77099507  1.0
  H  H15  1  0.42960705  0.63054225  0.06167023  1.0
  H  H16  1  0.44336865  0.34566861  0.93411589  1.0
  H  H17  1  0.58366554  0.68943255  0.63822123  1.0
  C  C18  1  0.49206646  0.49619914  0.33148979  1.0
  C  C19  1  0.59600063  0.20650445  0.52642389  1.0
  C  C20  1  0.53535798  0.80296900  0.57594458  1.0
  C  C21  1  0.46454379  0.19503549  0.42986209  1.0
  C  C22  1  0.53934737  0.90412144  0.57816907  1.0
  C  C23  1  0.47068520  0.09492121  0.41836741  1.0
  C  C24  1  0.49319105  0.94980951  0.50851116  1.0
  C  C25  1  0.51722368  0.04800084  0.48641993  1.0
  C  C26  1  0.31606403  0.46531201  0.50570166  1.0
  C  C27  1  0.68874354  0.55348163  0.49097794  1.0
  C  C28  1  0.79434876  0.56539388  0.48865394  1.0
  C  C29  1  0.51083131  0.49236631  0.66834135  1.0
  C  C30  1  0.21069126  0.45783472  0.50043266  1.0
  C  C31  1  0.98299204  0.55562191  0.49102961  1.0
  C  C32  1  0.02238470  0.47020211  0.49339459  1.0
  C  C33  1  0.12250142  0.46157585  0.49631918  1.0
  C  C34  1  0.88286778  0.56387468  0.48902013  1.0
  C  C35  1  0.51681824  0.41768897  0.09410897  1.0
  C  C36  1  0.51657378  0.57821629  0.90639519  1.0
  C  C37  1  0.51770253  0.41823144  0.18542844  1.0
  C  C38  1  0.52290190  0.57780303  0.81529786  1.0
  C  C39  1  0.48831715  0.49572538  0.23325126  1.0
  C  C40  1  0.45575063  0.57142239  0.09647450  1.0
  C  C41  1  0.50282639  0.49357150  0.76609550  1.0
  C  C42  1  0.45677051  0.57215232  0.18793805  1.0
  C  C43  1  0.47443421  0.41003617  0.80983993  1.0
  C  C44  1  0.46748629  0.41066402  0.90088105  1.0
  C  C45  1  0.48645068  0.49451825  0.04789206  1.0
  C  C46  1  0.48942304  0.49455434  0.95098116  1.0
  C  C47  1  0.41063642  0.88986005  0.47104647  1.0
  C  C48  1  0.59797549  0.10947727  0.52595759  1.0
  C  C49  1  0.40799530  0.79229379  0.47473121  1.0
  N  N50  1  0.47600478  0.74913091  0.52010034  1.0
  N  N51  1  0.52340514  0.24891213  0.48600773  1.0
  N  N52  1  0.59207072  0.76198563  0.63612844  1.0
  N  N53  1  0.39536547  0.23367182  0.38066711  1.0
  N  N54  1  0.58807916  0.94772510  0.64894032  1.0
  N  N55  1  0.42631051  0.05386546  0.34446322  1.0
  Cl  Cl56  1  0.94462497  0.36710190  0.49342533  1.0
  Cl  Cl57  1  0.06098884  0.65860961  0.49100262  1.0
  Cl  Cl58  1  0.30190075  0.93529250  0.44513017  1.0
  Cl  Cl59  1  0.70979773  0.06655203  0.54499487  1.0
  Cl  Cl60  1  0.31471443  0.72113993  0.42485791  1.0
  Cl  Cl61  1  0.68860615  0.27923349  0.57515460  1.0
  O  O62  1  0.51757468  0.42185661  0.36692434  1.0
  O  O63  1  0.53080122  0.57111159  0.63072463  1.0
  O  O64  1  0.46951618  0.57035795  0.37208285  1.0
  O  O65  1  0.49686599  0.41253536  0.62839915  1.0
  O  O66  1  0.35943920  0.39370665  0.48224473  1.0
  O  O67  1  0.64232701  0.62587733  0.48116993  1.0
  O  O68  1  0.35570437  0.54465865  0.53365518  1.0
  O  O69  1  0.65400664  0.46922792  0.50379603  1.0
