# generated using pymatgen
data_AlH5C11ClO5F
_symmetry_space_group_name_H-M   'P 1'
_cell_length_a   6.68262215
_cell_length_b   11.09916950
_cell_length_c   15.24923802
_cell_angle_alpha   91.26838805
_cell_angle_beta   100.61800178
_cell_angle_gamma   106.36777751
_symmetry_Int_Tables_number   1
_chemical_formula_structural   AlH5C11ClO5F
_chemical_formula_sum   'Al2 H10 C22 Cl2 O10 F2'
_cell_volume   1063.34477661
_cell_formula_units_Z   2
loop_
 _symmetry_equiv_pos_site_id
 _symmetry_equiv_pos_as_xyz
  1  'x, y, z'
loop_
 _atom_site_type_symbol
 _atom_site_label
 _atom_site_symmetry_multiplicity
 _atom_site_fract_x
 _atom_site_fract_y
 _atom_site_fract_z
 _atom_site_occupancy
  Al  Al0  1  0.00000121  0.49999857  0.49999879  1.0
  Al  Al1  1  0.49999926  0.49999646  0.49999921  1.0
  H  H2  1  0.33415724  0.58395711  0.60508650  1.0
  H  H3  1  0.66584551  0.41603819  0.39491231  1.0
  H  H4  1  0.75341370  0.12299173  0.44398266  1.0
  H  H5  1  0.24658032  0.87700273  0.55601709  1.0
  H  H6  1  0.33439621  0.46359754  0.05353384  1.0
  H  H7  1  0.66559755  0.53640727  0.94646543  1.0
  H  H8  1  0.15263040  0.45387973  0.76029988  1.0
  H  H9  1  0.25405178  0.45737619  0.92305155  1.0
  H  H10  1  0.84737280  0.54612432  0.23970473  1.0
  H  H11  1  0.74594727  0.54263444  0.07695197  1.0
  C  C12  1  0.80703718  0.49148134  0.66043857  1.0
  C  C13  1  0.86069120  0.72676866  0.49994633  1.0
  C  C14  1  0.19296490  0.50851968  0.33956157  1.0
  C  C15  1  0.13930990  0.27322764  0.50005348  1.0
  C  C16  1  0.92470742  0.86715342  0.49726765  1.0
  C  C17  1  0.07528401  0.13284015  0.50273303  1.0
  C  C18  1  0.78521936  0.93747759  0.46444485  1.0
  C  C19  1  0.21476858  0.06251606  0.53555696  1.0
  C  C20  1  0.86151540  0.06827993  0.46805652  1.0
  C  C21  1  0.13847328  0.93171367  0.53194448  1.0
  C  C22  1  0.14531422  0.50944436  0.24016610  1.0
  C  C23  1  0.85468590  0.49056234  0.75983406  1.0
  C  C24  1  0.27731862  0.48755956  0.18391558  1.0
  C  C25  1  0.22308711  0.48375071  0.09142487  1.0
  C  C26  1  0.72267829  0.51244701  0.81608133  1.0
  C  C27  1  0.77690850  0.51625502  0.90857428  1.0
  C  C28  1  0.04671836  0.47087409  0.80235446  1.0
  C  C29  1  0.10299596  0.47344877  0.89471345  1.0
  C  C30  1  0.95327957  0.52913351  0.19764459  1.0
  C  C31  1  0.89700198  0.52656089  0.10528939  1.0
  C  C32  1  0.03001244  0.50288985  0.04943768  1.0
  C  C33  1  0.96998300  0.49711886  0.95056463  1.0
  Cl  Cl34  1  0.52099513  0.86859815  0.41597287  1.0
  Cl  Cl35  1  0.47899575  0.13138802  0.58403080  1.0
  O  O36  1  0.96502398  0.50488424  0.62192915  1.0
  O  O37  1  0.67461257  0.67289306  0.51230246  1.0
  O  O38  1  0.38327383  0.51979806  0.37835060  1.0
  O  O39  1  0.99625346  0.32614595  0.50715504  1.0
  O  O40  1  0.03497975  0.49511579  0.37806999  1.0
  O  O41  1  0.32538984  0.32709676  0.48770022  1.0
  O  O42  1  0.61673144  0.48020103  0.62164899  1.0
  O  O43  1  0.00374539  0.67385211  0.49284160  1.0
  O  O44  1  0.29297502  0.55381641  0.54234760  1.0
  O  O45  1  0.70702498  0.44617893  0.45765154  1.0
  F  F46  1  0.46501104  0.46484172  0.21834137  1.0
  F  F47  1  0.53498853  0.53516488  0.78165668  1.0
