# generated using pymatgen
data_ZnH17C23NCl2O5
_symmetry_space_group_name_H-M   'P 1'
_cell_length_a   13.96839779
_cell_length_b   15.32226237
_cell_length_c   17.14250079
_cell_angle_alpha   90.66408665
_cell_angle_beta   100.46896622
_cell_angle_gamma   92.11445478
_symmetry_Int_Tables_number   1
_chemical_formula_structural   ZnH17C23NCl2O5
_chemical_formula_sum   'Zn2 H34 C46 N2 Cl4 O10'
_cell_volume   3604.80888829
_cell_formula_units_Z   2
loop_
 _symmetry_equiv_pos_site_id
 _symmetry_equiv_pos_as_xyz
  1  'x, y, z'
loop_
 _atom_site_type_symbol
 _atom_site_label
 _atom_site_symmetry_multiplicity
 _atom_site_fract_x
 _atom_site_fract_y
 _atom_site_fract_z
 _atom_site_occupancy
  Zn  Zn0  1  0.60305374  0.50125256  0.49961513  1.0
  Zn  Zn1  1  0.39953652  0.49760103  0.49667289  1.0
  H  H2  1  0.39182494  0.58564945  0.71429149  1.0
  H  H3  1  0.60936387  0.59770957  0.02013849  1.0
  H  H4  1  0.68605335  0.54748439  0.91821886  1.0
  H  H5  1  0.30783060  0.53935918  0.07929311  1.0
  H  H6  1  0.60670834  0.63494980  0.14377350  1.0
  H  H7  1  0.39036226  0.63008610  0.85359334  1.0
  H  H8  1  0.64609517  0.06845463  0.46608855  1.0
  H  H9  1  0.36156790  0.93046282  0.43208499  1.0
  H  H10  1  0.63851860  0.23079339  0.46713518  1.0
  H  H11  1  0.36654328  0.76790068  0.43845835  1.0
  H  H12  1  0.36259208  0.05143363  0.53196157  1.0
  H  H13  1  0.60547574  0.59109941  0.28243510  1.0
  H  H14  1  0.65205672  0.95050450  0.57068757  1.0
  H  H15  1  0.01835374  0.47620201  0.72458777  1.0
  H  H16  1  0.01743110  0.55746137  0.65108944  1.0
  H  H17  1  0.19452572  0.51159885  0.77587389  1.0
  H  H18  1  0.19693730  0.58991183  0.70118052  1.0
  H  H19  1  0.07590251  0.67927149  0.75698273  1.0
  H  H20  1  0.18022514  0.66267251  0.83039583  1.0
  H  H21  1  0.07061192  0.60068326  0.83147809  1.0
  H  H22  1  0.99397835  0.76913276  0.54945527  1.0
  H  H23  1  0.87970273  0.72348371  0.56474442  1.0
  H  H24  1  0.27479048  0.44955594  0.61443967  1.0
  H  H25  1  0.91499074  0.79544909  0.40580589  1.0
  H  H26  1  0.80038189  0.76785333  0.43100951  1.0
  H  H27  1  0.82956423  0.88786600  0.53754778  1.0
  H  H28  1  0.83140712  0.93025807  0.44189226  1.0
  H  H29  1  0.94246459  0.91666743  0.50898384  1.0
  H  H30  1  0.75694928  0.63652232  0.48835254  1.0
  H  H31  1  0.22244639  0.54072205  0.38426704  1.0
  H  H32  1  0.75277429  0.36985602  0.52241738  1.0
  H  H33  1  0.04308059  0.55010567  0.38529659  1.0
  H  H34  1  0.93404811  0.36371173  0.52576720  1.0
  H  H35  1  0.38552742  0.59283067  0.97747406  1.0
  C  C36  1  0.49964981  0.33098620  0.49638883  1.0
  C  C37  1  0.59145035  0.82037188  0.54260398  1.0
  C  C38  1  0.42300011  0.08990854  0.51586507  1.0
  C  C39  1  0.58981124  0.91122254  0.53958799  1.0
  C  C40  1  0.50439031  0.04824195  0.49840197  1.0
  C  C41  1  0.50697455  0.95190639  0.49984110  1.0
  C  C42  1  0.12247553  0.47277107  0.57008543  1.0
  C  C43  1  0.90036016  0.58071856  0.49650055  1.0
  C  C44  1  0.22094881  0.47066772  0.56463819  1.0
  C  C45  1  0.79986485  0.57815442  0.49560812  1.0
  C  C46  1  0.19097589  0.52261821  0.43585335  1.0
  C  C47  1  0.51059463  0.66978643  0.50305042  1.0
  C  C48  1  0.79762520  0.42773253  0.51484766  1.0
  C  C49  1  0.09222244  0.52710835  0.43708507  1.0
  C  C50  1  0.89722485  0.42516364  0.51614195  1.0
  C  C51  1  0.52848968  0.51493611  0.65108550  1.0
  C  C52  1  0.46681791  0.51666137  0.34567389  1.0
  C  C53  1  0.05569082  0.50122788  0.50447847  1.0
  C  C54  1  0.95012944  0.50183811  0.50543837  1.0
  C  C55  1  0.53779998  0.54196105  0.73653479  1.0
  C  C56  1  0.45762761  0.54192244  0.26038379  1.0
  C  C57  1  0.45588545  0.57776733  0.76011992  1.0
  C  C58  1  0.58277912  0.09982687  0.48102360  1.0
  C  C59  1  0.54053249  0.58078779  0.23684676  1.0
  C  C60  1  0.45523421  0.60209917  0.83803713  1.0
  C  C61  1  0.54102308  0.60452647  0.15924246  1.0
  C  C62  1  0.53754152  0.58932615  0.89723368  1.0
  C  C63  1  0.45773558  0.58798544  0.10018524  1.0
  C  C64  1  0.62124580  0.55764119  0.87367604  1.0
  C  C65  1  0.37334332  0.55273685  0.12367267  1.0
  C  C66  1  0.62174128  0.53440162  0.79483561  1.0
  C  C67  1  0.37300217  0.53022228  0.20223523  1.0
  C  C68  1  0.53768440  0.59907149  0.98184901  1.0
  C  C69  1  0.42608069  0.89955618  0.46362677  1.0
  C  C70  1  0.45738478  0.59746443  0.01571110  1.0
  C  C71  1  0.06373746  0.51134888  0.68818527  1.0
  C  C72  1  0.15032391  0.55948500  0.73959868  1.0
  C  C73  1  0.11740829  0.62923754  0.79249887  1.0
  C  C74  1  0.92508305  0.73690418  0.51972811  1.0
  C  C75  1  0.87409636  0.79487579  0.45498750  1.0
  C  C76  1  0.86900952  0.88765360  0.48764746  1.0
  C  C77  1  0.57846649  0.19020163  0.48117527  1.0
  C  C78  1  0.42883356  0.80909533  0.46655370  1.0
  C  C79  1  0.49728230  0.23298703  0.49831545  1.0
  C  C80  1  0.51168841  0.76768970  0.50515194  1.0
  C  C81  1  0.41926655  0.18086008  0.51619076  1.0
  N  N82  1  0.25376716  0.49495587  0.49894979  1.0
  N  N83  1  0.75061575  0.50285825  0.50393979  1.0
  Cl  Cl84  1  0.26593276  0.48222849  0.22256027  1.0
  Cl  Cl85  1  0.72755177  0.49117032  0.77411134  1.0
  Cl  Cl86  1  0.31733778  0.22441490  0.54383169  1.0
  Cl  Cl87  1  0.69205275  0.77444517  0.59997463  1.0
  O  O88  1  0.58388292  0.36910110  0.51239928  1.0
  O  O89  1  0.95456304  0.65479701  0.49013837  1.0
  O  O90  1  0.43425275  0.63091321  0.51783808  1.0
  O  O91  1  0.41937348  0.36823186  0.47804858  1.0
  O  O92  1  0.58441885  0.63448123  0.48430162  1.0
  O  O93  1  0.60222174  0.52601593  0.61816161  1.0
  O  O94  1  0.39330236  0.52548434  0.37892064  1.0
  O  O95  1  0.44447286  0.48491542  0.61754479  1.0
  O  O96  1  0.54979985  0.49070851  0.37854374  1.0
  O  O97  1  0.09382753  0.44414351  0.63810724  1.0
