# generated using pymatgen
data_AlH33(C8O)6
_symmetry_space_group_name_H-M   'P 1'
_cell_length_a   3.93875984
_cell_length_b   23.46798687
_cell_length_c   23.49336527
_cell_angle_alpha   60.21034174
_cell_angle_beta   89.56017819
_cell_angle_gamma   85.49406274
_symmetry_Int_Tables_number   1
_chemical_formula_structural   AlH33(C8O)6
_chemical_formula_sum   'Al1 H33 C48 O6'
_cell_volume   1877.57813323
_cell_formula_units_Z   1
loop_
 _symmetry_equiv_pos_site_id
 _symmetry_equiv_pos_as_xyz
  1  'x, y, z'
loop_
 _atom_site_type_symbol
 _atom_site_label
 _atom_site_symmetry_multiplicity
 _atom_site_fract_x
 _atom_site_fract_y
 _atom_site_fract_z
 _atom_site_occupancy
  Al  Al0  1  0.01594944  0.99997370  0.50112050  1.0
  H  H1  1  0.47166132  0.99895633  0.68216246  1.0
  H  H2  1  0.46980123  0.93950304  0.80383218  1.0
  H  H3  1  0.16485019  0.88234170  0.89191003  1.0
  H  H4  1  0.15544234  0.82247763  0.01237036  1.0
  H  H5  1  0.52663889  0.94045033  0.25629422  1.0
  H  H6  1  0.75295752  0.87789997  0.22378480  1.0
  H  H7  1  0.74484769  0.81722511  0.16438921  1.0
  H  H8  1  0.47413477  0.78843702  0.10541706  1.0
  H  H9  1  0.43156748  0.82421951  0.49726886  1.0
  H  H10  1  0.42866550  0.76080051  0.43886481  1.0
  H  H11  1  0.20163649  0.72991795  0.37940778  1.0
  H  H12  1  0.19627016  0.66908367  0.32015891  1.0
  H  H13  1  0.43589089  0.30574625  0.43832421  1.0
  H  H14  1  0.72116500  0.38997824  0.38144671  1.0
  H  H15  1  0.73218118  0.51006933  0.32166455  1.0
  H  H16  1  0.45169256  0.60630692  0.28785405  1.0
  H  H17  1  0.37950288  0.18124732  0.32011873  1.0
  H  H18  1  0.38722721  0.30280788  0.25665855  1.0
  H  H19  1  0.13558188  0.40140509  0.22136923  1.0
  H  H20  1  0.14872307  0.52144144  0.16147472  1.0
  H  H21  1  0.50278544  0.75558607  0.80399381  1.0
  H  H22  1  0.80099941  0.72131719  0.89809398  1.0
  H  H23  1  0.78874263  0.66125551  0.01857248  1.0
  H  H24  1  0.45382907  0.60591611  0.10510415  1.0
  H  H25  1  0.74458145  0.16190907  0.54000098  1.0
  H  H26  1  0.34788973  0.13011003  0.54498173  1.0
  H  H27  1  0.36514756  0.20847044  0.53952252  1.0
  H  H28  1  0.76889471  0.76835682  0.68836703  1.0
  H  H29  1  0.51952334  0.83251809  0.62138136  1.0
  H  H30  1  0.31951513  0.77053168  0.68979366  1.0
  H  H31  1  0.85923818  0.03114286  0.29955743  1.0
  H  H32  1  0.46480620  0.04934445  0.32549391  1.0
  H  H33  1  0.48088252  0.04278245  0.25293342  1.0
  C  C34  1  0.52844160  0.94966790  0.60240538  1.0
  C  C35  1  0.46968242  0.10178507  0.44910247  1.0
  C  C36  1  0.53361228  0.94915674  0.45039451  1.0
  C  C37  1  0.48468544  0.94527995  0.70968595  1.0
  C  C38  1  0.47934664  0.91190227  0.77770058  1.0
  C  C39  1  0.30934068  0.83444089  0.91944466  1.0
  C  C40  1  0.30418074  0.80062064  0.98756876  1.0
  C  C41  1  0.54568573  0.94947717  0.34227805  1.0
  C  C42  1  0.52101931  0.91366275  0.30976638  1.0
  C  C43  1  0.62132826  0.83301126  0.24468040  1.0
  C  C44  1  0.61753847  0.79841526  0.21093081  1.0
  C  C45  1  0.51505619  0.91063400  0.67524875  1.0
  C  C46  1  0.49142271  0.84268917  0.81313886  1.0
  C  C47  1  0.48340520  0.80656464  0.88541698  1.0
  C  C48  1  0.47165457  0.73725042  0.02482338  1.0
  C  C49  1  0.46500565  0.70126058  0.09714310  1.0
  C  C50  1  0.46766932  0.73505332  0.13230922  1.0
  C  C51  1  0.46209346  0.84866287  0.44437024  1.0
  C  C52  1  0.45521666  0.81358363  0.41125863  1.0
  C  C53  1  0.32928587  0.74887103  0.33290142  1.0
  C  C54  1  0.32653541  0.71416002  0.29924263  1.0
  C  C55  1  0.45244660  0.20988553  0.44834680  1.0
  C  C56  1  0.43718059  0.27854225  0.41178173  1.0
  C  C57  1  0.58667258  0.41862075  0.33385448  1.0
  C  C58  1  0.59268231  0.48670779  0.30001694  1.0
  C  C59  1  0.51620396  0.91581960  0.41098112  1.0
  C  C60  1  0.48447109  0.84565237  0.34270212  1.0
  C  C61  1  0.47687363  0.80920429  0.30657588  1.0
  C  C62  1  0.46992312  0.73811438  0.23729523  1.0
  C  C63  1  0.46426588  0.70168755  0.20106823  1.0
  C  C64  1  0.45518936  0.63301367  0.23444305  1.0
  C  C65  1  0.39782948  0.20923926  0.34547318  1.0
  C  C66  1  0.39800195  0.27743092  0.31012667  1.0
  C  C67  1  0.27461093  0.42464515  0.24318492  1.0
  C  C68  1  0.28141764  0.49274860  0.20925708  1.0
  C  C69  1  0.52610402  0.84141912  0.70923636  1.0
  C  C70  1  0.50948960  0.80910025  0.77762092  1.0
  C  C71  1  0.65143164  0.74318373  0.92276204  1.0
  C  C72  1  0.64513716  0.70927410  0.99088453  1.0
  C  C73  1  0.43517170  0.17504404  0.41405938  1.0
  C  C74  1  0.42026301  0.31355747  0.34282153  1.0
  C  C75  1  0.42668156  0.38584921  0.30640825  1.0
  C  C76  1  0.44042492  0.52545054  0.23686288  1.0
  C  C77  1  0.45010185  0.59774001  0.20075302  1.0
  C  C78  1  0.45619363  0.63262330  0.13205048  1.0
  C  C79  1  0.47718276  0.17572303  0.52215618  1.0
  C  C80  1  0.53426525  0.80161493  0.67484959  1.0
  C  C81  1  0.58809081  0.02216395  0.30304462  1.0
  O  O82  1  0.76324047  0.98871859  0.43826611  1.0
  O  O83  1  0.78146248  0.93710503  0.57504228  1.0
  O  O84  1  0.72041151  0.07298393  0.49039572  1.0
  O  O85  1  0.31635278  0.93541606  0.49531351  1.0
  O  O86  1  0.25350471  0.07196863  0.43568373  1.0
  O  O87  1  0.28506330  0.99421599  0.57170050  1.0
