# generated using pymatgen
data_Fe3H40C64(NO)8
_symmetry_space_group_name_H-M   'P 1'
_cell_length_a   14.56504216
_cell_length_b   14.94531413
_cell_length_c   14.94998361
_cell_angle_alpha   110.90169678
_cell_angle_beta   110.16826601
_cell_angle_gamma   105.54229249
_symmetry_Int_Tables_number   1
_chemical_formula_structural   Fe3H40C64(NO)8
_chemical_formula_sum   'Fe3 H40 C64 N8 O8'
_cell_volume   2554.42986899
_cell_formula_units_Z   1
loop_
 _symmetry_equiv_pos_site_id
 _symmetry_equiv_pos_as_xyz
  1  'x, y, z'
loop_
 _atom_site_type_symbol
 _atom_site_label
 _atom_site_symmetry_multiplicity
 _atom_site_fract_x
 _atom_site_fract_y
 _atom_site_fract_z
 _atom_site_occupancy
  Fe  Fe0  1  0.50003925  0.50004678  0.99998750  1.0
  Fe  Fe1  1  0.92311436  0.92769981  0.97381376  1.0
  Fe  Fe2  1  0.07682324  0.07232623  0.02607698  1.0
  H  H3  1  0.03891275  0.69309971  0.97665216  1.0
  H  H4  1  0.69520410  0.05838735  0.98638696  1.0
  H  H5  1  0.30481098  0.94176890  0.01364511  1.0
  H  H6  1  0.96108695  0.30688727  0.02316400  1.0
  H  H7  1  0.66928334  0.67909867  0.62345311  1.0
  H  H8  1  0.32997154  0.32035989  0.37622844  1.0
  H  H9  1  0.11783623  0.06052826  0.37893274  1.0
  H  H10  1  0.88203305  0.93908184  0.62141201  1.0
  H  H11  1  0.90188846  0.74088094  0.02222019  1.0
  H  H12  1  0.71894611  0.86074777  0.02109539  1.0
  H  H13  1  0.28119506  0.13927647  0.97881044  1.0
  H  H14  1  0.09841675  0.25928933  0.97812850  1.0
  H  H15  1  0.70330120  0.69807029  0.84986240  1.0
  H  H16  1  0.29709625  0.30196287  0.15024174  1.0
  H  H17  1  0.86633226  0.84171170  0.17652040  1.0
  H  H18  1  0.13371495  0.15843273  0.82361626  1.0
  H  H19  1  0.77955391  0.52090638  0.95641692  1.0
  H  H20  1  0.55205991  0.73893706  0.04277349  1.0
  H  H21  1  0.44795605  0.26106621  0.95696566  1.0
  H  H22  1  0.22077671  0.47923234  0.04367641  1.0
  H  H23  1  0.58049325  0.52403389  0.83914325  1.0
  H  H24  1  0.41984085  0.47598714  0.16093208  1.0
  H  H25  1  0.71376673  0.69680846  0.18387478  1.0
  H  H26  1  0.28616635  0.30333179  0.81613461  1.0
  H  H27  1  0.14495265  0.58696597  0.98367018  1.0
  H  H28  1  0.59001752  0.16557756  0.98233000  1.0
  H  H29  1  0.41010044  0.83468727  0.01775600  1.0
  H  H30  1  0.85514745  0.41310584  0.01617434  1.0
  H  H31  1  0.58607396  0.56846973  0.41995948  1.0
  H  H32  1  0.41342590  0.43126024  0.57973018  1.0
  H  H33  1  0.19412130  0.17387192  0.58118741  1.0
  H  H34  1  0.80595915  0.82600947  0.41916568  1.0
  H  H35  1  0.40196162  0.78650259  0.21660780  1.0
  H  H36  1  0.59822021  0.21372739  0.78335029  1.0
  H  H37  1  0.19608075  0.58452483  0.78602047  1.0
  H  H38  1  0.80406274  0.41565776  0.21396343  1.0
  H  H39  1  0.79181732  0.56503048  0.37269140  1.0
  H  H40  1  0.43852141  0.21814762  0.62642415  1.0
  H  H41  1  0.20816591  0.43499314  0.62728627  1.0
  H  H42  1  0.56152473  0.78196036  0.37354329  1.0
  C  C43  1  0.42464093  0.66038239  0.10155987  1.0
  C  C44  1  0.57548941  0.33978329  0.89840917  1.0
  C  C45  1  0.32917518  0.56645860  0.89958616  1.0
  C  C46  1  0.67095163  0.43370839  0.10037506  1.0
  C  C47  1  0.66077843  0.55417127  0.22906226  1.0
  C  C48  1  0.44554817  0.34318396  0.77070647  1.0
  C  C49  1  0.33922100  0.44586934  0.77092113  1.0
  C  C50  1  0.55447357  0.65688248  0.22927482  1.0
  C  C51  1  0.44446862  0.73730299  0.20590645  1.0
  C  C52  1  0.55567098  0.26288342  0.79405651  1.0
  C  C53  1  0.24958043  0.54613412  0.79544298  1.0
  C  C54  1  0.75052784  0.45401237  0.20453868  1.0
  C  C55  1  0.74436087  0.52880814  0.28424229  1.0
  C  C56  1  0.47517862  0.26500401  0.71489741  1.0
  C  C57  1  0.25565656  0.47124556  0.71573526  1.0
  C  C58  1  0.52487958  0.73510760  0.28507053  1.0
  C  C59  1  0.34746636  0.63998433  0.00072882  1.0
  C  C60  1  0.65266969  0.36019885  0.99924331  1.0
  C  C61  1  0.63289773  0.63032119  0.28372486  1.0
  C  C62  1  0.36703926  0.36966155  0.71626459  1.0
  C  C63  1  0.28422207  0.70369953  0.00064345  1.0
  C  C64  1  0.71588564  0.29646144  0.99932225  1.0
  C  C65  1  0.68964610  0.69037250  0.40613342  1.0
  C  C66  1  0.31013507  0.30944526  0.59386864  1.0
  C  C67  1  0.17978188  0.66457803  0.98967760  1.0
  C  C68  1  0.67119110  0.19620160  0.99069382  1.0
  C  C69  1  0.32891060  0.80399287  0.00934341  1.0
  C  C70  1  0.82029176  0.33552226  0.01021707  1.0
  C  C71  1  0.65278213  0.64899610  0.46457557  1.0
  C  C72  1  0.34677936  0.35071448  0.53525375  1.0
  C  C73  1  0.22443818  0.20582891  0.53638286  1.0
  C  C74  1  0.77546003  0.79394692  0.46381449  1.0
  C  C75  1  0.12026319  0.72353915  0.98561723  1.0
  C  C76  1  0.72967287  0.13647733  0.99351172  1.0
  C  C77  1  0.27037553  0.86366753  0.00650727  1.0
  C  C78  1  0.87976050  0.27651624  0.01426685  1.0
  C  C79  1  0.69836788  0.71106463  0.57808193  1.0
  C  C80  1  0.30106392  0.28850414  0.42175724  1.0
  C  C81  1  0.18120642  0.14271835  0.42390617  1.0
  C  C82  1  0.81858048  0.85691434  0.57629493  1.0
  C  C83  1  0.16528373  0.82331915  0.99370741  1.0
  C  C84  1  0.83473747  0.17677110  0.00624119  1.0
  C  C85  1  0.77921816  0.81657785  0.63401624  1.0
  C  C86  1  0.22032365  0.18297327  0.36601158  1.0
  C  C87  1  0.10379045  0.88800046  0.99075744  1.0
  C  C88  1  0.89624585  0.11210424  0.00919881  1.0
  C  C89  1  0.82426125  0.89185927  0.75383066  1.0
  C  C90  1  0.17517475  0.10765316  0.24619074  1.0
  C  C91  1  0.81958255  0.70277019  0.00945776  1.0
  C  C92  1  0.70792391  0.78396894  0.01715883  1.0
  C  C93  1  0.29222661  0.21608236  0.98281710  1.0
  C  C94  1  0.18067629  0.29737384  0.99078440  1.0
  C  C95  1  0.71283848  0.69809015  0.92574125  1.0
  C  C96  1  0.28744010  0.30196189  0.07434423  1.0
  C  C97  1  0.79639034  0.77219323  0.10099089  1.0
  C  C98  1  0.20371655  0.22793153  0.89911255  1.0
  C  C99  1  0.75817629  0.58628008  0.96188312  1.0
  C  C100  1  0.62195986  0.72720175  0.04093068  1.0
  C  C101  1  0.37811164  0.27284051  0.95894658  1.0
  C  C102  1  0.24211776  0.41386288  0.03836081  1.0
  C  C103  1  0.65120144  0.58951748  0.91686863  1.0
  C  C104  1  0.34906905  0.41054372  0.08323260  1.0
  C  C105  1  0.70559672  0.70698035  0.11368523  1.0
  C  C106  1  0.29443296  0.29312669  0.88632362  1.0
  N  N107  1  0.49287021  0.61154071  0.11636721  1.0
  N  N108  1  0.50720392  0.38856799  0.88360903  1.0
  N  N109  1  0.38368944  0.50449215  0.88385911  1.0
  N  N110  1  0.61639183  0.49562691  0.11612489  1.0
  N  N111  1  0.94045225  0.94339441  0.08700344  1.0
  N  N112  1  0.05963198  0.05640249  0.91283342  1.0
  N  N113  1  0.61516832  0.61790965  0.00386483  1.0
  N  N114  1  0.38495551  0.38215723  0.99612120  1.0
  O  O115  1  0.00057942  0.84064702  0.95374530  1.0
  O  O116  1  0.84188976  0.01350335  0.97591628  1.0
  O  O117  1  0.15821766  0.98665473  0.02429935  1.0
  O  O118  1  0.99939561  0.15941035  0.04591888  1.0
  O  O119  1  0.82999307  0.84624064  0.81495065  1.0
  O  O120  1  0.16929159  0.15322899  0.18505393  1.0
  O  O121  1  0.14524595  0.01068410  0.21493869  1.0
  O  O122  1  0.85426211  0.98883006  0.78512110  1.0
