# generated using pymatgen
data_ZnSiH12C24N8(O4F3)2
_symmetry_space_group_name_H-M   'P 1'
_cell_length_a   7.69537766
_cell_length_b   14.03299468
_cell_length_c   14.03311037
_cell_angle_alpha   90.09096175
_cell_angle_beta   90.03466035
_cell_angle_gamma   89.96526335
_symmetry_Int_Tables_number   1
_chemical_formula_structural   ZnSiH12C24N8(O4F3)2
_chemical_formula_sum   'Zn1 Si1 H12 C24 N8 O8 F6'
_cell_volume   1515.42181019
_cell_formula_units_Z   1
loop_
 _symmetry_equiv_pos_site_id
 _symmetry_equiv_pos_as_xyz
  1  'x, y, z'
loop_
 _atom_site_type_symbol
 _atom_site_label
 _atom_site_symmetry_multiplicity
 _atom_site_fract_x
 _atom_site_fract_y
 _atom_site_fract_z
 _atom_site_occupancy
  Zn  Zn0  1  0.49998907  0.50103638  0.50102683  1.0
  Si  Si1  1  0.99998277  0.49967663  0.49967279  1.0
  H  H2  1  0.76853691  0.66541597  0.49905511  1.0
  H  H3  1  0.77628854  0.84210847  0.49654718  1.0
  H  H4  1  0.22635119  0.66293135  0.50978412  1.0
  H  H5  1  0.77350757  0.33827792  0.51043589  1.0
  H  H6  1  0.23143938  0.33557727  0.49858742  1.0
  H  H7  1  0.22392529  0.15892486  0.49600389  1.0
  H  H8  1  0.76852068  0.49873794  0.33557122  1.0
  H  H9  1  0.77604542  0.49608811  0.15892735  1.0
  H  H10  1  0.22644738  0.51037578  0.33826192  1.0
  H  H11  1  0.77366313  0.50979151  0.66293391  1.0
  H  H12  1  0.23147225  0.49899989  0.66539158  1.0
  H  H13  1  0.22368662  0.49649552  0.84208690  1.0
  C  C14  1  0.64799774  0.70618347  0.49916100  1.0
  C  C15  1  0.65195013  0.80508631  0.49662277  1.0
  C  C16  1  0.49518738  0.85684260  0.49508460  1.0
  C  C17  1  0.34157751  0.80242508  0.49996231  1.0
  C  C18  1  0.34662923  0.70369377  0.50500410  1.0
  C  C19  1  0.49582422  0.95722072  0.49298311  1.0
  C  C20  1  0.50458478  0.04383945  0.49301636  1.0
  C  C21  1  0.50500826  0.14422312  0.49516764  1.0
  C  C22  1  0.65839884  0.19881473  0.50040040  1.0
  C  C23  1  0.65320845  0.29756685  0.50538348  1.0
  C  C24  1  0.35205539  0.29493481  0.49892559  1.0
  C  C25  1  0.34823663  0.19598941  0.49635446  1.0
  C  C26  1  0.64792034  0.49902913  0.29492769  1.0
  C  C27  1  0.65173144  0.49641807  0.19598449  1.0
  C  C28  1  0.49498329  0.49516002  0.14421080  1.0
  C  C29  1  0.34156408  0.50035157  0.19880269  1.0
  C  C30  1  0.34676214  0.50535107  0.29755116  1.0
  C  C31  1  0.49541210  0.49298876  0.04381797  1.0
  C  C32  1  0.50411963  0.49296269  0.95721807  1.0
  C  C33  1  0.50477216  0.49506489  0.85682652  1.0
  C  C34  1  0.65840288  0.49996540  0.80242082  1.0
  C  C35  1  0.65337596  0.50500579  0.70368890  1.0
  C  C36  1  0.35199707  0.49912142  0.70616869  1.0
  C  C37  1  0.34802638  0.49657391  0.80507213  1.0
  N  N38  1  0.49816739  0.65604256  0.50244294  1.0
  N  N39  1  0.50171917  0.34529994  0.50246980  1.0
  N  N40  1  0.49823313  0.50251429  0.34529597  1.0
  N  N41  1  0.50184306  0.50242685  0.65603527  1.0
  N  N42  1  0.17019779  0.84822877  0.49873698  1.0
  N  N43  1  0.82992680  0.15308988  0.49952936  1.0
  N  N44  1  0.17005699  0.49942212  0.15306328  1.0
  N  N45  1  0.82977865  0.49876209  0.84823620  1.0
  O  O46  1  0.14488041  0.91053286  0.43805159  1.0
  O  O47  1  0.06302905  0.81985781  0.55823462  1.0
  O  O48  1  0.85616113  0.09126964  0.43829145  1.0
  O  O49  1  0.93626702  0.18106009  0.55983012  1.0
  O  O50  1  0.14388525  0.43812960  0.09131122  1.0
  O  O51  1  0.06369714  0.55973978  0.18098414  1.0
  O  O52  1  0.85511680  0.43809116  0.91054762  1.0
  O  O53  1  0.93693175  0.55826731  0.81986401  1.0
  F  F54  1  0.77064429  0.50035305  0.49893370  1.0
  F  F55  1  0.22933905  0.49893266  0.50035001  1.0
  F  F56  1  0.99998526  0.58504695  0.58503030  1.0
  F  F57  1  0.99999587  0.41398253  0.41399507  1.0
  F  F58  1  0.00172221  0.58505670  0.41429023  1.0
  F  F59  1  0.99824813  0.41430032  0.58505981  1.0
