# generated using pymatgen
data_Zn2HC32N2Cl8O8F13
_symmetry_space_group_name_H-M   'P 1'
_cell_length_a   9.97785319
_cell_length_b   11.01677488
_cell_length_c   17.31629428
_cell_angle_alpha   94.98967928
_cell_angle_beta   96.61605149
_cell_angle_gamma   90.78603549
_symmetry_Int_Tables_number   1
_chemical_formula_structural   Zn2HC32N2Cl8O8F13
_chemical_formula_sum   'Zn2 H1 C32 N2 Cl8 O8 F13'
_cell_volume   1883.08860792
_cell_formula_units_Z   1
loop_
 _symmetry_equiv_pos_site_id
 _symmetry_equiv_pos_as_xyz
  1  'x, y, z'
loop_
 _atom_site_type_symbol
 _atom_site_label
 _atom_site_symmetry_multiplicity
 _atom_site_fract_x
 _atom_site_fract_y
 _atom_site_fract_z
 _atom_site_occupancy
  Zn  Zn0  1  0.36235975  0.49662054  0.50346984  1.0
  Zn  Zn1  1  0.64495417  0.50083351  0.50640041  1.0
  H  H2  1  0.71355132  0.39074641  0.73543059  1.0
  C  C3  1  0.50012069  0.26643051  0.51066718  1.0
  C  C4  1  0.54534911  0.50905351  0.74104963  1.0
  C  C5  1  0.46434120  0.05595804  0.43779322  1.0
  C  C6  1  0.47484578  0.45879527  0.35586725  1.0
  C  C7  1  0.49705998  0.12962583  0.50699322  1.0
  C  C8  1  0.52610549  0.06807943  0.57437610  1.0
  C  C9  1  0.52474505  0.93881454  0.57145496  1.0
  C  C10  1  0.49196819  0.86586292  0.50069828  1.0
  C  C11  1  0.45937269  0.92907419  0.43520715  1.0
  C  C12  1  0.41518669  0.91241280  0.34823642  1.0
  C  C13  1  0.42767011  0.05766473  0.35049276  1.0
  C  C14  1  0.35958698  0.48052827  0.21806338  1.0
  C  C15  1  0.93596414  0.39114703  0.50263661  1.0
  C  C16  1  0.93775631  0.59288992  0.52737739  1.0
  C  C17  1  0.08250482  0.59763147  0.53457016  1.0
  C  C18  1  0.49575686  0.72911442  0.49642225  1.0
  C  C19  1  0.07501319  0.39406552  0.50694183  1.0
  C  C20  1  0.08544611  0.25546836  0.49752749  1.0
  C  C21  1  0.92143190  0.25257356  0.49086712  1.0
  C  C22  1  0.53926106  0.52107026  0.65497746  1.0
  C  C23  1  0.46473671  0.43545332  0.26842650  1.0
  C  C24  1  0.56666684  0.37077817  0.23521006  1.0
  C  C25  1  0.46647064  0.53997318  0.86763762  1.0
  C  C26  1  0.56693743  0.35184343  0.15470390  1.0
  C  C27  1  0.46718739  0.40101304  0.10391454  1.0
  C  C28  1  0.36332804  0.46314396  0.13741792  1.0
  C  C29  1  0.45452774  0.56410386  0.78909748  1.0
  C  C30  1  0.64403842  0.43262444  0.77324592  1.0
  C  C31  1  0.65231437  0.40861752  0.85113691  1.0
  C  C32  1  0.56360387  0.46315061  0.90066449  1.0
  C  C33  1  0.47515105  0.39940137  0.01976643  1.0
  C  C34  1  0.57320824  0.45055792  0.98517947  1.0
  N  N35  1  0.86213419  0.49211144  0.51084107  1.0
  N  N36  1  0.15228824  0.49644393  0.52031508  1.0
  Cl  Cl37  1  0.77158785  0.30975137  0.88685434  1.0
  Cl  Cl38  1  0.56555402  0.15309135  0.66229591  1.0
  Cl  Cl39  1  0.55943062  0.87051691  0.65670831  1.0
  Cl  Cl40  1  0.15968358  0.73310914  0.56415469  1.0
  Cl  Cl41  1  0.33312010  0.66446011  0.75919437  1.0
  Cl  Cl42  1  0.84076897  0.18737735  0.40245278  1.0
  Cl  Cl43  1  0.71204261  0.52126054  0.04065525  1.0
  Cl  Cl44  1  0.23163814  0.56470890  0.25175779  1.0
  O  O45  1  0.39288192  0.31861043  0.52614395  1.0
  O  O46  1  0.60919016  0.31572450  0.49688538  1.0
  O  O47  1  0.37030810  0.43778811  0.38844644  1.0
  O  O48  1  0.58952441  0.49768800  0.38921165  1.0
  O  O49  1  0.38495044  0.67151503  0.47437014  1.0
  O  O50  1  0.60980125  0.68457983  0.51494153  1.0
  O  O51  1  0.42628687  0.54515249  0.61838338  1.0
  O  O52  1  0.64822592  0.50134705  0.62452150  1.0
  F  F53  1  0.66868373  0.32388642  0.28060063  1.0
  F  F54  1  0.26695078  0.51242148  0.08932372  1.0
  F  F55  1  0.38190801  0.59525358  0.91432411  1.0
  F  F56  1  0.36573738  0.34782006  0.97342576  1.0
  F  F57  1  0.66685256  0.28688841  0.12639903  1.0
  F  F58  1  0.49817569  0.84898925  0.30253389  1.0
  F  F59  1  0.28655536  0.86695882  0.32645162  1.0
  F  F60  1  0.52785789  0.09828529  0.31021837  1.0
  F  F61  1  0.31256837  0.11488092  0.32495701  1.0
  F  F62  1  0.87588053  0.69702994  0.53831584  1.0
  F  F63  1  0.13886239  0.20557052  0.43438847  1.0
  F  F64  1  0.14204201  0.20438471  0.56179321  1.0
  F  F65  1  0.87495302  0.20104342  0.55248132  1.0
