# generated using pymatgen
data_Cu2SiH16(C7O2)4
_symmetry_space_group_name_H-M   'P 1'
_cell_length_a   12.44688163
_cell_length_b   12.44687538
_cell_length_c   24.38921841
_cell_angle_alpha   90.00003615
_cell_angle_beta   90.00009598
_cell_angle_gamma   89.99998673
_symmetry_Int_Tables_number   1
_chemical_formula_structural   Cu2SiH16(C7O2)4
_chemical_formula_sum   'Cu4 Si2 H32 C56 O16'
_cell_volume   3778.49440673
_cell_formula_units_Z   2
loop_
 _symmetry_equiv_pos_site_id
 _symmetry_equiv_pos_as_xyz
  1  'x, y, z'
loop_
 _atom_site_type_symbol
 _atom_site_label
 _atom_site_symmetry_multiplicity
 _atom_site_fract_x
 _atom_site_fract_y
 _atom_site_fract_z
 _atom_site_occupancy
  Cu  Cu0  1  0.49999933  0.09853383  0.00000081  1.0
  Cu  Cu1  1  0.49999843  0.90146065  0.00000094  1.0
  Cu  Cu2  1  0.09852927  0.49999961  0.49999991  1.0
  Cu  Cu3  1  0.90147737  0.49999951  0.50000026  1.0
  Si  Si4  1  0.99999957  0.00000034  0.24999770  1.0
  Si  Si5  1  0.99999798  0.99999984  0.75000265  1.0
  H  H6  1  0.12956630  0.17356408  0.19738952  1.0
  H  H7  1  0.26793337  0.17261277  0.12401494  1.0
  H  H8  1  0.87043131  0.82643788  0.19738912  1.0
  H  H9  1  0.73206400  0.82738669  0.12401443  1.0
  H  H10  1  0.17356441  0.87043486  0.69739050  1.0
  H  H11  1  0.17260824  0.73206756  0.62401667  1.0
  H  H12  1  0.82643565  0.12956531  0.69738943  1.0
  H  H13  1  0.82738916  0.26793092  0.62401646  1.0
  H  H14  1  0.12956561  0.82643754  0.80261074  1.0
  H  H15  1  0.26793372  0.82738641  0.87598585  1.0
  H  H16  1  0.87043077  0.17356356  0.80260972  1.0
  H  H17  1  0.73206371  0.17261238  0.87598471  1.0
  H  H18  1  0.17356384  0.12956353  0.30260939  1.0
  H  H19  1  0.17260788  0.26793164  0.37598363  1.0
  H  H20  1  0.82643491  0.87043615  0.30261019  1.0
  H  H21  1  0.82738790  0.73206974  0.37598399  1.0
  H  H22  1  0.87043070  0.82643746  0.80260983  1.0
  H  H23  1  0.73206363  0.82738635  0.87598522  1.0
  H  H24  1  0.12956569  0.17356365  0.80261064  1.0
  H  H25  1  0.26793380  0.17261324  0.87598574  1.0
  H  H26  1  0.82643500  0.12956426  0.30261007  1.0
  H  H27  1  0.82738876  0.26793076  0.37598391  1.0
  H  H28  1  0.17356376  0.87043622  0.30260909  1.0
  H  H29  1  0.17260783  0.73206821  0.37598330  1.0
  H  H30  1  0.87043058  0.17356399  0.19738943  1.0
  H  H31  1  0.73206408  0.17261272  0.12401514  1.0
  H  H32  1  0.12956622  0.82643797  0.19738922  1.0
  H  H33  1  0.26793409  0.82738754  0.12401423  1.0
  H  H34  1  0.82643476  0.87043478  0.69738914  1.0
  H  H35  1  0.82738991  0.73206989  0.62401613  1.0
  H  H36  1  0.17356449  0.12956458  0.69739038  1.0
  H  H37  1  0.17260829  0.26793179  0.62401659  1.0
  C  C38  1  0.15994819  0.09701794  0.18193638  1.0
  C  C39  1  0.23730485  0.09742524  0.14067269  1.0
  C  C40  1  0.84004856  0.90298239  0.18193598  1.0
  C  C41  1  0.76269177  0.90257665  0.14067386  1.0
  C  C42  1  0.09701509  0.84005615  0.68193692  1.0
  C  C43  1  0.09742317  0.76269534  0.64067072  1.0
  C  C44  1  0.90298572  0.15994400  0.68193469  1.0
  C  C45  1  0.90257911  0.23730556  0.64066934  1.0
  C  C46  1  0.15994914  0.90298286  0.81806473  1.0
  C  C47  1  0.23730433  0.90257716  0.85932643  1.0
  C  C48  1  0.84004729  0.09701746  0.81806407  1.0
  C  C49  1  0.76269144  0.09742482  0.85932653  1.0
  C  C50  1  0.09701296  0.15994146  0.31806373  1.0
  C  C51  1  0.09742437  0.23730307  0.35932911  1.0
  C  C52  1  0.90298424  0.84005663  0.31806541  1.0
  C  C53  1  0.90257939  0.76269588  0.35932994  1.0
  C  C54  1  0.84004720  0.90298198  0.81806420  1.0
  C  C55  1  0.76269134  0.90257629  0.85932584  1.0
  C  C56  1  0.15994924  0.09701754  0.81806419  1.0
  C  C57  1  0.23730523  0.09742488  0.85932672  1.0
  C  C58  1  0.90298431  0.15994297  0.31806530  1.0
  C  C59  1  0.90257945  0.23730378  0.35932986  1.0
  C  C60  1  0.09701289  0.84005753  0.31806384  1.0
  C  C61  1  0.09742351  0.76269678  0.35932878  1.0
  C  C62  1  0.84004785  0.09701706  0.18193626  1.0
  C  C63  1  0.76269186  0.09742438  0.14067291  1.0
  C  C64  1  0.15994890  0.90298247  0.18193569  1.0
  C  C65  1  0.23730636  0.90257671  0.14067323  1.0
  C  C66  1  0.90298564  0.84005606  0.68193480  1.0
  C  C67  1  0.90257905  0.76269445  0.64066942  1.0
  C  C68  1  0.09701517  0.15994249  0.68193681  1.0
  C  C69  1  0.09742323  0.23730405  0.64067063  1.0
  C  C70  1  0.11957025  0.00000084  0.20315187  1.0
  C  C71  1  0.27591598  0.99999793  0.11960986  1.0
  C  C72  1  0.35736856  0.00000234  0.07461772  1.0
  C  C73  1  0.88042749  0.00000156  0.20315261  1.0
  C  C74  1  0.72408045  0.99999707  0.11961005  1.0
  C  C75  1  0.64262796  0.00000150  0.07461784  1.0
  C  C76  1  0.99999872  0.88043647  0.70315242  1.0
  C  C77  1  0.00000114  0.72408485  0.61960563  1.0
  C  C78  1  0.00001313  0.64261859  0.57461524  1.0
  C  C79  1  0.99999881  0.11956278  0.70315230  1.0
  C  C80  1  0.00000120  0.27591534  0.61960555  1.0
  C  C81  1  0.00001397  0.35738154  0.57461520  1.0
  C  C82  1  0.11957042  0.00000121  0.79684740  1.0
  C  C83  1  0.27591563  0.99999840  0.88039028  1.0
  C  C84  1  0.35736915  0.00000287  0.92538258  1.0
  C  C85  1  0.88042766  0.00000032  0.79684814  1.0
  C  C86  1  0.72408089  0.99999755  0.88039006  1.0
  C  C87  1  0.64262775  0.00000203  0.92538188  1.0
  C  C88  1  0.99999975  0.11956253  0.29684776  1.0
  C  C89  1  0.99999906  0.27591508  0.38039290  1.0
  C  C90  1  0.00001372  0.35738065  0.42538409  1.0
  C  C91  1  0.99999966  0.88043703  0.29684748  1.0
  C  C92  1  0.99999821  0.72408458  0.38039297  1.0
  C  C93  1  0.00001289  0.64262011  0.42538414  1.0
  O  O94  1  0.38900295  0.09168638  0.05722523  1.0
  O  O95  1  0.61098857  0.90831219  0.05722299  1.0
  O  O96  1  0.09168988  0.61098975  0.55722562  1.0
  O  O97  1  0.90831774  0.38901587  0.55722348  1.0
  O  O98  1  0.38900833  0.90831196  0.94277813  1.0
  O  O99  1  0.61099414  0.09168530  0.94277522  1.0
  O  O100  1  0.09168892  0.38900786  0.44277461  1.0
  O  O101  1  0.90831753  0.61098557  0.44277704  1.0
  O  O102  1  0.61098842  0.90831274  0.94277781  1.0
  O  O103  1  0.38900280  0.09168452  0.94277554  1.0
  O  O104  1  0.90831916  0.38901419  0.44277741  1.0
  O  O105  1  0.09168889  0.61099128  0.44277464  1.0
  O  O106  1  0.61099429  0.09168555  0.05722491  1.0
  O  O107  1  0.38900848  0.90831302  0.05722290  1.0
  O  O108  1  0.90831772  0.61098403  0.55722310  1.0
  O  O109  1  0.09169071  0.38901034  0.55722559  1.0
