# generated using pymatgen
data_ZnH10C22Br2NO4
_symmetry_space_group_name_H-M   'P 1'
_cell_length_a   10.97376137
_cell_length_b   17.05791192
_cell_length_c   17.80456213
_cell_angle_alpha   89.99876016
_cell_angle_beta   87.98961319
_cell_angle_gamma   89.99672396
_symmetry_Int_Tables_number   1
_chemical_formula_structural   ZnH10C22Br2NO4
_chemical_formula_sum   'Zn2 H20 C44 Br4 N2 O8'
_cell_volume   3330.77486510
_cell_formula_units_Z   2
loop_
 _symmetry_equiv_pos_site_id
 _symmetry_equiv_pos_as_xyz
  1  'x, y, z'
loop_
 _atom_site_type_symbol
 _atom_site_label
 _atom_site_symmetry_multiplicity
 _atom_site_fract_x
 _atom_site_fract_y
 _atom_site_fract_z
 _atom_site_occupancy
  Zn  Zn0  1  0.50236296  0.58666987  0.49981843  1.0
  Zn  Zn1  1  0.50237417  0.41332978  0.49982034  1.0
  H  H2  1  0.89549009  0.50005705  0.24184317  1.0
  H  H3  1  0.10887668  0.49993205  0.75799821  1.0
  H  H4  1  0.12407939  0.50008379  0.23957205  1.0
  H  H5  1  0.88033196  0.49989124  0.76036851  1.0
  H  H6  1  0.77036082  0.49992492  0.64206878  1.0
  H  H7  1  0.23353806  0.50005772  0.35779495  1.0
  H  H8  1  0.22579572  0.49998468  0.63742031  1.0
  H  H9  1  0.77819127  0.50002025  0.36247443  1.0
  H  H10  1  0.44173184  0.62647086  0.87834025  1.0
  H  H11  1  0.43984258  0.37351839  0.12440961  1.0
  H  H12  1  0.43948798  0.62645966  0.12443110  1.0
  H  H13  1  0.44174983  0.37354893  0.87833934  1.0
  H  H14  1  0.47290181  0.62576061  0.73843616  1.0
  H  H15  1  0.47110894  0.37430389  0.26299683  1.0
  H  H16  1  0.47078460  0.62568695  0.26301557  1.0
  H  H17  1  0.47290782  0.37426441  0.73843488  1.0
  H  H18  1  0.64463872  0.86916494  0.41391430  1.0
  H  H19  1  0.35563607  0.13143500  0.58561337  1.0
  H  H20  1  0.35562887  0.86858795  0.58561391  1.0
  H  H21  1  0.64464784  0.13082955  0.41391542  1.0
  C  C22  1  0.49374737  0.49999941  0.35368336  1.0
  C  C23  1  0.49235158  0.50001600  0.64645796  1.0
  C  C24  1  0.44045767  0.50000926  0.88786821  1.0
  C  C25  1  0.43892076  0.49999171  0.11495662  1.0
  C  C26  1  0.43027561  0.50000411  0.96729726  1.0
  C  C27  1  0.42968809  0.49999269  0.03592316  1.0
  C  C28  1  0.58068183  0.83917550  0.45199377  1.0
  C  C29  1  0.41991844  0.16112253  0.54753486  1.0
  C  C30  1  0.41990603  0.83889247  0.54753473  1.0
  C  C31  1  0.58069340  0.16082518  0.45199280  1.0
  C  C32  1  0.57732801  0.75758226  0.45401484  1.0
  C  C33  1  0.42347424  0.24269174  0.54519454  1.0
  C  C34  1  0.42344929  0.75732214  0.54519322  1.0
  C  C35  1  0.57734848  0.24241897  0.45401344  1.0
  C  C36  1  0.50029443  0.88136947  0.49989670  1.0
  C  C37  1  0.50030045  0.11863954  0.49989657  1.0
  C  C38  1  0.50012940  0.96428232  0.50001069  1.0
  C  C39  1  0.50012860  0.03572787  0.50000987  1.0
  C  C40  1  0.73681850  0.49998242  0.50235429  1.0
  C  C41  1  0.26708454  0.50000198  0.49745770  1.0
  C  C42  1  0.86980452  0.49993347  0.64074071  1.0
  C  C43  1  0.13415752  0.50005035  0.35918706  1.0
  C  C44  1  0.12636750  0.49996382  0.63803086  1.0
  C  C45  1  0.87765523  0.50002820  0.36184584  1.0
  C  C46  1  0.93124531  0.49991339  0.70664304  1.0
  C  C47  1  0.07290409  0.50006281  0.29323758  1.0
  C  C48  1  0.06098104  0.49993862  0.70531095  1.0
  C  C49  1  0.94317091  0.50005341  0.29458816  1.0
  C  C50  1  0.06592203  0.49997161  0.56819379  1.0
  C  C51  1  0.93804491  0.50001572  0.43170075  1.0
  C  C52  1  0.93428060  0.49996396  0.56965130  1.0
  C  C53  1  0.06966265  0.50002278  0.43024142  1.0
  C  C54  1  0.13032211  0.50000210  0.49848518  1.0
  C  C55  1  0.87360663  0.49998464  0.50139993  1.0
  C  C56  1  0.44836918  0.57130897  0.84753546  1.0
  C  C57  1  0.44654844  0.42867271  0.15490705  1.0
  C  C58  1  0.44635407  0.57130799  0.15491954  1.0
  C  C59  1  0.44837564  0.42871121  0.84753418  1.0
  C  C60  1  0.46576523  0.57103450  0.76989125  1.0
  C  C61  1  0.46400701  0.42897310  0.23176783  1.0
  C  C62  1  0.46381540  0.57101158  0.23178309  1.0
  C  C63  1  0.46577529  0.42898956  0.76988933  1.0
  C  C64  1  0.47525771  0.50001257  0.73035319  1.0
  C  C65  1  0.47382606  0.49999392  0.27083743  1.0
  Br  Br66  1  0.68854565  0.70570852  0.38793406  1.0
  Br  Br67  1  0.31084541  0.29464461  0.61037197  1.0
  Br  Br68  1  0.31079779  0.70538481  0.61035749  1.0
  Br  Br69  1  0.68857163  0.29428009  0.38793264  1.0
  N  N70  1  0.50060033  0.71567862  0.49962366  1.0
  N  N71  1  0.50063185  0.28432805  0.49962414  1.0
  O  O72  1  0.50131649  0.56664869  0.38551497  1.0
  O  O73  1  0.49807409  0.43336912  0.61418962  1.0
  O  O74  1  0.49806397  0.56666269  0.61419055  1.0
  O  O75  1  0.50134755  0.43334632  0.38551647  1.0
  O  O76  1  0.68529096  0.56665630  0.50222262  1.0
  O  O77  1  0.31862963  0.43334159  0.49747673  1.0
  O  O78  1  0.31861767  0.56666096  0.49747994  1.0
  O  O79  1  0.68531188  0.43329707  0.50223554  1.0
