# generated using pymatgen
data_Co3H22(C15O8)2
_symmetry_space_group_name_H-M   'P 1'
_cell_length_a   14.67866553
_cell_length_b   19.11803674
_cell_length_c   19.11895295
_cell_angle_alpha   113.68791058
_cell_angle_beta   104.83568293
_cell_angle_gamma   104.82839358
_symmetry_Int_Tables_number   1
_chemical_formula_structural   Co3H22(C15O8)2
_chemical_formula_sum   'Co9 H66 C90 O48'
_cell_volume   4341.85715598
_cell_formula_units_Z   3
loop_
 _symmetry_equiv_pos_site_id
 _symmetry_equiv_pos_as_xyz
  1  'x, y, z'
loop_
 _atom_site_type_symbol
 _atom_site_label
 _atom_site_symmetry_multiplicity
 _atom_site_fract_x
 _atom_site_fract_y
 _atom_site_fract_z
 _atom_site_occupancy
  Co  Co0  1  0.42036847  0.33378420  0.03538589  1.0
  Co  Co1  1  0.38492545  0.96469059  0.29840869  1.0
  Co  Co2  1  0.08649079  0.70152270  0.66616395  1.0
  Co  Co3  1  0.57965334  0.66623257  0.96464099  1.0
  Co  Co4  1  0.61506293  0.03530431  0.70156568  1.0
  Co  Co5  1  0.91348490  0.29844971  0.33381929  1.0
  Co  Co6  1  0.50000957  0.50001161  0.00000590  1.0
  Co  Co7  1  0.49999148  0.00001260  0.49999848  1.0
  Co  Co8  1  0.99999929  0.49999672  0.49998777  1.0
  H  H9  1  0.37985920  0.63947502  0.16503612  1.0
  H  H10  1  0.21480094  0.83510820  0.47452764  1.0
  H  H11  1  0.74021625  0.52558922  0.36044673  1.0
  H  H12  1  0.62013516  0.36053050  0.83496253  1.0
  H  H13  1  0.78520956  0.16491544  0.52546524  1.0
  H  H14  1  0.25976352  0.47440255  0.63952887  1.0
  H  H15  1  0.35025447  0.72206760  0.28954744  1.0
  H  H16  1  0.06076597  0.71050483  0.43259458  1.0
  H  H17  1  0.62800461  0.56754917  0.27792140  1.0
  H  H18  1  0.64972957  0.27792855  0.71044697  1.0
  H  H19  1  0.93925948  0.28950506  0.56741509  1.0
  H  H20  1  0.37198311  0.43245572  0.72206993  1.0
  H  H21  1  0.30161351  0.51830260  0.33982932  1.0
  H  H22  1  0.96176740  0.66014801  0.17849827  1.0
  H  H23  1  0.78317268  0.82162046  0.48178003  1.0
  H  H24  1  0.69840419  0.48170167  0.66017761  1.0
  H  H25  1  0.03825347  0.33982877  0.82149616  1.0
  H  H26  1  0.21680122  0.17837382  0.51823621  1.0
  H  H27  1  0.32515648  0.43469631  0.21222361  1.0
  H  H28  1  0.11295965  0.78773179  0.22246268  1.0
  H  H29  1  0.89047020  0.77757290  0.56528130  1.0
  H  H30  1  0.67486716  0.56531420  0.78778700  1.0
  H  H31  1  0.88703729  0.21224499  0.77750401  1.0
  H  H32  1  0.10948801  0.22239700  0.43471683  1.0
  H  H33  1  0.44589949  0.79104651  0.43557754  1.0
  H  H34  1  0.01032878  0.56443781  0.35555247  1.0
  H  H35  1  0.65473046  0.64456493  0.20893694  1.0
  H  H36  1  0.55408330  0.20895838  0.56441281  1.0
  H  H37  1  0.98968254  0.43553959  0.64444137  1.0
  H  H38  1  0.34527016  0.35544746  0.79106779  1.0
  H  H39  1  0.33378721  0.81023117  0.62635549  1.0
  H  H40  1  0.70745571  0.37354970  0.18380515  1.0
  H  H41  1  0.52355886  0.81622754  0.18970999  1.0
  H  H42  1  0.66621101  0.18976935  0.37363929  1.0
  H  H43  1  0.29254235  0.62644769  0.81619566  1.0
  H  H44  1  0.47644819  0.18377798  0.81029743  1.0
  H  H45  1  0.19648612  0.57938303  0.39376046  1.0
  H  H46  1  0.80278230  0.60617179  0.18559641  1.0
  H  H47  1  0.61698737  0.81442612  0.42052760  1.0
  H  H48  1  0.80351414  0.42060187  0.60623682  1.0
  H  H49  1  0.19725010  0.39383935  0.81442507  1.0
  H  H50  1  0.38300087  0.18558127  0.57948105  1.0
  H  H51  1  0.37855792  0.25936743  0.12442700  1.0
  H  H52  1  0.25426450  0.87571344  0.13499661  1.0
  H  H53  1  0.11921104  0.86501083  0.74068813  1.0
  H  H54  1  0.62145492  0.74062996  0.87557988  1.0
  H  H55  1  0.74574766  0.12431207  0.86498324  1.0
  H  H56  1  0.88079850  0.13497157  0.25933980  1.0
  H  H57  1  0.49768682  0.30770788  0.15372648  1.0
  H  H58  1  0.34398621  0.84628482  0.15402628  1.0
  H  H59  1  0.18997535  0.84599367  0.69232307  1.0
  H  H60  1  0.50233443  0.69231764  0.84630746  1.0
  H  H61  1  0.65600427  0.15370445  0.84595514  1.0
  H  H62  1  0.81002989  0.15398998  0.30769876  1.0
  H  H63  1  0.23009811  0.29256203  0.98948731  1.0
  H  H64  1  0.24059879  0.01068322  0.30320359  1.0
  H  H65  1  0.93736623  0.69674565  0.70739990  1.0
  H  H66  1  0.76993931  0.70745786  0.01057738  1.0
  H  H67  1  0.75938483  0.98929793  0.69676380  1.0
  H  H68  1  0.06260899  0.30322863  0.29258452  1.0
  H  H69  1  0.23139726  0.21696089  0.91604147  1.0
  H  H70  1  0.31540158  0.08398827  0.30090536  1.0
  H  H71  1  0.01438802  0.69899944  0.78299563  1.0
  H  H72  1  0.76861348  0.78304650  0.08401294  1.0
  H  H73  1  0.68459591  0.91601787  0.69909729  1.0
  H  H74  1  0.98559650  0.30098921  0.21700058  1.0
  C  C75  1  0.35505817  0.53220064  0.18131097  1.0
  C  C76  1  0.17374908  0.81873083  0.35092468  1.0
  C  C77  1  0.82276202  0.64914160  0.46774639  1.0
  C  C78  1  0.64495733  0.46781050  0.81869515  1.0
  C  C79  1  0.82624507  0.18127281  0.64906375  1.0
  C  C80  1  0.17720551  0.35083705  0.53224454  1.0
  C  C81  1  0.36107027  0.61303620  0.20303072  1.0
  C  C82  1  0.15802408  0.79706849  0.41007063  1.0
  C  C83  1  0.74784697  0.59002777  0.38693103  1.0
  C  C84  1  0.63893013  0.38696870  0.79697043  1.0
  C  C85  1  0.84198517  0.20294141  0.58992486  1.0
  C  C86  1  0.25212972  0.40996213  0.61305367  1.0
  C  C87  1  0.34570129  0.65928320  0.27319053  1.0
  C  C88  1  0.07254576  0.72688963  0.38617258  1.0
  C  C89  1  0.68621086  0.61396992  0.34072777  1.0
  C  C90  1  0.65429339  0.34071732  0.72680931  1.0
  C  C91  1  0.92747759  0.27311464  0.61382658  1.0
  C  C92  1  0.31377459  0.38603185  0.65926343  1.0
  C  C93  1  0.32561804  0.62649416  0.32423610  1.0
  C  C94  1  0.00141283  0.67579451  0.30231150  1.0
  C  C95  1  0.69898388  0.69782933  0.37353567  1.0
  C  C96  1  0.67438197  0.37350574  0.67576297  1.0
  C  C97  1  0.99861022  0.32420351  0.69768352  1.0
  C  C98  1  0.30099640  0.30217057  0.62645846  1.0
  C  C99  1  0.31584409  0.54419890  0.30025758  1.0
  C  C100  1  0.01556439  0.69975669  0.24397362  1.0
  C  C101  1  0.77151790  0.75614273  0.45584660  1.0
  C  C102  1  0.68416884  0.45580287  0.69974322  1.0
  C  C103  1  0.98445641  0.30022696  0.75601466  1.0
  C  C104  1  0.22845555  0.24384779  0.54415654  1.0
  C  C105  1  0.32986807  0.49760570  0.22960970  1.0
  C  C106  1  0.10026289  0.77039600  0.26801083  1.0
  C  C107  1  0.83220986  0.73206310  0.50238004  1.0
  C  C108  1  0.67015190  0.50240169  0.77039318  1.0
  C  C109  1  0.89974232  0.22959452  0.73197086  1.0
  C  C110  1  0.16775148  0.26791305  0.49761599  1.0
  C  C111  1  0.32208243  0.67819689  0.40448818  1.0
  C  C112  1  0.91763947  0.59549872  0.27372862  1.0
  C  C113  1  0.64377258  0.72636323  0.32178481  1.0
  C  C114  1  0.67791031  0.32180113  0.59550713  1.0
  C  C115  1  0.08238692  0.40450180  0.72628219  1.0
  C  C116  1  0.35622177  0.27364792  0.67822341  1.0
  C  C117  1  0.39207562  0.76218935  0.45595057  1.0
  C  C118  1  0.93613902  0.54404932  0.30628656  1.0
  C  C119  1  0.62977925  0.69382478  0.23779270  1.0
  C  C120  1  0.60791273  0.23781117  0.54404017  1.0
  C  C121  1  0.06388105  0.45593996  0.69371221  1.0
  C  C122  1  0.37021268  0.30618574  0.76221113  1.0
  C  C123  1  0.39727823  0.80888215  0.53610178  1.0
  C  C124  1  0.86116581  0.46389578  0.27283744  1.0
  C  C125  1  0.58829996  0.72726269  0.19106066  1.0
  C  C126  1  0.60271153  0.19112399  0.46389045  1.0
  C  C127  1  0.13884714  0.53609474  0.72715519  1.0
  C  C128  1  0.41170176  0.27274908  0.80894456  1.0
  C  C129  1  0.32903045  0.77362232  0.56384422  1.0
  C  C130  1  0.76522501  0.43608258  0.20973762  1.0
  C  C131  1  0.55541556  0.79033350  0.22632665  1.0
  C  C132  1  0.67096534  0.22637758  0.43614984  1.0
  C  C133  1  0.23478167  0.56391232  0.79025762  1.0
  C  C134  1  0.44458122  0.20967265  0.77368266  1.0
  C  C135  1  0.25508011  0.69164966  0.51143335  1.0
  C  C136  1  0.74373391  0.48847850  0.18014084  1.0
  C  C137  1  0.56343438  0.81988016  0.30828412  1.0
  C  C138  1  0.74492171  0.30834399  0.48856722  1.0
  C  C139  1  0.25628120  0.51152764  0.81986424  1.0
  C  C140  1  0.43656279  0.18012536  0.69172606  1.0
  C  C141  1  0.25358413  0.64375804  0.43299867  1.0
  C  C142  1  0.82064918  0.56692448  0.21070623  1.0
  C  C143  1  0.60976615  0.78933776  0.35618817  1.0
  C  C144  1  0.74641143  0.35623436  0.56699651  1.0
  C  C145  1  0.17937634  0.43307854  0.78930750  1.0
  C  C146  1  0.39023203  0.21067401  0.64382629  1.0
  C  C147  1  0.38126532  0.48462947  0.11117450  1.0
  C  C148  1  0.27014505  0.88880885  0.37346297  1.0
  C  C149  1  0.89662997  0.62656636  0.51526111  1.0
  C  C150  1  0.61874673  0.51538604  0.88883426  1.0
  C  C151  1  0.72983289  0.11119480  0.62651651  1.0
  C  C152  1  0.10335019  0.37340792  0.48472219  1.0
  C  C153  1  0.47767681  0.89445462  0.59447128  1.0
  C  C154  1  0.88306050  0.40550365  0.30004307  1.0
  C  C155  1  0.58301857  0.69999219  0.10546933  1.0
  C  C156  1  0.52231342  0.10555528  0.40551993  1.0
  C  C157  1  0.11693210  0.59448000  0.69994383  1.0
  C  C158  1  0.41698830  0.30002708  0.89454096  1.0
  C  C159  1  0.17637110  0.65695238  0.53880089  1.0
  C  C160  1  0.63761282  0.46109606  0.11809292  1.0
  C  C161  1  0.51940147  0.88190401  0.34300610  1.0
  C  C162  1  0.82362961  0.34304190  0.46120338  1.0
  C  C163  1  0.36240691  0.53892071  0.88191734  1.0
  C  C164  1  0.48059368  0.11810026  0.65699533  1.0
  O  O165  1  0.42997264  0.52386542  0.08354793  1.0
  O  O166  1  0.34651365  0.91635399  0.44028893  1.0
  O  O167  1  0.90608563  0.55970209  0.47598901  1.0
  O  O168  1  0.57004098  0.47614759  0.91645909  1.0
  O  O169  1  0.65346791  0.08365402  0.55968674  1.0
  O  O170  1  0.09391082  0.44028218  0.52399211  1.0
  O  O171  1  0.43283987  0.26964506  0.10482689  1.0
  O  O172  1  0.32813119  0.89522663  0.16489794  1.0
  O  O173  1  0.16311616  0.83505888  0.73029940  1.0
  O  O174  1  0.56719478  0.73038045  0.89520081  1.0
  O  O175  1  0.67187111  0.10477077  0.83509012  1.0
  O  O176  1  0.83688681  0.16492165  0.26971863  1.0
  O  O177  1  0.35388608  0.40565997  0.08628103  1.0
  O  O178  1  0.26762850  0.91374706  0.31942209  1.0
  O  O179  1  0.94822214  0.68062469  0.59423605  1.0
  O  O180  1  0.64613175  0.59435868  0.91373640  1.0
  O  O181  1  0.73233773  0.08624159  0.68054436  1.0
  O  O182  1  0.05176467  0.31935021  0.40574515  1.0
  O  O183  1  0.24801621  0.24421818  0.97572757  1.0
  O  O184  1  0.27221069  0.02432174  0.26853704  1.0
  O  O185  1  0.00364914  0.73139357  0.75571478  1.0
  O  O186  1  0.75200212  0.75579172  0.02432934  1.0
  O  O187  1  0.72779897  0.97568190  0.73145288  1.0
  O  O188  1  0.99632356  0.26858696  0.24427374  1.0
  O  O189  1  0.12212151  0.57928489  0.49774066  1.0
  O  O190  1  0.62435668  0.50217271  0.08151933  1.0
  O  O191  1  0.54285440  0.91847449  0.42067948  1.0
  O  O192  1  0.87787130  0.42071188  0.50225417  1.0
  O  O193  1  0.37565287  0.49783781  0.91848746  1.0
  O  O194  1  0.45713972  0.08153478  0.57932324  1.0
  O  O195  1  0.16950411  0.71124131  0.60203600  1.0
  O  O196  1  0.56752244  0.39785830  0.10915770  1.0
  O  O197  1  0.45817045  0.89082841  0.28873843  1.0
  O  O198  1  0.83049849  0.28875109  0.39796842  1.0
  O  O199  1  0.43249822  0.60216034  0.89085349  1.0
  O  O200  1  0.54182032  0.10916711  0.71125811  1.0
  O  O201  1  0.52505552  0.93954303  0.56926706  1.0
  O  O202  1  0.95570247  0.43067325  0.37030597  1.0
  O  O203  1  0.58535392  0.62970554  0.06042768  1.0
  O  O204  1  0.47492429  0.06046998  0.43071864  1.0
  O  O205  1  0.04429545  0.56930977  0.62967912  1.0
  O  O206  1  0.41466805  0.37031997  0.93959072  1.0
  O  O207  1  0.50594720  0.92433123  0.67332913  1.0
  O  O208  1  0.83235366  0.32665590  0.25108135  1.0
  O  O209  1  0.58128384  0.74891434  0.07553592  1.0
  O  O210  1  0.49406691  0.07567992  0.32666625  1.0
  O  O211  1  0.16762084  0.67332962  0.74890849  1.0
  O  O212  1  0.41870425  0.25109556  0.92446900  1.0
