# generated using pymatgen
data_ZnSiH16C24N4(O2F3)2
_symmetry_space_group_name_H-M   'P 1'
_cell_length_a   7.65384972
_cell_length_b   14.00920517
_cell_length_c   14.00931149
_cell_angle_alpha   90.01662986
_cell_angle_beta   89.85661867
_cell_angle_gamma   89.85616160
_symmetry_Int_Tables_number   1
_chemical_formula_structural   ZnSiH16C24N4(O2F3)2
_chemical_formula_sum   'Zn1 Si1 H16 C24 N4 O4 F6'
_cell_volume   1502.12983039
_cell_formula_units_Z   1
loop_
 _symmetry_equiv_pos_site_id
 _symmetry_equiv_pos_as_xyz
  1  'x, y, z'
loop_
 _atom_site_type_symbol
 _atom_site_label
 _atom_site_symmetry_multiplicity
 _atom_site_fract_x
 _atom_site_fract_y
 _atom_site_fract_z
 _atom_site_occupancy
  Zn  Zn0  1  0.50001531  0.49999655  0.50000027  1.0
  Si  Si1  1  0.00001384  0.50000035  0.50000299  1.0
  H  H2  1  0.22712232  0.65983160  0.49975608  1.0
  H  H3  1  0.20673688  0.83628751  0.49977358  1.0
  H  H4  1  0.77254241  0.66698426  0.50013893  1.0
  H  H5  1  0.22748964  0.33301312  0.49980308  1.0
  H  H6  1  0.77290943  0.34015581  0.50032512  1.0
  H  H7  1  0.79328175  0.16369563  0.50033761  1.0
  H  H8  1  0.22712733  0.49978436  0.65983494  1.0
  H  H9  1  0.20673804  0.49976763  0.83628875  1.0
  H  H10  1  0.77254480  0.50019029  0.66699016  1.0
  H  H11  1  0.22747784  0.49986063  0.33301253  1.0
  H  H12  1  0.77289692  0.50013880  0.34016417  1.0
  H  H13  1  0.79327582  0.50013411  0.16370751  1.0
  H  H14  1  0.78220871  0.92105293  0.50004736  1.0
  H  H15  1  0.21780495  0.07894303  0.49993677  1.0
  H  H16  1  0.78220002  0.50004018  0.92106193  1.0
  H  H17  1  0.21780311  0.49997150  0.07894149  1.0
  C  C18  1  0.34497133  0.70295704  0.49981921  1.0
  C  C19  1  0.33437482  0.80168516  0.49983226  1.0
  C  C20  1  0.48880721  0.85589334  0.49995133  1.0
  C  C21  1  0.65000990  0.80601596  0.50004775  1.0
  C  C22  1  0.64934778  0.70621124  0.50007718  1.0
  C  C23  1  0.49093829  0.95657506  0.49999955  1.0
  C  C24  1  0.50906733  0.04341736  0.50007739  1.0
  C  C25  1  0.51120759  0.14409764  0.50011132  1.0
  C  C26  1  0.35000893  0.19398072  0.49996065  1.0
  C  C27  1  0.35068156  0.29378329  0.49990908  1.0
  C  C28  1  0.65505392  0.29703250  0.50024701  1.0
  C  C29  1  0.66563994  0.19830011  0.50025323  1.0
  C  C30  1  0.34497927  0.49984651  0.70296174  1.0
  C  C31  1  0.33438092  0.49983746  0.80168980  1.0
  C  C32  1  0.48881506  0.49994477  0.85588933  1.0
  C  C33  1  0.65000426  0.50006084  0.80601840  1.0
  C  C34  1  0.64935048  0.50011454  0.70621943  1.0
  C  C35  1  0.49094307  0.49994944  0.95656457  1.0
  C  C36  1  0.50907462  0.49998799  0.04343311  1.0
  C  C37  1  0.51120258  0.50000979  0.14411264  1.0
  C  C38  1  0.35000937  0.49993441  0.19398287  1.0
  C  C39  1  0.35066832  0.49989927  0.29378397  1.0
  C  C40  1  0.65504101  0.50009949  0.29703595  1.0
  C  C41  1  0.66563155  0.50009427  0.19830932  1.0
  N  N42  1  0.49974370  0.65623556  0.49996544  1.0
  N  N43  1  0.50028950  0.34375540  0.50005081  1.0
  N  N44  1  0.49974213  0.50000169  0.65624238  1.0
  N  N45  1  0.50027022  0.49998357  0.34375889  1.0
  O  O46  1  0.80606256  0.85227895  0.50011460  1.0
  O  O47  1  0.19395504  0.14771844  0.49986240  1.0
  O  O48  1  0.80605856  0.50012235  0.85228709  1.0
  O  O49  1  0.19395108  0.49989718  0.14771775  1.0
  F  F50  1  0.22905976  0.49829114  0.49829143  1.0
  F  F51  1  0.77096691  0.50170839  0.50171197  1.0
  F  F52  1  0.00000801  0.58576080  0.41423535  1.0
  F  F53  1  0.00001837  0.41423919  0.58576991  1.0
  F  F54  1  0.00238192  0.58577779  0.58577406  1.0
  F  F55  1  0.99764344  0.41422103  0.41423148  1.0
