# generated using pymatgen
data_Cd3H10C8(N9Cl)2
_symmetry_space_group_name_H-M   'P 1'
_cell_length_a   10.01489059
_cell_length_b   16.12588646
_cell_length_c   16.12485539
_cell_angle_alpha   115.82844733
_cell_angle_beta   101.94258854
_cell_angle_gamma   101.95083448
_symmetry_Int_Tables_number   1
_chemical_formula_structural   Cd3H10C8(N9Cl)2
_chemical_formula_sum   'Cd9 H30 C24 N54 Cl6'
_cell_volume   2158.69196705
_cell_formula_units_Z   3
loop_
 _symmetry_equiv_pos_site_id
 _symmetry_equiv_pos_as_xyz
  1  'x, y, z'
loop_
 _atom_site_type_symbol
 _atom_site_label
 _atom_site_symmetry_multiplicity
 _atom_site_fract_x
 _atom_site_fract_y
 _atom_site_fract_z
 _atom_site_occupancy
  Cd  Cd0  1  0.92461531  0.24508304  0.54244783  1.0
  Cd  Cd1  1  0.38218940  0.45754937  0.70262688  1.0
  Cd  Cd2  1  0.67956380  0.29736041  0.75493934  1.0
  Cd  Cd3  1  0.07538540  0.75491723  0.45755223  1.0
  Cd  Cd4  1  0.61781029  0.54245090  0.29737367  1.0
  Cd  Cd5  1  0.32043655  0.70263912  0.24506036  1.0
  Cd  Cd6  1  0.00000116  0.00000021  0.50000001  1.0
  Cd  Cd7  1  0.50000068  0.49999977  0.50000053  1.0
  Cd  Cd8  1  0.99999906  0.50000002  0.00000024  1.0
  H  H9  1  0.66221774  0.34328265  0.37029874  1.0
  H  H10  1  0.83399777  0.40798854  0.46380699  1.0
  H  H11  1  0.85938544  0.29476214  0.29035550  1.0
  H  H12  1  0.89464164  0.19204804  0.29385186  1.0
  H  H13  1  0.70557614  0.19320857  0.34841503  1.0
  H  H14  1  0.29178275  0.62979325  0.97297211  1.0
  H  H15  1  0.36995256  0.53623163  0.94416294  1.0
  H  H16  1  0.56895440  0.70960381  0.00440967  1.0
  H  H17  1  0.60078485  0.70612418  0.89821790  1.0
  H  H18  1  0.35717788  0.65162504  0.84476083  1.0
  H  H19  1  0.31893809  0.02699813  0.65666412  1.0
  H  H20  1  0.42606783  0.05593621  0.59204149  1.0
  H  H21  1  0.56451760  0.99562607  0.70528625  1.0
  H  H22  1  0.70252785  0.10179273  0.80798554  1.0
  H  H23  1  0.51225847  0.15522453  0.80682731  1.0
  H  H24  1  0.33778333  0.65671835  0.62970231  1.0
  H  H25  1  0.16600090  0.59201173  0.53619405  1.0
  H  H26  1  0.14061527  0.70523813  0.70964518  1.0
  H  H27  1  0.10535944  0.80795296  0.70614919  1.0
  H  H28  1  0.29442494  0.80679243  0.65158601  1.0
  H  H29  1  0.70821592  0.37020702  0.02702830  1.0
  H  H30  1  0.63004749  0.46376937  0.05583860  1.0
  H  H31  1  0.43104631  0.29039646  0.99559101  1.0
  H  H32  1  0.39921447  0.29387536  0.10178290  1.0
  H  H33  1  0.64282247  0.34837450  0.15523949  1.0
  H  H34  1  0.68106124  0.97300141  0.34333544  1.0
  H  H35  1  0.57393011  0.94406259  0.40795758  1.0
  H  H36  1  0.43548238  0.00437274  0.29471122  1.0
  H  H37  1  0.29747205  0.89820388  0.19201096  1.0
  H  H38  1  0.48774392  0.84477501  0.19317264  1.0
  C  C39  1  0.67309389  0.34013276  0.50265597  1.0
  C  C40  1  0.73930963  0.34054365  0.42810405  1.0
  C  C41  1  0.89152571  0.26561477  0.33911587  1.0
  C  C42  1  0.04027324  0.32959991  0.41095099  1.0
  C  C43  1  0.17030163  0.49742348  0.83744605  1.0
  C  C44  1  0.31103232  0.57196567  0.91241385  1.0
  C  C45  1  0.55230686  0.66084590  0.92649385  1.0
  C  C46  1  0.62916164  0.58896785  0.91863991  1.0
  C  C47  1  0.33289755  0.16253870  0.65990953  1.0
  C  C48  1  0.39875456  0.08760551  0.65946874  1.0
  C  C49  1  0.62582436  0.07353388  0.73444022  1.0
  C  C50  1  0.71052186  0.08135657  0.67040765  1.0
  C  C51  1  0.32690544  0.65986677  0.49734421  1.0
  C  C52  1  0.26069108  0.65945662  0.57189724  1.0
  C  C53  1  0.10847435  0.73438623  0.66088504  1.0
  C  C54  1  0.95972784  0.67040109  0.58905005  1.0
  C  C55  1  0.82969806  0.50257678  0.16255449  1.0
  C  C56  1  0.68896802  0.42803387  0.08758585  1.0
  C  C57  1  0.44769247  0.33915364  0.07350633  1.0
  C  C58  1  0.37084009  0.41103242  0.08135966  1.0
  C  C59  1  0.66710214  0.83746157  0.34009164  1.0
  C  C60  1  0.60124513  0.91239476  0.34053118  1.0
  C  C61  1  0.37417387  0.92646346  0.26555576  1.0
  C  C62  1  0.28947849  0.91864297  0.32959018  1.0
  N  N63  1  0.70592300  0.29590820  0.55372775  1.0
  N  N64  1  0.79103221  0.25699231  0.39165547  1.0
  N  N65  1  0.08543887  0.33971890  0.50053188  1.0
  N  N66  1  0.22408246  0.39715584  0.54065260  1.0
  N  N67  1  0.63095381  0.31614664  0.61600767  1.0
  N  N68  1  0.55518667  0.36973127  0.60324525  1.0
  N  N69  1  0.57933109  0.38554407  0.53180497  1.0
  N  N70  1  0.25989753  0.42057002  0.47718989  1.0
  N  N71  1  0.14658628  0.37989602  0.39497729  1.0
  N  N72  1  0.15213341  0.44631316  0.74217163  1.0
  N  N73  1  0.39929910  0.60836798  0.86532321  1.0
  N  N74  1  0.58482859  0.49940966  0.83918401  1.0
  N  N75  1  0.68341276  0.45932783  0.85650429  1.0
  N  N76  1  0.01493435  0.38398425  0.70015011  1.0
  N  N77  1  0.95190391  0.39675307  0.76649382  1.0
  N  N78  1  0.04742128  0.46824995  0.85372878  1.0
  N  N79  1  0.78265014  0.52280038  0.94338041  1.0
  N  N80  1  0.75147003  0.60497936  0.98491420  1.0
  N  N81  1  0.40996017  0.25782118  0.70411804  1.0
  N  N82  1  0.53398266  0.13470344  0.74306109  1.0
  N  N83  1  0.74565501  0.16081270  0.66029253  1.0
  N  N84  1  0.82689049  0.14348422  0.60286723  1.0
  N  N85  1  0.31476863  0.29985214  0.68386190  1.0
  N  N86  1  0.18541578  0.23350536  0.63027433  1.0
  N  N87  1  0.19373661  0.14625882  0.61447631  1.0
  N  N88  1  0.83923808  0.05660307  0.57945793  1.0
  N  N89  1  0.76653540  0.01507544  0.62012293  1.0
  N  N90  1  0.29407494  0.70409061  0.44627193  1.0
  N  N91  1  0.20896886  0.74300869  0.60834557  1.0
  N  N92  1  0.91456221  0.66028210  0.49946917  1.0
  N  N93  1  0.77591862  0.60284516  0.45934845  1.0
  N  N94  1  0.36904588  0.68385363  0.38399287  1.0
  N  N95  1  0.44481265  0.63026826  0.39675493  1.0
  N  N96  1  0.42066722  0.61445546  0.46819508  1.0
  N  N97  1  0.74010355  0.57943098  0.52281116  1.0
  N  N98  1  0.85341480  0.62010498  0.60502376  1.0
  N  N99  1  0.84786767  0.55368784  0.25782942  1.0
  N  N100  1  0.60070023  0.39163156  0.13467697  1.0
  N  N101  1  0.41517212  0.50059061  0.16081667  1.0
  N  N102  1  0.31658758  0.54067171  0.14349665  1.0
  N  N103  1  0.98506637  0.61601602  0.29985056  1.0
  N  N104  1  0.04809644  0.60324646  0.23350649  1.0
  N  N105  1  0.95257841  0.53175032  0.14627176  1.0
  N  N106  1  0.21734919  0.47719916  0.05662040  1.0
  N  N107  1  0.24853032  0.39502017  0.01508611  1.0
  N  N108  1  0.59003952  0.74217909  0.29588312  1.0
  N  N109  1  0.46601732  0.86529536  0.25693762  1.0
  N  N110  1  0.25434533  0.83918683  0.33970592  1.0
  N  N111  1  0.17311124  0.85651605  0.39713234  1.0
  N  N112  1  0.68523172  0.70014740  0.31613841  1.0
  N  N113  1  0.81458456  0.76649418  0.36972536  1.0
  N  N114  1  0.80626271  0.85374071  0.38552387  1.0
  N  N115  1  0.16076264  0.94339720  0.42054089  1.0
  N  N116  1  0.23346458  0.98492336  0.37987454  1.0
  Cl  Cl117  1  0.92998142  0.08798880  0.39824052  1.0
  Cl  Cl118  1  0.53179761  0.60176957  0.68977523  1.0
  Cl  Cl119  1  0.84208906  0.31021788  0.91200703  1.0
  Cl  Cl120  1  0.07001790  0.91201073  0.60175842  1.0
  Cl  Cl121  1  0.46820310  0.39823070  0.31022607  1.0
  Cl  Cl122  1  0.15791026  0.68978166  0.08799315  1.0
