# generated using pymatgen
data_AlH10C16O5F
_symmetry_space_group_name_H-M   'P 1'
_cell_length_a   6.63316727
_cell_length_b   15.36919816
_cell_length_c   17.68461223
_cell_angle_alpha   92.51311761
_cell_angle_beta   99.64220263
_cell_angle_gamma   102.33275046
_symmetry_Int_Tables_number   1
_chemical_formula_structural   AlH10C16O5F
_chemical_formula_sum   'Al2 H20 C32 O10 F2'
_cell_volume   1730.45395060
_cell_formula_units_Z   2
loop_
 _symmetry_equiv_pos_site_id
 _symmetry_equiv_pos_as_xyz
  1  'x, y, z'
loop_
 _atom_site_type_symbol
 _atom_site_label
 _atom_site_symmetry_multiplicity
 _atom_site_fract_x
 _atom_site_fract_y
 _atom_site_fract_z
 _atom_site_occupancy
  Al  Al0  1  0.00147738  0.49865790  0.49965094  1.0
  Al  Al1  1  0.50124607  0.49859563  0.49933264  1.0
  H  H2  1  0.32546217  0.57425259  0.58293797  1.0
  H  H3  1  0.67729170  0.41971884  0.41777142  1.0
  H  H4  1  0.81626263  0.43856530  0.26755032  1.0
  H  H5  1  0.73926311  0.44046771  0.12446726  1.0
  H  H6  1  0.46498428  0.55659618  0.26864002  1.0
  H  H7  1  0.53565175  0.44161360  0.72939955  1.0
  H  H8  1  0.18134271  0.56801042  0.73376876  1.0
  H  H9  1  0.25148489  0.56986093  0.87719519  1.0
  H  H10  1  0.42011116  0.22790484  0.48183945  1.0
  H  H11  1  0.59792966  0.76957853  0.53027210  1.0
  H  H12  1  0.17268391  0.76824309  0.44866651  1.0
  H  H13  1  0.25100276  0.93132589  0.45405971  1.0
  H  H14  1  0.81617598  0.22859899  0.53957970  1.0
  H  H15  1  0.73590100  0.06560535  0.53347147  1.0
  H  H16  1  0.58952401  0.59743360  0.15327282  1.0
  H  H17  1  0.40192581  0.63614140  0.08651270  1.0
  H  H18  1  0.45219668  0.53014498  0.06786534  1.0
  H  H19  1  0.53753661  0.47118552  0.92982866  1.0
  H  H20  1  0.59324160  0.36602130  0.91194560  1.0
  H  H21  1  0.40580906  0.40334500  0.84409574  1.0
  C  C22  1  0.83555363  0.65785747  0.49027168  1.0
  C  C23  1  0.80914339  0.50495102  0.63812626  1.0
  C  C24  1  0.16743042  0.33927704  0.50887618  1.0
  C  C25  1  0.19320885  0.49388006  0.36111888  1.0
  C  C26  1  0.14595587  0.49676790  0.27613825  1.0
  C  C27  1  0.94024750  0.46493001  0.23590229  1.0
  C  C28  1  0.89763593  0.46650725  0.15656988  1.0
  C  C29  1  0.05853797  0.50205226  0.11599467  1.0
  C  C30  1  0.26684739  0.53645093  0.15657340  1.0
  C  C31  1  0.30647912  0.53177446  0.23606636  1.0
  C  C32  1  0.01270222  0.50321015  0.03512321  1.0
  C  C33  1  0.97714626  0.50406018  0.96508192  1.0
  C  C34  1  0.93371623  0.50411354  0.88408387  1.0
  C  C35  1  0.72805537  0.46659127  0.84252344  1.0
  C  C36  1  0.69208169  0.46906862  0.76277172  1.0
  C  C37  1  0.85361299  0.50495187  0.72341151  1.0
  C  C38  1  0.05658476  0.54052109  0.76473362  1.0
  C  C39  1  0.09536417  0.54108814  0.84428255  1.0
  C  C40  1  0.12254999  0.24023106  0.51066322  1.0
  C  C41  1  0.88082097  0.75698469  0.48935458  1.0
  C  C42  1  0.26929195  0.19281620  0.49375372  1.0
  C  C43  1  0.22159592  0.10045904  0.49082861  1.0
  C  C44  1  0.74281580  0.80456511  0.51370098  1.0
  C  C45  1  0.79238987  0.89700861  0.51861433  1.0
  C  C46  1  0.06398721  0.80467308  0.46789332  1.0
  C  C47  1  0.10777525  0.89738613  0.47156737  1.0
  C  C48  1  0.93133225  0.19231345  0.52582543  1.0
  C  C49  1  0.88722541  0.09963107  0.52242766  1.0
  C  C50  1  0.02909715  0.04819481  0.50395404  1.0
  C  C51  1  0.97618549  0.94903314  0.49835126  1.0
  C  C52  1  0.43758436  0.57713996  0.11430553  1.0
  C  C53  1  0.55622397  0.42462776  0.88384295  1.0
  O  O54  1  0.97970081  0.61883640  0.47812834  1.0
  O  O55  1  0.61735097  0.48947954  0.60519685  1.0
  O  O56  1  0.34502602  0.37690345  0.49343161  1.0
  O  O57  1  0.03711144  0.47650463  0.39588130  1.0
  O  O58  1  0.02312632  0.37838559  0.52071826  1.0
  O  O59  1  0.38532889  0.50823582  0.39353308  1.0
  O  O60  1  0.65787465  0.62011566  0.50555573  1.0
  O  O61  1  0.96619247  0.52113297  0.60373496  1.0
  O  O62  1  0.28765818  0.54167663  0.53265564  1.0
  O  O63  1  0.71521951  0.45547938  0.46656498  1.0
  F  F64  1  0.37765442  0.06148056  0.47345674  1.0
  F  F65  1  0.64891208  0.93605239  0.54619637  1.0
