# generated using pymatgen
data_AlH9C27(N5O6)2
_symmetry_space_group_name_H-M   'P 1'
_cell_length_a   4.02368131
_cell_length_b   17.04470708
_cell_length_c   17.59065702
_cell_angle_alpha   63.05197489
_cell_angle_beta   89.42350617
_cell_angle_gamma   88.12320200
_symmetry_Int_Tables_number   1
_chemical_formula_structural   AlH9C27(N5O6)2
_chemical_formula_sum   'Al1 H9 C27 N10 O12'
_cell_volume   1074.82382553
_cell_formula_units_Z   1
loop_
 _symmetry_equiv_pos_site_id
 _symmetry_equiv_pos_as_xyz
  1  'x, y, z'
loop_
 _atom_site_type_symbol
 _atom_site_label
 _atom_site_symmetry_multiplicity
 _atom_site_fract_x
 _atom_site_fract_y
 _atom_site_fract_z
 _atom_site_occupancy
  Al  Al0  1  0.54832097  0.99368512  0.50593786  1.0
  H  H1  1  0.88406792  0.70817140  0.89716587  1.0
  H  H2  1  0.74407045  0.91770936  0.19259085  1.0
  H  H3  1  0.23116779  0.39814205  0.41414537  1.0
  H  H4  1  0.75605269  0.66662861  0.41754866  1.0
  H  H5  1  0.95715282  0.98867927  0.27910597  1.0
  H  H6  1  0.18778678  0.23426366  0.48943145  1.0
  H  H7  1  0.93973156  0.39897875  0.17865406  1.0
  H  H8  1  0.34670005  0.93052454  0.90179964  1.0
  H  H9  1  0.83987946  0.79057566  0.73840663  1.0
  C  C10  1  0.05502111  0.94842391  0.63516337  1.0
  C  C11  1  0.04975068  0.91377490  0.44870100  1.0
  C  C12  1  0.03595478  0.12655764  0.42752223  1.0
  C  C13  1  0.97133910  0.77513173  0.86320107  1.0
  C  C14  1  0.11601709  0.81404181  0.90980589  1.0
  C  C15  1  0.79555409  0.87875055  0.26048175  1.0
  C  C16  1  0.73028365  0.78842043  0.29952783  1.0
  C  C17  1  0.08800913  0.40893468  0.29204409  1.0
  C  C18  1  0.15635433  0.36206977  0.37985064  1.0
  C  C19  1  0.79816175  0.73701801  0.38674876  1.0
  C  C20  1  0.92168440  0.77703028  0.43318065  1.0
  C  C21  1  0.97726545  0.86764401  0.39603664  1.0
  C  C22  1  0.91715654  0.91801426  0.30848129  1.0
  C  C23  1  0.13431823  0.27118767  0.42141677  1.0
  C  C24  1  0.04678802  0.22446342  0.37668641  1.0
  C  C25  1  0.97469849  0.27244813  0.28935000  1.0
  C  C26  1  0.98989387  0.36367071  0.24686389  1.0
  C  C27  1  0.23232373  0.89971705  0.86675577  1.0
  C  C28  1  0.20541647  0.94471550  0.77860246  1.0
  C  C29  1  0.06399292  0.90687100  0.73099233  1.0
  C  C30  1  0.94654254  0.82113875  0.77486503  1.0
  C  C31  1  0.12086133  0.63361593  0.12378554  1.0
  C  C32  1  0.38382265  0.76065482  0.12380853  1.0
  C  C33  1  0.16316061  0.76439792  0.00284984  1.0
  C  C34  1  0.14149645  0.50447129  0.24755776  1.0
  C  C35  1  0.36986548  0.62235127  0.25424163  1.0
  C  C36  1  0.58499982  0.74664923  0.25084861  1.0
  N  N37  1  0.29098784  0.67224106  0.16728483  1.0
  N  N38  1  0.32455340  0.80548496  0.04048142  1.0
  N  N39  1  0.04824052  0.68201998  0.04131406  1.0
  N  N40  1  0.03778595  0.54932834  0.16597195  1.0
  N  N41  1  0.29914052  0.53746466  0.29323567  1.0
  N  N42  1  0.53267374  0.79734512  0.16683078  1.0
  N  N43  1  0.51688571  0.66082887  0.29557173  1.0
  N  N44  1  0.34017844  0.03396941  0.73530878  1.0
  N  N45  1  0.90601145  0.22691775  0.23715444  1.0
  N  N46  1  0.00683012  0.72122639  0.52393918  1.0
  O  O47  1  0.79718881  0.08546691  0.41725304  1.0
  O  O48  1  0.80759930  0.99717624  0.59585480  1.0
  O  O49  1  0.83196551  0.90507707  0.50493665  1.0
  O  O50  1  0.26840172  0.09263633  0.48236163  1.0
  O  O51  1  0.29801708  0.96268573  0.42994317  1.0
  O  O52  1  0.29351723  0.92279540  0.60291322  1.0
  O  O53  1  0.26924877  0.07868069  0.65892263  1.0
  O  O54  1  0.51635359  0.05793420  0.77776212  1.0
  O  O55  1  0.06413264  0.15735241  0.25453396  1.0
  O  O56  1  0.70035350  0.26304330  0.17863526  1.0
  O  O57  1  0.21167499  0.75071341  0.55597487  1.0
  O  O58  1  0.87487672  0.64921224  0.56096911  1.0
