# generated using pymatgen
data_ZnH7C16Br3N3O7
_symmetry_space_group_name_H-M   'P 1'
_cell_length_a   9.62399848
_cell_length_b   10.74147706
_cell_length_c   19.56423531
_cell_angle_alpha   79.79424516
_cell_angle_beta   84.26318721
_cell_angle_gamma   78.87857532
_symmetry_Int_Tables_number   1
_chemical_formula_structural   ZnH7C16Br3N3O7
_chemical_formula_sum   'Zn2 H14 C32 Br6 N6 O14'
_cell_volume   1948.55516729
_cell_formula_units_Z   2
loop_
 _symmetry_equiv_pos_site_id
 _symmetry_equiv_pos_as_xyz
  1  'x, y, z'
loop_
 _atom_site_type_symbol
 _atom_site_label
 _atom_site_symmetry_multiplicity
 _atom_site_fract_x
 _atom_site_fract_y
 _atom_site_fract_z
 _atom_site_occupancy
  Zn  Zn0  1  0.34705862  0.51835276  0.50819777  1.0
  Zn  Zn1  1  0.65378135  0.48172817  0.49181050  1.0
  H  H2  1  0.67284156  0.59622463  0.83838880  1.0
  H  H3  1  0.32448236  0.40478529  0.16251491  1.0
  H  H4  1  0.45397801  0.15638952  0.39415635  1.0
  H  H5  1  0.54704005  0.84348102  0.60588830  1.0
  H  H6  1  0.33635911  0.07018972  0.59585686  1.0
  H  H7  1  0.66453124  0.92973916  0.40414965  1.0
  H  H8  1  0.82345468  0.68420091  0.52537891  1.0
  H  H9  1  0.17716032  0.31582741  0.47455106  1.0
  H  H10  1  0.29629907  0.44514093  0.68095852  1.0
  H  H11  1  0.70607130  0.55322466  0.31837920  1.0
  H  H12  1  0.96821069  0.55113691  0.65751460  1.0
  H  H13  1  0.03247114  0.44869422  0.34242919  1.0
  H  H14  1  0.23021107  0.37736603  0.83322051  1.0
  H  H15  1  0.77006273  0.62082691  0.16560193  1.0
  C  C16  1  0.47981614  0.74573206  0.48392322  1.0
  C  C17  1  0.52069887  0.25427892  0.51607422  1.0
  C  C18  1  0.36606489  0.00752635  0.48418453  1.0
  C  C19  1  0.63488014  0.99238964  0.51584641  1.0
  C  C20  1  0.47540868  0.08550933  0.44099825  1.0
  C  C21  1  0.52557060  0.91433497  0.55902393  1.0
  C  C22  1  0.51864532  0.11807156  0.51099270  1.0
  C  C23  1  0.48225788  0.88182337  0.48903153  1.0
  C  C24  1  0.40930581  0.03816183  0.55339448  1.0
  C  C25  1  0.59163789  0.96177273  0.44662689  1.0
  C  C26  1  0.90746585  0.60467756  0.51501601  1.0
  C  C27  1  0.09321839  0.39541987  0.48488949  1.0
  C  C28  1  0.02566287  0.60407405  0.45573359  1.0
  C  C29  1  0.97501730  0.39603001  0.54416194  1.0
  C  C30  1  0.01681758  0.51817234  0.56433216  1.0
  C  C31  1  0.98387116  0.48194446  0.43556769  1.0
  C  C32  1  0.50736278  0.50615759  0.63557099  1.0
  C  C33  1  0.49438496  0.49363268  0.36451146  1.0
  C  C34  1  0.39995477  0.45768260  0.75606951  1.0
  C  C35  1  0.60084775  0.54108696  0.24370617  1.0
  C  C36  1  0.39575042  0.44731825  0.82955589  1.0
  C  C37  1  0.60352503  0.55180190  0.17024424  1.0
  C  C38  1  0.49649050  0.49576751  0.85948062  1.0
  C  C39  1  0.50130222  0.50448930  0.14074704  1.0
  C  C40  1  0.59980205  0.55322029  0.81497323  1.0
  C  C41  1  0.39853041  0.44706998  0.18567108  1.0
  C  C42  1  0.60525807  0.55804479  0.74390493  1.0
  C  C43  1  0.39462997  0.44179753  0.25672241  1.0
  C  C44  1  0.50692507  0.50896300  0.71163101  1.0
  C  C45  1  0.49402044  0.49039481  0.28853307  1.0
  C  C46  1  0.49995260  0.50446631  0.06570083  1.0
  C  C47  1  0.49515491  0.49768854  0.93445943  1.0
  Br  Br48  1  0.73928713  0.65563043  0.69114352  1.0
  Br  Br49  1  0.26149406  0.34413799  0.31020250  1.0
  Br  Br50  1  0.17285619  0.02645991  0.46123194  1.0
  Br  Br51  1  0.82818033  0.97353493  0.53866361  1.0
  Br  Br52  1  0.07148213  0.74648440  0.39234852  1.0
  Br  Br53  1  0.92910720  0.25362876  0.60749950  1.0
  N  N54  1  0.55695375  0.58885090  0.95315350  1.0
  N  N55  1  0.43517584  0.41531556  0.04695762  1.0
  N  N56  1  0.55964163  0.59271619  0.01985580  1.0
  N  N57  1  0.43266830  0.41130800  0.98027044  1.0
  N  N58  1  0.13436879  0.51632528  0.50480616  1.0
  N  N59  1  0.86636210  0.48376921  0.49509525  1.0
  O  O60  1  0.36207250  0.70603701  0.49430382  1.0
  O  O61  1  0.63837794  0.29413701  0.50620679  1.0
  O  O62  1  0.60179891  0.67860123  0.47300892  1.0
  O  O63  1  0.39843191  0.32130597  0.52643229  1.0
  O  O64  1  0.38564131  0.50563249  0.61330938  1.0
  O  O65  1  0.61653349  0.49312926  0.38657996  1.0
  O  O66  1  0.62247621  0.50145991  0.59817275  1.0
  O  O67  1  0.37922454  0.49977630  0.40191510  1.0
  O  O68  1  0.29266195  0.41485381  0.73299485  1.0
  O  O69  1  0.70906853  0.58326257  0.26636464  1.0
  O  O70  1  0.05469398  0.53452875  0.62623893  1.0
  O  O71  1  0.94596876  0.46557654  0.37366313  1.0
  O  O72  1  0.28833040  0.39677385  0.86717688  1.0
  O  O73  1  0.71064923  0.60193361  0.13206544  1.0
