# generated using pymatgen
data_Zn2H32C39(NO6)2
_symmetry_space_group_name_H-M   'P 1'
_cell_length_a   9.66747013
_cell_length_b   11.03399440
_cell_length_c   17.47354331
_cell_angle_alpha   88.58725715
_cell_angle_beta   89.39213809
_cell_angle_gamma   88.17735656
_symmetry_Int_Tables_number   1
_chemical_formula_structural   Zn2H32C39(NO6)2
_chemical_formula_sum   'Zn2 H32 C39 N2 O12'
_cell_volume   1862.31770622
_cell_formula_units_Z   1
loop_
 _symmetry_equiv_pos_site_id
 _symmetry_equiv_pos_as_xyz
  1  'x, y, z'
loop_
 _atom_site_type_symbol
 _atom_site_label
 _atom_site_symmetry_multiplicity
 _atom_site_fract_x
 _atom_site_fract_y
 _atom_site_fract_z
 _atom_site_occupancy
  Zn  Zn0  1  0.63029332  0.47737021  0.50090841  1.0
  Zn  Zn1  1  0.34742837  0.48766549  0.50166270  1.0
  H  H2  1  0.27513254  0.10806190  0.52304546  1.0
  H  H3  1  0.77521970  0.06568496  0.39280459  1.0
  H  H4  1  0.82814398  0.08788199  0.48962573  1.0
  H  H5  1  0.81979173  0.86120999  0.51335318  1.0
  H  H6  1  0.11233094  0.57510357  0.60461179  1.0
  H  H7  1  0.85130128  0.57008040  0.60539237  1.0
  H  H8  1  0.87063734  0.27363448  0.37948740  1.0
  H  H9  1  0.86311750  0.41415866  0.32663015  1.0
  H  H10  1  0.13339421  0.27768178  0.37903408  1.0
  H  H11  1  0.12675195  0.41822412  0.32605714  1.0
  H  H12  1  0.30770594  0.61273733  0.72896605  1.0
  H  H13  1  0.32439646  0.68564678  0.86305946  1.0
  H  H14  1  0.73379933  0.61789264  0.12562811  1.0
  H  H15  1  0.72186128  0.57305143  0.26663676  1.0
  H  H16  1  0.27904404  0.58581851  0.25925772  1.0
  H  H17  1  0.28781404  0.63534964  0.11866551  1.0
  H  H18  1  0.26889185  0.88282994  0.53397909  1.0
  H  H19  1  0.89266517  0.53838652  0.96671374  1.0
  H  H20  1  0.76757167  0.65592807  0.94591381  1.0
  H  H21  1  0.99328620  0.56198669  0.83511257  1.0
  H  H22  1  0.86511529  0.67361188  0.81150050  1.0
  H  H23  1  0.95462674  0.80949271  0.91383846  1.0
  H  H24  1  0.08571968  0.77222941  0.84601296  1.0
  H  H25  1  0.08479245  0.69776829  0.93725232  1.0
  H  H26  1  0.91891678  0.71547610  0.34467405  1.0
  H  H27  1  0.94945145  0.72509053  0.44490489  1.0
  H  H28  1  0.99155870  0.93455274  0.32920501  1.0
  H  H29  1  0.03781684  0.93164839  0.42696744  1.0
  H  H30  1  0.20766664  0.75382849  0.40172625  1.0
  H  H31  1  0.24835011  0.88549430  0.34757502  1.0
  H  H32  1  0.16421002  0.76574460  0.30317052  1.0
  H  H33  1  0.90908740  0.36257741  0.71959925  1.0
  C  C34  1  0.48004173  0.71817210  0.51290563  1.0
  C  C35  1  0.52334736  0.59813097  0.88338555  1.0
  C  C36  1  0.52310605  0.62511781  0.96198675  1.0
  C  C37  1  0.51734833  0.63434061  0.03149745  1.0
  C  C38  1  0.63428026  0.61130315  0.15510949  1.0
  C  C39  1  0.62786354  0.58524369  0.23313108  1.0
  C  C40  1  0.49988665  0.57182954  0.27050289  1.0
  C  C41  1  0.37773795  0.59311747  0.22911028  1.0
  C  C42  1  0.38274997  0.62094760  0.15119388  1.0
  C  C43  1  0.51141877  0.62592296  0.11235901  1.0
  C  C44  1  0.60361941  0.91322710  0.48491564  1.0
  C  C45  1  0.49499129  0.53261305  0.35307999  1.0
  C  C46  1  0.48410467  0.85280939  0.50574897  1.0
  C  C47  1  0.36495475  0.92676527  0.51838792  1.0
  C  C48  1  0.36835816  0.05288880  0.51186498  1.0
  C  C49  1  0.49046907  0.11325735  0.49176490  1.0
  C  C50  1  0.60701262  0.03925580  0.47740148  1.0
  C  C51  1  0.75797555  0.03898086  0.45307367  1.0
  C  C52  1  0.75597586  0.89523747  0.46473755  1.0
  C  C53  1  0.06419322  0.43421784  0.44729653  1.0
  C  C54  1  0.05671434  0.53394146  0.55854199  1.0
  C  C55  1  0.91254942  0.53147343  0.55886205  1.0
  C  C56  1  0.49255564  0.24821105  0.48861963  1.0
  C  C57  1  0.92025441  0.43173775  0.44756600  1.0
  C  C58  1  0.91485234  0.36382137  0.37368639  1.0
  C  C59  1  0.07949598  0.36646857  0.37338476  1.0
  C  C60  1  0.49082140  0.47636035  0.65138620  1.0
  C  C61  1  0.63291686  0.52670623  0.85057222  1.0
  C  C62  1  0.61909081  0.48132036  0.77686535  1.0
  C  C63  1  0.50097506  0.51221156  0.73330973  1.0
  C  C64  1  0.39673649  0.58779079  0.76428620  1.0
  C  C65  1  0.40720939  0.62963840  0.83811202  1.0
  C  C66  1  0.83299652  0.58377292  0.92046858  1.0
  C  C67  1  0.92839452  0.63578964  0.85893586  1.0
  C  C68  1  0.01814845  0.73407110  0.89083881  1.0
  C  C69  1  0.92104012  0.77858094  0.39249050  1.0
  C  C70  1  0.02880566  0.87457414  0.37646548  1.0
  C  C71  1  0.16975745  0.81668762  0.35630634  1.0
  C  C72  1  0.72402445  0.38741940  0.75063086  1.0
  N  N73  1  0.13566395  0.48452379  0.50188050  1.0
  N  N74  1  0.84145744  0.47922603  0.50245634  1.0
  O  O75  1  0.59540056  0.66032164  0.52009335  1.0
  O  O76  1  0.36122921  0.67132382  0.51040238  1.0
  O  O77  1  0.61112500  0.51739281  0.38644744  1.0
  O  O78  1  0.37655794  0.51611402  0.38372998  1.0
  O  O79  1  0.61035314  0.29617769  0.48200859  1.0
  O  O80  1  0.37623010  0.30570258  0.49395997  1.0
  O  O81  1  0.60453385  0.44912186  0.61733812  1.0
  O  O82  1  0.37174349  0.48124443  0.62096544  1.0
  O  O83  1  0.74719171  0.48972759  0.89161512  1.0
  O  O84  1  0.78180649  0.82441176  0.39956168  1.0
  O  O85  1  0.70213503  0.27940488  0.75047931  1.0
  O  O86  1  0.84935928  0.43342672  0.73129593  1.0
