# generated using pymatgen
data_ZnH14C26(NO2)2
_symmetry_space_group_name_H-M   'P 1'
_cell_length_a   9.00277630
_cell_length_b   12.73295595
_cell_length_c   13.26599530
_cell_angle_alpha   91.58703166
_cell_angle_beta   93.22909465
_cell_angle_gamma   102.27923707
_symmetry_Int_Tables_number   1
_chemical_formula_structural   ZnH14C26(NO2)2
_chemical_formula_sum   'Zn2 H28 C52 N4 O8'
_cell_volume   1482.33073838
_cell_formula_units_Z   2
loop_
 _symmetry_equiv_pos_site_id
 _symmetry_equiv_pos_as_xyz
  1  'x, y, z'
loop_
 _atom_site_type_symbol
 _atom_site_label
 _atom_site_symmetry_multiplicity
 _atom_site_fract_x
 _atom_site_fract_y
 _atom_site_fract_z
 _atom_site_occupancy
  Zn  Zn0  1  0.15515587  0.40334535  0.03762494  1.0
  Zn  Zn1  1  0.84484263  0.59666111  0.96237288  1.0
  H  H2  1  0.41094141  0.54987432  0.93288051  1.0
  H  H3  1  0.58905799  0.45014026  0.06710633  1.0
  H  H4  1  0.09885276  0.82295472  0.05138964  1.0
  H  H5  1  0.90114643  0.17705013  0.94860964  1.0
  H  H6  1  0.10212084  0.26906762  0.84156427  1.0
  H  H7  1  0.89787369  0.73094355  0.15844117  1.0
  H  H8  1  0.11996086  0.02054920  0.05346876  1.0
  H  H9  1  0.88003651  0.97945725  0.94652828  1.0
  H  H10  1  0.49594040  0.69537706  0.12063737  1.0
  H  H11  1  0.50405799  0.30462855  0.87936494  1.0
  H  H12  1  0.65231369  0.88009236  0.15730297  1.0
  H  H13  1  0.34768479  0.11991410  0.84269410  1.0
  H  H14  1  0.90069583  0.24532997  0.12538454  1.0
  H  H15  1  0.09930569  0.75465963  0.87461572  1.0
  H  H16  1  0.54694869  0.23466372  0.13824077  1.0
  H  H17  1  0.45305290  0.76534197  0.86175634  1.0
  H  H18  1  0.72790743  0.23497292  0.26914475  1.0
  H  H19  1  0.27210259  0.76500708  0.73086064  1.0
  H  H20  1  0.54810234  0.55128078  0.77690211  1.0
  H  H21  1  0.45189381  0.44871852  0.22308558  1.0
  H  H22  1  0.22880906  0.25516446  0.67891408  1.0
  H  H23  1  0.77119032  0.74482824  0.32109681  1.0
  H  H24  1  0.15532213  0.54055156  0.23233129  1.0
  H  H25  1  0.84465680  0.45944512  0.76766341  1.0
  H  H26  1  0.67123618  0.07793853  0.16363658  1.0
  H  H27  1  0.32876516  0.92206635  0.83635974  1.0
  H  H28  1  0.99436935  0.54503520  0.37912180  1.0
  H  H29  1  0.00562219  0.45495027  0.62088184  1.0
  C  C30  1  0.19530176  0.63643089  0.06605022  1.0
  C  C31  1  0.80469870  0.36357392  0.93395437  1.0
  C  C32  1  0.37273094  0.48679241  0.87425636  1.0
  C  C33  1  0.62726870  0.51321895  0.12573262  1.0
  C  C34  1  0.21940927  0.83567640  0.07577532  1.0
  C  C35  1  0.78058709  0.16433001  0.92422546  1.0
  C  C36  1  0.32557826  0.13585313  0.09553622  1.0
  C  C37  1  0.67442407  0.86415495  0.90446251  1.0
  C  C38  1  0.28756752  0.74843689  0.08606996  1.0
  C  C39  1  0.71242885  0.25156951  0.91393157  1.0
  C  C40  1  0.46464413  0.95873885  0.12518151  1.0
  C  C41  1  0.53535478  0.04126520  0.87481623  1.0
  C  C42  1  0.30572032  0.94195184  0.09384271  1.0
  C  C43  1  0.69427795  0.05805381  0.90615508  1.0
  C  C44  1  0.25478487  0.22990263  0.07527371  1.0
  C  C45  1  0.74521407  0.77010142  0.92472478  1.0
  C  C46  1  0.40036250  0.40203052  0.71394525  1.0
  C  C47  1  0.59963160  0.59796783  0.28605743  1.0
  C  C48  1  0.20089849  0.32931399  0.82262864  1.0
  C  C49  1  0.79910314  0.67069168  0.17736998  1.0
  C  C50  1  0.23975672  0.03238199  0.07929102  1.0
  C  C51  1  0.76024469  0.96762690  0.92070621  1.0
  C  C52  1  0.44510985  0.76536945  0.11548418  1.0
  C  C53  1  0.55488789  0.23463776  0.88451817  1.0
  C  C54  1  0.53090964  0.86770264  0.13548931  1.0
  C  C55  1  0.46909159  0.13230543  0.86451015  1.0
  C  C56  1  0.91607855  0.30955484  0.18360133  1.0
  C  C57  1  0.08392046  0.69043395  0.81639734  1.0
  C  C58  1  0.48499244  0.39580280  0.62849855  1.0
  C  C59  1  0.51501107  0.60418602  0.37150174  1.0
  C  C60  1  0.48213221  0.15209980  0.12775917  1.0
  C  C61  1  0.51786764  0.84790747  0.87223871  1.0
  C  C62  1  0.82129900  0.30408276  0.26315592  1.0
  C  C63  1  0.17870895  0.69589805  0.73684643  1.0
  C  C64  1  0.66166202  0.39090765  0.48335463  1.0
  C  C65  1  0.33836555  0.60908203  0.51666136  1.0
  C  C66  1  0.44931318  0.48712504  0.78625604  1.0
  C  C67  1  0.55068756  0.51287828  0.21373493  1.0
  C  C68  1  0.56836919  0.39310209  0.55888223  1.0
  C  C69  1  0.43164631  0.60688428  0.44113334  1.0
  C  C70  1  0.27090774  0.32241190  0.73280626  1.0
  C  C71  1  0.72909258  0.67758489  0.26719651  1.0
  C  C72  1  0.05884714  0.47488625  0.24314410  1.0
  C  C73  1  0.94114089  0.52510328  0.75685207  1.0
  C  C74  1  0.54977982  0.06581114  0.14179093  1.0
  C  C75  1  0.45021733  0.93419450  0.85820683  1.0
  C  C76  1  0.74817866  0.38996700  0.41523202  1.0
  C  C77  1  0.25183394  0.61001869  0.58476761  1.0
  C  C78  1  0.84553600  0.39020750  0.33560145  1.0
  C  C79  1  0.15447045  0.60977569  0.66440247  1.0
  C  C80  1  0.96956904  0.47690414  0.32483576  1.0
  C  C81  1  0.03042582  0.52308137  0.67516721  1.0
  N  N82  1  0.03224463  0.39384841  0.17277079  1.0
  N  N83  1  0.96774376  0.60614591  0.82722858  1.0
  N  N84  1  0.25184703  0.40915588  0.89302000  1.0
  N  N85  1  0.74815202  0.59085619  0.10697955  1.0
  O  O86  1  0.26776140  0.55983927  0.07047458  1.0
  O  O87  1  0.73223923  0.44016636  0.92952778  1.0
  O  O88  1  0.05272099  0.62241327  0.04941588  1.0
  O  O89  1  0.94727880  0.37758999  0.95058110  1.0
  O  O90  1  0.12057548  0.21399213  0.03380945  1.0
  O  O91  1  0.87942460  0.78601192  0.96618982  1.0
  O  O92  1  0.33208448  0.32505919  0.09881482  1.0
  O  O93  1  0.66791217  0.67494485  0.90118135  1.0
