# generated using pymatgen
data_CdH22C40(NO2)4
_symmetry_space_group_name_H-M   'P 1'
_cell_length_a   12.88677158
_cell_length_b   12.88679049
_cell_length_c   29.65288916
_cell_angle_alpha   89.99946060
_cell_angle_beta   89.99961069
_cell_angle_gamma   77.05873097
_symmetry_Int_Tables_number   1
_chemical_formula_structural   CdH22C40(NO2)4
_chemical_formula_sum   'Cd4 H88 C160 N16 O32'
_cell_volume   4799.34954623
_cell_formula_units_Z   4
loop_
 _symmetry_equiv_pos_site_id
 _symmetry_equiv_pos_as_xyz
  1  'x, y, z'
loop_
 _atom_site_type_symbol
 _atom_site_label
 _atom_site_symmetry_multiplicity
 _atom_site_fract_x
 _atom_site_fract_y
 _atom_site_fract_z
 _atom_site_occupancy
  Cd  Cd0  1  0.40417153  0.59582256  0.04334013  1.0
  Cd  Cd1  1  0.09582370  0.90418284  0.54334182  1.0
  Cd  Cd2  1  0.90417188  0.09582690  0.45665966  1.0
  Cd  Cd3  1  0.59582115  0.40417602  0.95665765  1.0
  H  H4  1  0.19243110  0.66512846  0.41958896  1.0
  H  H5  1  0.24025371  0.61520447  0.32950907  1.0
  H  H6  1  0.42092351  0.34339499  0.06077770  1.0
  H  H7  1  0.30518233  0.21008796  0.06393366  1.0
  H  H8  1  0.03507371  0.47110385  0.03965933  1.0
  H  H9  1  0.16184325  0.59132903  0.03575944  1.0
  H  H10  1  0.06838416  0.05715852  0.15436767  1.0
  H  H11  1  0.90127241  0.22076005  0.94501351  1.0
  H  H12  1  0.30756905  0.83487377  0.91958795  1.0
  H  H13  1  0.25974293  0.88479548  0.82950800  1.0
  H  H14  1  0.07907342  0.15661229  0.56077878  1.0
  H  H15  1  0.19481898  0.28991688  0.56393452  1.0
  H  H16  1  0.46492526  0.02889587  0.53966012  1.0
  H  H17  1  0.33815052  0.90867652  0.53576108  1.0
  H  H18  1  0.43161005  0.44284060  0.65436720  1.0
  H  H19  1  0.59872976  0.27923754  0.44501467  1.0
  H  H20  1  0.83487394  0.30757064  0.08041067  1.0
  H  H21  1  0.88479792  0.25974532  0.17049095  1.0
  H  H22  1  0.15660599  0.07907486  0.43922203  1.0
  H  H23  1  0.28991403  0.19481575  0.43606845  1.0
  H  H24  1  0.02889726  0.46492403  0.46034180  1.0
  H  H25  1  0.90867233  0.33815379  0.46424055  1.0
  H  H26  1  0.44284437  0.43161183  0.34563506  1.0
  H  H27  1  0.27923911  0.59872750  0.55498724  1.0
  H  H28  1  0.66512360  0.19243150  0.58041100  1.0
  H  H29  1  0.61520021  0.24025830  0.67049056  1.0
  H  H30  1  0.34339148  0.42092441  0.93922090  1.0
  H  H31  1  0.21008748  0.30517961  0.93606447  1.0
  H  H32  1  0.47110636  0.03507405  0.96034086  1.0
  H  H33  1  0.59132717  0.16184741  0.96423987  1.0
  H  H34  1  0.05715972  0.06838525  0.84563116  1.0
  H  H35  1  0.22075939  0.90127291  0.05498585  1.0
  H  H36  1  0.80756903  0.33487492  0.58040982  1.0
  H  H37  1  0.75974271  0.38479810  0.67048971  1.0
  H  H38  1  0.57907739  0.65660839  0.93922175  1.0
  H  H39  1  0.69482030  0.78991463  0.93606647  1.0
  H  H40  1  0.96492809  0.52889555  0.96034047  1.0
  H  H41  1  0.83815491  0.40867275  0.96424001  1.0
  H  H42  1  0.93161705  0.94284008  0.84563213  1.0
  H  H43  1  0.09872807  0.77924174  0.05498595  1.0
  H  H44  1  0.69243006  0.16512722  0.08041117  1.0
  H  H45  1  0.74025499  0.11520391  0.17049146  1.0
  H  H46  1  0.92092443  0.84339427  0.43922203  1.0
  H  H47  1  0.80518365  0.71008571  0.43606697  1.0
  H  H48  1  0.53507302  0.97110193  0.46034069  1.0
  H  H49  1  0.66184358  0.09132606  0.46424007  1.0
  H  H50  1  0.56838722  0.55715481  0.34563361  1.0
  H  H51  1  0.40127007  0.72076027  0.55498648  1.0
  H  H52  1  0.16512631  0.69242876  0.91958913  1.0
  H  H53  1  0.11520233  0.74025408  0.82950918  1.0
  H  H54  1  0.84338901  0.92092373  0.56077810  1.0
  H  H55  1  0.71008288  0.80518126  0.56393337  1.0
  H  H56  1  0.97110335  0.53507377  0.53965968  1.0
  H  H57  1  0.09132505  0.66184800  0.53576127  1.0
  H  H58  1  0.55715505  0.56838438  0.65436743  1.0
  H  H59  1  0.72075959  0.40127189  0.44501424  1.0
  H  H60  1  0.33487283  0.80757107  0.41958779  1.0
  H  H61  1  0.38479645  0.75974667  0.32950789  1.0
  H  H62  1  0.65660649  0.57907817  0.06077788  1.0
  H  H63  1  0.78991318  0.69482139  0.06393498  1.0
  H  H64  1  0.52889550  0.96492854  0.03965860  1.0
  H  H65  1  0.40867295  0.83815597  0.03575891  1.0
  H  H66  1  0.94283921  0.93161653  0.15436863  1.0
  H  H67  1  0.77924068  0.09872728  0.94501394  1.0
  H  H68  1  0.16151420  0.83848536  0.15572027  1.0
  H  H69  1  0.11176666  0.88823323  0.23474424  1.0
  H  H70  1  0.36719853  0.63280151  0.28042898  1.0
  H  H71  1  0.41436196  0.58563940  0.20123975  1.0
  H  H72  1  0.07192533  0.92807622  0.29658878  1.0
  H  H73  1  0.02900220  0.97100001  0.37629802  1.0
  H  H74  1  0.33848490  0.66151233  0.65571920  1.0
  H  H75  1  0.38823273  0.61176455  0.73474357  1.0
  H  H76  1  0.13279980  0.86719778  0.78042835  1.0
  H  H77  1  0.08563900  0.91436062  0.70123907  1.0
  H  H78  1  0.42807347  0.57192675  0.79658883  1.0
  H  H79  1  0.47099921  0.52900304  0.87629846  1.0
  H  H80  1  0.66151380  0.33848706  0.34428026  1.0
  H  H81  1  0.61176692  0.38823405  0.26525555  1.0
  H  H82  1  0.86719968  0.13280161  0.21957145  1.0
  H  H83  1  0.91436184  0.08563958  0.29876106  1.0
  H  H84  1  0.57192779  0.42807504  0.20340995  1.0
  H  H85  1  0.52900205  0.47099875  0.12370100  1.0
  H  H86  1  0.83848528  0.16151404  0.84428054  1.0
  H  H87  1  0.88823341  0.11176696  0.76525555  1.0
  H  H88  1  0.63279980  0.36719947  0.71957150  1.0
  H  H89  1  0.58563870  0.41436159  0.79876072  1.0
  H  H90  1  0.92807097  0.07193034  0.70341000  1.0
  H  H91  1  0.97099524  0.02900496  0.62370076  1.0
  C  C92  1  0.20481658  0.72086392  0.39377516  1.0
  C  C93  1  0.23107845  0.69418321  0.34407883  1.0
  C  C94  1  0.33504173  0.36758017  0.05600354  1.0
  C  C95  1  0.27085856  0.29410531  0.05815265  1.0
  C  C96  1  0.16177295  0.33082036  0.05135003  1.0
  C  C97  1  0.12003153  0.43898256  0.04401028  1.0
  C  C98  1  0.19049099  0.50633157  0.04185375  1.0
  C  C99  1  0.09229024  0.19327128  0.09008323  1.0
  C  C100  1  0.02308912  0.11605914  0.08815720  1.0
  C  C101  1  0.01818284  0.05135725  0.12530010  1.0
  C  C102  1  0.95964524  0.11094159  0.04968976  1.0
  C  C103  1  0.96337960  0.17591897  0.01144647  1.0
  C  C104  1  0.89962599  0.16996830  0.97421583  1.0
  C  C105  1  0.03388056  0.25178607  0.01119915  1.0
  C  C106  1  0.29518248  0.77913799  0.89377509  1.0
  C  C107  1  0.26892172  0.80581727  0.84407873  1.0
  C  C108  1  0.16495484  0.13242560  0.55600480  1.0
  C  C109  1  0.22914204  0.20589964  0.55815442  1.0
  C  C110  1  0.33822707  0.16918074  0.55135197  1.0
  C  C111  1  0.37996762  0.06101947  0.54401186  1.0
  C  C112  1  0.30950384  0.99367227  0.54185580  1.0
  C  C113  1  0.40770821  0.30673067  0.59008339  1.0
  C  C114  1  0.47690990  0.38394045  0.58815752  1.0
  C  C115  1  0.48181384  0.44864322  0.62529979  1.0
  C  C116  1  0.54035432  0.38905716  0.54968966  1.0
  C  C117  1  0.53662094  0.32407812  0.51144664  1.0
  C  C118  1  0.60037376  0.33003112  0.47421644  1.0
  C  C119  1  0.46611921  0.24820862  0.51119937  1.0
  C  C120  1  0.77913946  0.29518339  0.10622445  1.0
  C  C121  1  0.80581957  0.26892163  0.15592080  1.0
  C  C122  1  0.13242050  0.16495650  0.44399613  1.0
  C  C123  1  0.20589713  0.22913917  0.44184871  1.0
  C  C124  1  0.16918171  0.33822498  0.44865193  1.0
  C  C125  1  0.06101959  0.37996603  0.45599125  1.0
  C  C126  1  0.99366996  0.30950665  0.45814630  1.0
  C  C127  1  0.30673072  0.40770892  0.40991910  1.0
  C  C128  1  0.38394187  0.47690941  0.41184513  1.0
  C  C129  1  0.44864578  0.48181295  0.37470227  1.0
  C  C130  1  0.38905816  0.54035320  0.45031174  1.0
  C  C131  1  0.32408042  0.53662006  0.48855466  1.0
  C  C132  1  0.33003026  0.60037235  0.52578563  1.0
  C  C133  1  0.24821460  0.46611921  0.48880143  1.0
  C  C134  1  0.72085898  0.20481986  0.60622456  1.0
  C  C135  1  0.69417967  0.23108146  0.65592021  1.0
  C  C136  1  0.36757925  0.33504268  0.94399460  1.0
  C  C137  1  0.29410473  0.27085766  0.94184497  1.0
  C  C138  1  0.33082336  0.16177094  0.94864717  1.0
  C  C139  1  0.43898408  0.12003214  0.95598804  1.0
  C  C140  1  0.50633248  0.19049229  0.95814475  1.0
  C  C141  1  0.19327228  0.09228853  0.90991571  1.0
  C  C142  1  0.11605806  0.02309118  0.91184192  1.0
  C  C143  1  0.05135702  0.01818437  0.87469927  1.0
  C  C144  1  0.11094218  0.95964605  0.95030978  1.0
  C  C145  1  0.17592086  0.96337926  0.98855250  1.0
  C  C146  1  0.16996894  0.89962703  0.02578372  1.0
  C  C147  1  0.25179436  0.03388073  0.98880081  1.0
  C  C148  1  0.79517930  0.27914104  0.60622396  1.0
  C  C149  1  0.76891934  0.30582017  0.65591961  1.0
  C  C150  1  0.66495876  0.63242161  0.94399592  1.0
  C  C151  1  0.72914502  0.70589648  0.94184647  1.0
  C  C152  1  0.83823040  0.66917905  0.94864876  1.0
  C  C153  1  0.87996931  0.56101764  0.95598851  1.0
  C  C154  1  0.80950890  0.49366942  0.95814503  1.0
  C  C155  1  0.90771681  0.80672893  0.90991758  1.0
  C  C156  1  0.97691328  0.88394106  0.91184293  1.0
  C  C157  1  0.98181782  0.94864374  0.87469936  1.0
  C  C158  1  0.04035542  0.88905940  0.95031003  1.0
  C  C159  1  0.03662202  0.82408122  0.98855299  1.0
  C  C160  1  0.10037467  0.83003269  0.02578464  1.0
  C  C161  1  0.96612149  0.74820537  0.98880436  1.0
  C  C162  1  0.70481776  0.22086141  0.10622505  1.0
  C  C163  1  0.73107913  0.19418292  0.15592106  1.0
  C  C164  1  0.83504337  0.86757937  0.44399601  1.0
  C  C165  1  0.77086041  0.79410375  0.44184706  1.0
  C  C166  1  0.66177413  0.83081787  0.44864817  1.0
  C  C167  1  0.62003167  0.93898072  0.45598861  1.0
  C  C168  1  0.69049139  0.00632871  0.45814535  1.0
  C  C169  1  0.59228989  0.69326793  0.40991776  1.0
  C  C170  1  0.52308916  0.61605735  0.41184329  1.0
  C  C171  1  0.51818617  0.55135379  0.37470203  1.0
  C  C172  1  0.45964551  0.61094064  0.45031149  1.0
  C  C173  1  0.46337848  0.67591809  0.48855450  1.0
  C  C174  1  0.39962589  0.66996748  0.52578403  1.0
  C  C175  1  0.53387913  0.75178201  0.48879671  1.0
  C  C176  1  0.22086097  0.70481521  0.89377535  1.0
  C  C177  1  0.19418086  0.73107697  0.84407900  1.0
  C  C178  1  0.86757510  0.83504288  0.55600400  1.0
  C  C179  1  0.79410014  0.77085624  0.55815277  1.0
  C  C180  1  0.83081849  0.66177123  0.55135023  1.0
  C  C181  1  0.93897929  0.62003257  0.54401124  1.0
  C  C182  1  0.00632838  0.69049434  0.54185586  1.0
  C  C183  1  0.69327048  0.59228969  0.59008508  1.0
  C  C184  1  0.61605737  0.52308760  0.58815635  1.0
  C  C185  1  0.55135382  0.51818247  0.62530056  1.0
  C  C186  1  0.61094012  0.45964460  0.54968975  1.0
  C  C187  1  0.67591827  0.46337934  0.51144716  1.0
  C  C188  1  0.66996743  0.39962465  0.47421518  1.0
  C  C189  1  0.75179782  0.53387782  0.51119364  1.0
  C  C190  1  0.27913846  0.79518511  0.39377388  1.0
  C  C191  1  0.30581794  0.76892271  0.34407823  1.0
  C  C192  1  0.63242123  0.66495911  0.05600317  1.0
  C  C193  1  0.70589558  0.72914492  0.05815381  1.0
  C  C194  1  0.66917886  0.83823006  0.05135195  1.0
  C  C195  1  0.56101718  0.87996965  0.04401075  1.0
  C  C196  1  0.49366955  0.80950950  0.04185370  1.0
  C  C197  1  0.80672523  0.90770927  0.09008678  1.0
  C  C198  1  0.88393896  0.97691219  0.08815788  1.0
  C  C199  1  0.94864191  0.98181741  0.12530086  1.0
  C  C200  1  0.88905694  0.04035494  0.04969069  1.0
  C  C201  1  0.82408094  0.03662014  0.01144696  1.0
  C  C202  1  0.83003113  0.10037317  0.97421608  1.0
  C  C203  1  0.74821406  0.96612028  0.01120101  1.0
  C  C204  1  0.32198766  0.67801043  0.12599880  1.0
  C  C205  1  0.29096213  0.70903749  0.17350984  1.0
  C  C206  1  0.20588921  0.79411227  0.18355738  1.0
  C  C207  1  0.17850254  0.82149879  0.22818236  1.0
  C  C208  1  0.32081375  0.67918644  0.25358334  1.0
  C  C209  1  0.34812874  0.65186987  0.20919307  1.0
  C  C210  1  0.23528404  0.76471669  0.26425442  1.0
  C  C211  1  0.20731177  0.79268900  0.31251817  1.0
  C  C212  1  0.11821615  0.88178429  0.32339025  1.0
  C  C213  1  0.09435005  0.90565187  0.36678229  1.0
  C  C214  1  0.15880396  0.84119835  0.40155466  1.0
  C  C215  1  0.13385395  0.86615010  0.45049659  1.0
  C  C216  1  0.17800890  0.82199021  0.62599924  1.0
  C  C217  1  0.20903563  0.79096145  0.67350998  1.0
  C  C218  1  0.29410998  0.70588648  0.68355694  1.0
  C  C219  1  0.32149615  0.67849911  0.72818228  1.0
  C  C220  1  0.17918525  0.82081177  0.75358344  1.0
  C  C221  1  0.15187016  0.84812840  0.70919281  1.0
  C  C222  1  0.26471502  0.73528053  0.76425428  1.0
  C  C223  1  0.29268679  0.70731048  0.81251874  1.0
  C  C224  1  0.38178211  0.61821578  0.82339058  1.0
  C  C225  1  0.40564950  0.59434976  0.86678299  1.0
  C  C226  1  0.34119598  0.65880262  0.90155495  1.0
  C  C227  1  0.36614740  0.63385154  0.95049690  1.0
  C  C228  1  0.82198853  0.17801475  0.37400157  1.0
  C  C229  1  0.79096444  0.20903874  0.32648982  1.0
  C  C230  1  0.70588931  0.29411371  0.31644286  1.0
  C  C231  1  0.67850255  0.32150028  0.27181751  1.0
  C  C232  1  0.82081405  0.17918842  0.24641602  1.0
  C  C233  1  0.84813050  0.15187260  0.29080665  1.0
  C  C234  1  0.73528272  0.26471966  0.23574517  1.0
  C  C235  1  0.70731345  0.29268891  0.18748106  1.0
  C  C236  1  0.61821814  0.38178362  0.17660854  1.0
  C  C237  1  0.59435229  0.40564964  0.13321680  1.0
  C  C238  1  0.65880505  0.34119678  0.09844485  1.0
  C  C239  1  0.63385189  0.36614866  0.04950289  1.0
  C  C240  1  0.67801080  0.32198657  0.87400167  1.0
  C  C241  1  0.70903561  0.29096270  0.82648996  1.0
  C  C242  1  0.79411104  0.20588712  0.81644242  1.0
  C  C243  1  0.82149658  0.17850220  0.77181778  1.0
  C  C244  1  0.67918554  0.32081375  0.74641612  1.0
  C  C245  1  0.65187014  0.34812873  0.79080672  1.0
  C  C246  1  0.76471717  0.23528192  0.73574537  1.0
  C  C247  1  0.79268507  0.20731517  0.68748062  1.0
  C  C248  1  0.88177973  0.11822067  0.67660820  1.0
  C  C249  1  0.90564643  0.09435389  0.63321649  1.0
  C  C250  1  0.84119348  0.15880662  0.59844446  1.0
  C  C251  1  0.86614445  0.13385407  0.54950253  1.0
  N  N252  1  0.29608085  0.47120937  0.04713815  1.0
  N  N253  1  0.09306535  0.25704182  0.05094324  1.0
  N  N254  1  0.20391409  0.02879737  0.54714005  1.0
  N  N255  1  0.40693391  0.24295928  0.55094467  1.0
  N  N256  1  0.02879255  0.20391603  0.45286144  1.0
  N  N257  1  0.24296118  0.40693216  0.44905872  1.0
  N  N258  1  0.47120769  0.29608377  0.95285943  1.0
  N  N259  1  0.25704466  0.09306375  0.94905413  1.0
  N  N260  1  0.70391868  0.52879322  0.95286097  1.0
  N  N261  1  0.90694015  0.74295839  0.94905656  1.0
  N  N262  1  0.79608162  0.97120839  0.45286076  1.0
  N  N263  1  0.59306789  0.75704012  0.44905546  1.0
  N  N264  1  0.97120423  0.79608495  0.54714004  1.0
  N  N265  1  0.75703782  0.59306246  0.55094242  1.0
  N  N266  1  0.52879184  0.70391881  0.04713766  1.0
  N  N267  1  0.74295660  0.90693804  0.05094533  1.0
  O  O268  1  0.14501320  0.20497277  0.12333351  1.0
  O  O269  1  0.04197904  0.30824445  0.97837763  1.0
  O  O270  1  0.35498583  0.29502775  0.62333556  1.0
  O  O271  1  0.45802109  0.19175407  0.47838145  1.0
  O  O272  1  0.29502778  0.35498822  0.37666850  1.0
  O  O273  1  0.19175409  0.45802240  0.52162228  1.0
  O  O274  1  0.20497697  0.14501066  0.87666284  1.0
  O  O275  1  0.30824454  0.04198005  0.02161805  1.0
  O  O276  1  0.85499594  0.79502506  0.87666493  1.0
  O  O277  1  0.95802383  0.69176052  0.02161947  1.0
  O  O278  1  0.64501323  0.70497006  0.37666457  1.0
  O  O279  1  0.54197575  0.80825010  0.52162138  1.0
  O  O280  1  0.70497314  0.64500481  0.62333231  1.0
  O  O281  1  0.80824181  0.54197221  0.47838089  1.0
  O  O282  1  0.79502261  0.85499511  0.12333459  1.0
  O  O283  1  0.69175612  0.95802094  0.97837904  1.0
  O  O284  1  0.19047808  0.80952544  0.48056182  1.0
  O  O285  1  0.05650886  0.94349701  0.46103751  1.0
  O  O286  1  0.27118765  0.72880702  0.09307045  1.0
  O  O287  1  0.40125091  0.59874780  0.12061792  1.0
  O  O288  1  0.30952352  0.69047642  0.98056139  1.0
  O  O289  1  0.44349279  0.55650602  0.96103791  1.0
  O  O290  1  0.22880499  0.77119265  0.59306960  1.0
  O  O291  1  0.09874769  0.90125454  0.62061894  1.0
  O  O292  1  0.69047618  0.30952536  0.01943840  1.0
  O  O293  1  0.55650221  0.44349257  0.03896189  1.0
  O  O294  1  0.77119131  0.22881391  0.40693054  1.0
  O  O295  1  0.90124975  0.09875043  0.37938254  1.0
  O  O296  1  0.80951990  0.19047714  0.51943798  1.0
  O  O297  1  0.94349228  0.05650876  0.53896263  1.0
  O  O298  1  0.72880867  0.27118918  0.90693036  1.0
  O  O299  1  0.59874756  0.40124920  0.87938221  1.0
