# generated using pymatgen
data_NiH16C16(N2O3)2
_symmetry_space_group_name_H-M   'P 1'
_cell_length_a   9.18449108
_cell_length_b   13.35284411
_cell_length_c   18.71470775
_cell_angle_alpha   110.88488489
_cell_angle_beta   102.99752215
_cell_angle_gamma   90.00752787
_symmetry_Int_Tables_number   1
_chemical_formula_structural   NiH16C16(N2O3)2
_chemical_formula_sum   'Ni4 H64 C64 N16 O24'
_cell_volume   2081.27449359
_cell_formula_units_Z   4
loop_
 _symmetry_equiv_pos_site_id
 _symmetry_equiv_pos_as_xyz
  1  'x, y, z'
loop_
 _atom_site_type_symbol
 _atom_site_label
 _atom_site_symmetry_multiplicity
 _atom_site_fract_x
 _atom_site_fract_y
 _atom_site_fract_z
 _atom_site_occupancy
  Ni  Ni0  1  0.94810641  0.41426785  0.26029737  1.0
  Ni  Ni1  1  0.55175377  0.15405711  0.73967197  1.0
  Ni  Ni2  1  0.05189277  0.58573131  0.73970247  1.0
  Ni  Ni3  1  0.44824885  0.84594284  0.26032738  1.0
  H  H4  1  0.61473969  0.43271557  0.23544965  1.0
  H  H5  1  0.88521209  0.19710415  0.76454780  1.0
  H  H6  1  0.38525674  0.56727957  0.76455100  1.0
  H  H7  1  0.11479307  0.80289823  0.23545298  1.0
  H  H8  1  0.16023557  0.33261353  0.20695451  1.0
  H  H9  1  0.33960905  0.12565961  0.79294686  1.0
  H  H10  1  0.83976604  0.66738724  0.79304601  1.0
  H  H11  1  0.66039164  0.87434276  0.20705289  1.0
  H  H12  1  0.16323751  0.45618881  0.21611590  1.0
  H  H13  1  0.33682762  0.24016120  0.78391580  1.0
  H  H14  1  0.83675962  0.54381195  0.78388411  1.0
  H  H15  1  0.66317521  0.75984037  0.21608505  1.0
  H  H16  1  0.83364687  0.60659718  0.25076708  1.0
  H  H17  1  0.66612067  0.35594565  0.74924446  1.0
  H  H18  1  0.16635566  0.39340197  0.74923366  1.0
  H  H19  1  0.33387871  0.64405512  0.25075474  1.0
  H  H20  1  0.77967557  0.51934587  0.16725383  1.0
  H  H21  1  0.72028972  0.35204965  0.83271916  1.0
  H  H22  1  0.22032675  0.48065168  0.83274809  1.0
  H  H23  1  0.27970751  0.64795192  0.16728214  1.0
  H  H24  1  0.35532584  0.20810847  0.37798057  1.0
  H  H25  1  0.14455628  0.82998684  0.62207142  1.0
  H  H26  1  0.64467413  0.79189712  0.62202259  1.0
  H  H27  1  0.85544187  0.17001312  0.37792904  1.0
  H  H28  1  0.12165007  0.31675465  0.58951783  1.0
  H  H29  1  0.37821988  0.72717367  0.41056071  1.0
  H  H30  1  0.87834789  0.68324371  0.41048274  1.0
  H  H31  1  0.62177685  0.27282389  0.58944112  1.0
  H  H32  1  0.95936046  0.45196808  0.42593926  1.0
  H  H33  1  0.54052968  0.02602796  0.57406738  1.0
  H  H34  1  0.04063984  0.54803108  0.57406017  1.0
  H  H35  1  0.45947833  0.97397040  0.42593270  1.0
  H  H36  1  0.78106059  0.48279542  0.51610909  1.0
  H  H37  1  0.71886906  0.96646720  0.48395145  1.0
  H  H38  1  0.21894325  0.51720535  0.48389167  1.0
  H  H39  1  0.28114138  0.03353275  0.51605037  1.0
  H  H40  1  0.09357725  0.30696421  0.44943809  1.0
  H  H41  1  0.40604969  0.85746512  0.55044082  1.0
  H  H42  1  0.90642324  0.69303656  0.55056230  1.0
  H  H43  1  0.59395152  0.14253242  0.44955936  1.0
  H  H44  1  0.42264783  0.45825722  0.31519623  1.0
  H  H45  1  0.07728545  0.14297520  0.68479867  1.0
  H  H46  1  0.57735022  0.54174194  0.68480562  1.0
  H  H47  1  0.92272204  0.85702797  0.31520257  1.0
  H  H48  1  0.37626698  0.20767968  0.51568890  1.0
  H  H49  1  0.12338806  0.69193294  0.48428934  1.0
  H  H50  1  0.62373371  0.79232269  0.48431085  1.0
  H  H51  1  0.87660877  0.30806542  0.51571217  1.0
  H  H52  1  0.66242462  0.03998240  0.14220184  1.0
  H  H53  1  0.83764443  0.89798210  0.85774115  1.0
  H  H54  1  0.33756338  0.96001676  0.85779782  1.0
  H  H55  1  0.16235830  0.10201865  0.14225521  1.0
  H  H56  1  0.84308490  0.19279575  0.24028957  1.0
  H  H57  1  0.65702707  0.95283856  0.75968650  1.0
  H  H58  1  0.15690839  0.80720100  0.75970900  1.0
  H  H59  1  0.34297596  0.04716462  0.24031158  1.0
  H  H60  1  0.55916045  0.23200835  0.99644678  1.0
  H  H61  1  0.94072623  0.23562038  0.00366398  1.0
  H  H62  1  0.44083964  0.76798920  0.00355061  1.0
  H  H63  1  0.05927212  0.76438119  0.99633477  1.0
  H  H64  1  0.76078453  0.37141774  0.09657415  1.0
  H  H65  1  0.73911747  0.27504983  0.90355737  1.0
  H  H66  1  0.23921444  0.62857981  0.90342365  1.0
  H  H67  1  0.26087866  0.72495174  0.09644167  1.0
  C  C68  1  0.64706129  0.44347049  0.29757516  1.0
  C  C69  1  0.85286474  0.14576305  0.70243060  1.0
  C  C70  1  0.35293656  0.55652706  0.70242679  1.0
  C  C71  1  0.14714143  0.85423851  0.29757062  1.0
  C  C72  1  0.25073354  0.24603971  0.38273869  1.0
  C  C73  1  0.24904403  0.86322988  0.61724518  1.0
  C  C74  1  0.74926451  0.75395944  0.61726155  1.0
  C  C75  1  0.75095524  0.13677009  0.38275487  1.0
  C  C76  1  0.22311194  0.27501356  0.58381151  1.0
  C  C77  1  0.27667375  0.69117052  0.41622157  1.0
  C  C78  1  0.77688723  0.72498559  0.41618779  1.0
  C  C79  1  0.72332502  0.30882542  0.58378061  1.0
  C  C80  1  0.83953539  0.45520456  0.40522887  1.0
  C  C81  1  0.66037081  0.04995700  0.59477852  1.0
  C  C82  1  0.16046561  0.54479138  0.59477195  1.0
  C  C83  1  0.33963802  0.95003894  0.40522264  1.0
  C  C84  1  0.58853419  0.47282247  0.42143992  1.0
  C  C85  1  0.91139974  0.05127814  0.57856883  1.0
  C  C86  1  0.41146731  0.52717749  0.57856305  1.0
  C  C87  1  0.08861009  0.94872584  0.42143181  1.0
  C  C88  1  0.74170072  0.47142002  0.45408565  1.0
  C  C89  1  0.75824112  0.01718156  0.54595322  1.0
  C  C90  1  0.25830069  0.52857914  0.54591497  1.0
  C  C91  1  0.24176546  0.98282322  0.45404672  1.0
  C  C92  1  0.19841896  0.26850686  0.44829151  1.0
  C  C93  1  0.30126793  0.82016714  0.55167119  1.0
  C  C94  1  0.80158061  0.73149553  0.55170919  1.0
  C  C95  1  0.69872910  0.17983281  0.44832807  1.0
  C  C96  1  0.54059884  0.45751939  0.34160463  1.0
  C  C97  1  0.95931406  0.11584847  0.65839612  1.0
  C  C98  1  0.45939799  0.54247897  0.65839795  1.0
  C  C99  1  0.04069455  0.88415470  0.34160578  1.0
  C  C100  1  0.30297956  0.25181952  0.65348251  1.0
  C  C101  1  0.19700595  0.59822885  0.34654658  1.0
  C  C102  1  0.69702174  0.74817883  0.34651789  1.0
  C  C103  1  0.80299231  0.40177192  0.65345303  1.0
  C  C104  1  0.17440595  0.27659109  0.31532368  1.0
  C  C105  1  0.32529669  0.96128051  0.68454907  1.0
  C  C106  1  0.82559444  0.72340887  0.68467649  1.0
  C  C107  1  0.67470055  0.03872106  0.31544956  1.0
  C  C108  1  0.27245596  0.24740956  0.51704160  1.0
  C  C109  1  0.22719524  0.73032543  0.48294381  1.0
  C  C110  1  0.72754463  0.75259201  0.48295847  1.0
  C  C111  1  0.77280485  0.26967212  0.51705732  1.0
  C  C112  1  0.67891493  0.11270868  0.13025841  1.0
  C  C113  1  0.82105730  0.98263586  0.86973143  1.0
  C  C114  1  0.32107540  0.88729129  0.86974172  1.0
  C  C115  1  0.17894451  0.01736651  0.13026684  1.0
  C  C116  1  0.59859664  0.12524303  0.06115935  1.0
  C  C117  1  0.90133697  0.06418436  0.93886693  1.0
  C  C118  1  0.40139471  0.87475613  0.93884015  1.0
  C  C119  1  0.09866353  0.93581640  0.06113079  1.0
  C  C120  1  0.77969294  0.19710177  0.18492468  1.0
  C  C121  1  0.72033650  0.01245855  0.81508016  1.0
  C  C122  1  0.22029952  0.80289740  0.81507495  1.0
  C  C123  1  0.27966317  0.98754463  0.18492075  1.0
  C  C124  1  0.62210304  0.22133067  0.04966727  1.0
  C  C125  1  0.87781302  0.17177680  0.95041183  1.0
  C  C126  1  0.37789370  0.77866688  0.95033082  1.0
  C  C127  1  0.12218737  0.82822315  0.04958567  1.0
  C  C128  1  0.73063359  0.29885105  0.10580483  1.0
  C  C129  1  0.76931949  0.19326565  0.89429674  1.0
  C  C130  1  0.26936214  0.70114730  0.89419282  1.0
  C  C131  1  0.23067653  0.80673512  0.10570368  1.0
  N  N132  1  0.79383264  0.44205870  0.32839540  1.0
  N  N133  1  0.70606793  0.11362602  0.67160286  1.0
  N  N134  1  0.20616755  0.55793965  0.67160541  1.0
  N  N135  1  0.29393683  0.88637313  0.32839706  1.0
  N  N136  1  0.80673523  0.28856034  0.17284617  1.0
  N  N137  1  0.69325668  0.11599258  0.82721550  1.0
  N  N138  1  0.19326019  0.71143560  0.82715029  1.0
  N  N139  1  0.30674533  0.88401141  0.17278374  1.0
  N  N140  1  0.47521879  0.48883632  0.46335848  1.0
  N  N141  1  0.02474977  0.02539797  0.53665316  1.0
  N  N142  1  0.52478505  0.51116444  0.53664335  1.0
  N  N143  1  0.97525854  0.97460279  0.46334756  1.0
  N  N144  1  0.49213737  0.04725090  0.00054364  1.0
  N  N145  1  0.00779398  0.04673531  0.99948581  1.0
  N  N146  1  0.50785277  0.95274746  0.99945445  1.0
  N  N147  1  0.99220987  0.95326545  0.00051228  1.0
  O  O148  1  0.10189726  0.38517473  0.18642984  1.0
  O  O149  1  0.39807006  0.19871081  0.81354087  1.0
  O  O150  1  0.89810211  0.61482604  0.81357203  1.0
  O  O151  1  0.60193388  0.80129077  0.18646011  1.0
  O  O152  1  0.23878151  0.26193816  0.25954556  1.0
  O  O153  1  0.26072093  0.00243990  0.74023940  1.0
  O  O154  1  0.76122477  0.73806422  0.74045641  1.0
  O  O155  1  0.73927570  0.99756570  0.25975912  1.0
  O  O156  1  0.41397494  0.19464649  0.64720257  1.0
  O  O157  1  0.08591497  0.54735840  0.35278307  1.0
  O  O158  1  0.58602525  0.80535186  0.35279610  1.0
  O  O159  1  0.91408206  0.45264155  0.64721619  1.0
  O  O160  1  0.86504681  0.53976516  0.21253592  1.0
  O  O161  1  0.63480255  0.32732131  0.78748982  1.0
  O  O162  1  0.13495327  0.46023238  0.78746467  1.0
  O  O163  1  0.36519672  0.67267865  0.21250916  1.0
  O  O164  1  0.04834468  0.31761403  0.32005969  1.0
  O  O165  1  0.45139857  0.99757861  0.67983601  1.0
  O  O166  1  0.95165449  0.68238513  0.67994015  1.0
  O  O167  1  0.54860172  0.00242055  0.32016288  1.0
  O  O168  1  0.25325320  0.28914423  0.71595140  1.0
  O  O169  1  0.24695646  0.57301335  0.28413516  1.0
  O  O170  1  0.74675278  0.71085573  0.28404993  1.0
  O  O171  1  0.75303996  0.42699064  0.71586346  1.0
