# generated using pymatgen
data_Ni2H26C19(NO5)2
_symmetry_space_group_name_H-M   'P 1'
_cell_length_a   8.36732076
_cell_length_b   16.99672249
_cell_length_c   17.00396373
_cell_angle_alpha   117.34163334
_cell_angle_beta   99.42898050
_cell_angle_gamma   99.41619319
_symmetry_Int_Tables_number   1
_chemical_formula_structural   Ni2H26C19(NO5)2
_chemical_formula_sum   'Ni6 H78 C57 N6 O30'
_cell_volume   2038.83596752
_cell_formula_units_Z   3
loop_
 _symmetry_equiv_pos_site_id
 _symmetry_equiv_pos_as_xyz
  1  'x, y, z'
loop_
 _atom_site_type_symbol
 _atom_site_label
 _atom_site_symmetry_multiplicity
 _atom_site_fract_x
 _atom_site_fract_y
 _atom_site_fract_z
 _atom_site_occupancy
  Ni  Ni0  1  0.02530589  0.21595314  0.06081573  1.0
  Ni  Ni1  1  0.96394524  0.93871158  0.15488100  1.0
  Ni  Ni2  1  0.80935672  0.84514380  0.78385131  1.0
  Ni  Ni3  1  0.34107392  0.78278970  0.93943347  1.0
  Ni  Ni4  1  0.40185171  0.06122725  0.84348610  1.0
  Ni  Ni5  1  0.55782915  0.15627238  0.21707312  1.0
  H  H6  1  0.10005137  0.10084591  0.12179202  1.0
  H  H7  1  0.97786885  0.87785464  0.97887435  1.0
  H  H8  1  0.99916483  0.02104186  0.89886666  1.0
  H  H9  1  0.90664354  0.09470805  0.11338154  1.0
  H  H10  1  0.79277394  0.88621406  0.98086603  1.0
  H  H11  1  0.81215314  0.01920548  0.90511347  1.0
  H  H12  1  0.45589905  0.89715714  0.87848674  1.0
  H  H13  1  0.57723894  0.12184408  0.01883687  1.0
  H  H14  1  0.55831095  0.98132160  0.10265094  1.0
  H  H15  1  0.27392916  0.90673005  0.88741474  1.0
  H  H16  1  0.38587100  0.11233314  0.01899485  1.0
  H  H17  1  0.36681641  0.98082980  0.09318764  1.0
  H  H18  1  0.30091018  0.33410144  0.02400074  1.0
  H  H19  1  0.27652938  0.97574685  0.30984639  1.0
  H  H20  1  0.96798295  0.69042041  0.66646429  1.0
  H  H21  1  0.19329460  0.31186238  0.91331793  1.0
  H  H22  1  0.27986014  0.08670930  0.39798522  1.0
  H  H23  1  0.88321093  0.60199411  0.68911315  1.0
  H  H24  1  0.91953433  0.23118716  0.85594854  1.0
  H  H25  1  0.06326767  0.14402302  0.37445094  1.0
  H  H26  1  0.68974708  0.62549771  0.76982962  1.0
  H  H27  1  0.82441443  0.31311832  0.92185020  1.0
  H  H28  1  0.90245517  0.07837223  0.39089891  1.0
  H  H29  1  0.51259864  0.60884314  0.68766985  1.0
  H  H30  1  0.17893718  0.42025986  0.12060385  1.0
  H  H31  1  0.05808233  0.87932873  0.29974650  1.0
  H  H32  1  0.75961700  0.69980182  0.57979098  1.0
  H  H33  1  0.96529533  0.38975989  0.11172316  1.0
  H  H34  1  0.85340649  0.88835048  0.27806474  1.0
  H  H35  1  0.57650852  0.72182466  0.61023302  1.0
  H  H36  1  0.69066314  0.53936185  0.98431747  1.0
  H  H37  1  0.70567828  0.01524204  0.55483321  1.0
  H  H38  1  0.15183171  0.44525793  0.46061159  1.0
  H  H39  1  0.34728336  0.47790343  0.08163377  1.0
  H  H40  1  0.26576971  0.91865456  0.39636847  1.0
  H  H41  1  0.87095419  0.60282248  0.52286077  1.0
  H  H42  1  0.40680757  0.57723561  0.07287770  1.0
  H  H43  1  0.33470656  0.92807757  0.50465355  1.0
  H  H44  1  0.83219811  0.49428761  0.42450919  1.0
  H  H45  1  0.36012325  0.46728639  0.97462483  1.0
  H  H46  1  0.38507983  0.02604651  0.49233781  1.0
  H  H47  1  0.89321420  0.50698390  0.53497732  1.0
  H  H48  1  0.77265529  0.44688846  0.13205280  1.0
  H  H49  1  0.64071905  0.86796767  0.31479814  1.0
  H  H50  1  0.32739102  0.68540537  0.55379029  1.0
  H  H51  1  0.66726900  0.36155135  0.01695572  1.0
  H  H52  1  0.65022449  0.98318945  0.34466117  1.0
  H  H53  1  0.30700954  0.65531984  0.63899429  1.0
  H  H54  1  0.62017845  0.46898723  0.06518826  1.0
  H  H55  1  0.55485599  0.93476394  0.40373154  1.0
  H  H56  1  0.15249556  0.59651790  0.53167565  1.0
  H  H57  1  0.74143381  0.61835506  0.90995457  1.0
  H  H58  1  0.83063808  0.08949250  0.70809894  1.0
  H  H59  1  0.12301946  0.29187647  0.38069873  1.0
  H  H60  1  0.88735572  0.58866877  0.84317377  1.0
  H  H61  1  0.04329013  0.15631521  0.74551253  1.0
  H  H62  1  0.29766580  0.25410866  0.41021266  1.0
  H  H63  1  0.94690590  0.69256861  0.94871051  1.0
  H  H64  1  0.99726388  0.05049334  0.74333633  1.0
  H  H65  1  0.25492866  0.25668305  0.30679778  1.0
  H  H66  1  0.15532512  0.60543979  0.88089412  1.0
  H  H67  1  0.27372158  0.11923939  0.72419560  1.0
  H  H68  1  0.54918279  0.27501013  0.39420796  1.0
  H  H69  1  0.30808002  0.55991307  0.91615381  1.0
  H  H70  1  0.39118917  0.08397496  0.64339072  1.0
  H  H71  1  0.74781519  0.35534155  0.43971171  1.0
  H  H72  1  0.19504149  0.70366212  0.10280228  1.0
  H  H73  1  0.09242495  0.89706548  0.60109529  1.0
  H  H74  1  0.49072867  0.39881882  0.29596039  1.0
  H  H75  1  0.39007025  0.78829070  0.15111040  1.0
  H  H76  1  0.23988606  0.84923443  0.63772506  1.0
  H  H77  1  0.60158258  0.36257946  0.21149255  1.0
  H  H78  1  0.54958381  0.66142501  0.97131753  1.0
  H  H79  1  0.57804291  0.02917110  0.69032609  1.0
  H  H80  1  0.88774451  0.30974378  0.33835022  1.0
  H  H81  1  0.54879860  0.68591256  0.08540732  1.0
  H  H82  1  0.46419909  0.91506586  0.60068298  1.0
  H  H83  1  0.86251537  0.39919727  0.31356957  1.0
  C  C84  1  0.20588026  0.19270919  0.92767101  1.0
  C  C85  1  0.27769747  0.07175145  0.26426551  1.0
  C  C86  1  0.01416704  0.73567159  0.80779079  1.0
  C  C87  1  0.18910014  0.29082433  0.96547160  1.0
  C  C88  1  0.22333293  0.03434649  0.32491810  1.0
  C  C89  1  0.89949028  0.67508593  0.70977821  1.0
  C  C90  1  0.88477924  0.26024433  0.92113417  1.0
  C  C91  1  0.96341469  0.07883864  0.33863648  1.0
  C  C92  1  0.62556548  0.66127244  0.74040297  1.0
  C  C93  1  0.75344045  0.18225627  0.91530207  1.0
  C  C94  1  0.83756319  0.08435614  0.26636751  1.0
  C  C95  1  0.57178583  0.73355980  0.81811060  1.0
  C  C96  1  0.05364538  0.39698719  0.07316404  1.0
  C  C97  1  0.98028002  0.92689610  0.32378770  1.0
  C  C98  1  0.65760926  0.67600996  0.60333072  1.0
  C  C99  1  0.01918846  0.46297659  0.04035195  1.0
  C  C100  1  0.97863425  0.95988322  0.42256553  1.0
  C  C101  1  0.55718158  0.57718332  0.53767151  1.0
  C  C102  1  0.85614510  0.47638013  0.03124545  1.0
  C  C103  1  0.82461275  0.96875341  0.44506484  1.0
  C  C104  1  0.38066419  0.55487938  0.52402397  1.0
  C  C105  1  0.81679899  0.52939075  0.99187008  1.0
  C  C106  1  0.82444045  0.00796408  0.53737764  1.0
  C  C107  1  0.28802485  0.46261918  0.47079213  1.0
  C  C108  1  0.93154327  0.56937436  0.96064939  1.0
  C  C109  1  0.97036042  0.03921288  0.60854773  1.0
  C  C110  1  0.36254831  0.39131286  0.43059471  1.0
  C  C111  1  0.09740884  0.56076618  0.97444744  1.0
  C  C112  1  0.12253709  0.02562291  0.58615997  1.0
  C  C113  1  0.53710265  0.41348433  0.43948902  1.0
  C  C114  1  0.14131968  0.50924219  0.01626420  1.0
  C  C115  1  0.12485731  0.98408601  0.49292013  1.0
  C  C116  1  0.63294448  0.50665416  0.49151797  1.0
  C  C117  1  0.32234092  0.50735404  0.03722849  1.0
  C  C118  1  0.28516539  0.96336946  0.47012763  1.0
  C  C119  1  0.81633482  0.52911511  0.49407013  1.0
  C  C120  1  0.72290342  0.43616387  0.06291569  1.0
  C  C121  1  0.65981000  0.93708289  0.37319135  1.0
  C  C122  1  0.28797959  0.62691601  0.56441151  1.0
  C  C123  1  0.87408939  0.62010321  0.91363500  1.0
  C  C124  1  0.95964220  0.08585379  0.70620183  1.0
  C  C125  1  0.25399140  0.29369542  0.37919570  1.0
  C  C126  1  0.22339208  0.60329373  0.94041166  1.0
  C  C127  1  0.28250094  0.05971140  0.66262555  1.0
  C  C128  1  0.61988781  0.33670504  0.39655685  1.0
  C  C129  1  0.27986706  0.75073547  0.09042719  1.0
  C  C130  1  0.18989927  0.90980003  0.66057554  1.0
  C  C131  1  0.52883249  0.33943561  0.24904100  1.0
  C  C132  1  0.19374246  0.82259609  0.08880963  1.0
  C  C133  1  0.10569978  0.91149802  0.73413482  1.0
  C  C134  1  0.37107988  0.26596991  0.17714424  1.0
  C  C135  1  0.62447359  0.80434928  0.07025472  1.0
  C  C136  1  0.55455540  0.93009742  0.73422725  1.0
  C  C137  1  0.82007715  0.26560254  0.19539335  1.0
  C  C138  1  0.51570787  0.70640394  0.03338013  1.0
  C  C139  1  0.48250961  0.96696238  0.67313135  1.0
  C  C140  1  0.80897520  0.32673010  0.29325593  1.0
  N  N141  1  0.03822029  0.30084450  0.99912569  1.0
  N  N142  1  0.03890432  0.00079211  0.30147730  1.0
  N  N143  1  0.73830909  0.69848396  0.69956564  1.0
  N  N144  1  0.33530749  0.70028863  0.00732381  1.0
  N  N145  1  0.32792373  0.99287046  0.69280772  1.0
  N  N146  1  0.63482908  0.30693769  0.29958592  1.0
  O  O147  1  0.13443010  0.14430584  0.95770467  1.0
  O  O148  1  0.17612428  0.04155460  0.18587300  1.0
  O  O149  1  0.99078178  0.81409037  0.85581362  1.0
  O  O150  1  0.00410723  0.11710011  0.09705876  1.0
  O  O151  1  0.90605724  0.90182951  0.01970320  1.0
  O  O152  1  0.88688860  0.98022844  0.88269896  1.0
  O  O153  1  0.36454532  0.88239631  0.90325194  1.0
  O  O154  1  0.46141794  0.09787846  0.97920295  1.0
  O  O155  1  0.48167722  0.02088861  0.11688201  1.0
  O  O156  1  0.29600397  0.16914643  0.87227302  1.0
  O  O157  1  0.42318388  0.12701094  0.29582125  1.0
  O  O158  1  0.12791038  0.70400754  0.83164924  1.0
  O  O159  1  0.79104650  0.15152655  0.96946219  1.0
  O  O160  1  0.82085519  0.02995363  0.18158041  1.0
  O  O161  1  0.63977630  0.81837727  0.84844572  1.0
  O  O162  1  0.61530206  0.15290458  0.85420931  1.0
  O  O163  1  0.76033249  0.14544826  0.29790006  1.0
  O  O164  1  0.46314120  0.70200678  0.84770578  1.0
  O  O165  1  0.11146705  0.85137114  0.14765468  1.0
  O  O166  1  0.96492298  0.85247135  0.70422163  1.0
  O  O167  1  0.26037871  0.29597618  0.14797187  1.0
  O  O168  1  0.21226482  0.84964525  0.03157311  1.0
  O  O169  1  0.18139282  0.96890143  0.81830308  1.0
  O  O170  1  0.36234106  0.18172498  0.15044273  1.0
  O  O171  1  0.76575243  0.82913382  0.12712954  1.0
  O  O172  1  0.63899507  0.87314392  0.70215596  1.0
  O  O173  1  0.93659214  0.29760909  0.17051668  1.0
  O  O174  1  0.56580234  0.85228420  0.03930663  1.0
  O  O175  1  0.52701912  0.96113438  0.81311123  1.0
  O  O176  1  0.71369222  0.18673517  0.14757070  1.0
