# generated using pymatgen
data_Zn4H15C15N3O13
_symmetry_space_group_name_H-M   'P 1'
_cell_length_a   12.82163166
_cell_length_b   13.49412582
_cell_length_c   14.72634279
_cell_angle_alpha   112.38624130
_cell_angle_beta   97.25695202
_cell_angle_gamma   109.93430999
_symmetry_Int_Tables_number   1
_chemical_formula_structural   Zn4H15C15N3O13
_chemical_formula_sum   'Zn8 H30 C30 N6 O26'
_cell_volume   2116.37337087
_cell_formula_units_Z   2
loop_
 _symmetry_equiv_pos_site_id
 _symmetry_equiv_pos_as_xyz
  1  'x, y, z'
loop_
 _atom_site_type_symbol
 _atom_site_label
 _atom_site_symmetry_multiplicity
 _atom_site_fract_x
 _atom_site_fract_y
 _atom_site_fract_z
 _atom_site_occupancy
  Zn  Zn0  1  0.13097798  0.06425766  0.03297046  1.0
  Zn  Zn1  1  0.32731953  0.99916520  0.11121724  1.0
  Zn  Zn2  1  0.14048898  0.81959913  0.88338042  1.0
  Zn  Zn3  1  0.06544270  0.83853376  0.08293073  1.0
  Zn  Zn4  1  0.72944142  0.85753920  0.42626562  1.0
  Zn  Zn5  1  0.50142552  0.84289272  0.51074287  1.0
  Zn  Zn6  1  0.64281937  0.06442664  0.47310370  1.0
  Zn  Zn7  1  0.75304787  0.03367651  0.65654771  1.0
  H  H8  1  0.43793529  0.29001344  0.33731108  1.0
  H  H9  1  0.33684600  0.42113289  0.40328363  1.0
  H  H10  1  0.32883542  0.44330648  0.29042018  1.0
  H  H11  1  0.55384126  0.52635604  0.45706467  1.0
  H  H12  1  0.52976702  0.43749281  0.23642678  1.0
  H  H13  1  0.28164164  0.07146313  0.76838554  1.0
  H  H14  1  0.22797145  0.21710378  0.73775154  1.0
  H  H15  1  0.10280297  0.17156408  0.77989658  1.0
  H  H16  1  0.10907616  0.06326471  0.55804111  1.0
  H  H17  1  0.07047197  0.88103934  0.62097255  1.0
  H  H18  1  0.75802042  0.94122904  0.00405466  1.0
  H  H19  1  0.75186731  0.10938832  0.14851070  1.0
  H  H20  1  0.85536301  0.10236843  0.23667205  1.0
  H  H21  1  0.59608842  0.93500522  0.14222346  1.0
  H  H22  1  0.76178000  0.82939843  0.13902530  1.0
  H  H23  1  0.52811923  0.80540593  0.95895419  1.0
  H  H24  1  0.64985658  0.00280982  0.96633559  1.0
  H  H25  1  0.52678824  0.98671400  0.87977268  1.0
  H  H26  1  0.65216018  0.82302439  0.82567434  1.0
  H  H27  1  0.40076308  0.75112742  0.75197838  1.0
  H  H28  1  0.12761301  0.04083576  0.35051201  1.0
  H  H29  1  0.27704521  0.19554508  0.51518981  1.0
  H  H30  1  0.38511425  0.17505785  0.45278943  1.0
  H  H31  1  0.30040900  0.05830856  0.58441717  1.0
  H  H32  1  0.17545549  0.86834330  0.38813768  1.0
  H  H33  1  0.76226053  0.58669889  0.85364773  1.0
  H  H34  1  0.73432030  0.42621698  0.90459212  1.0
  H  H35  1  0.86256433  0.41689079  0.87434221  1.0
  H  H36  1  0.62944125  0.32973108  0.71728257  1.0
  H  H37  1  0.84495527  0.46443116  0.68743501  1.0
  C  C38  1  0.34721363  0.23082358  0.18542713  1.0
  C  C39  1  0.42036810  0.33249627  0.28983482  1.0
  C  C40  1  0.38027939  0.42832237  0.34505249  1.0
  C  C41  1  0.50951848  0.51326036  0.38105488  1.0
  C  C42  1  0.54418337  0.63657217  0.39145748  1.0
  C  C43  1  0.14596051  0.00549923  0.82366017  1.0
  C  C44  1  0.18710967  0.04693544  0.74687657  1.0
  C  C45  1  0.15460357  0.14096630  0.73185451  1.0
  C  C46  1  0.08361473  0.04483552  0.62066397  1.0
  C  C47  1  0.95231407  0.00260468  0.59424219  1.0
  C  C48  1  0.91642239  0.96163866  0.08428871  1.0
  C  C49  1  0.79474997  0.95122719  0.08024540  1.0
  C  C50  1  0.77950350  0.04986047  0.16815369  1.0
  C  C51  1  0.68412733  0.94653245  0.17457248  1.0
  C  C52  1  0.69171460  0.95511996  0.28061712  1.0
  C  C53  1  0.38321764  0.84759557  0.94144757  1.0
  C  C54  1  0.48434551  0.83073820  0.90796459  1.0
  C  C55  1  0.57149557  0.93918423  0.90187432  1.0
  C  C56  1  0.57951139  0.84437685  0.80589237  1.0
  C  C57  1  0.59290998  0.87569639  0.71898980  1.0
  C  C58  1  0.23386312  0.97489306  0.27276540  1.0
  C  C59  1  0.20518055  0.02673346  0.37238000  1.0
  C  C60  1  0.30483554  0.13059196  0.46709169  1.0
  C  C61  1  0.30364368  0.03810015  0.50501543  1.0
  C  C62  1  0.40155842  0.99925325  0.49165805  1.0
  C  C63  1  0.94025357  0.63560362  0.88308780  1.0
  C  C64  1  0.81826524  0.54056633  0.83074134  1.0
  C  C65  1  0.78645483  0.43169998  0.85178987  1.0
  C  C66  1  0.72474006  0.35939752  0.73537273  1.0
  C  C67  1  0.74038246  0.24936239  0.67604350  1.0
  N  N68  1  0.53585665  0.42388485  0.30046575  1.0
  N  N69  1  0.12959328  0.96303568  0.63665042  1.0
  N  N70  1  0.71539213  0.85789846  0.10100673  1.0
  N  N71  1  0.46848103  0.75216176  0.79830628  1.0
  N  N72  1  0.18861368  0.95430343  0.42835902  1.0
  N  N73  1  0.77733548  0.46518941  0.71747077  1.0
  O  O74  1  0.16499048  0.92918024  0.02586006  1.0
  O  O75  1  0.39430494  0.16710583  0.13495474  1.0
  O  O76  1  0.24079483  0.21113766  0.15703618  1.0
  O  O77  1  0.47274615  0.68114909  0.41608640  1.0
  O  O78  1  0.64187415  0.68660746  0.37942050  1.0
  O  O79  1  0.11588167  0.89558500  0.79677326  1.0
  O  O80  1  0.14989689  0.08319601  0.90886711  1.0
  O  O81  1  0.91285394  0.05697330  0.66254722  1.0
  O  O82  1  0.89304554  0.91692805  0.50512453  1.0
  O  O83  1  0.95018521  0.90184546  0.12033897  1.0
  O  O84  1  0.97373642  0.02910988  0.04946947  1.0
  O  O85  1  0.66142105  0.03245953  0.33772829  1.0
  O  O86  1  0.72676107  0.88791726  0.30385803  1.0
  O  O87  1  0.28718087  0.80366389  0.87317392  1.0
  O  O88  1  0.40755778  0.91102651  0.03858301  1.0
  O  O89  1  0.69651144  0.94541450  0.73245323  1.0
  O  O90  1  0.50382005  0.83518061  0.64399163  1.0
  O  O91  1  0.16536710  0.86672520  0.21060073  1.0
  O  O92  1  0.31859376  0.03965645  0.25451769  1.0
  O  O93  1  0.49466356  0.07210516  0.48995676  1.0
  O  O94  1  0.38198341  0.89697812  0.48507469  1.0
  O  O95  1  0.00025791  0.66966757  0.82921991  1.0
  O  O96  1  0.97143148  0.67591784  0.98065534  1.0
  O  O97  1  0.74011251  0.18524865  0.72128406  1.0
  O  O98  1  0.74759436  0.22567372  0.58513661  1.0
  O  O99  1  0.65462748  0.94472766  0.51294350  1.0
