# generated using pymatgen
data_Zn4H17C28S6O31
_symmetry_space_group_name_H-M   'P 1'
_cell_length_a   18.31501188
_cell_length_b   18.33154925
_cell_length_c   18.37150252
_cell_angle_alpha   60.33085455
_cell_angle_beta   60.62734870
_cell_angle_gamma   60.81156586
_symmetry_Int_Tables_number   1
_chemical_formula_structural   Zn4H17C28S6O31
_chemical_formula_sum   'Zn8 H34 C56 S12 O62'
_cell_volume   4419.46048879
_cell_formula_units_Z   2
loop_
 _symmetry_equiv_pos_site_id
 _symmetry_equiv_pos_as_xyz
  1  'x, y, z'
loop_
 _atom_site_type_symbol
 _atom_site_label
 _atom_site_symmetry_multiplicity
 _atom_site_fract_x
 _atom_site_fract_y
 _atom_site_fract_z
 _atom_site_occupancy
  Zn  Zn0  1  0.44947806  0.46387292  0.13069362  1.0
  Zn  Zn1  1  0.45249703  0.45695583  0.95535168  1.0
  Zn  Zn2  1  0.62744990  0.45364281  0.96257047  1.0
  Zn  Zn3  1  0.46487794  0.62827299  0.94590134  1.0
  Zn  Zn4  1  0.03870532  0.04891933  0.36300700  1.0
  Zn  Zn5  1  0.87084097  0.03583988  0.54224517  1.0
  Zn  Zn6  1  0.03441274  0.04365071  0.54910632  1.0
  Zn  Zn7  1  0.05011700  0.87226210  0.53109418  1.0
  H  H8  1  0.24170302  0.69802934  0.38584317  1.0
  H  H9  1  0.15612650  0.97063567  0.74774826  1.0
  H  H10  1  0.34948743  0.87420744  0.74449129  1.0
  H  H11  1  0.81575188  0.32799790  0.75990535  1.0
  H  H12  1  0.90133438  0.22821115  0.67032549  1.0
  H  H13  1  0.51362130  0.30806879  0.80196619  1.0
  H  H14  1  0.53903154  0.22115585  0.89846398  1.0
  H  H15  1  0.30858187  0.61424594  0.28324119  1.0
  H  H16  1  0.21094090  0.38396467  0.05183276  1.0
  H  H17  1  0.80335201  0.29298513  0.09923740  1.0
  H  H18  1  0.89807833  0.19837950  0.19586885  1.0
  H  H19  1  0.80707072  0.58903605  0.87406675  1.0
  H  H20  1  0.60616572  0.15572231  0.47197807  1.0
  H  H21  1  0.61628001  0.23801587  0.48771635  1.0
  H  H22  1  0.50701010  0.27535909  0.38093787  1.0
  H  H23  1  0.56468094  0.38387336  0.47737329  1.0
  H  H24  1  0.00412995  0.70362565  0.65931083  1.0
  H  H25  1  0.40475104  0.83911300  0.89607132  1.0
  H  H26  1  0.10934814  0.87897572  0.94825600  1.0
  H  H27  1  0.70665248  0.13479031  0.63070896  1.0
  H  H28  1  0.72902395  0.03946969  0.89981982  1.0
  H  H29  1  0.49681503  0.16800310  0.19018024  1.0
  H  H30  1  0.64471087  0.96548003  0.67774368  1.0
  H  H31  1  0.13849311  0.26336191  0.51059438  1.0
  H  H32  1  0.09560160  0.28585201  0.03753931  1.0
  H  H33  1  0.04877898  0.43160184  0.22186382  1.0
  H  H34  1  0.30599371  0.25959128  0.91680237  1.0
  H  H35  1  0.47705003  0.80172431  0.98958987  1.0
  H  H36  1  0.68802739  0.91253724  0.59814246  1.0
  H  H37  1  0.57866085  0.82746803  0.69867795  1.0
  H  H38  1  0.28707761  0.58845934  0.80090117  1.0
  H  H39  1  0.19104860  0.68496502  0.70586322  1.0
  H  H40  1  0.25085159  0.96951314  0.65034241  1.0
  H  H41  1  0.20610134  0.85741959  0.21945224  1.0
  C  C42  1  0.35986824  0.63704233  0.86004817  1.0
  C  C43  1  0.55956435  0.29141725  0.37706903  1.0
  C  C44  1  0.67204929  0.77573898  0.77062622  1.0
  C  C45  1  0.62609262  0.35937628  0.14692071  1.0
  C  C46  1  0.69894918  0.68803850  0.82462233  1.0
  C  C47  1  0.78429251  0.65581683  0.82960675  1.0
  C  C48  1  0.84105311  0.70643310  0.77817282  1.0
  C  C49  1  0.81664380  0.79267099  0.71647097  1.0
  C  C50  1  0.72996428  0.82526281  0.71722212  1.0
  C  C51  1  0.66675131  0.90218768  0.66879532  1.0
  C  C52  1  0.60005963  0.84690596  0.73084970  1.0
  C  C53  1  0.36138371  0.70651429  0.17037669  1.0
  C  C54  1  0.27516702  0.78838196  0.77582944  1.0
  C  C55  1  0.30113337  0.69599237  0.80488336  1.0
  C  C56  1  0.26860243  0.66037785  0.77864957  1.0
  C  C57  1  0.35916985  0.36304273  0.13917620  1.0
  C  C58  1  0.21494265  0.71445461  0.72528212  1.0
  C  C59  1  0.19014889  0.80765557  0.69541412  1.0
  C  C60  1  0.22082508  0.84256756  0.72316480  1.0
  C  C61  1  0.22047122  0.92819652  0.71678880  1.0
  C  C62  1  0.28328151  0.86752433  0.77516437  1.0
  C  C63  1  0.65234605  0.26770363  0.79307838  1.0
  C  C64  1  0.64440226  0.28356780  0.29885485  1.0
  C  C65  1  0.69100793  0.31132988  0.80104663  1.0
  C  C66  1  0.78247510  0.29554179  0.75528896  1.0
  C  C67  1  0.83064578  0.23919417  0.70520342  1.0
  C  C68  1  0.79114876  0.19449006  0.69775304  1.0
  C  C69  1  0.64527988  0.62823001  0.86930485  1.0
  C  C70  1  0.70061108  0.21062815  0.74383834  1.0
  C  C71  1  0.62098349  0.18371189  0.77406492  1.0
  C  C72  1  0.56642475  0.25147789  0.82653514  1.0
  C  C73  1  0.25775841  0.28825606  0.16962661  1.0
  C  C74  1  0.31039401  0.29659094  0.19772624  1.0
  C  C75  1  0.68023748  0.30719222  0.20668067  1.0
  C  C76  1  0.31005840  0.24218241  0.28555626  1.0
  C  C77  1  0.24482402  0.20013734  0.34610059  1.0
  C  C78  1  0.18898558  0.19522121  0.31691266  1.0
  C  C79  1  0.20184250  0.23722550  0.22614440  1.0
  C  C80  1  0.16582231  0.26359148  0.15450686  1.0
  C  C81  1  0.63716718  0.36866876  0.85754449  1.0
  C  C82  1  0.23812684  0.31355725  0.08758385  1.0
  C  C83  1  0.87430907  0.84868035  0.64896036  1.0
  C  C84  1  0.12566468  0.14250880  0.37266446  1.0
  C  C85  1  0.84659259  0.13359986  0.37400091  1.0
  C  C86  1  0.77331606  0.27481795  0.17104098  1.0
  C  C87  1  0.13483581  0.86472237  0.63681768  1.0
  C  C88  1  0.84730207  0.13522627  0.64332086  1.0
  C  C89  1  0.13872052  0.86857516  0.35110190  1.0
  C  C90  1  0.39473081  0.64767117  0.11907856  1.0
  C  C91  1  0.25127199  0.73359629  0.31504729  1.0
  C  C92  1  0.20151031  0.81940330  0.28877723  1.0
  C  C93  1  0.30913014  0.68240107  0.25613289  1.0
  C  C94  1  0.82621387  0.22095690  0.22496644  1.0
  C  C95  1  0.78884580  0.19265342  0.31820806  1.0
  C  C96  1  0.69688067  0.22462384  0.35325422  1.0
  C  C97  1  0.61846009  0.21951570  0.43825789  1.0
  S  S98  1  0.50217776  0.39655607  0.39666675  1.0
  S  S99  1  0.05152700  0.34493013  0.17438000  1.0
  S  S100  1  0.34374431  0.27542208  0.00010708  1.0
  S  S101  1  0.38363557  0.81007016  0.11602287  1.0
  S  S102  1  0.94502326  0.65855786  0.79682935  1.0
  S  S103  1  0.49912402  0.90954874  0.79658817  1.0
  S  S104  1  0.24028332  0.88543769  0.87894872  1.0
  S  S105  1  0.57800221  0.21420881  0.68787547  1.0
  S  S106  1  0.63185950  0.06816258  0.84884024  1.0
  S  S107  1  0.41353675  0.20352480  0.30727142  1.0
  S  S108  1  0.23069443  0.15709353  0.46374507  1.0
  S  S109  1  0.15972103  0.18042088  0.12973087  1.0
  O  O110  1  0.49729616  0.49842716  0.00035602  1.0
  O  O111  1  0.10673228  0.94828311  0.62212944  1.0
  O  O112  1  0.80963032  0.11702718  0.61361405  1.0
  O  O113  1  0.38975466  0.67605768  0.87545960  1.0
  O  O114  1  0.12299551  0.82536217  0.43449455  1.0
  O  O115  1  0.92986320  0.10721736  0.62869063  1.0
  O  O116  1  0.10455138  0.95197474  0.31550554  1.0
  O  O117  1  0.92928725  0.12030783  0.33471735  1.0
  O  O118  1  0.12073327  0.82591574  0.60592756  1.0
  O  O119  1  0.83398700  0.93135902  0.62786544  1.0
  O  O120  1  0.08051044  0.14079924  0.45175255  1.0
  O  O121  1  0.36539222  0.39953471  0.17825501  1.0
  O  O122  1  0.54243924  0.38440114  0.18373407  1.0
  O  O123  1  0.38307091  0.37982007  0.05661876  1.0
  O  O124  1  0.67796130  0.54829718  0.91478104  1.0
  O  O125  1  0.55385413  0.38412367  0.88505038  1.0
  O  O126  1  0.42531146  0.68046361  0.03474100  1.0
  O  O127  1  0.67779889  0.39578455  0.87410346  1.0
  O  O128  1  0.38634200  0.57080953  0.16303339  1.0
  O  O129  1  0.48900070  0.46769541  0.31676139  1.0
  O  O130  1  0.42947351  0.38456556  0.47862398  1.0
  O  O131  1  0.57457792  0.40803722  0.41328595  1.0
  O  O132  1  0.57166729  0.66131333  0.85588856  1.0
  O  O133  1  0.95656827  0.72537283  0.80642826  1.0
  O  O134  1  0.95043874  0.57227709  0.86335966  1.0
  O  O135  1  0.01359933  0.64258649  0.70556477  1.0
  O  O136  1  0.52225599  0.95759928  0.81983695  1.0
  O  O137  1  0.43553995  0.95364758  0.75081929  1.0
  O  O138  1  0.46663403  0.83335861  0.88580654  1.0
  O  O139  1  0.30777448  0.83570817  0.92073108  1.0
  O  O140  1  0.19435528  0.97828475  0.86713590  1.0
  O  O141  1  0.16789616  0.83381552  0.93965997  1.0
  O  O142  1  0.49190453  0.20552156  0.72810545  1.0
  O  O143  1  0.37539286  0.55366939  0.88679354  1.0
  O  O144  1  0.59120597  0.29818087  0.62437999  1.0
  O  O145  1  0.64397075  0.13875312  0.64561378  1.0
  O  O146  1  0.54563210  0.05997765  0.89774145  1.0
  O  O147  1  0.70485057  0.00964557  0.80162782  1.0
  O  O148  1  0.66450504  0.06636814  0.91792026  1.0
  O  O149  1  0.41763233  0.25953302  0.33703075  1.0
  O  O150  1  0.43270937  0.10907456  0.35018433  1.0
  O  O151  1  0.48166443  0.21850967  0.20634716  1.0
  O  O152  1  0.23038401  0.06777842  0.50136806  1.0
  O  O153  1  0.28627759  0.18211126  0.47552578  1.0
  O  O154  1  0.66835791  0.37239851  0.06419266  1.0
  O  O155  1  0.13105494  0.22030744  0.49995277  1.0
  O  O156  1  0.24210381  0.11057410  0.12416830  1.0
  O  O157  1  0.07597860  0.16553175  0.18608758  1.0
  O  O158  1  0.15416511  0.23869156  0.03154756  1.0
  O  O159  1  0.02492790  0.37247106  0.10037332  1.0
  O  O160  1  0.99902933  0.31200948  0.26497681  1.0
  O  O161  1  0.06854094  0.42929674  0.16265746  1.0
  O  O162  1  0.35464608  0.35662452  0.92862268  1.0
  O  O163  1  0.40844132  0.21257362  0.04355539  1.0
  O  O164  1  0.32983611  0.22034066  0.96598789  1.0
  O  O165  1  0.99883335  0.00129138  0.49603073  1.0
  O  O166  1  0.32167168  0.87338372  0.06840412  1.0
  O  O167  1  0.39037031  0.82705470  0.18030801  1.0
  O  O168  1  0.48061877  0.78801342  0.04777954  1.0
  O  O169  1  0.95729631  0.81186114  0.61310597  1.0
  O  O170  1  0.12524872  0.10423453  0.33131771  1.0
  O  O171  1  0.80802194  0.10141637  0.45748875  1.0
