# generated using pymatgen
data_ZnH35C35(N3O2)3
_symmetry_space_group_name_H-M   'P 1'
_cell_length_a   16.79848619
_cell_length_b   17.86032557
_cell_length_c   23.59968496
_cell_angle_alpha   87.36633708
_cell_angle_beta   89.99992080
_cell_angle_gamma   89.99993189
_symmetry_Int_Tables_number   1
_chemical_formula_structural   ZnH35C35(N3O2)3
_chemical_formula_sum   'Zn2 H70 C70 N18 O12'
_cell_volume   7073.05044292
_cell_formula_units_Z   2
loop_
 _symmetry_equiv_pos_site_id
 _symmetry_equiv_pos_as_xyz
  1  'x, y, z'
loop_
 _atom_site_type_symbol
 _atom_site_label
 _atom_site_symmetry_multiplicity
 _atom_site_fract_x
 _atom_site_fract_y
 _atom_site_fract_z
 _atom_site_occupancy
  Zn  Zn0  1  0.58885479  0.49999988  0.49999990  1.0
  Zn  Zn1  1  0.40925349  0.49999998  0.49999956  1.0
  H  H2  1  0.46317593  0.68727614  0.04947317  1.0
  H  H3  1  0.67952121  0.72849152  0.44598135  1.0
  H  H4  1  0.77385832  0.71087295  0.41439847  1.0
  H  H5  1  0.76433656  0.70809988  0.48941949  1.0
  H  H6  1  0.34630854  0.39156810  0.55940598  1.0
  H  H7  1  0.30758178  0.34531934  0.64870842  1.0
  H  H8  1  0.21028907  0.38459148  0.64024139  1.0
  H  H9  1  0.29313815  0.44372362  0.65424661  1.0
  H  H10  1  0.65127890  0.38818825  0.53898448  1.0
  H  H11  1  0.67952019  0.27150870  0.55401834  1.0
  H  H12  1  0.77385842  0.28912663  0.58560030  1.0
  H  H13  1  0.46318898  0.31272879  0.95052828  1.0
  H  H14  1  0.76433501  0.29189969  0.51057972  1.0
  H  H15  1  0.34630912  0.60843194  0.44059192  1.0
  H  H16  1  0.30758307  0.65468410  0.35129069  1.0
  H  H17  1  0.21028920  0.61541208  0.35975655  1.0
  H  H18  1  0.29313898  0.55628042  0.34574996  1.0
  H  H19  1  0.36870609  0.43711883  0.22625374  1.0
  H  H20  1  0.36871144  0.56289238  0.77374635  1.0
  H  H21  1  0.38582360  0.43806873  0.33184932  1.0
  H  H22  1  0.38582618  0.56193853  0.66815172  1.0
  H  H23  1  0.62731907  0.55995097  0.35797489  1.0
  H  H24  1  0.54988254  0.12852397  0.42086094  1.0
  H  H25  1  0.71637362  0.57685418  0.25437355  1.0
  H  H26  1  0.71419535  0.64078345  0.31013483  1.0
  H  H27  1  0.64473319  0.65079261  0.25342968  1.0
  H  H28  1  0.62731887  0.44004875  0.64202487  1.0
  H  H29  1  0.71637145  0.42314544  0.74562697  1.0
  H  H30  1  0.71419397  0.35921560  0.68986655  1.0
  H  H31  1  0.64473052  0.34920877  0.74657128  1.0
  H  H32  1  0.59162613  0.55325336  0.20523541  1.0
  H  H33  1  0.59162681  0.44674921  0.79476387  1.0
  H  H34  1  0.57933923  0.33067796  0.42430786  1.0
  H  H35  1  0.44117704  0.88649657  0.41389261  1.0
  H  H36  1  0.60930633  0.29354885  0.33464821  1.0
  H  H37  1  0.54593994  0.21438493  0.34381166  1.0
  H  H38  1  0.64571915  0.20976545  0.36982296  1.0
  H  H39  1  0.41450867  0.78415118  0.37081071  1.0
  H  H40  1  0.45544640  0.67314036  0.32796349  1.0
  H  H41  1  0.51129901  0.64661309  0.38871476  1.0
  H  H42  1  0.54262028  0.72511196  0.34497424  1.0
  H  H43  1  0.57933828  0.66932127  0.57569111  1.0
  H  H44  1  0.60930337  0.70644977  0.66535117  1.0
  H  H45  1  0.54593691  0.78561433  0.65618692  1.0
  H  H46  1  0.54988074  0.87147529  0.57913721  1.0
  H  H47  1  0.64571675  0.79023369  0.63017680  1.0
  H  H48  1  0.41451175  0.21584767  0.62918843  1.0
  H  H49  1  0.45544450  0.32686012  0.67203556  1.0
  H  H50  1  0.51129779  0.35338788  0.61128423  1.0
  H  H51  1  0.54262085  0.27489065  0.65502636  1.0
  H  H52  1  0.93733974  0.61520233  0.44985326  1.0
  H  H53  1  0.90638167  0.65367192  0.35369445  1.0
  H  H54  1  0.81261669  0.60793738  0.36191690  1.0
  H  H55  1  0.90118780  0.55334435  0.36079678  1.0
  H  H56  1  0.06069351  0.40326941  0.56526441  1.0
  H  H57  1  0.44118450  0.11350223  0.58610735  1.0
  H  H58  1  0.09833446  0.27655060  0.58418473  1.0
  H  H59  1  0.19703086  0.29844754  0.56090180  1.0
  H  H60  1  0.11779460  0.29870636  0.51065722  1.0
  H  H61  1  0.93733979  0.38479818  0.55014574  1.0
  H  H62  1  0.90638276  0.34632750  0.64630462  1.0
  H  H63  1  0.81261834  0.39206214  0.63808268  1.0
  H  H64  1  0.90118998  0.44665452  0.63920273  1.0
  H  H65  1  0.06069351  0.59673262  0.43473457  1.0
  H  H66  1  0.09833673  0.72345084  0.41581295  1.0
  H  H67  1  0.19703192  0.70155211  0.43909583  1.0
  H  H68  1  0.46858508  0.68969501  0.94221253  1.0
  H  H69  1  0.11779735  0.70129562  0.48934043  1.0
  H  H70  1  0.46859688  0.31030992  0.05778892  1.0
  H  H71  1  0.65127884  0.61181201  0.46101439  1.0
  C  C72  1  0.50135337  0.64664354  0.49188647  1.0
  C  C73  1  0.55774526  0.47085394  0.70691327  1.0
  C  C74  1  0.54714056  0.52801141  0.23365484  1.0
  C  C75  1  0.54714127  0.47199233  0.76634529  1.0
  C  C76  1  0.48000955  0.49581502  0.21091503  1.0
  C  C77  1  0.48001077  0.50419103  0.78908511  1.0
  C  C78  1  0.52691554  0.15653741  0.45739996  1.0
  C  C79  1  0.46457438  0.85197403  0.44940008  1.0
  C  C80  1  0.52691205  0.84346076  0.54259824  1.0
  C  C81  1  0.46458067  0.14802475  0.55060028  1.0
  C  C82  1  0.53370776  0.23481618  0.46043925  1.0
  C  C83  1  0.50135294  0.35335521  0.50811259  1.0
  C  C84  1  0.46894804  0.77399516  0.44556113  1.0
  C  C85  1  0.53370855  0.76518422  0.53955889  1.0
  C  C86  1  0.46895125  0.22600419  0.55443752  1.0
  C  C87  1  0.50275848  0.27032816  0.50925258  1.0
  C  C88  1  0.50275583  0.72967059  0.49074648  1.0
  C  C89  1  0.49278268  0.11342410  0.50228390  1.0
  C  C90  1  0.49277804  0.88657409  0.49771519  1.0
  C  C91  1  0.49979271  0.49529794  0.39134090  1.0
  C  C92  1  0.49979309  0.50470361  0.60865808  1.0
  C  C93  1  0.49051229  0.03413681  0.50034512  1.0
  C  C94  1  0.42055299  0.46275538  0.24507116  1.0
  C  C95  1  0.49051052  0.96586251  0.49965394  1.0
  C  C96  1  0.83838263  0.55760557  0.46930418  1.0
  C  C97  1  0.16200324  0.44582807  0.53422121  1.0
  C  C98  1  0.83838264  0.44239504  0.53069619  1.0
  C  C99  1  0.16200383  0.55417274  0.46577685  1.0
  C  C100  1  0.75452685  0.55844139  0.47351584  1.0
  C  C101  1  0.24612033  0.45046157  0.53590612  1.0
  C  C102  1  0.75452747  0.44155876  0.52648420  1.0
  C  C103  1  0.24612034  0.54953803  0.46409148  1.0
  C  C104  1  0.87963516  0.49999972  0.50000018  1.0
  C  C105  1  0.42055662  0.53725241  0.75492898  1.0
  C  C106  1  0.12061141  0.50000070  0.49999968  1.0
  C  C107  1  0.96369095  0.50000080  0.50000011  1.0
  C  C108  1  0.03665146  0.50000131  0.49999928  1.0
  C  C109  1  0.46502248  0.43234300  0.87900650  1.0
  C  C110  1  0.46501658  0.56766249  0.12099494  1.0
  C  C111  1  0.47422203  0.57289527  0.87604593  1.0
  C  C112  1  0.47422821  0.42710966  0.12395510  1.0
  C  C113  1  0.46795415  0.57038476  0.93880825  1.0
  C  C114  1  0.46795925  0.42962184  0.06119315  1.0
  C  C115  1  0.46604625  0.50065744  0.96979985  1.0
  C  C116  1  0.43053360  0.46302405  0.30339988  1.0
  C  C117  1  0.46604597  0.49934917  0.03020155  1.0
  C  C118  1  0.46500277  0.43223164  0.94185944  1.0
  C  C119  1  0.46499818  0.56777385  0.05814242  1.0
  C  C120  1  0.46689505  0.63686052  0.96721455  1.0
  C  C121  1  0.46690446  0.36314553  0.03278644  1.0
  C  C122  1  0.46447610  0.63554138  0.02672799  1.0
  C  C123  1  0.46448726  0.36446411  0.97327429  1.0
  C  C124  1  0.73409757  0.69486929  0.44974218  1.0
  C  C125  1  0.27383766  0.39395517  0.63181855  1.0
  C  C126  1  0.73409712  0.30513088  0.55025661  1.0
  C  C127  1  0.43053615  0.53698205  0.69660072  1.0
  C  C128  1  0.27383897  0.60604720  0.36817935  1.0
  C  C129  1  0.67684144  0.60965489  0.28127094  1.0
  C  C130  1  0.67683996  0.39034590  0.71872958  1.0
  C  C131  1  0.59317749  0.24662549  0.36401576  1.0
  C  C132  1  0.49019234  0.69497689  0.36296703  1.0
  C  C133  1  0.59317454  0.75337484  0.63598316  1.0
  C  C134  1  0.49019232  0.30502467  0.63703238  1.0
  C  C135  1  0.87527709  0.60621444  0.37503785  1.0
  C  C136  1  0.13387576  0.31188724  0.55449887  1.0
  C  C137  1  0.87527876  0.39378445  0.62496168  1.0
  C  C138  1  0.49725147  0.49514895  0.32852921  1.0
  C  C139  1  0.13387623  0.68811304  0.44549924  1.0
  C  C140  1  0.49725232  0.50485427  0.67147057  1.0
  C  C141  1  0.55774503  0.52914923  0.29308645  1.0
  N  N142  1  0.47240289  0.50310576  0.85011327  1.0
  N  N143  1  0.62264758  0.43664213  0.68519761  1.0
  N  N144  1  0.56606189  0.27672578  0.41628621  1.0
  N  N145  1  0.43934841  0.74291911  0.39619369  1.0
  N  N146  1  0.56606085  0.72327290  0.58371195  1.0
  N  N147  1  0.43935149  0.25707914  0.60380545  1.0
  N  N148  1  0.87966730  0.61317028  0.43662159  1.0
  N  N149  1  0.11984587  0.39079147  0.56621766  1.0
  N  N150  1  0.87966791  0.38682973  0.56337833  1.0
  N  N151  1  0.11984646  0.60920994  0.43378085  1.0
  N  N152  1  0.47240059  0.49689917  0.14988690  1.0
  N  N153  1  0.71438813  0.49999981  0.49999984  1.0
  N  N154  1  0.28592273  0.50000062  0.49999875  1.0
  N  N155  1  0.70965316  0.61600126  0.44916254  1.0
  N  N156  1  0.28892776  0.40199518  0.57106951  1.0
  N  N157  1  0.70965380  0.38399894  0.55083670  1.0
  N  N158  1  0.28892837  0.59800549  0.42892843  1.0
  N  N159  1  0.62264786  0.56335872  0.31480254  1.0
  O  O160  1  0.56471861  0.61230868  0.51007585  1.0
  O  O161  1  0.45994820  0.62554892  0.14697469  1.0
  O  O162  1  0.48188581  0.63186283  0.84768854  1.0
  O  O163  1  0.48189855  0.36814264  0.15231373  1.0
  O  O164  1  0.43933065  0.38777151  0.52296937  1.0
  O  O165  1  0.56471877  0.38769056  0.48992313  1.0
  O  O166  1  0.43933056  0.61222844  0.47702802  1.0
  O  O167  1  0.56494200  0.51648674  0.41483796  1.0
  O  O168  1  0.43742498  0.52474086  0.58139082  1.0
  O  O169  1  0.56494185  0.48351304  0.58516228  1.0
  O  O170  1  0.43742636  0.47525852  0.41860871  1.0
  O  O171  1  0.45995184  0.37445657  0.85302760  1.0
