# generated using pymatgen
data_Zn2H12C37(BrO2)4
_symmetry_space_group_name_H-M   'P 1'
_cell_length_a   16.45818049
_cell_length_b   16.60573462
_cell_length_c   28.34555962
_cell_angle_alpha   90.93220106
_cell_angle_beta   89.74695896
_cell_angle_gamma   89.96196851
_symmetry_Int_Tables_number   1
_chemical_formula_structural   Zn2H12C37(BrO2)4
_chemical_formula_sum   'Zn4 H24 C74 Br8 O16'
_cell_volume   7745.74352131
_cell_formula_units_Z   2
loop_
 _symmetry_equiv_pos_site_id
 _symmetry_equiv_pos_as_xyz
  1  'x, y, z'
loop_
 _atom_site_type_symbol
 _atom_site_label
 _atom_site_symmetry_multiplicity
 _atom_site_fract_x
 _atom_site_fract_y
 _atom_site_fract_z
 _atom_site_occupancy
  Zn  Zn0  1  0.50105276  0.91426408  0.49976614  1.0
  Zn  Zn1  1  0.49953310  0.07676489  0.50084661  1.0
  Zn  Zn2  1  0.08490712  0.50101386  0.99826123  1.0
  Zn  Zn3  1  0.92048927  0.50353434  0.00055721  1.0
  H  H4  1  0.30773961  0.90194443  0.59162203  1.0
  H  H5  1  0.68333884  0.15791648  0.39821812  1.0
  H  H6  1  0.73927057  0.06730503  0.69729478  1.0
  H  H7  1  0.13640780  0.87601844  0.37482759  1.0
  H  H8  1  0.16089008  0.78112214  0.83043444  1.0
  H  H9  1  0.90249247  0.22753588  0.16406522  1.0
  H  H10  1  0.96972902  0.27035350  0.79104414  1.0
  H  H11  1  0.96958766  0.73553699  0.20880325  1.0
  H  H12  1  0.95757534  0.10725098  0.90823945  1.0
  H  H13  1  0.98598375  0.89848951  0.09171220  1.0
  H  H14  1  0.89933541  0.78315571  0.84028632  1.0
  H  H15  1  0.16415229  0.21450177  0.16109024  1.0
  H  H16  1  0.85224537  0.86785346  0.62279346  1.0
  H  H17  1  0.26221073  0.07686550  0.31324820  1.0
  H  H18  1  0.16566245  0.66773177  0.88727317  1.0
  H  H19  1  0.90730316  0.34028568  0.10671217  1.0
  H  H20  1  0.90515189  0.66947192  0.89689421  1.0
  H  H21  1  0.16791368  0.32721064  0.10373664  1.0
  H  H22  1  0.32580133  0.15850333  0.61207490  1.0
  H  H23  1  0.67800097  0.89906278  0.39617535  1.0
  H  H24  1  0.73478898  0.86313147  0.56751691  1.0
  H  H25  1  0.37118710  0.06287894  0.37326662  1.0
  H  H26  1  0.19254707  0.89810316  0.64928671  1.0
  H  H27  1  0.79815711  0.15505847  0.34017952  1.0
  C  C28  1  0.60735974  0.02754786  0.43650621  1.0
  C  C29  1  0.39163294  0.03041708  0.56363602  1.0
  C  C30  1  0.96194058  0.32471238  0.86051260  1.0
  C  C31  1  0.96731510  0.68156365  0.13910708  1.0
  C  C32  1  0.95859885  0.16818708  0.89472422  1.0
  C  C33  1  0.98058053  0.83768895  0.10509375  1.0
  C  C34  1  0.95534801  0.23419011  0.92551779  1.0
  C  C35  1  0.97645238  0.77199857  0.07416094  1.0
  C  C36  1  0.95737711  0.75735561  0.85050780  1.0
  C  C37  1  0.10804868  0.24242610  0.14927512  1.0
  C  C38  1  0.96053320  0.69430834  0.88187687  1.0
  C  C39  1  0.11020516  0.30515748  0.11734738  1.0
  C  C40  1  0.23319760  0.09907721  0.65296228  1.0
  C  C41  1  0.76804583  0.95345483  0.35129763  1.0
  C  C42  1  0.29678353  0.10163364  0.62050413  1.0
  C  C43  1  0.70449112  0.95479088  0.38361345  1.0
  C  C44  1  0.80223010  0.91038871  0.62676241  1.0
  C  C45  1  0.25927323  0.02949614  0.33931829  1.0
  C  C46  1  0.73688178  0.90794056  0.59598368  1.0
  C  C47  1  0.32005739  0.02131983  0.37248453  1.0
  C  C48  1  0.99988422  0.99217132  0.75229043  1.0
  C  C49  1  0.00330755  0.01414462  0.24821397  1.0
  C  C50  1  0.60938067  0.96316783  0.56219885  1.0
  C  C51  1  0.38647860  0.95991358  0.44090712  1.0
  C  C52  1  0.19434334  0.02580974  0.66390034  1.0
  C  C53  1  0.80352337  0.02566227  0.33521632  1.0
  C  C54  1  0.32370131  0.03021774  0.59856794  1.0
  C  C55  1  0.67409265  0.02857745  0.40072327  1.0
  C  C56  1  0.80437605  0.96890440  0.66329150  1.0
  C  C57  1  0.19201782  0.97698291  0.33982831  1.0
  C  C58  1  0.67277210  0.96363215  0.59970144  1.0
  C  C59  1  0.31810143  0.96035626  0.40638277  1.0
  C  C60  1  0.02975830  0.79013445  0.83211298  1.0
  C  C61  1  0.03295833  0.21331144  0.16601282  1.0
  C  C62  1  0.03562075  0.66240925  0.89569772  1.0
  C  C63  1  0.03772673  0.34005087  0.10170428  1.0
  C  C64  1  0.96499341  0.18097301  0.84585236  1.0
  C  C65  1  0.97862766  0.82475964  0.15407649  1.0
  C  C66  1  0.95784525  0.31353630  0.90939025  1.0
  C  C67  1  0.97023526  0.69280479  0.09022525  1.0
  C  C68  1  0.07136705  0.00887710  0.72225467  1.0
  C  C69  1  0.92928678  0.02229956  0.27771781  1.0
  C  C70  1  0.01394348  0.91787814  0.77916657  1.0
  C  C71  1  0.01741497  0.08812692  0.22107258  1.0
  C  C72  1  0.22246186  0.95471755  0.64110716  1.0
  C  C73  1  0.77124290  0.09928634  0.35254134  1.0
  C  C74  1  0.92848699  0.98161288  0.72124859  1.0
  C  C75  1  0.07262932  0.99878905  0.27984772  1.0
  C  C76  1  0.98526882  0.05982638  0.78583746  1.0
  C  C77  1  0.99327503  0.94584202  0.21460064  1.0
  C  C78  1  0.12849195  0.02036829  0.69596278  1.0
  C  C79  1  0.87044585  0.02448124  0.30370202  1.0
  C  C80  1  0.97401907  0.11495616  0.81376023  1.0
  C  C81  1  0.98557977  0.89052638  0.18644683  1.0
  C  C82  1  0.02433213  0.85807532  0.80251871  1.0
  C  C83  1  0.02768607  0.14652263  0.19650195  1.0
  C  C84  1  0.87130113  0.97462068  0.69456406  1.0
  C  C85  1  0.12756033  0.98723079  0.30738833  1.0
  C  C86  1  0.96233790  0.38397312  0.94330799  1.0
  C  C87  1  0.97102897  0.62212578  0.05634935  1.0
  C  C88  1  0.03621011  0.59901154  0.93213746  1.0
  C  C89  1  0.03743004  0.40371363  0.06541588  1.0
  C  C90  1  0.28621886  0.95674776  0.60914177  1.0
  C  C91  1  0.70750994  0.10094218  0.38478794  1.0
  C  C92  1  0.73897347  0.02306979  0.66855968  1.0
  C  C93  1  0.18867503  0.91603440  0.37370452  1.0
  C  C94  1  0.67440672  0.02043587  0.63709105  1.0
  C  C95  1  0.25132966  0.90758559  0.40621255  1.0
  C  C96  1  0.10501051  0.75636084  0.84496373  1.0
  C  C97  1  0.96036051  0.24991502  0.15089178  1.0
  C  C98  1  0.10772371  0.69321971  0.87657928  1.0
  C  C99  1  0.96296373  0.31241639  0.11912409  1.0
  C  C100  1  0.96541044  0.26012857  0.82877047  1.0
  C  C101  1  0.97130016  0.74585589  0.17102196  1.0
  Br  Br102  1  0.19814539  0.19606113  0.68294315  1.0
  Br  Br103  1  0.80784628  0.85239804  0.32907435  1.0
  Br  Br104  1  0.58737389  0.09351509  0.64917949  1.0
  Br  Br105  1  0.23822763  0.82564786  0.45179587  1.0
  Br  Br106  1  0.96468571  0.43111915  0.83657950  1.0
  Br  Br107  1  0.95959476  0.57534183  0.16294586  1.0
  Br  Br108  1  0.95014080  0.21573756  0.99159813  1.0
  Br  Br109  1  0.98036646  0.79064810  0.00809596  1.0
  O  O110  1  0.58204004  0.95922331  0.44972626  1.0
  O  O111  1  0.41810058  0.09903508  0.54918382  1.0
  O  O112  1  0.58635335  0.03060949  0.54691979  1.0
  O  O113  1  0.41441738  0.89201845  0.45493725  1.0
  O  O114  1  0.58436593  0.89399866  0.54675214  1.0
  O  O115  1  0.41367197  0.02858654  0.45335982  1.0
  O  O116  1  0.58009469  0.09603733  0.45195442  1.0
  O  O117  1  0.41906178  0.96245702  0.54984830  1.0
  O  O118  1  0.03269862  0.40734857  0.95456359  1.0
  O  O119  1  0.90164930  0.59458175  0.04326576  1.0
  O  O120  1  0.96799795  0.57468450  0.94743705  1.0
  O  O121  1  0.10649829  0.42710911  0.04857826  1.0
  O  O122  1  0.10564936  0.57337253  0.94694500  1.0
  O  O123  1  0.96893615  0.43058447  0.05238866  1.0
  O  O124  1  0.89475070  0.41417427  0.95796162  1.0
  O  O125  1  0.03990330  0.59587378  0.04375520  1.0
