# generated using pymatgen
data_Hf3H23C63N3O16F15
_symmetry_space_group_name_H-M   'P 1'
_cell_length_a   17.44739795
_cell_length_b   17.46632237
_cell_length_c   17.72961880
_cell_angle_alpha   92.47718783
_cell_angle_beta   92.42613486
_cell_angle_gamma   92.95697536
_symmetry_Int_Tables_number   1
_chemical_formula_structural   Hf3H23C63N3O16F15
_chemical_formula_sum   'Hf6 H46 C126 N6 O32 F30'
_cell_volume   5385.34212944
_cell_formula_units_Z   2
loop_
 _symmetry_equiv_pos_site_id
 _symmetry_equiv_pos_as_xyz
  1  'x, y, z'
loop_
 _atom_site_type_symbol
 _atom_site_label
 _atom_site_symmetry_multiplicity
 _atom_site_fract_x
 _atom_site_fract_y
 _atom_site_fract_z
 _atom_site_occupancy
  Hf  Hf0  1  0.81169030  0.95168961  0.85069437  1.0
  Hf  Hf1  1  0.75625480  0.84536787  0.00396687  1.0
  Hf  Hf2  1  0.99697549  0.98145423  0.93227479  1.0
  Hf  Hf3  1  0.91569626  0.79419157  0.90192270  1.0
  Hf  Hf4  1  0.83851510  0.03165242  0.03549440  1.0
  Hf  Hf5  1  0.94242270  0.87454327  0.08546151  1.0
  H  H6  1  0.13787794  0.25915081  0.58967203  1.0
  H  H7  1  0.14346907  0.23189174  0.44173568  1.0
  H  H8  1  0.63047687  0.57033064  0.34388365  1.0
  H  H9  1  0.61804541  0.59350333  0.49103468  1.0
  H  H10  1  0.21262456  0.53944082  0.22053323  1.0
  H  H11  1  0.19806539  0.38858963  0.23596471  1.0
  H  H12  1  0.53471027  0.28695803  0.71242742  1.0
  H  H13  1  0.56603531  0.43745881  0.71045314  1.0
  H  H14  1  0.50401037  0.16653336  0.32677615  1.0
  H  H15  1  0.35292050  0.17997607  0.30297917  1.0
  H  H16  1  0.24946587  0.66312297  0.60920383  1.0
  H  H17  1  0.40004261  0.64924692  0.63438419  1.0
  H  H18  1  0.76060820  0.79560902  0.85070772  1.0
  H  H19  1  0.88821189  0.09303325  0.90401082  1.0
  H  H20  1  0.05653724  0.84843358  0.97886559  1.0
  H  H21  1  0.80910272  0.92069710  0.14488003  1.0
  H  H22  1  0.04393422  0.76102764  0.70549450  1.0
  H  H23  1  0.29002698  0.91268845  0.69248631  1.0
  H  H24  1  0.46133606  0.69684131  0.73711909  1.0
  H  H25  1  0.60087394  0.94944785  0.73010546  1.0
  H  H26  1  0.14570854  0.88460052  0.21161858  1.0
  H  H27  1  0.29988282  0.12794190  0.19494798  1.0
  H  H28  1  0.70482031  0.07156194  0.22057227  1.0
  H  H29  1  0.46279111  0.91587530  0.24412660  1.0
  H  H30  1  0.31189930  0.03473218  0.45067630  1.0
  H  H31  1  0.44295081  0.79480518  0.48586568  1.0
  H  H32  1  0.62319502  0.08140241  0.80475886  1.0
  H  H33  1  0.58118471  0.31159798  0.96753551  1.0
  H  H34  1  0.58460851  0.56093680  0.75021534  1.0
  H  H35  1  0.68978601  0.57013855  0.01497069  1.0
  H  H36  1  0.06073883  0.17306288  0.15640794  1.0
  H  H37  1  0.17445059  0.34523399  0.97082166  1.0
  H  H38  1  0.06023208  0.59836342  0.93886129  1.0
  H  H39  1  0.24113238  0.65735390  0.15953539  1.0
  H  H40  1  0.31794966  0.30367842  0.03890929  1.0
  H  H41  1  0.43267379  0.51428592  0.89830396  1.0
  H  H42  1  0.90921649  0.73203315  0.27420019  1.0
  H  H43  1  0.69292206  0.53807458  0.22699660  1.0
  H  H44  1  0.65559470  0.66630534  0.57707504  1.0
  H  H45  1  0.92674086  0.69325623  0.66947082  1.0
  H  H46  1  0.10647799  0.18555087  0.33589295  1.0
  H  H47  1  0.82895996  0.12355644  0.28401449  1.0
  H  H48  1  0.04637777  0.16735563  0.79464412  1.0
  H  H49  1  0.88203437  0.19473456  0.56340017  1.0
  H  H50  1  0.97028453  0.36940416  0.37423195  1.0
  H  H51  1  0.79282242  0.45625156  0.56468412  1.0
  C  C52  1  0.01638392  0.27893654  0.56561065  1.0
  C  C53  1  0.09214403  0.26885429  0.54838150  1.0
  C  C54  1  0.09454534  0.25405517  0.46959283  1.0
  C  C55  1  0.02073146  0.25684561  0.43759910  1.0
  C  C56  1  0.75065505  0.54780615  0.37253627  1.0
  C  C57  1  0.67417876  0.55869082  0.38664182  1.0
  C  C58  1  0.66837096  0.57213025  0.46510149  1.0
  C  C59  1  0.74110502  0.56964434  0.49993548  1.0
  C  C60  1  0.24176267  0.50970280  0.10397688  1.0
  C  C61  1  0.22870967  0.49616667  0.17924215  1.0
  C  C62  1  0.21991357  0.41622029  0.18713184  1.0
  C  C63  1  0.22705494  0.38010484  0.11657549  1.0
  C  C64  1  0.50647269  0.31035207  0.83025892  1.0
  C  C65  1  0.52221644  0.32858057  0.75678483  1.0
  C  C66  1  0.53869203  0.40851176  0.75595939  1.0
  C  C67  1  0.53151699  0.44020580  0.82839928  1.0
  C  C68  1  0.47343354  0.04389420  0.33428082  1.0
  C  C69  1  0.45994000  0.12115578  0.33195748  1.0
  C  C70  1  0.37966627  0.12793006  0.31896693  1.0
  C  C71  1  0.34398766  0.05527599  0.31526632  1.0
  C  C72  1  0.28061961  0.78564588  0.60132297  1.0
  C  C73  1  0.29373993  0.70836493  0.60434379  1.0
  C  C74  1  0.37382873  0.70144292  0.61805327  1.0
  C  C75  1  0.40991424  0.77401631  0.62158545  1.0
  C  C76  1  0.93575617  0.05528515  0.77627959  1.0
  C  C77  1  0.64496482  0.87415002  0.85178258  1.0
  C  C78  1  0.84017208  0.79825221  0.73738401  1.0
  C  C79  1  0.72995968  0.10280060  0.91645377  1.0
  C  C80  1  0.82107203  0.76296697  0.15359639  1.0
  C  C81  1  0.10626448  0.95688905  0.08736536  1.0
  C  C82  1  0.76027560  0.67882809  0.92832052  1.0
  C  C83  1  0.67980338  0.96714639  0.10633274  1.0
  C  C84  1  0.99847036  0.14351571  0.01406737  1.0
  C  C85  1  0.06877969  0.86217975  0.82320660  1.0
  C  C86  1  0.01904244  0.71962975  0.02423126  1.0
  C  C87  1  0.91812043  0.03395505  0.19723637  1.0
  C  C88  1  0.09642052  0.79650205  0.70029048  1.0
  C  C89  1  0.11641182  0.85455980  0.75619988  1.0
  C  C90  1  0.18433231  0.89926075  0.74716206  1.0
  C  C91  1  0.23403449  0.88227182  0.69079127  1.0
  C  C92  1  0.21681885  0.82084920  0.63761460  1.0
  C  C93  1  0.14426796  0.78226984  0.64192316  1.0
  C  C94  1  0.49288902  0.75167488  0.73267420  1.0
  C  C95  1  0.47663620  0.79845029  0.67141565  1.0
  C  C96  1  0.51715801  0.87033213  0.67435165  1.0
  C  C97  1  0.56906011  0.89443373  0.73261444  1.0
  C  C98  1  0.58269487  0.84856375  0.79448061  1.0
  C  C99  1  0.54276959  0.77691540  0.79242927  1.0
  C  C100  1  0.18039391  0.93768099  0.20745671  1.0
  C  C101  1  0.16963732  0.98162915  0.14360678  1.0
  C  C102  1  0.21432687  0.05034558  0.14219717  1.0
  C  C103  1  0.26520529  0.07527718  0.20124725  1.0
  C  C104  1  0.27746496  0.03089589  0.26509004  1.0
  C  C105  1  0.23324590  0.96134793  0.26498585  1.0
  C  C106  1  0.65345720  0.03507438  0.22820879  1.0
  C  C107  1  0.63250720  0.97606762  0.17346080  1.0
  C  C108  1  0.56589631  0.93047563  0.18537757  1.0
  C  C109  1  0.51817720  0.94715985  0.24352989  1.0
  C  C110  1  0.53622708  0.00927732  0.29576404  1.0
  C  C111  1  0.60782045  0.04891144  0.28840936  1.0
  C  C112  1  0.34094090  0.98155431  0.45703194  1.0
  C  C113  1  0.38813238  0.95575153  0.40018201  1.0
  C  C114  1  0.42422064  0.88759740  0.41415211  1.0
  C  C115  1  0.41376777  0.84789181  0.47943053  1.0
  C  C116  1  0.36640389  0.87362551  0.53616788  1.0
  C  C117  1  0.33044868  0.94187507  0.52230253  1.0
  C  C118  1  0.61172012  0.13037026  0.84186987  1.0
  C  C119  1  0.66083284  0.14765844  0.90608388  1.0
  C  C120  1  0.64313327  0.21056908  0.95302210  1.0
  C  C121  1  0.58597285  0.25902194  0.93317884  1.0
  C  C122  1  0.54146086  0.24578022  0.86519520  1.0
  C  C123  1  0.55287294  0.17686672  0.82392992  1.0
  C  C124  1  0.60746123  0.56062400  0.80829988  1.0
  C  C125  1  0.57662669  0.50802917  0.85888034  1.0
  C  C126  1  0.60852851  0.51540388  0.93348696  1.0
  C  C127  1  0.66903146  0.56690695  0.95612921  1.0
  C  C128  1  0.70240852  0.61462000  0.90390532  1.0
  C  C129  1  0.66892921  0.61048552  0.83089899  1.0
  C  C130  1  0.08566757  0.21019845  0.11534575  1.0
  C  C131  1  0.05698789  0.20579248  0.04041920  1.0
  C  C132  1  0.09399474  0.25280624  0.98977652  1.0
  C  C133  1  0.15343157  0.30550381  0.01183311  1.0
  C  C134  1  0.18201032  0.31158083  0.08778117  1.0
  C  C135  1  0.14805185  0.25951012  0.13661052  1.0
  C  C136  1  0.10046681  0.61188435  0.98682632  1.0
  C  C137  1  0.08884485  0.67562852  0.03525575  1.0
  C  C138  1  0.14423729  0.69190426  0.09460856  1.0
  C  C139  1  0.20248195  0.64352426  0.11043411  1.0
  C  C140  1  0.20778627  0.57403846  0.06809219  1.0
  C  C141  1  0.15889154  0.56380490  0.00236992  1.0
  C  C142  1  0.34099385  0.35143810  0.00796732  1.0
  C  C143  1  0.31012927  0.42395577  0.01505589  1.0
  C  C144  1  0.34722585  0.48052255  0.97329870  1.0
  C  C145  1  0.40916849  0.46651076  0.92899072  1.0
  C  C146  1  0.44031968  0.39413365  0.92235234  1.0
  C  C147  1  0.40267011  0.33738016  0.96347241  1.0
  C  C148  1  0.86239177  0.68879103  0.26326553  1.0
  C  C149  1  0.81264661  0.69434520  0.19963967  1.0
  C  C150  1  0.75432979  0.63607656  0.18728827  1.0
  C  C151  1  0.74139832  0.57944001  0.23808671  1.0
  C  C152  1  0.78517739  0.57969826  0.30668600  1.0
  C  C153  1  0.84922314  0.63299071  0.31456996  1.0
  C  C154  1  0.71581378  0.67014607  0.59590354  1.0
  C  C155  1  0.76788165  0.61835006  0.56608199  1.0
  C  C156  1  0.84442757  0.63126570  0.59447021  1.0
  C  C157  1  0.86734585  0.68920248  0.64766520  1.0
  C  C158  1  0.81571142  0.74208498  0.67375637  1.0
  C  C159  1  0.73975439  0.73071177  0.64538302  1.0
  C  C160  1  0.04502858  0.17268517  0.32714210  1.0
  C  C161  1  0.99179226  0.21283707  0.36961223  1.0
  C  C162  1  0.91385813  0.19177232  0.35091743  1.0
  C  C163  1  0.89021669  0.13510291  0.29653240  1.0
  C  C164  1  0.94384331  0.09201882  0.25920936  1.0
  C  C165  1  0.02115298  0.11275660  0.27696048  1.0
  C  C166  1  0.00906400  0.17489161  0.74501720  1.0
  C  C167  1  0.94644536  0.12194318  0.72813719  1.0
  C  C168  1  0.89885413  0.13516464  0.66456513  1.0
  C  C169  1  0.91640326  0.19264316  0.61585206  1.0
  C  C170  1  0.98240994  0.24211121  0.62943494  1.0
  C  C171  1  0.02446580  0.23403587  0.69799164  1.0
  C  C172  1  0.93119750  0.38679380  0.41722888  1.0
  C  C173  1  0.92525002  0.34587655  0.48324633  1.0
  C  C174  1  0.87393654  0.37494730  0.53487759  1.0
  C  C175  1  0.83224012  0.43894903  0.52195531  1.0
  C  C176  1  0.83876909  0.48038000  0.45625668  1.0
  C  C177  1  0.88936733  0.45071959  0.40419531  1.0
  N  N178  1  0.97298334  0.28278684  0.49560797  1.0
  N  N179  1  0.79082244  0.54314803  0.44367938  1.0
  N  N180  1  0.25114827  0.43735517  0.06668798  1.0
  N  N181  1  0.50126592  0.38113043  0.87286551  1.0
  N  N182  1  0.40037381  0.00207767  0.33560130  1.0
  N  N183  1  0.35377588  0.82719263  0.60063019  1.0
  O  O184  1  0.99139972  0.04076531  0.82120322  1.0
  O  O185  1  0.64946235  0.84763955  0.91711419  1.0
  O  O186  1  0.81413484  0.86436784  0.74314494  1.0
  O  O187  1  0.74668118  0.05926666  0.86072393  1.0
  O  O188  1  0.76895508  0.11141218  0.97970905  1.0
  O  O189  1  0.88671951  0.76934208  0.78536503  1.0
  O  O190  1  0.69407799  0.92226132  0.82527749  1.0
  O  O191  1  0.87025416  0.01771763  0.77090127  1.0
  O  O192  1  0.78438434  0.94997714  0.96268496  1.0
  O  O193  1  0.91550147  0.90799493  0.87714257  1.0
  O  O194  1  0.79388845  0.82900297  0.88448238  1.0
  O  O195  1  0.88579266  0.04095106  0.92100109  1.0
  O  O196  1  0.76549422  0.77833088  0.10937023  1.0
  O  O197  1  0.10117835  0.98395007  0.02226075  1.0
  O  O198  1  0.82695984  0.68372341  0.90311508  1.0
  O  O199  1  0.72461725  0.02385751  0.09191791  1.0
  O  O200  1  0.93343790  0.13697367  0.04267376  1.0
  O  O201  1  0.02410090  0.80493207  0.83680570  1.0
  O  O202  1  0.99936447  0.76213278  0.07919985  1.0
  O  O203  1  0.94620191  0.96888376  0.19197769  1.0
  O  O204  1  0.98327465  0.71179827  0.95896756  1.0
  O  O205  1  0.86643771  0.05948690  0.15230197  1.0
  O  O206  1  0.73076722  0.72733297  0.97317777  1.0
  O  O207  1  0.07665102  0.92541840  0.86296851  1.0
  O  O208  1  0.02458474  0.09873989  0.96313893  1.0
  O  O209  1  0.67416233  0.90223853  0.06907503  1.0
  O  O210  1  0.88466813  0.80375406  0.16447454  1.0
  O  O211  1  0.05824808  0.90732540  0.11340744  1.0
  O  O212  1  0.93977752  0.97640545  0.03172645  1.0
  O  O213  1  0.87041646  0.81940785  0.00408564  1.0
  O  O214  1  0.00389288  0.86379132  0.97614089  1.0
  O  O215  1  0.82615735  0.91958440  0.09350732  1.0
  F  F216  1  0.12372380  0.72351501  0.59039635  1.0
  F  F217  1  0.20789834  0.95685323  0.79780096  1.0
  F  F218  1  0.55181601  0.72924844  0.85024445  1.0
  F  F219  1  0.50493147  0.91934339  0.61768277  1.0
  F  F220  1  0.24238471  0.91448643  0.32409978  1.0
  F  F221  1  0.20923240  0.09541076  0.08195543  1.0
  F  F222  1  0.62948752  0.10833389  0.33886328  1.0
  F  F223  1  0.54180066  0.87194244  0.13600532  1.0
  F  F224  1  0.28370998  0.97279157  0.57365115  1.0
  F  F225  1  0.47124277  0.85683325  0.36286261  1.0
  F  F226  1  0.50858987  0.15931501  0.75937314  1.0
  F  F227  1  0.68565513  0.23024804  0.01740735  1.0
  F  F228  1  0.69597129  0.66099861  0.78025483  1.0
  F  F229  1  0.58174234  0.46747489  0.98652591  1.0
  F  F230  1  0.17545780  0.25945376  0.21040044  1.0
  F  F231  1  0.06811141  0.25014104  0.91604040  1.0
  F  F232  1  0.16372434  0.50006884  0.95583572  1.0
  F  F233  1  0.14207588  0.75636667  0.13993592  1.0
  F  F234  1  0.42578384  0.26414313  0.96149931  1.0
  F  F235  1  0.32396187  0.55380199  0.97537689  1.0
  F  F236  1  0.89574827  0.63574431  0.37831192  1.0
  F  F237  1  0.70644287  0.63429410  0.12472509  1.0
  F  F238  1  0.68569259  0.77863695  0.66873900  1.0
  F  F239  1  0.90012677  0.58621065  0.56865053  1.0
  F  F240  1  0.07633649  0.07456977  0.24119812  1.0
  F  F241  1  0.85766940  0.22596435  0.38930026  1.0
  F  F242  1  0.08729557  0.28269901  0.71508592  1.0
  F  F243  1  0.83627190  0.08812227  0.64490313  1.0
  F  F244  1  0.89947008  0.48347536  0.33680142  1.0
  F  F245  1  0.86272876  0.34053897  0.60125632  1.0
