# generated using pymatgen
data_Ni2H30C40N4O9
_symmetry_space_group_name_H-M   'P 1'
_cell_length_a   13.91921208
_cell_length_b   13.91922126
_cell_length_c   17.95455986
_cell_angle_alpha   103.59095611
_cell_angle_beta   103.59094887
_cell_angle_gamma   113.18957712
_symmetry_Int_Tables_number   1
_chemical_formula_structural   Ni2H30C40N4O9
_chemical_formula_sum   'Ni4 H60 C80 N8 O18'
_cell_volume   2891.66359010
_cell_formula_units_Z   2
loop_
 _symmetry_equiv_pos_site_id
 _symmetry_equiv_pos_as_xyz
  1  'x, y, z'
loop_
 _atom_site_type_symbol
 _atom_site_label
 _atom_site_symmetry_multiplicity
 _atom_site_fract_x
 _atom_site_fract_y
 _atom_site_fract_z
 _atom_site_occupancy
  Ni  Ni0  1  0.53486337  0.01199511  0.82630096  1.0
  Ni  Ni1  1  0.29149015  0.81424738  0.82628222  1.0
  Ni  Ni2  1  0.26199549  0.28486343  0.32630108  1.0
  Ni  Ni3  1  0.06424899  0.04149098  0.32628308  1.0
  H  H4  1  0.36414490  0.80048905  0.71350376  1.0
  H  H5  1  0.68985784  0.07763228  0.73925776  1.0
  H  H6  1  0.78069983  0.99592989  0.65886468  1.0
  H  H7  1  0.61425330  0.69113452  0.70320897  1.0
  H  H8  1  0.53108483  0.78677493  0.78226557  1.0
  H  H9  1  0.73898886  0.69982960  0.63086392  1.0
  H  H10  1  0.68928508  0.82207727  0.51889910  1.0
  H  H11  1  0.68261288  0.54851546  0.43182527  1.0
  H  H12  1  0.50245350  0.36806613  0.35902323  1.0
  H  H13  1  0.31885062  0.51545754  0.43380215  1.0
  H  H14  1  0.48958889  0.70395048  0.50898411  1.0
  H  H15  1  0.44004464  0.69222912  0.97681889  1.0
  H  H16  1  0.53628678  0.65720403  0.09644527  1.0
  H  H17  1  0.73395359  0.79900062  0.18920952  1.0
  H  H18  1  0.73883320  0.00219123  0.04227313  1.0
  H  H19  1  0.34936152  0.91307582  0.71353237  1.0
  H  H20  1  0.04912762  0.66148958  0.73914869  1.0
  H  H21  1  0.87803560  0.66287290  0.65862366  1.0
  H  H22  1  0.08899541  0.01205506  0.70319380  1.0
  H  H23  1  0.25110716  0.99536194  0.78226124  1.0
  H  H24  1  0.89204119  0.93128040  0.63089725  1.0
  H  H25  1  0.82941660  0.69703205  0.51882273  1.0
  H  H26  1  0.74909252  0.88351213  0.43177195  1.0
  H  H27  1  0.85651115  0.99118427  0.35897928  1.0
  H  H28  1  0.11476633  0.91838982  0.43371059  1.0
  H  H29  1  0.01914758  0.80506250  0.50886563  1.0
  H  H30  1  0.53667329  0.28448736  0.97668624  1.0
  H  H31  1  0.56014343  0.43908608  0.09639721  1.0
  H  H32  1  0.45523325  0.38994481  0.18915341  1.0
  H  H33  1  0.30338601  0.03986120  0.04207259  1.0
  H  H34  1  0.05048997  0.11414468  0.21350394  1.0
  H  H35  1  0.32763264  0.43985866  0.23925780  1.0
  H  H36  1  0.24593118  0.53070157  0.15886457  1.0
  H  H37  1  0.94113436  0.36425480  0.20320783  1.0
  H  H38  1  0.03677330  0.28108573  0.28226383  1.0
  H  H39  1  0.94983018  0.48898980  0.13086362  1.0
  H  H40  1  0.07207695  0.43928607  0.01889857  1.0
  H  H41  1  0.79851569  0.43261535  0.93182710  1.0
  H  H42  1  0.61806592  0.25245462  0.85902417  1.0
  H  H43  1  0.76545705  0.06885181  0.93380240  1.0
  H  H44  1  0.95395058  0.23958966  0.00898305  1.0
  H  H45  1  0.94222837  0.19004463  0.47681864  1.0
  H  H46  1  0.90720110  0.28628647  0.59644313  1.0
  H  H47  1  0.04899771  0.48395310  0.68920847  1.0
  H  H48  1  0.25219069  0.48883168  0.54227342  1.0
  H  H49  1  0.16307661  0.09936053  0.21353403  1.0
  H  H50  1  0.91148970  0.79912752  0.23914853  1.0
  H  H51  1  0.91287274  0.62803630  0.15862320  1.0
  H  H52  1  0.26205431  0.83899595  0.20319369  1.0
  H  H53  1  0.24536280  0.00110745  0.28226145  1.0
  H  H54  1  0.18128057  0.64204194  0.13089622  1.0
  H  H55  1  0.94703201  0.57941716  0.01882281  1.0
  H  H56  1  0.13350911  0.49908912  0.93177089  1.0
  H  H57  1  0.24118407  0.60650854  0.85897889  1.0
  H  H58  1  0.16839088  0.86476384  0.93370939  1.0
  H  H59  1  0.05506296  0.76914698  0.00886444  1.0
  H  H60  1  0.53449120  0.28667828  0.47668894  1.0
  H  H61  1  0.68908863  0.31014730  0.59640024  1.0
  H  H62  1  0.63994821  0.20523812  0.68915626  1.0
  H  H63  1  0.28986473  0.05338617  0.54207388  1.0
  C  C64  1  0.67735521  0.99287053  0.73060002  1.0
  C  C65  1  0.72688053  0.94600296  0.68556869  1.0
  C  C66  1  0.70600706  0.83555997  0.67458057  1.0
  C  C67  1  0.63500329  0.77779509  0.71055712  1.0
  C  C68  1  0.58834759  0.83048138  0.75492800  1.0
  C  C69  1  0.75127929  0.77888746  0.62223170  1.0
  C  C70  1  0.70470223  0.75279177  0.52695812  1.0
  C  C71  1  0.60161203  0.64280605  0.47680550  1.0
  C  C72  1  0.60430619  0.54635871  0.43424982  1.0
  C  C73  1  0.50490373  0.44518099  0.39357110  1.0
  C  C74  1  0.40151351  0.52798983  0.43463983  1.0
  C  C75  1  0.49686370  0.63198346  0.47629258  1.0
  C  C76  1  0.58265224  0.84882030  0.00230603  1.0
  C  C77  1  0.52636337  0.75173101  0.01791724  1.0
  C  C78  1  0.58032792  0.73300114  0.08461615  1.0
  C  C79  1  0.69064538  0.81125113  0.13618391  1.0
  C  C80  1  0.74867208  0.90829074  0.12090377  1.0
  C  C81  1  0.69412588  0.92651852  0.05381754  1.0
  C  C82  1  0.52184335  0.86792969  0.93060743  1.0
  C  C83  1  0.86908636  0.98973543  0.17650076  1.0
  C  C84  1  0.05309403  0.73760689  0.73044833  1.0
  C  C85  1  0.95858877  0.73949011  0.68535014  1.0
  C  C86  1  0.96853964  0.83899680  0.67442552  1.0
  C  C87  1  0.07555928  0.93269610  0.71046357  1.0
  C  C88  1  0.16651422  0.92431205  0.75485690  1.0
  C  C89  1  0.87097443  0.84353300  0.62218222  1.0
  C  C90  1  0.82212738  0.77439525  0.52691340  1.0
  C  C91  1  0.87505558  0.83419453  0.47674927  1.0
  C  C92  1  0.82983663  0.88811533  0.43420321  1.0
  C  C93  1  0.88858659  0.94861244  0.39353561  1.0
  C  C94  1  0.03297992  0.90675875  0.43457847  1.0
  C  C95  1  0.97925649  0.84441871  0.47621393  1.0
  C  C96  1  0.41957849  0.15335509  0.00217366  1.0
  C  C97  1  0.49146181  0.26605720  0.01778331  1.0
  C  C98  1  0.50423065  0.35145348  0.08452367  1.0
  C  C99  1  0.44550138  0.32472774  0.13608716  1.0
  C  C100  1  0.37216065  0.21241581  0.12078446  1.0
  C  C101  1  0.35960687  0.12711961  0.05367638  1.0
  C  C102  1  0.40878103  0.06259517  0.93049029  1.0
  C  C103  1  0.30737922  0.18668618  0.17642427  1.0
  C  C104  1  0.24287083  0.42735597  0.23060005  1.0
  C  C105  1  0.19600391  0.47688175  0.18556842  1.0
  C  C106  1  0.08555884  0.45600807  0.17457938  1.0
  C  C107  1  0.02779501  0.38500433  0.21055664  1.0
  C  C108  1  0.08048120  0.33834817  0.25492740  1.0
  C  C109  1  0.02888835  0.50128219  0.12223181  1.0
  C  C110  1  0.00279169  0.45470358  0.02695776  1.0
  C  C111  1  0.89280635  0.35161256  0.97680640  1.0
  C  C112  1  0.79635876  0.35430666  0.93425012  1.0
  C  C113  1  0.69518039  0.25490395  0.89357123  1.0
  C  C114  1  0.77799026  0.15151446  0.93464022  1.0
  C  C115  1  0.88198351  0.24686354  0.97629274  1.0
  C  C116  1  0.09882022  0.33265225  0.50230669  1.0
  C  C117  1  0.00172915  0.27636360  0.51791761  1.0
  C  C118  1  0.98299787  0.33032738  0.58461557  1.0
  C  C119  1  0.06124813  0.44064468  0.63618280  1.0
  C  C120  1  0.15828967  0.49867202  0.62090313  1.0
  C  C121  1  0.17651755  0.44412440  0.55381720  1.0
  C  C122  1  0.11792881  0.27184209  0.43060802  1.0
  C  C123  1  0.23973518  0.61908561  0.67650126  1.0
  C  C124  1  0.98760640  0.80309283  0.23044747  1.0
  C  C125  1  0.98949002  0.70858977  0.18534975  1.0
  C  C126  1  0.08899752  0.71854088  0.17442531  1.0
  C  C127  1  0.18269734  0.82556041  0.21046344  1.0
  C  C128  1  0.17431321  0.91651379  0.25485704  1.0
  C  C129  1  0.09353284  0.62097448  0.12218217  1.0
  C  C130  1  0.02439386  0.57212527  0.02691161  1.0
  C  C131  1  0.08419446  0.62505493  0.97674818  1.0
  C  C132  1  0.13811429  0.57983427  0.93420216  1.0
  C  C133  1  0.19861175  0.63858390  0.89353457  1.0
  C  C134  1  0.15675972  0.78297824  0.93457684  1.0
  C  C135  1  0.09441923  0.72925643  0.97621363  1.0
  C  C136  1  0.40335834  0.16958296  0.50217588  1.0
  C  C137  1  0.51606145  0.24146688  0.51778693  1.0
  C  C138  1  0.60145845  0.25423754  0.58452715  1.0
  C  C139  1  0.57473215  0.19550742  0.63609042  1.0
  C  C140  1  0.46242050  0.12216609  0.62078711  1.0
  C  C141  1  0.37712268  0.10961023  0.55367836  1.0
  C  C142  1  0.31259914  0.15878381  0.43049211  1.0
  C  C143  1  0.43668775  0.05737994  0.67642491  1.0
  N  N144  1  0.60910986  0.93649662  0.76493281  1.0
  N  N145  1  0.40520348  0.43610141  0.39351177  1.0
  N  N146  1  0.15569611  0.82827804  0.76483769  1.0
  N  N147  1  0.98821316  0.95757255  0.39348788  1.0
  N  N148  1  0.18649541  0.35910942  0.26493238  1.0
  N  N149  1  0.68610114  0.15520444  0.89351153  1.0
  N  N150  1  0.07827792  0.90569621  0.26483770  1.0
  N  N151  1  0.20757283  0.73821066  0.89348706  1.0
  O  O152  1  0.57524975  0.95947663  0.92108623  1.0
  O  O153  1  0.42254526  0.79068700  0.88482024  1.0
  O  O154  1  0.92707332  0.06982840  0.15744831  1.0
  O  O155  1  0.90446818  0.96890675  0.24026572  1.0
  O  O156  1  0.34580743  0.96151676  0.92093353  1.0
  O  O157  1  0.46243890  0.09408654  0.88479419  1.0
  O  O158  1  0.23039573  0.08751809  0.15746105  1.0
  O  O159  1  0.33566887  0.27134932  0.24009880  1.0
  O  O160  1  0.20947612  0.32524873  0.42108600  1.0
  O  O161  1  0.04068622  0.17254416  0.38482143  1.0
  O  O162  1  0.31982823  0.67707132  0.65744841  1.0
  O  O163  1  0.21890649  0.65446649  0.74026550  1.0
  O  O164  1  0.21151945  0.09580764  0.42093409  1.0
  O  O165  1  0.34408932  0.21244053  0.38479558  1.0
  O  O166  1  0.33751827  0.98039694  0.65745967  1.0
  O  O167  1  0.52135065  0.08566920  0.74009876  1.0
  O  O168  1  0.37593646  0.87594974  0.75186880  1.0
  O  O169  1  0.12595171  0.12593785  0.25187113  1.0
