# generated using pymatgen
data_Zn5H31C36N9O16
_symmetry_space_group_name_H-M   'P 1'
_cell_length_a   15.52348172
_cell_length_b   19.36058712
_cell_length_c   25.33946352
_cell_angle_alpha   89.99993918
_cell_angle_beta   89.99998917
_cell_angle_gamma   89.99997083
_symmetry_Int_Tables_number   1
_chemical_formula_structural   Zn5H31C36N9O16
_chemical_formula_sum   'Zn20 H124 C144 N36 O64'
_cell_volume   7615.61663533
_cell_formula_units_Z   4
loop_
 _symmetry_equiv_pos_site_id
 _symmetry_equiv_pos_as_xyz
  1  'x, y, z'
loop_
 _atom_site_type_symbol
 _atom_site_label
 _atom_site_symmetry_multiplicity
 _atom_site_fract_x
 _atom_site_fract_y
 _atom_site_fract_z
 _atom_site_occupancy
  Zn  Zn0  1  0.45253604  0.65947111  0.76886721  1.0
  Zn  Zn1  1  0.04746472  0.34052873  0.26886625  1.0
  Zn  Zn2  1  0.95253658  0.84052856  0.73113268  1.0
  Zn  Zn3  1  0.54746473  0.15947061  0.23113305  1.0
  Zn  Zn4  1  0.54746467  0.34052917  0.23113298  1.0
  Zn  Zn5  1  0.95253534  0.65947155  0.73113236  1.0
  Zn  Zn6  1  0.04746478  0.15947172  0.26886632  1.0
  Zn  Zn7  1  0.45253598  0.84052863  0.76886713  1.0
  Zn  Zn8  1  0.47377362  0.53498382  0.54732705  1.0
  Zn  Zn9  1  0.02622721  0.46501582  0.04732638  1.0
  Zn  Zn10  1  0.97377723  0.96501533  0.95267205  1.0
  Zn  Zn11  1  0.52622465  0.03498405  0.45267292  1.0
  Zn  Zn12  1  0.52622580  0.46501647  0.45267314  1.0
  Zn  Zn13  1  0.97377543  0.53498550  0.95267301  1.0
  Zn  Zn14  1  0.02622541  0.03498444  0.04732695  1.0
  Zn  Zn15  1  0.47377219  0.96501520  0.54732648  1.0
  Zn  Zn16  1  0.32148166  0.74999995  0.69411856  1.0
  Zn  Zn17  1  0.17852041  0.24999999  0.19411844  1.0
  Zn  Zn18  1  0.82148223  0.75000029  0.80588214  1.0
  Zn  Zn19  1  0.67851969  0.24999982  0.30588163  1.0
  H  H20  1  0.33897965  0.75000039  0.79330771  1.0
  H  H21  1  0.16102045  0.24999993  0.29330720  1.0
  H  H22  1  0.83897896  0.75000087  0.70669298  1.0
  H  H23  1  0.66102041  0.24999989  0.20669248  1.0
  H  H24  1  0.50130672  0.74999763  0.26595557  1.0
  H  H25  1  0.99869328  0.24999478  0.76595568  1.0
  H  H26  1  0.00130742  0.75000137  0.23404372  1.0
  H  H27  1  0.49869334  0.25000007  0.73404461  1.0
  H  H28  1  0.51364157  0.43353153  0.97151208  1.0
  H  H29  1  0.98635901  0.56646783  0.47151206  1.0
  H  H30  1  0.01364052  0.06646817  0.52848788  1.0
  H  H31  1  0.48635966  0.93353097  0.02848757  1.0
  H  H32  1  0.48635978  0.56646824  0.02848772  1.0
  H  H33  1  0.01364041  0.43353194  0.52848773  1.0
  H  H34  1  0.98635890  0.93353263  0.47151231  1.0
  H  H35  1  0.51364233  0.06646725  0.97151222  1.0
  H  H36  1  0.35804824  0.68890118  0.54224914  1.0
  H  H37  1  0.14195194  0.31109846  0.04224859  1.0
  H  H38  1  0.85805001  0.81109904  0.95775234  1.0
  H  H39  1  0.64195186  0.18890136  0.45775109  1.0
  H  H40  1  0.64195182  0.31109859  0.45775104  1.0
  H  H41  1  0.85805005  0.68890182  0.95775081  1.0
  H  H42  1  0.14195262  0.18890175  0.04224824  1.0
  H  H43  1  0.35804820  0.81109892  0.54224909  1.0
  H  H44  1  0.26644765  0.69036290  0.58539371  1.0
  H  H45  1  0.23355316  0.30963668  0.08539314  1.0
  H  H46  1  0.76644944  0.80963736  0.91460699  1.0
  H  H47  1  0.73355310  0.19036259  0.41460692  1.0
  H  H48  1  0.73355306  0.30963738  0.41460687  1.0
  H  H49  1  0.76644948  0.69036309  0.91460586  1.0
  H  H50  1  0.23355256  0.19036344  0.08539319  1.0
  H  H51  1  0.26644825  0.80963718  0.58539405  1.0
  H  H52  1  0.29711284  0.61325369  0.55064280  1.0
  H  H53  1  0.20288734  0.38674646  0.05064179  1.0
  H  H54  1  0.79711521  0.88674708  0.94935789  1.0
  H  H55  1  0.70288667  0.11325334  0.44935828  1.0
  H  H56  1  0.70288658  0.38674660  0.44935817  1.0
  H  H57  1  0.79711465  0.61325434  0.94935761  1.0
  H  H58  1  0.20288679  0.11325372  0.05064229  1.0
  H  H59  1  0.29711404  0.88674642  0.55064309  1.0
  H  H60  1  0.59997144  0.55202812  0.67449547  1.0
  H  H61  1  0.90003052  0.44797113  0.17449596  1.0
  H  H62  1  0.09997263  0.94797221  0.82550406  1.0
  H  H63  1  0.40003004  0.05202859  0.32550408  1.0
  H  H64  1  0.40002991  0.44797164  0.32550392  1.0
  H  H65  1  0.09997147  0.55202760  0.82550383  1.0
  H  H66  1  0.90002872  0.05202911  0.17449573  1.0
  H  H67  1  0.59997131  0.94797169  0.67449610  1.0
  H  H68  1  0.52943896  0.48382102  0.65732269  1.0
  H  H69  1  0.97056236  0.51617929  0.15732272  1.0
  H  H70  1  0.02943978  0.01617919  0.84267687  1.0
  H  H71  1  0.47056224  0.98382107  0.34267692  1.0
  H  H72  1  0.47056239  0.51617926  0.34267671  1.0
  H  H73  1  0.02943899  0.48382048  0.84267668  1.0
  H  H74  1  0.97056286  0.98382110  0.15732292  1.0
  H  H75  1  0.52943911  0.01617921  0.65732248  1.0
  H  H76  1  0.52628179  0.51952082  0.72276644  1.0
  H  H77  1  0.97372016  0.48047888  0.22276650  1.0
  H  H78  1  0.02628169  0.98047902  0.77723350  1.0
  H  H79  1  0.47371971  0.01952133  0.27723314  1.0
  H  H80  1  0.47371956  0.48047842  0.27723296  1.0
  H  H81  1  0.02628184  0.51952089  0.77723329  1.0
  H  H82  1  0.97372031  0.01952126  0.22276550  1.0
  H  H83  1  0.52628229  0.98047947  0.72276626  1.0
  H  H84  1  0.49627560  0.74999902  0.49106058  1.0
  H  H85  1  0.00372187  0.25000051  0.99105955  1.0
  H  H86  1  0.99627819  0.75000132  0.00894024  1.0
  H  H87  1  0.50372318  0.25000023  0.50894040  1.0
  H  H88  1  0.53705839  0.63873338  0.34590088  1.0
  H  H89  1  0.96293966  0.36126873  0.84590050  1.0
  H  H90  1  0.03706033  0.86126715  0.15409960  1.0
  H  H91  1  0.46294046  0.13873285  0.65409940  1.0
  H  H92  1  0.46294039  0.36126690  0.65409931  1.0
  H  H93  1  0.03705976  0.63873310  0.15409890  1.0
  H  H94  1  0.96294037  0.13873416  0.84589941  1.0
  H  H95  1  0.53705831  0.86126692  0.34590118  1.0
  H  H96  1  0.29706595  0.44264353  0.01242785  1.0
  H  H97  1  0.20293489  0.55735460  0.51242734  1.0
  H  H98  1  0.79706465  0.05735520  0.48757300  1.0
  H  H99  1  0.70293593  0.94264414  0.98757337  1.0
  H  H100  1  0.70293540  0.55735623  0.98757273  1.0
  H  H101  1  0.79706453  0.44264465  0.48757245  1.0
  H  H102  1  0.20293541  0.94264663  0.51242719  1.0
  H  H103  1  0.29706671  0.05735408  0.01242879  1.0
  H  H104  1  0.48807127  0.50232495  0.89741735  1.0
  H  H105  1  0.01193009  0.49767626  0.39741705  1.0
  H  H106  1  0.98806852  0.99767625  0.60258333  1.0
  H  H107  1  0.51193024  0.00232413  0.10258265  1.0
  H  H108  1  0.51193008  0.49767533  0.10258205  1.0
  H  H109  1  0.98806997  0.50232402  0.60258274  1.0
  H  H110  1  0.01192961  0.00232506  0.39741765  1.0
  H  H111  1  0.48807240  0.99767460  0.89741715  1.0
  H  H112  1  0.22652812  0.57409867  0.88230375  1.0
  H  H113  1  0.27347132  0.42589947  0.38230230  1.0
  H  H114  1  0.72652799  0.92590006  0.61769735  1.0
  H  H115  1  0.77347206  0.07410134  0.11769658  1.0
  H  H116  1  0.77347195  0.42589903  0.11769683  1.0
  H  H117  1  0.72652681  0.57409823  0.61769749  1.0
  H  H118  1  0.27347143  0.07410022  0.38230126  1.0
  H  H119  1  0.22652800  0.92590153  0.88230322  1.0
  H  H120  1  0.20843361  0.61058066  0.67270301  1.0
  H  H121  1  0.29156717  0.38941983  0.17270277  1.0
  H  H122  1  0.70843345  0.88942014  0.82729612  1.0
  H  H123  1  0.79156783  0.11057993  0.32729729  1.0
  H  H124  1  0.79156774  0.38942065  0.32729718  1.0
  H  H125  1  0.70843353  0.61057994  0.82729623  1.0
  H  H126  1  0.29156790  0.11057963  0.17270288  1.0
  H  H127  1  0.20843417  0.88942035  0.67270290  1.0
  H  H128  1  0.11594985  0.58658603  0.70965803  1.0
  H  H129  1  0.38405157  0.41341441  0.20965776  1.0
  H  H130  1  0.61595033  0.91341532  0.79034071  1.0
  H  H131  1  0.88405160  0.08658583  0.29034229  1.0
  H  H132  1  0.88405214  0.41341425  0.29034216  1.0
  H  H133  1  0.61595043  0.58658536  0.79034124  1.0
  H  H134  1  0.38405167  0.08658548  0.20965750  1.0
  H  H135  1  0.11594975  0.91341496  0.70965790  1.0
  H  H136  1  0.21461392  0.60881052  0.74267647  1.0
  H  H137  1  0.28538685  0.39119039  0.24267623  1.0
  H  H138  1  0.71461506  0.89119028  0.75732305  1.0
  H  H139  1  0.78538688  0.10880938  0.25732383  1.0
  H  H140  1  0.78538679  0.39119079  0.25732371  1.0
  H  H141  1  0.71461515  0.60880989  0.75732316  1.0
  H  H142  1  0.28538694  0.10880897  0.24267635  1.0
  H  H143  1  0.21461447  0.89119039  0.74267636  1.0
  C  C144  1  0.32076859  0.65925434  0.57129713  1.0
  C  C145  1  0.17923158  0.34074526  0.07129655  1.0
  C  C146  1  0.82077165  0.84074538  0.92870396  1.0
  C  C147  1  0.67923153  0.15925455  0.42870353  1.0
  C  C148  1  0.67923147  0.34074543  0.42870345  1.0
  C  C149  1  0.82077042  0.65925502  0.92870285  1.0
  C  C150  1  0.17923164  0.15925490  0.07129623  1.0
  C  C151  1  0.32076982  0.84074522  0.57129745  1.0
  C  C152  1  0.37641333  0.63745072  0.61579492  1.0
  C  C153  1  0.12358812  0.36254882  0.11579433  1.0
  C  C154  1  0.87641445  0.86254898  0.88420735  1.0
  C  C155  1  0.62358810  0.13745102  0.38420575  1.0
  C  C156  1  0.62358802  0.36254956  0.38420566  1.0
  C  C157  1  0.87641387  0.63745198  0.88420547  1.0
  C  C158  1  0.12358755  0.13745182  0.11579402  1.0
  C  C159  1  0.37641390  0.86254875  0.61579483  1.0
  C  C160  1  0.46880563  0.58169978  0.66311954  1.0
  C  C161  1  0.03119516  0.41830021  0.16311930  1.0
  C  C162  1  0.96880672  0.91830040  0.83688114  1.0
  C  C163  1  0.53119454  0.08169966  0.33688039  1.0
  C  C164  1  0.53119444  0.41830050  0.33688025  1.0
  C  C165  1  0.96880619  0.58169955  0.83687970  1.0
  C  C166  1  0.03119527  0.08169988  0.16311944  1.0
  C  C167  1  0.46880616  0.91830062  0.66312019  1.0
  C  C168  1  0.53486298  0.53127514  0.68072135  1.0
  C  C169  1  0.96513898  0.46872462  0.18072142  1.0
  C  C170  1  0.03486481  0.96872469  0.81927820  1.0
  C  C171  1  0.46513851  0.03127611  0.31927862  1.0
  C  C172  1  0.46513837  0.46872462  0.31927844  1.0
  C  C173  1  0.03486302  0.53127567  0.81927877  1.0
  C  C174  1  0.96513847  0.03127559  0.18072081  1.0
  C  C175  1  0.53486349  0.96872469  0.68072117  1.0
  C  C176  1  0.50813316  0.61958926  0.45058187  1.0
  C  C177  1  0.99186549  0.38041115  0.95058305  1.0
  C  C178  1  0.00813835  0.88041128  0.04941624  1.0
  C  C179  1  0.49186312  0.11958680  0.54941921  1.0
  C  C180  1  0.49186432  0.38040999  0.54941674  1.0
  C  C181  1  0.00813328  0.61959171  0.04941398  1.0
  C  C182  1  0.99186493  0.11958849  0.95058158  1.0
  C  C183  1  0.50813244  0.88040935  0.45058334  1.0
  C  C184  1  0.51467420  0.68724787  0.42153742  1.0
  C  C185  1  0.98532317  0.31275259  0.92153669  1.0
  C  C186  1  0.01467427  0.81275370  0.07846266  1.0
  C  C187  1  0.48532654  0.18724640  0.57846242  1.0
  C  C188  1  0.48532650  0.31275138  0.57846197  1.0
  C  C189  1  0.01467496  0.68724821  0.07846192  1.0
  C  C190  1  0.98532386  0.18724658  0.92153516  1.0
  C  C191  1  0.51467481  0.81275233  0.42153777  1.0
  C  C192  1  0.50680159  0.74999905  0.44858612  1.0
  C  C193  1  0.99319707  0.24999930  0.94858543  1.0
  C  C194  1  0.00680428  0.75000253  0.05141396  1.0
  C  C195  1  0.49319589  0.24999865  0.55141525  1.0
  C  C196  1  0.52960192  0.68745451  0.36695576  1.0
  C  C197  1  0.97039612  0.31254654  0.86695582  1.0
  C  C198  1  0.02960391  0.81254551  0.13304432  1.0
  C  C199  1  0.47039689  0.18745504  0.63304487  1.0
  C  C200  1  0.47039621  0.31254525  0.63304482  1.0
  C  C201  1  0.02960266  0.68745581  0.13304358  1.0
  C  C202  1  0.97039616  0.18745684  0.86695469  1.0
  C  C203  1  0.52960253  0.81254473  0.36695611  1.0
  C  C204  1  0.53607081  0.75000015  0.33988808  1.0
  C  C205  1  0.96392659  0.25000197  0.83988661  1.0
  C  C206  1  0.03607154  0.74999883  0.16011200  1.0
  C  C207  1  0.46392925  0.25000013  0.66011172  1.0
  C  C208  1  0.16042568  0.50984385  0.96863987  1.0
  C  C209  1  0.33957630  0.49015881  0.46863993  1.0
  C  C210  1  0.66041910  0.99015387  0.53136243  1.0
  C  C211  1  0.83958097  0.00984403  0.03135894  1.0
  C  C212  1  0.83958018  0.49015385  0.03136308  1.0
  C  C213  1  0.66042312  0.50984302  0.53136223  1.0
  C  C214  1  0.33957516  0.00984331  0.46863973  1.0
  C  C215  1  0.16042489  0.99015728  0.96864204  1.0
  C  C216  1  0.25181111  0.50786405  0.94902421  1.0
  C  C217  1  0.24818959  0.49213399  0.44902310  1.0
  C  C218  1  0.75180775  0.99213415  0.55097846  1.0
  C  C219  1  0.74819361  0.00786528  0.05097617  1.0
  C  C220  1  0.74819217  0.49213365  0.05097795  1.0
  C  C221  1  0.75180854  0.50786319  0.55097827  1.0
  C  C222  1  0.24818910  0.00786613  0.44902291  1.0
  C  C223  1  0.25181032  0.99213552  0.94902559  1.0
  C  C224  1  0.31410578  0.46988893  0.97634722  1.0
  C  C225  1  0.18589620  0.53010907  0.47634727  1.0
  C  C226  1  0.81410143  0.03011064  0.52365388  1.0
  C  C227  1  0.68589736  0.96988882  0.02365397  1.0
  C  C228  1  0.68589815  0.53011032  0.02365336  1.0
  C  C229  1  0.81410322  0.46988760  0.52365371  1.0
  C  C230  1  0.18589606  0.96989119  0.47634670  1.0
  C  C231  1  0.31410721  0.03010940  0.97634779  1.0
  C  C232  1  0.39870150  0.46681877  0.95757373  1.0
  C  C233  1  0.10129856  0.53317977  0.45757419  1.0
  C  C234  1  0.89870036  0.03318025  0.54242539  1.0
  C  C235  1  0.60130036  0.96681918  0.04242667  1.0
  C  C236  1  0.60129985  0.53318048  0.04242567  1.0
  C  C237  1  0.89869957  0.46681793  0.54242679  1.0
  C  C238  1  0.10129842  0.96682055  0.45757401  1.0
  C  C239  1  0.39870228  0.03318058  0.95757391  1.0
  C  C240  1  0.42190634  0.50293134  0.91197093  1.0
  C  C241  1  0.07809308  0.49706778  0.41197182  1.0
  C  C242  1  0.92190553  0.99706834  0.58802778  1.0
  C  C243  1  0.57809324  0.00293103  0.08802866  1.0
  C  C244  1  0.57809372  0.49706842  0.08802807  1.0
  C  C245  1  0.92190569  0.50293043  0.58802916  1.0
  C  C246  1  0.07809324  0.00293246  0.41197162  1.0
  C  C247  1  0.42190812  0.99706977  0.91197034  1.0
  C  C248  1  0.35949185  0.54168226  0.88502165  1.0
  C  C249  1  0.14050758  0.45831742  0.38502059  1.0
  C  C250  1  0.85949171  0.95831693  0.61497904  1.0
  C  C251  1  0.64050899  0.04168344  0.11497870  1.0
  C  C252  1  0.64050821  0.45831647  0.11497853  1.0
  C  C253  1  0.85949120  0.54168132  0.61498000  1.0
  C  C254  1  0.14050771  0.04168336  0.38502036  1.0
  C  C255  1  0.35949172  0.95831736  0.88502148  1.0
  C  C256  1  0.27449932  0.54366310  0.90321226  1.0
  C  C257  1  0.22550204  0.45633552  0.40321197  1.0
  C  C258  1  0.77449789  0.95633613  0.59678884  1.0
  C  C259  1  0.72550216  0.04366427  0.09678691  1.0
  C  C260  1  0.72550139  0.45633460  0.09678833  1.0
  C  C261  1  0.77449867  0.54366218  0.59678940  1.0
  C  C262  1  0.22550153  0.04366467  0.40321135  1.0
  C  C263  1  0.27449854  0.95633757  0.90321209  1.0
  C  C264  1  0.38377313  0.58394806  0.83818244  1.0
  C  C265  1  0.11622632  0.41605169  0.33818141  1.0
  C  C266  1  0.88377235  0.91605164  0.66181746  1.0
  C  C267  1  0.61622640  0.08394918  0.16181630  1.0
  C  C268  1  0.61622629  0.41605068  0.16181656  1.0
  C  C269  1  0.88377439  0.58394756  0.66181759  1.0
  C  C270  1  0.11622578  0.08395019  0.33818234  1.0
  C  C271  1  0.38377367  0.91605110  0.83818270  1.0
  C  C272  1  0.17216275  0.62075699  0.70907118  1.0
  C  C273  1  0.32783932  0.37924345  0.20907134  1.0
  C  C274  1  0.67216324  0.87924331  0.79092756  1.0
  C  C275  1  0.82783933  0.12075630  0.29092832  1.0
  C  C276  1  0.82783925  0.37924381  0.29092861  1.0
  C  C277  1  0.67216332  0.62075683  0.79092806  1.0
  C  C278  1  0.32783940  0.12075697  0.20907145  1.0
  C  C279  1  0.17216266  0.87924399  0.70907108  1.0
  C  C280  1  0.14385657  0.69389837  0.71124997  1.0
  C  C281  1  0.35614162  0.30610207  0.21124979  1.0
  C  C282  1  0.64385647  0.80610297  0.78874956  1.0
  C  C283  1  0.85614159  0.19389767  0.28874987  1.0
  C  C284  1  0.85614156  0.30610243  0.28875022  1.0
  C  C285  1  0.64385651  0.69389718  0.78874961  1.0
  C  C286  1  0.35614230  0.19389783  0.21124983  1.0
  C  C287  1  0.14385718  0.80610261  0.71124992  1.0
  N  N288  1  0.37513911  0.66558878  0.66393010  1.0
  N  N289  1  0.12486232  0.33441069  0.16392914  1.0
  N  N290  1  0.87514026  0.83441040  0.83607098  1.0
  N  N291  1  0.62486229  0.16558914  0.33607055  1.0
  N  N292  1  0.62486224  0.33441098  0.33607048  1.0
  N  N293  1  0.87513967  0.66558959  0.83606987  1.0
  N  N294  1  0.12486237  0.16558936  0.16392960  1.0
  N  N295  1  0.37514035  0.83441062  0.66393043  1.0
  N  N296  1  0.43409625  0.63011462  0.69409847  1.0
  N  N297  1  0.06590517  0.36988481  0.19409788  1.0
  N  N298  1  0.93409675  0.86988506  0.80590221  1.0
  N  N299  1  0.56590517  0.13011504  0.30590181  1.0
  N  N300  1  0.56590510  0.36988463  0.30590172  1.0
  N  N301  1  0.93409682  0.63011495  0.80590152  1.0
  N  N302  1  0.06590525  0.13011522  0.19409798  1.0
  N  N303  1  0.43409682  0.86988472  0.69409877  1.0
  N  N304  1  0.43435202  0.58516356  0.61396933  1.0
  N  N305  1  0.06564943  0.41483702  0.11396870  1.0
  N  N306  1  0.93435504  0.91483664  0.88603096  1.0
  N  N307  1  0.56564879  0.08516336  0.38603099  1.0
  N  N308  1  0.56564869  0.41483724  0.38603086  1.0
  N  N309  1  0.93435321  0.58516430  0.88603110  1.0
  N  N310  1  0.06564889  0.08516365  0.11396883  1.0
  N  N311  1  0.43435320  0.91483589  0.61396919  1.0
  N  N312  1  0.19598984  0.75000049  0.70462549  1.0
  N  N313  1  0.30401094  0.24999996  0.20462576  1.0
  N  N314  1  0.69599170  0.75000032  0.79537285  1.0
  N  N315  1  0.80401087  0.25000031  0.29537390  1.0
  N  N316  1  0.06367932  0.71444993  0.72115625  1.0
  N  N317  1  0.43632145  0.28555050  0.22115647  1.0
  N  N318  1  0.56367988  0.78555042  0.77884289  1.0
  N  N319  1  0.93632141  0.21444921  0.27884317  1.0
  N  N320  1  0.93632139  0.28555087  0.27884314  1.0
  N  N321  1  0.56367990  0.71444927  0.77884292  1.0
  N  N322  1  0.43632147  0.21444935  0.22115650  1.0
  N  N323  1  0.06367930  0.78555108  0.72115622  1.0
  O  O324  1  0.48638610  0.62158711  0.49900752  1.0
  O  O325  1  0.01361201  0.37841655  0.99900482  1.0
  O  O326  1  0.98639313  0.87841737  0.00099369  1.0
  O  O327  1  0.51360953  0.12158367  0.50099395  1.0
  O  O328  1  0.51361010  0.37841421  0.50099227  1.0
  O  O329  1  0.98638677  0.62158787  0.00099379  1.0
  O  O330  1  0.01361080  0.12158239  0.99900216  1.0
  O  O331  1  0.48638666  0.87841455  0.49900623  1.0
  O  O332  1  0.52488651  0.56509351  0.42424077  1.0
  O  O333  1  0.97510893  0.43490746  0.92423836  1.0
  O  O334  1  0.02488973  0.93491012  0.07576287  1.0
  O  O335  1  0.47511044  0.06509050  0.57576233  1.0
  O  O336  1  0.47511162  0.43490728  0.57576100  1.0
  O  O337  1  0.02488856  0.56508973  0.07575986  1.0
  O  O338  1  0.97511098  0.06509016  0.92423495  1.0
  O  O339  1  0.52488704  0.93490668  0.42423983  1.0
  O  O340  1  0.10500255  0.53849281  0.93892928  1.0
  O  O341  1  0.39499816  0.46150576  0.43892779  1.0
  O  O342  1  0.60499855  0.96150545  0.56107223  1.0
  O  O343  1  0.89500152  0.03849396  0.06107108  1.0
  O  O344  1  0.89500009  0.46150386  0.06107446  1.0
  O  O345  1  0.60500126  0.53849659  0.56107477  1.0
  O  O346  1  0.39499636  0.03849586  0.43892875  1.0
  O  O347  1  0.10500434  0.96150477  0.93893069  1.0
  O  O348  1  0.14564372  0.48206437  0.01331500  1.0
  O  O349  1  0.35435841  0.51793479  0.51331411  1.0
  O  O350  1  0.64563987  0.01793442  0.48668705  1.0
  O  O351  1  0.85436071  0.98206440  0.98668421  1.0
  O  O352  1  0.85436085  0.51793385  0.98668835  1.0
  O  O353  1  0.64564101  0.48206601  0.48668766  1.0
  O  O354  1  0.35435955  0.98206431  0.51331471  1.0
  O  O355  1  0.14564129  0.01793692  0.01331716  1.0
  O  O356  1  0.32814513  0.61988914  0.81397829  1.0
  O  O357  1  0.17185367  0.38011064  0.31397807  1.0
  O  O358  1  0.82814373  0.88011109  0.68602162  1.0
  O  O359  1  0.67185565  0.11989021  0.18602082  1.0
  O  O360  1  0.67185493  0.38010959  0.18602071  1.0
  O  O361  1  0.82814639  0.61988913  0.68602133  1.0
  O  O362  1  0.17185376  0.11989177  0.31397778  1.0
  O  O363  1  0.32814570  0.88011162  0.81397858  1.0
  O  O364  1  0.46417970  0.58499864  0.82391536  1.0
  O  O365  1  0.03582104  0.41500268  0.32391434  1.0
  O  O366  1  0.96417828  0.91500309  0.67608532  1.0
  O  O367  1  0.53582175  0.08499822  0.17608377  1.0
  O  O368  1  0.53582165  0.41500113  0.17608403  1.0
  O  O369  1  0.96417967  0.58499812  0.67608505  1.0
  O  O370  1  0.03582050  0.08499926  0.32391527  1.0
  O  O371  1  0.46417960  0.91499999  0.82391602  1.0
  O  O372  1  0.38133033  0.74999989  0.76493221  1.0
  O  O373  1  0.11866978  0.25000047  0.26493170  1.0
  O  O374  1  0.88133028  0.75000032  0.73506848  1.0
  O  O375  1  0.61866973  0.24999988  0.23506798  1.0
  O  O376  1  0.55477539  0.75000070  0.28594573  1.0
  O  O377  1  0.94522396  0.25000253  0.78594427  1.0
  O  O378  1  0.05477610  0.74999982  0.21405395  1.0
  O  O379  1  0.44522467  0.24999958  0.71405406  1.0
  O  O380  1  0.45606299  0.42788139  0.98620931  1.0
  O  O381  1  0.04393834  0.57211867  0.48620935  1.0
  O  O382  1  0.95606119  0.07211968  0.51379059  1.0
  O  O383  1  0.54393953  0.92788031  0.01379152  1.0
  O  O384  1  0.54393900  0.57211941  0.01379087  1.0
  O  O385  1  0.95606172  0.42788058  0.51379123  1.0
  O  O386  1  0.04393823  0.92788215  0.48620920  1.0
  O  O387  1  0.45606439  0.07211894  0.98620946  1.0
