# generated using pymatgen
data_CoH7C9N2O5
_symmetry_space_group_name_H-M   'P 1'
_cell_length_a   5.96905417
_cell_length_b   7.82322943
_cell_length_c   26.83133534
_cell_angle_alpha   90.91475815
_cell_angle_beta   89.99423528
_cell_angle_gamma   89.99621861
_symmetry_Int_Tables_number   1
_chemical_formula_structural   CoH7C9N2O5
_chemical_formula_sum   'Co4 H28 C36 N8 O20'
_cell_volume   1252.79069250
_cell_formula_units_Z   4
loop_
 _symmetry_equiv_pos_site_id
 _symmetry_equiv_pos_as_xyz
  1  'x, y, z'
loop_
 _atom_site_type_symbol
 _atom_site_label
 _atom_site_symmetry_multiplicity
 _atom_site_fract_x
 _atom_site_fract_y
 _atom_site_fract_z
 _atom_site_occupancy
  Co  Co0  1  0.03946806  0.25385365  0.71892101  1.0
  Co  Co1  1  0.95850407  0.25769759  0.28104300  1.0
  Co  Co2  1  0.53949678  0.74600254  0.78109112  1.0
  Co  Co3  1  0.45843023  0.74231087  0.21893132  1.0
  H  H4  1  0.98548348  0.40538179  0.84523583  1.0
  H  H5  1  0.16028068  0.13821448  0.86318978  1.0
  H  H6  1  0.39471102  0.26149443  0.84509153  1.0
  H  H7  1  0.93414689  0.38270667  0.61790738  1.0
  H  H8  1  0.13209813  0.39146216  0.53544033  1.0
  H  H9  1  0.69410200  0.14530340  0.60614054  1.0
  H  H10  1  0.46846753  0.13930416  0.68438699  1.0
  H  H11  1  0.01210256  0.39535458  0.15473792  1.0
  H  H12  1  0.84261706  0.12409175  0.13692838  1.0
  H  H13  1  0.60580779  0.24785209  0.15430154  1.0
  H  H14  1  0.07024600  0.38294090  0.38317177  1.0
  H  H15  1  0.87900520  0.38683417  0.46649371  1.0
  H  H16  1  0.30360673  0.15986555  0.39349226  1.0
  H  H17  1  0.52253886  0.15812612  0.31432928  1.0
  H  H18  1  0.48544344  0.59461699  0.65476320  1.0
  H  H19  1  0.66032042  0.86175468  0.63681997  1.0
  H  H20  1  0.89469972  0.73834001  0.65488986  1.0
  H  H21  1  0.43399826  0.61732828  0.88207609  1.0
  H  H22  1  0.63166817  0.60869327  0.96456074  1.0
  H  H23  1  0.19396374  0.85452529  0.89387640  1.0
  H  H24  1  0.96866511  0.86029621  0.81560015  1.0
  H  H25  1  0.51231009  0.60475425  0.34525358  1.0
  H  H26  1  0.34276463  0.87605008  0.36303922  1.0
  H  H27  1  0.10594275  0.75223936  0.34570251  1.0
  H  H28  1  0.56999237  0.61720891  0.11680553  1.0
  H  H29  1  0.37868108  0.61320472  0.03351019  1.0
  H  H30  1  0.80324996  0.84019098  0.10654815  1.0
  H  H31  1  0.02224720  0.84201469  0.18568328  1.0
  C  C32  1  0.20626905  0.47369369  0.78457356  1.0
  C  C33  1  0.06906895  0.34180708  0.81317942  1.0
  C  C34  1  0.23503597  0.20623690  0.83183879  1.0
  C  C35  1  0.29192984  0.07324742  0.79172303  1.0
  C  C36  1  0.10084609  0.32900947  0.61292365  1.0
  C  C37  1  0.21160608  0.33443173  0.56765512  1.0
  C  C38  1  0.42929479  0.26642860  0.56407695  1.0
  C  C39  1  0.52528499  0.19773857  0.60690130  1.0
  C  C40  1  0.40166380  0.19437310  0.65064213  1.0
  C  C41  1  0.78988693  0.46871381  0.21524667  1.0
  C  C42  1  0.92898629  0.33463664  0.18674031  1.0
  C  C43  1  0.76554394  0.19550118  0.16800956  1.0
  C  C44  1  0.70843819  0.06734211  0.20821397  1.0
  C  C45  1  0.90221234  0.33192379  0.38782080  1.0
  C  C46  1  0.79493141  0.33514332  0.43357441  1.0
  C  C47  1  0.57522288  0.27110844  0.43669739  1.0
  C  C48  1  0.47393763  0.20927443  0.39297708  1.0
  C  C49  1  0.59409461  0.20795190  0.34874999  1.0
  C  C50  1  0.70625116  0.52619138  0.71540853  1.0
  C  C51  1  0.56908114  0.65812818  0.68681532  1.0
  C  C52  1  0.73506789  0.79368055  0.66815562  1.0
  C  C53  1  0.79200446  0.92661942  0.70827817  1.0
  C  C54  1  0.60068590  0.67101154  0.88707269  1.0
  C  C55  1  0.71128259  0.66566460  0.93235504  1.0
  C  C56  1  0.92894593  0.73363925  0.93594552  1.0
  C  C57  1  0.02511251  0.80215906  0.89311062  1.0
  C  C58  1  0.90167712  0.80542680  0.84935200  1.0
  C  C59  1  0.28995375  0.53131693  0.28475565  1.0
  C  C60  1  0.42907435  0.66541912  0.31324282  1.0
  C  C61  1  0.26567933  0.80459807  0.33198398  1.0
  C  C62  1  0.20848892  0.93271193  0.29177585  1.0
  C  C63  1  0.40195534  0.66817546  0.11217665  1.0
  C  C64  1  0.29463778  0.66494613  0.06643280  1.0
  C  C65  1  0.07493498  0.72900631  0.06332699  1.0
  C  C66  1  0.97362463  0.79083559  0.10705674  1.0
  C  C67  1  0.09383975  0.79214298  0.15127528  1.0
  N  N68  1  0.19271041  0.25842034  0.65392429  1.0
  N  N69  1  0.56023734  0.26442026  0.52048572  1.0
  N  N70  1  0.80550557  0.26701308  0.34595880  1.0
  N  N71  1  0.44587889  0.26688031  0.48044317  1.0
  N  N72  1  0.69268489  0.74145905  0.84606787  1.0
  N  N73  1  0.05985963  0.73565904  0.97953581  1.0
  N  N74  1  0.30529814  0.73311324  0.15405828  1.0
  N  N75  1  0.94553209  0.73326138  0.01958707  1.0
  O  O76  1  0.21516085  0.44335854  0.73766800  1.0
  O  O77  1  0.91050138  0.26463375  0.78192425  1.0
  O  O78  1  0.25539110  0.09410607  0.74542848  1.0
  O  O79  1  0.38146325  0.93929245  0.80938320  1.0
  O  O80  1  0.31028028  0.59280683  0.80751919  1.0
  O  O81  1  0.78071169  0.44360985  0.26215340  1.0
  O  O82  1  0.08816179  0.26226441  0.21814660  1.0
  O  O83  1  0.74456222  0.09357907  0.25450951  1.0
  O  O84  1  0.61897591  0.93131634  0.19061302  1.0
  O  O85  1  0.68497828  0.58469902  0.19223888  1.0
  O  O86  1  0.71522148  0.55651337  0.76231268  1.0
  O  O87  1  0.41053078  0.73531811  0.71807865  1.0
  O  O88  1  0.75547466  0.90571247  0.75458145  1.0
  O  O89  1  0.88152119  0.06058007  0.69062477  1.0
  O  O90  1  0.81024608  0.40706030  0.69246696  1.0
  O  O91  1  0.28063696  0.55643132  0.23784139  1.0
  O  O92  1  0.58819956  0.73776183  0.28182198  1.0
  O  O93  1  0.24446844  0.90640947  0.24546939  1.0
  O  O94  1  0.11911381  0.06878454  0.30937541  1.0
  O  O95  1  0.18509551  0.41530113  0.30776039  1.0
