# generated using pymatgen
data_MgH2(C2O)3
_symmetry_space_group_name_H-M   'P 1'
_cell_length_a   6.86901288
_cell_length_b   19.42787901
_cell_length_c   19.43241205
_cell_angle_alpha   118.63296271
_cell_angle_beta   96.77162306
_cell_angle_gamma   96.75992371
_symmetry_Int_Tables_number   1
_chemical_formula_structural   MgH2(C2O)3
_chemical_formula_sum   'Mg6 H12 C36 O18'
_cell_volume   2214.63630045
_cell_formula_units_Z   6
loop_
 _symmetry_equiv_pos_site_id
 _symmetry_equiv_pos_as_xyz
  1  'x, y, z'
loop_
 _atom_site_type_symbol
 _atom_site_label
 _atom_site_symmetry_multiplicity
 _atom_site_fract_x
 _atom_site_fract_y
 _atom_site_fract_z
 _atom_site_occupancy
  Mg  Mg0  1  0.90696381  0.39620831  0.68678419  1.0
  Mg  Mg1  1  0.51083975  0.29066933  0.60385945  1.0
  Mg  Mg2  1  0.22014926  0.31322477  0.70937907  1.0
  Mg  Mg3  1  0.20061351  0.71173837  0.31679795  1.0
  Mg  Mg4  1  0.48887185  0.60503124  0.28821015  1.0
  Mg  Mg5  1  0.88376508  0.68309955  0.39488918  1.0
  H  H6  1  0.30121041  0.47721239  0.92472885  1.0
  H  H7  1  0.82411228  0.44756340  0.52280776  1.0
  H  H8  1  0.37668250  0.07515816  0.55249250  1.0
  H  H9  1  0.64716002  0.47842764  0.06973341  1.0
  H  H10  1  0.16869038  0.59129251  0.52147782  1.0
  H  H11  1  0.57744193  0.93025937  0.40884472  1.0
  H  H12  1  0.37065782  0.55700097  0.07919550  1.0
  H  H13  1  0.81376708  0.52228731  0.44301153  1.0
  H  H14  1  0.29147566  0.92069938  0.47783711  1.0
  H  H15  1  0.58228994  0.40246016  0.92463612  1.0
  H  H16  1  0.17978166  0.52218011  0.59740644  1.0
  H  H17  1  0.65785919  0.07538369  0.47788940  1.0
  C  C18  1  0.00997156  0.41597140  0.85248245  1.0
  C  C19  1  0.59412093  0.43659765  0.58406120  1.0
  C  C20  1  0.15779119  0.14750696  0.56348538  1.0
  C  C21  1  0.14449357  0.46098372  0.92582992  1.0
  C  C22  1  0.68367488  0.46496564  0.53908138  1.0
  C  C23  1  0.21886461  0.07411307  0.53516147  1.0
  C  C24  1  0.08284357  0.48854899  0.00030546  1.0
  C  C25  1  0.59448273  0.51188416  0.51151047  1.0
  C  C26  1  0.08263124  0.99963193  0.48830016  1.0
  C  C27  1  0.87436697  0.46632623  0.99904969  1.0
  C  C28  1  0.40817765  0.53281264  0.53368734  1.0
  C  C29  1  0.87538076  0.00091306  0.46739318  1.0
  C  C30  1  0.80549435  0.49509188  0.07109544  1.0
  C  C31  1  0.31046316  0.57606835  0.50489924  1.0
  C  C32  1  0.73440101  0.92887870  0.42411187  1.0
  C  C33  1  0.93103334  0.54585043  0.14456376  1.0
  C  C34  1  0.38526875  0.59879573  0.45416051  1.0
  C  C35  1  0.78647245  0.85536983  0.40125876  1.0
  C  C36  1  0.14298686  0.56878418  0.14780647  1.0
  C  C37  1  0.57423611  0.57906252  0.43121338  1.0
  C  C38  1  0.99519842  0.85210464  0.42094463  1.0
  C  C39  1  0.21188622  0.53871059  0.07592741  1.0
  C  C40  1  0.67322361  0.53727134  0.46128922  1.0
  C  C41  1  0.13595825  0.92397978  0.46282630  1.0
  C  C42  1  0.83562836  0.57461394  0.21472222  1.0
  C  C43  1  0.26100792  0.64013616  0.42534102  1.0
  C  C44  1  0.62089277  0.78520710  0.35985743  1.0
  C  C45  1  0.74033508  0.41900832  0.92557781  1.0
  C  C46  1  0.32129779  0.50657169  0.58091347  1.0
  C  C47  1  0.81492922  0.07440881  0.49353463  1.0
  C  C48  1  0.80028634  0.39439667  0.85321976  1.0
  C  C49  1  0.40586805  0.45884241  0.60555639  1.0
  C  C50  1  0.94727508  0.14677347  0.54121836  1.0
  C  C51  1  0.63973209  0.35147083  0.78143233  1.0
  C  C52  1  0.28820105  0.43001253  0.64852117  1.0
  C  C53  1  0.85832489  0.21855735  0.57002370  1.0
  O  O54  1  0.46326587  0.32846216  0.78636226  1.0
  O  O55  1  0.13471204  0.45796645  0.67147844  1.0
  O  O56  1  0.67690200  0.21358753  0.54210752  1.0
  O  O57  1  0.68104146  0.34072162  0.71416531  1.0
  O  O58  1  0.34036789  0.37356160  0.65937851  1.0
  O  O59  1  0.96691849  0.28586865  0.62648524  1.0
  O  O60  1  0.07228533  0.39460363  0.78324164  1.0
  O  O61  1  0.67774051  0.38869139  0.60541276  1.0
  O  O62  1  0.28929477  0.21677658  0.61132765  1.0
  O  O63  1  0.65237481  0.54702241  0.20762350  1.0
  O  O64  1  0.10527043  0.66057700  0.45291729  1.0
  O  O65  1  0.44472351  0.79234768  0.33941014  1.0
  O  O66  1  0.94111071  0.63000534  0.28326552  1.0
  O  O67  1  0.31093265  0.65318777  0.36987400  1.0
  O  O68  1  0.65780433  0.71664984  0.34672064  1.0
  O  O69  1  0.27015809  0.61837929  0.21784387  1.0
  O  O70  1  0.65172782  0.59946145  0.38158040  1.0
  O  O71  1  0.05225780  0.78204312  0.40048086  1.0
