# generated using pymatgen
data_ZnH6(C3N2)2
_symmetry_space_group_name_H-M   'P 1'
_cell_length_a   16.23412220
_cell_length_b   16.23426504
_cell_length_c   16.23431707
_cell_angle_alpha   110.73696093
_cell_angle_beta   110.73670562
_cell_angle_gamma   106.96843221
_symmetry_Int_Tables_number   1
_chemical_formula_structural   ZnH6(C3N2)2
_chemical_formula_sum   'Zn8 H48 C48 N32'
_cell_volume   3288.94059753
_cell_formula_units_Z   8
loop_
 _symmetry_equiv_pos_site_id
 _symmetry_equiv_pos_as_xyz
  1  'x, y, z'
loop_
 _atom_site_type_symbol
 _atom_site_label
 _atom_site_symmetry_multiplicity
 _atom_site_fract_x
 _atom_site_fract_y
 _atom_site_fract_z
 _atom_site_occupancy
  Zn  Zn0  1  0.27717707  0.71021063  0.80298084  1.0
  Zn  Zn1  1  0.97419683  0.27718022  0.56696955  1.0
  Zn  Zn2  1  0.71021254  0.90723043  0.93303221  1.0
  Zn  Zn3  1  0.90722948  0.97419695  0.69701702  1.0
  Zn  Zn4  1  0.72282328  0.28978934  0.19701872  1.0
  Zn  Zn5  1  0.02580348  0.72281988  0.43303154  1.0
  Zn  Zn6  1  0.28978758  0.09276993  0.06696812  1.0
  Zn  Zn7  1  0.09277044  0.02580277  0.30298329  1.0
  H  H8  1  0.08875704  0.50288062  0.61470435  1.0
  H  H9  1  0.97405605  0.08875895  0.58587895  1.0
  H  H10  1  0.50287904  0.88817601  0.91412188  1.0
  H  H11  1  0.88817776  0.97405410  0.88529565  1.0
  H  H12  1  0.91124307  0.49711974  0.38529596  1.0
  H  H13  1  0.02594387  0.91124076  0.41412137  1.0
  H  H14  1  0.49712088  0.11182370  0.08587844  1.0
  H  H15  1  0.11182296  0.02594625  0.11470466  1.0
  H  H16  1  0.26472715  0.58416041  0.92125374  1.0
  H  H17  1  0.84347080  0.26472770  0.68056517  1.0
  H  H18  1  0.58416346  0.66290625  0.81943351  1.0
  H  H19  1  0.66290447  0.84347418  0.57874718  1.0
  H  H20  1  0.73527239  0.41583892  0.07874582  1.0
  H  H21  1  0.15652851  0.73527202  0.31943516  1.0
  H  H22  1  0.41583588  0.33709333  0.18056527  1.0
  H  H23  1  0.33709484  0.15652554  0.42125314  1.0
  H  H24  1  0.11605167  0.38626634  0.81141882  1.0
  H  H25  1  0.80463011  0.11605253  0.72978385  1.0
  H  H26  1  0.38626753  0.57484698  0.77021477  1.0
  H  H27  1  0.57484620  0.80463165  0.68858257  1.0
  H  H28  1  0.88394806  0.61373363  0.18858073  1.0
  H  H29  1  0.19536901  0.88394745  0.27021571  1.0
  H  H30  1  0.61373182  0.42515262  0.22978402  1.0
  H  H31  1  0.42515410  0.19536844  0.31141851  1.0
  H  H32  1  0.09591057  0.73458546  0.65364840  1.0
  H  H33  1  0.94226227  0.09591375  0.36132794  1.0
  H  H34  1  0.73458585  0.08093438  0.13867153  1.0
  H  H35  1  0.08093528  0.94226270  0.84635014  1.0
  H  H36  1  0.90408916  0.26541452  0.34635116  1.0
  H  H37  1  0.05773746  0.90408532  0.63867237  1.0
  H  H38  1  0.26541383  0.91906661  0.86132879  1.0
  H  H39  1  0.91906483  0.05773765  0.15365018  1.0
  H  H40  1  0.33077160  0.68751608  0.63071162  1.0
  H  H41  1  0.20006181  0.33076884  0.64325399  1.0
  H  H42  1  0.68751648  0.05680842  0.85674605  1.0
  H  H43  1  0.05680656  0.20006079  0.86928991  1.0
  H  H44  1  0.66922852  0.31248428  0.36928871  1.0
  H  H45  1  0.79993792  0.66923113  0.35674556  1.0
  H  H46  1  0.31248410  0.94319117  0.14325274  1.0
  H  H47  1  0.94319355  0.79993956  0.13071040  1.0
  H  H48  1  0.21741317  0.69408196  0.46126725  1.0
  H  H49  1  0.25614572  0.21740974  0.52332670  1.0
  H  H50  1  0.69408369  0.23281836  0.97667414  1.0
  H  H51  1  0.23281581  0.25614513  0.03873486  1.0
  H  H52  1  0.78258637  0.30591737  0.53873230  1.0
  H  H53  1  0.74385439  0.78259062  0.47667362  1.0
  H  H54  1  0.30591665  0.76718161  0.02332541  1.0
  H  H55  1  0.76718430  0.74385522  0.96126546  1.0
  C  C56  1  0.11631949  0.49798739  0.68336396  1.0
  C  C57  1  0.93295690  0.11632053  0.61833352  1.0
  C  C58  1  0.49798692  0.81462261  0.88166668  1.0
  C  C59  1  0.81462356  0.93295657  0.81663597  1.0
  C  C60  1  0.88368062  0.50201296  0.31663636  1.0
  C  C61  1  0.06704264  0.88367880  0.38166603  1.0
  C  C62  1  0.50201281  0.18537736  0.11833287  1.0
  C  C63  1  0.18537698  0.06704314  0.18336435  1.0
  C  C64  1  0.20595510  0.53835889  0.84117748  1.0
  C  C65  1  0.86477565  0.20595448  0.66759500  1.0
  C  C66  1  0.53836002  0.69718123  0.83240451  1.0
  C  C67  1  0.69717925  0.86477632  0.65882198  1.0
  C  C68  1  0.79404463  0.46164109  0.15882207  1.0
  C  C69  1  0.13522427  0.79404523  0.33240531  1.0
  C  C70  1  0.46163932  0.30281835  0.16759428  1.0
  C  C71  1  0.30281967  0.13522301  0.34117757  1.0
  C  C72  1  0.13259189  0.43988686  0.78672947  1.0
  C  C73  1  0.84586100  0.13259288  0.69270368  1.0
  C  C74  1  0.43988960  0.65315857  0.80729619  1.0
  C  C75  1  0.65315576  0.84586128  0.71327089  1.0
  C  C76  1  0.86740784  0.56011311  0.21327009  1.0
  C  C77  1  0.15413892  0.86740683  0.30729664  1.0
  C  C78  1  0.56010952  0.34684142  0.19270337  1.0
  C  C79  1  0.34684416  0.15413843  0.28672943  1.0
  C  C80  1  0.14469947  0.72276865  0.62442353  1.0
  C  C81  1  0.02027627  0.14470125  0.42193258  1.0
  C  C82  1  0.72276662  0.09834319  0.07806636  1.0
  C  C83  1  0.09834402  0.02027628  0.87557635  1.0
  C  C84  1  0.85530065  0.27723172  0.37557680  1.0
  C  C85  1  0.97972365  0.85529846  0.57806774  1.0
  C  C86  1  0.27723330  0.90165743  0.92193319  1.0
  C  C87  1  0.90165591  0.97972344  0.12442398  1.0
  C  C88  1  0.26517259  0.69843201  0.61043625  1.0
  C  C89  1  0.15473728  0.26517258  0.56674021  1.0
  C  C90  1  0.69843472  0.08799854  0.93326071  1.0
  C  C91  1  0.08799691  0.15473668  0.88956462  1.0
  C  C92  1  0.73482752  0.30156834  0.38956406  1.0
  C  C93  1  0.84526164  0.73482674  0.43325934  1.0
  C  C94  1  0.30156804  0.91200245  0.06673961  1.0
  C  C95  1  0.91200363  0.84526304  0.11043571  1.0
  C  C96  1  0.20872642  0.70149127  0.52633757  1.0
  C  C97  1  0.18238956  0.20872559  0.50723364  1.0
  C  C98  1  0.70149483  0.17515657  0.99276796  1.0
  C  C99  1  0.17515323  0.18238807  0.97366321  1.0
  C  C100  1  0.79127351  0.29850845  0.47366276  1.0
  C  C101  1  0.81761036  0.79127412  0.49276668  1.0
  C  C102  1  0.29850756  0.82484405  0.00723160  1.0
  C  C103  1  0.82484650  0.81761190  0.02633635  1.0
  N  N104  1  0.19506499  0.57480993  0.77510603  1.0
  N  N105  1  0.91995978  0.19506588  0.62025621  1.0
  N  N106  1  0.57481103  0.79970461  0.87974456  1.0
  N  N107  1  0.79970326  0.91996095  0.72489393  1.0
  N  N108  1  0.80493512  0.42519042  0.22489429  1.0
  N  N109  1  0.08004014  0.80493383  0.37974410  1.0
  N  N110  1  0.42518870  0.20029537  0.12025499  1.0
  N  N111  1  0.20029670  0.08003864  0.27510486  1.0
  N  N112  1  0.07607632  0.41488248  0.68662848  1.0
  N  N113  1  0.88944862  0.07607745  0.66119422  1.0
  N  N114  1  0.41488250  0.72825356  0.83880558  1.0
  N  N115  1  0.72825423  0.88944819  0.81337259  1.0
  N  N116  1  0.92392317  0.58511787  0.31337184  1.0
  N  N117  1  0.11055092  0.92392188  0.33880533  1.0
  N  N118  1  0.58511761  0.27174680  0.16119474  1.0
  N  N119  1  0.27174688  0.11055254  0.18662850  1.0
  N  N120  1  0.22413649  0.71207658  0.67243619  1.0
  N  N121  1  0.05170166  0.22413827  0.51206204  1.0
  N  N122  1  0.71207737  0.03964094  0.98793839  1.0
  N  N123  1  0.03964083  0.05170173  0.82756341  1.0
  N  N124  1  0.77586363  0.28792379  0.32756414  1.0
  N  N125  1  0.94829827  0.77586145  0.48793829  1.0
  N  N126  1  0.28792478  0.96036006  0.01206193  1.0
  N  N127  1  0.96035929  0.94829864  0.17243691  1.0
  N  N128  1  0.13249913  0.71704067  0.53568414  1.0
  N  N129  1  0.09681471  0.13249956  0.41545784  1.0
  N  N130  1  0.71704045  0.18135659  0.08454167  1.0
  N  N131  1  0.18135563  0.09681468  0.96431630  1.0
  N  N132  1  0.86749980  0.28295866  0.46431542  1.0
  N  N133  1  0.90318522  0.86750016  0.58454249  1.0
  N  N134  1  0.28295909  0.81864365  0.91545712  1.0
  N  N135  1  0.81864387  0.90318568  0.03568403  1.0
