# generated using pymatgen
data_Zn5H41C35N21O
_symmetry_space_group_name_H-M   'P 1'
_cell_length_a   9.59730491
_cell_length_b   24.33596982
_cell_length_c   24.77617477
_cell_angle_alpha   91.68563084
_cell_angle_beta   90.00000458
_cell_angle_gamma   89.99994578
_symmetry_Int_Tables_number   1
_chemical_formula_structural   Zn5H41C35N21O
_chemical_formula_sum   'Zn20 H164 C140 N84 O4'
_cell_volume   5784.21241383
_cell_formula_units_Z   4
loop_
 _symmetry_equiv_pos_site_id
 _symmetry_equiv_pos_as_xyz
  1  'x, y, z'
loop_
 _atom_site_type_symbol
 _atom_site_label
 _atom_site_symmetry_multiplicity
 _atom_site_fract_x
 _atom_site_fract_y
 _atom_site_fract_z
 _atom_site_occupancy
  Zn  Zn0  1  0.96378124  0.76588940  0.68109614  1.0
  Zn  Zn1  1  0.46378154  0.73411118  0.81890467  1.0
  Zn  Zn2  1  0.03621935  0.23411128  0.31890423  1.0
  Zn  Zn3  1  0.53621904  0.26588950  0.18109530  1.0
  Zn  Zn4  1  0.74363063  0.98711310  0.72262878  1.0
  Zn  Zn5  1  0.24363250  0.51288839  0.77736963  1.0
  Zn  Zn6  1  0.25636787  0.01288840  0.27737000  1.0
  Zn  Zn7  1  0.75636808  0.48711312  0.22262915  1.0
  Zn  Zn8  1  0.23976421  0.96683391  0.86344571  1.0
  Zn  Zn9  1  0.73976549  0.53316675  0.63655349  1.0
  Zn  Zn10  1  0.76023533  0.03316718  0.13655346  1.0
  Zn  Zn11  1  0.26023509  0.46683434  0.36344609  1.0
  Zn  Zn12  1  0.32608044  0.65857084  0.51796393  1.0
  Zn  Zn13  1  0.82608106  0.84142937  0.98203646  1.0
  Zn  Zn14  1  0.67391910  0.34142901  0.48203642  1.0
  Zn  Zn15  1  0.17391953  0.15857089  0.01796349  1.0
  Zn  Zn16  1  0.44472504  0.78278153  0.31623817  1.0
  Zn  Zn17  1  0.94472589  0.71721944  0.18376174  1.0
  Zn  Zn18  1  0.55527346  0.21721915  0.68376179  1.0
  Zn  Zn19  1  0.05527469  0.28278206  0.81623866  1.0
  H  H20  1  0.17363344  0.71175380  0.76490953  1.0
  H  H21  1  0.67363309  0.78824648  0.73509086  1.0
  H  H22  1  0.82636818  0.28824688  0.23509004  1.0
  H  H23  1  0.32636749  0.21175338  0.26490908  1.0
  H  H24  1  0.20767615  0.86049413  0.68291085  1.0
  H  H25  1  0.70767513  0.63950613  0.81708954  1.0
  H  H26  1  0.79232548  0.13950655  0.31708912  1.0
  H  H27  1  0.29232546  0.36049414  0.18291082  1.0
  H  H28  1  0.44253064  0.84686018  0.74663642  1.0
  H  H29  1  0.94252958  0.65313959  0.75336356  1.0
  H  H30  1  0.55747098  0.15314050  0.25336355  1.0
  H  H31  1  0.05747205  0.34686068  0.24663720  1.0
  H  H32  1  0.94799645  0.88915174  0.72512726  1.0
  H  H33  1  0.44799809  0.61084967  0.77487358  1.0
  H  H34  1  0.05200517  0.11084976  0.27487314  1.0
  H  H35  1  0.55200458  0.38915142  0.22512640  1.0
  H  H36  1  0.73393227  0.81175315  0.59552315  1.0
  H  H37  1  0.23393166  0.68824751  0.90447685  1.0
  H  H38  1  0.26607040  0.18824794  0.40447764  1.0
  H  H39  1  0.76606684  0.31175317  0.09552271  1.0
  H  H40  1  0.62881826  0.91721784  0.61256004  1.0
  H  H41  1  0.12881582  0.58278245  0.88743954  1.0
  H  H42  1  0.37118441  0.08278284  0.38743993  1.0
  H  H43  1  0.87118372  0.41721823  0.11255962  1.0
  H  H44  1  0.43506601  0.01340732  0.77090804  1.0
  H  H45  1  0.93506831  0.48659498  0.72909285  1.0
  H  H46  1  0.56493354  0.98659418  0.22909235  1.0
  H  H47  1  0.06493332  0.51340734  0.27090757  1.0
  H  H48  1  0.73332890  0.89494154  0.81361079  1.0
  H  H49  1  0.23333053  0.60505912  0.68638679  1.0
  H  H50  1  0.26667065  0.10505873  0.18638755  1.0
  H  H51  1  0.76667006  0.39494197  0.31361157  1.0
  H  H52  1  0.49950806  0.88498081  0.87845630  1.0
  H  H53  1  0.99950915  0.61501975  0.62154169  1.0
  H  H54  1  0.50049148  0.11501946  0.12154204  1.0
  H  H55  1  0.00049144  0.38498134  0.37845668  1.0
  H  H56  1  0.94988443  0.94141735  0.81364021  1.0
  H  H57  1  0.44988721  0.55858324  0.68635859  1.0
  H  H58  1  0.05011303  0.05858416  0.18635898  1.0
  H  H59  1  0.55011545  0.44141744  0.31364057  1.0
  H  H60  1  0.21102283  0.07701124  0.78839905  1.0
  H  H61  1  0.71102215  0.42298908  0.71160138  1.0
  H  H62  1  0.78897463  0.92298943  0.21160092  1.0
  H  H63  1  0.28897635  0.57701160  0.28839899  1.0
  H  H64  1  0.98031378  0.08184885  0.71919480  1.0
  H  H65  1  0.48031364  0.41815220  0.78080526  1.0
  H  H66  1  0.01968367  0.91815265  0.28080520  1.0
  H  H67  1  0.51968486  0.58184848  0.21919471  1.0
  H  H68  1  0.53227386  0.56780501  0.54671083  1.0
  H  H69  1  0.03227372  0.93219614  0.95328837  1.0
  H  H70  1  0.46772568  0.43219608  0.45328914  1.0
  H  H71  1  0.96772791  0.06780495  0.04671161  1.0
  H  H72  1  0.47697691  0.72067040  0.62852240  1.0
  H  H73  1  0.97697765  0.77933017  0.87147801  1.0
  H  H74  1  0.52302263  0.27933069  0.37147717  1.0
  H  H75  1  0.02302293  0.22067092  0.12852197  1.0
  H  H76  1  0.68356832  0.66165623  0.67956546  1.0
  H  H77  1  0.18356838  0.83834404  0.82043413  1.0
  H  H78  1  0.31643227  0.33834486  0.32043412  1.0
  H  H79  1  0.81643117  0.16165705  0.17956545  1.0
  H  H80  1  0.36107681  0.58402719  0.40847097  1.0
  H  H81  1  0.86107925  0.91597340  0.09152974  1.0
  H  H82  1  0.63892274  0.41597307  0.59152979  1.0
  H  H83  1  0.13892030  0.08402687  0.90847022  1.0
  H  H84  1  0.11939453  0.46342050  0.48276730  1.0
  H  H85  1  0.61939265  0.03657942  0.01723261  1.0
  H  H86  1  0.88060606  0.53657894  0.51723223  1.0
  H  H87  1  0.38060689  0.96342126  0.98276615  1.0
  H  H88  1  0.15676846  0.55211017  0.55494299  1.0
  H  H89  1  0.65676985  0.94788929  0.94505738  1.0
  H  H90  1  0.84322900  0.44788927  0.44505735  1.0
  H  H91  1  0.34323281  0.05211057  0.05494176  1.0
  H  H92  1  0.22968456  0.72518012  0.62394431  1.0
  H  H93  1  0.72968636  0.77482137  0.87605571  1.0
  H  H94  1  0.77031394  0.27482097  0.37605566  1.0
  H  H95  1  0.27031527  0.22518013  0.12394388  1.0
  H  H96  1  0.99240604  0.66118748  0.49367899  1.0
  H  H97  1  0.49240708  0.83881389  0.00632134  1.0
  H  H98  1  0.00759454  0.33881279  0.50632137  1.0
  H  H99  1  0.50759351  0.16118679  0.99367863  1.0
  H  H100  1  0.81432267  0.70407773  0.57301148  1.0
  H  H101  1  0.31432494  0.79592290  0.92698893  1.0
  H  H102  1  0.18567583  0.29592336  0.42698850  1.0
  H  H103  1  0.68567669  0.20407778  0.07301064  1.0
  H  H104  1  0.29586357  0.69248797  0.39034426  1.0
  H  H105  1  0.79586524  0.80751306  0.10965565  1.0
  H  H106  1  0.70413493  0.30751312  0.60965571  1.0
  H  H107  1  0.20413431  0.19248885  0.89034436  1.0
  H  H108  1  0.58470504  0.73709399  0.51231815  1.0
  H  H109  1  0.08470427  0.76290590  0.98768182  1.0
  H  H110  1  0.41529659  0.26290504  0.48768177  1.0
  H  H111  1  0.91529423  0.23709437  0.01231854  1.0
  H  H112  1  0.64464783  0.79440761  0.41950112  1.0
  H  H113  1  0.14464816  0.70559265  0.08049917  1.0
  H  H114  1  0.35535171  0.20559266  0.58049924  1.0
  H  H115  1  0.85535034  0.29440761  0.91950159  1.0
  H  H116  1  0.13602482  0.79141909  0.26601631  1.0
  H  H117  1  0.63602362  0.70858118  0.23398277  1.0
  H  H118  1  0.86397576  0.20858118  0.73398365  1.0
  H  H119  1  0.36397801  0.29141868  0.76601839  1.0
  H  H120  1  0.20036286  0.63371639  0.19559418  1.0
  H  H121  1  0.70036233  0.86628303  0.30440648  1.0
  H  H122  1  0.79963669  0.36628388  0.80440577  1.0
  H  H123  1  0.29963617  0.13371641  0.69559466  1.0
  H  H124  1  0.42913955  0.66289083  0.25884126  1.0
  H  H125  1  0.92913909  0.83710851  0.24115941  1.0
  H  H126  1  0.57085999  0.33710862  0.74115908  1.0
  H  H127  1  0.07085941  0.16289176  0.75884175  1.0
  H  H128  1  0.59957458  0.10464799  0.74888328  1.0
  H  H129  1  0.09957761  0.39535279  0.75111554  1.0
  H  H130  1  0.40042392  0.89535310  0.25111589  1.0
  H  H131  1  0.90042401  0.60464830  0.24888363  1.0
  H  H132  1  0.66863245  0.14068496  0.58577900  1.0
  H  H133  1  0.16863248  0.35931702  0.91422067  1.0
  H  H134  1  0.33136605  0.85931654  0.41422059  1.0
  H  H135  1  0.83136707  0.64068489  0.08577893  1.0
  H  H136  1  0.74151763  0.03174262  0.60254457  1.0
  H  H137  1  0.24151739  0.46825934  0.89745389  1.0
  H  H138  1  0.25848192  0.96825888  0.39745421  1.0
  H  H139  1  0.75848215  0.53174299  0.10254451  1.0
  H  H140  1  0.47755080  0.06673611  0.89502501  1.0
  H  H141  1  0.97755008  0.43325548  0.60497517  1.0
  H  H142  1  0.52244978  0.93326004  0.10497483  1.0
  H  H143  1  0.02244843  0.56673821  0.39502419  1.0
  H  H144  1  0.75044503  0.14869839  0.93841491  1.0
  H  H145  1  0.25045229  0.35129411  0.56158973  1.0
  H  H146  1  0.24955243  0.85129941  0.06158578  1.0
  H  H147  1  0.74955246  0.64870081  0.43841370  1.0
  H  H148  1  0.66151076  0.08518519  0.94217523  1.0
  H  H149  1  0.16151267  0.41480652  0.55782696  1.0
  H  H150  1  0.33849087  0.91481262  0.05782546  1.0
  H  H151  1  0.83848896  0.58518716  0.44217442  1.0
  H  H152  1  0.90277539  0.06779239  0.91258850  1.0
  H  H153  1  0.40277100  0.43220499  0.58741386  1.0
  H  H154  1  0.09722728  0.93220747  0.08741144  1.0
  H  H155  1  0.59722646  0.56779322  0.41258764  1.0
  H  H156  1  0.88529646  0.11223660  0.85743535  1.0
  H  H157  1  0.38530053  0.38776119  0.64256823  1.0
  H  H158  1  0.11470204  0.88776326  0.14256459  1.0
  H  H159  1  0.61470214  0.61223743  0.35743450  1.0
  H  H160  1  0.78826826  0.04997359  0.85852692  1.0
  H  H161  1  0.28826384  0.45002260  0.64147581  1.0
  H  H162  1  0.21173337  0.95002545  0.14147381  1.0
  H  H163  1  0.71173258  0.54997479  0.35852567  1.0
  H  H164  1  0.56379570  0.18246267  0.81282290  1.0
  H  H165  1  0.06380307  0.31752867  0.68718048  1.0
  H  H166  1  0.43620072  0.81753390  0.18717815  1.0
  H  H167  1  0.93620376  0.68246502  0.31282170  1.0
  H  H168  1  0.73198041  0.18963041  0.84249154  1.0
  H  H169  1  0.23198467  0.31036169  0.65750905  1.0
  H  H170  1  0.26801705  0.81036699  0.15750833  1.0
  H  H171  1  0.76802008  0.68963282  0.34249073  1.0
  H  H172  1  0.58884534  0.27291800  0.86295955  1.0
  H  H173  1  0.08884354  0.22707456  0.63703984  1.0
  H  H174  1  0.41115316  0.72707898  0.13703991  1.0
  H  H175  1  0.91115600  0.77292036  0.36295996  1.0
  H  H176  1  0.61994266  0.23814936  0.92404126  1.0
  H  H177  1  0.11994076  0.26184607  0.57595902  1.0
  H  H178  1  0.38005689  0.76184885  0.07595823  1.0
  H  H179  1  0.88005774  0.73815050  0.42404082  1.0
  H  H180  1  0.45510576  0.23193982  0.89132428  1.0
  H  H181  1  0.95510439  0.26805548  0.60867762  1.0
  H  H182  1  0.54489378  0.76805798  0.10867600  1.0
  H  H183  1  0.04489411  0.73194109  0.39132424  1.0
  C  C184  1  0.21502314  0.75030847  0.75083190  1.0
  C  C185  1  0.71502497  0.74969179  0.74916849  1.0
  C  C186  1  0.78497536  0.24969221  0.24916807  1.0
  C  C187  1  0.28497666  0.25030848  0.25083146  1.0
  C  C188  1  0.23552567  0.82728743  0.70911418  1.0
  C  C189  1  0.73552561  0.67271241  0.79088580  1.0
  C  C190  1  0.76447491  0.17271325  0.29088538  1.0
  C  C191  1  0.26447602  0.32728704  0.20911413  1.0
  C  C192  1  0.35281278  0.82026720  0.74040164  1.0
  C  C193  1  0.85281165  0.67973300  0.75959835  1.0
  C  C194  1  0.64718885  0.17973348  0.25959833  1.0
  C  C195  1  0.14719102  0.32026767  0.24040283  1.0
  C  C196  1  0.87474360  0.88244040  0.69218472  1.0
  C  C197  1  0.37474523  0.61756103  0.80781612  1.0
  C  C198  1  0.12525803  0.11756192  0.30781570  1.0
  C  C199  1  0.62525640  0.38244006  0.19218386  1.0
  C  C200  1  0.76229749  0.84335464  0.62532004  1.0
  C  C201  1  0.26229591  0.65664642  0.87467997  1.0
  C  C202  1  0.23770831  0.15664686  0.37468035  1.0
  C  C203  1  0.73770363  0.34335426  0.12531959  1.0
  C  C204  1  0.71069961  0.89583515  0.63363043  1.0
  C  C205  1  0.21069920  0.60416635  0.86636960  1.0
  C  C206  1  0.28930202  0.10416594  0.36636955  1.0
  C  C207  1  0.78930035  0.39583474  0.13363038  1.0
  C  C208  1  0.48522581  0.97986508  0.79134465  1.0
  C  C209  1  0.98522714  0.52013713  0.70865500  1.0
  C  C210  1  0.51477269  0.02013601  0.20865493  1.0
  C  C211  1  0.01477449  0.47986519  0.29134461  1.0
  C  C212  1  0.63741340  0.91855836  0.81434689  1.0
  C  C213  1  0.13741717  0.58144234  0.68565069  1.0
  C  C214  1  0.36258406  0.08144191  0.18565105  1.0
  C  C215  1  0.86258445  0.41855875  0.31434727  1.0
  C  C216  1  0.52162674  0.91349581  0.84673128  1.0
  C  C217  1  0.02163049  0.58650411  0.65326586  1.0
  C  C218  1  0.47837072  0.08650364  0.15326622  1.0
  C  C219  1  0.97837218  0.41349657  0.34673168  1.0
  C  C220  1  0.98976745  0.97885862  0.79658763  1.0
  C  C221  1  0.48976929  0.52114236  0.70341158  1.0
  C  C222  1  0.01022896  0.02114247  0.20341195  1.0
  C  C223  1  0.51023234  0.47885873  0.29658799  1.0
  C  C224  1  0.12356706  0.04919598  0.78228101  1.0
  C  C225  1  0.62356631  0.45080521  0.71771944  1.0
  C  C226  1  0.87643040  0.95080511  0.21771897  1.0
  C  C227  1  0.37643219  0.54919588  0.28228134  1.0
  C  C228  1  0.00850454  0.05197398  0.74897685  1.0
  C  C229  1  0.50850381  0.44802766  0.75102321  1.0
  C  C230  1  0.99149188  0.94802793  0.25102356  1.0
  C  C231  1  0.49149365  0.55197343  0.24897636  1.0
  C  C232  1  0.54596933  0.60170190  0.57570599  1.0
  C  C233  1  0.04596927  0.89829925  0.92429321  1.0
  C  C234  1  0.45403021  0.39829919  0.42429358  1.0
  C  C235  1  0.95403132  0.10170184  0.07570677  1.0
  C  C236  1  0.51836462  0.68007065  0.61875485  1.0
  C  C237  1  0.01836473  0.81992969  0.88124513  1.0
  C  C238  1  0.48163492  0.31993044  0.38124472  1.0
  C  C239  1  0.98163481  0.18007099  0.11875443  1.0
  C  C240  1  0.62151236  0.65097551  0.64424742  1.0
  C  C241  1  0.12151136  0.84902479  0.85575216  1.0
  C  C242  1  0.37848822  0.34902517  0.35575214  1.0
  C  C243  1  0.87848818  0.15097630  0.14424742  1.0
  C  C244  1  0.30301678  0.56283848  0.43910387  1.0
  C  C245  1  0.80301812  0.93716131  0.06089641  1.0
  C  C246  1  0.69698276  0.43716179  0.56089689  1.0
  C  C247  1  0.19698142  0.06283854  0.93910313  1.0
  C  C248  1  0.17724197  0.50131184  0.47842898  1.0
  C  C249  1  0.67724315  0.99868759  0.02157047  1.0
  C  C250  1  0.82275862  0.49868719  0.52157013  1.0
  C  C251  1  0.32275952  0.00131268  0.97842787  1.0
  C  C252  1  0.19449781  0.54545485  0.51395688  1.0
  C  C253  1  0.69450023  0.95454500  0.98604350  1.0
  C  C254  1  0.80549965  0.45454500  0.48604306  1.0
  C  C255  1  0.30550243  0.04545527  0.01395565  1.0
  C  C256  1  0.14105553  0.71391506  0.59881312  1.0
  C  C257  1  0.64105730  0.78608687  0.90118692  1.0
  C  C258  1  0.85894297  0.28608644  0.40118687  1.0
  C  C259  1  0.35894329  0.21391504  0.09881268  1.0
  C  C260  1  0.01547134  0.68112952  0.53236972  1.0
  C  C261  1  0.51547201  0.81887163  0.96763028  1.0
  C  C262  1  0.98452820  0.31887116  0.46763065  1.0
  C  C263  1  0.48452753  0.18112946  0.03236889  1.0
  C  C264  1  0.92727626  0.70297680  0.57141322  1.0
  C  C265  1  0.42727748  0.79702379  0.92858598  1.0
  C  C266  1  0.07272328  0.29702429  0.42858635  1.0
  C  C267  1  0.57272310  0.20297648  0.07141317  1.0
  C  C268  1  0.38206796  0.71282190  0.41130458  1.0
  C  C269  1  0.88206863  0.78717786  0.08869570  1.0
  C  C270  1  0.61793158  0.28717755  0.58869575  1.0
  C  C271  1  0.11793092  0.21282281  0.91130467  1.0
  C  C272  1  0.53346461  0.73654409  0.47327281  1.0
  C  C273  1  0.03346479  0.76345621  0.02672748  1.0
  C  C274  1  0.46653598  0.26345577  0.52672754  1.0
  C  C275  1  0.96653684  0.23654405  0.97327288  1.0
  C  C276  1  0.56312185  0.76482602  0.42732964  1.0
  C  C277  1  0.06312419  0.73517468  0.07267065  1.0
  C  C278  1  0.43687665  0.23517425  0.57267071  1.0
  C  C279  1  0.93687639  0.26482641  0.92732973  1.0
  C  C280  1  0.18522201  0.75257504  0.25481591  1.0
  C  C281  1  0.68522280  0.74742480  0.24518396  1.0
  C  C282  1  0.81477649  0.24742523  0.74518485  1.0
  C  C283  1  0.31477883  0.25257464  0.75481759  1.0
  C  C284  1  0.22202202  0.67128695  0.21872841  1.0
  C  C285  1  0.72202054  0.82871246  0.28127226  1.0
  C  C286  1  0.77797857  0.32871291  0.78127234  1.0
  C  C287  1  0.27797796  0.17128657  0.71872968  1.0
  C  C288  1  0.33588626  0.68595130  0.24975789  1.0
  C  C289  1  0.83588689  0.81404848  0.25024279  1.0
  C  C290  1  0.66411328  0.31404896  0.75024287  1.0
  C  C291  1  0.16411265  0.18595138  0.74975877  1.0
  C  C292  1  0.62899117  0.09961501  0.70668600  1.0
  C  C293  1  0.12899420  0.40038576  0.79331363  1.0
  C  C294  1  0.37100733  0.90038567  0.29331356  1.0
  C  C295  1  0.87100742  0.59961533  0.20668594  1.0
  C  C296  1  0.66565144  0.11700251  0.62217261  1.0
  C  C297  1  0.16565036  0.38299948  0.87782706  1.0
  C  C298  1  0.33434915  0.88299858  0.37782737  1.0
  C  C299  1  0.83434814  0.61700243  0.12217254  1.0
  C  C300  1  0.70116876  0.06304798  0.63043852  1.0
  C  C301  1  0.20116860  0.43695399  0.86956034  1.0
  C  C302  1  0.29883078  0.93695352  0.36956066  1.0
  C  C303  1  0.79883095  0.56304792  0.13043886  1.0
  C  C304  1  0.48037759  0.10498564  0.87163705  1.0
  C  C305  1  0.98037800  0.39500718  0.62836477  1.0
  C  C306  1  0.51962300  0.89501133  0.12836280  1.0
  C  C307  1  0.01962363  0.60498815  0.37163625  1.0
  C  C308  1  0.71006185  0.11359129  0.91405852  1.0
  C  C309  1  0.21006279  0.38640163  0.58594532  1.0
  C  C310  1  0.28993977  0.88640610  0.08594216  1.0
  C  C311  1  0.78993884  0.61359370  0.41405731  1.0
  C  C312  1  0.82822214  0.08440752  0.88366210  1.0
  C  C313  1  0.32821885  0.41558783  0.61634061  1.0
  C  C314  1  0.17177948  0.91559152  0.11633822  1.0
  C  C315  1  0.67178070  0.58440956  0.38366128  1.0
  C  C316  1  0.62034074  0.18542986  0.85132924  1.0
  C  C317  1  0.12034290  0.31456104  0.64867332  1.0
  C  C318  1  0.37965776  0.81456630  0.14867140  1.0
  C  C319  1  0.87965872  0.68543265  0.35132805  1.0
  C  C320  1  0.56789679  0.23501888  0.88458481  1.0
  C  C321  1  0.06789490  0.26497451  0.61541621  1.0
  C  C322  1  0.43210275  0.76497892  0.11541588  1.0
  C  C323  1  0.93210360  0.73502041  0.38458479  1.0
  N  N324  1  0.14840439  0.78277982  0.71608325  1.0
  N  N325  1  0.64840422  0.71722046  0.78391714  1.0
  N  N326  1  0.85159619  0.21722127  0.28391672  1.0
  N  N327  1  0.35159636  0.28277981  0.21608282  1.0
  N  N328  1  0.33896937  0.77123673  0.76668475  1.0
  N  N329  1  0.83896916  0.72876348  0.73331524  1.0
  N  N330  1  0.66103226  0.22876394  0.23331441  1.0
  N  N331  1  0.16103246  0.27123679  0.26668512  1.0
  N  N332  1  0.86621313  0.83518959  0.66279526  1.0
  N  N333  1  0.36621361  0.66481226  0.83720558  1.0
  N  N334  1  0.13378849  0.16481232  0.33720595  1.0
  N  N335  1  0.63378801  0.33518924  0.16279481  1.0
  N  N336  1  0.78295424  0.92041707  0.67602950  1.0
  N  N337  1  0.28295492  0.57958440  0.82397093  1.0
  N  N338  1  0.21704738  0.07958402  0.32397048  1.0
  N  N339  1  0.71704670  0.42041669  0.17602905  1.0
  N  N340  1  0.61358270  0.96087740  0.77939941  1.0
  N  N341  1  0.11358449  0.53912413  0.72059900  1.0
  N  N342  1  0.38641580  0.03912410  0.22059937  1.0
  N  N343  1  0.88641713  0.46087778  0.27939979  1.0
  N  N344  1  0.42566746  0.95246765  0.83176516  1.0
  N  N345  1  0.92566975  0.54753294  0.66823364  1.0
  N  N346  1  0.57433104  0.04753262  0.16823359  1.0
  N  N347  1  0.07433187  0.45246815  0.33176553  1.0
  N  N348  1  0.92415957  0.00729200  0.75841330  1.0
  N  N349  1  0.42415924  0.49270907  0.74158554  1.0
  N  N350  1  0.07583789  0.99270950  0.24158628  1.0
  N  N351  1  0.57584030  0.50729202  0.25841363  1.0
  N  N352  1  0.11062390  0.00245374  0.81218295  1.0
  N  N353  1  0.61062616  0.49754621  0.68781666  1.0
  N  N354  1  0.88937252  0.99754735  0.18781663  1.0
  N  N355  1  0.38937546  0.50245365  0.31218329  1.0
  N  N356  1  0.63856408  0.60143646  0.61648167  1.0
  N  N357  1  0.13856401  0.89856465  0.88351793  1.0
  N  N358  1  0.36143546  0.39856463  0.38351831  1.0
  N  N359  1  0.86143553  0.10143685  0.11648165  1.0
  N  N360  1  0.47055748  0.64833758  0.57533129  1.0
  N  N361  1  0.97055806  0.85166299  0.92466872  1.0
  N  N362  1  0.52944102  0.35166310  0.42466828  1.0
  N  N363  1  0.02944357  0.14833810  0.07533126  1.0
  N  N364  1  0.24650202  0.51268823  0.43117739  1.0
  N  N365  1  0.74650324  0.98731199  0.06882250  1.0
  N  N366  1  0.75349856  0.48731204  0.56882257  1.0
  N  N367  1  0.25349630  0.01268828  0.93117624  1.0
  N  N368  1  0.27450772  0.58430903  0.48855184  1.0
  N  N369  1  0.77450910  0.91569118  0.01144845  1.0
  N  N370  1  0.72549078  0.41569082  0.51144891  1.0
  N  N371  1  0.22549253  0.08430909  0.98855110  1.0
  N  N372  1  0.15088435  0.68828107  0.55016478  1.0
  N  N373  1  0.65088503  0.81172045  0.94983525  1.0
  N  N374  1  0.84911623  0.31171920  0.44983518  1.0
  N  N375  1  0.34911555  0.18828105  0.05016474  1.0
  N  N376  1  0.00816404  0.72367759  0.61342841  1.0
  N  N377  1  0.50816584  0.77632357  0.88657160  1.0
  N  N378  1  0.99183550  0.27632391  0.38657158  1.0
  N  N379  1  0.49183579  0.22367752  0.11342758  1.0
  N  N380  1  0.41845007  0.70373652  0.46280675  1.0
  N  N381  1  0.91844966  0.79626364  0.03719354  1.0
  N  N382  1  0.58155052  0.29626333  0.53719360  1.0
  N  N383  1  0.08154885  0.20373745  0.96280644  1.0
  N  N384  1  0.46697196  0.74950526  0.38826332  1.0
  N  N385  1  0.96697272  0.75049530  0.11173699  1.0
  N  N386  1  0.53302654  0.25049501  0.61173704  1.0
  N  N387  1  0.03302683  0.24950579  0.88826339  1.0
  N  N388  1  0.31192114  0.73758275  0.27240651  1.0
  N  N389  1  0.81192085  0.76241745  0.22759338  1.0
  N  N390  1  0.68807840  0.26241751  0.72759385  1.0
  N  N391  1  0.18807973  0.23758282  0.77240779  1.0
  N  N392  1  0.12690360  0.71380864  0.22215526  1.0
  N  N393  1  0.62690222  0.78619080  0.27784500  1.0
  N  N394  1  0.87309594  0.28619121  0.77784468  1.0
  N  N395  1  0.37309628  0.21380864  0.72215654  1.0
  N  N396  1  0.62008237  0.13990523  0.67072100  1.0
  N  N397  1  0.12008238  0.36009596  0.82927824  1.0
  N  N398  1  0.37991717  0.86009545  0.32927856  1.0
  N  N399  1  0.87991716  0.63990555  0.17072054  1.0
  N  N400  1  0.67757778  0.05229428  0.68414582  1.0
  N  N401  1  0.17757966  0.44770647  0.81585341  1.0
  N  N402  1  0.32242072  0.94770640  0.31585375  1.0
  N  N403  1  0.82242092  0.55229462  0.18414576  1.0
  N  N404  1  0.60007262  0.13359557  0.87880787  1.0
  N  N405  1  0.10007361  0.36639699  0.62119676  1.0
  N  N406  1  0.39992797  0.86640182  0.12119361  1.0
  N  N407  1  0.89992698  0.63359793  0.37880627  1.0
  O  O408  1  0.38223231  0.11884052  0.84234225  1.0
  O  O409  1  0.88222755  0.38115193  0.65765835  1.0
  O  O410  1  0.61776932  0.88115564  0.15765758  1.0
  O  O411  1  0.11776783  0.61884258  0.34234224  1.0
