# generated using pymatgen
data_Zn2H21C42N2O13F2
_symmetry_space_group_name_H-M   'P 1'
_cell_length_a   16.60831867
_cell_length_b   17.91111823
_cell_length_c   28.93626544
_cell_angle_alpha   89.90154818
_cell_angle_beta   90.07283409
_cell_angle_gamma   89.97454560
_symmetry_Int_Tables_number   1
_chemical_formula_structural   Zn2H21C42N2O13F2
_chemical_formula_sum   'Zn4 H42 C84 N4 O26 F4'
_cell_volume   8607.75335307
_cell_formula_units_Z   2
loop_
 _symmetry_equiv_pos_site_id
 _symmetry_equiv_pos_as_xyz
  1  'x, y, z'
loop_
 _atom_site_type_symbol
 _atom_site_label
 _atom_site_symmetry_multiplicity
 _atom_site_fract_x
 _atom_site_fract_y
 _atom_site_fract_z
 _atom_site_occupancy
  Zn  Zn0  1  0.58389640  0.50440433  0.49622016  1.0
  Zn  Zn1  1  0.41000033  0.50340693  0.49951184  1.0
  Zn  Zn2  1  0.41583656  0.50762232  0.88183908  1.0
  Zn  Zn3  1  0.59028939  0.50589318  0.88087182  1.0
  H  H4  1  0.28105488  0.58885475  0.54102850  1.0
  H  H5  1  0.13095223  0.59496863  0.54102370  1.0
  H  H6  1  0.13178376  0.39125650  0.46000292  1.0
  H  H7  1  0.86711062  0.56390890  0.56238222  1.0
  H  H8  1  0.70833480  0.43965954  0.44137196  1.0
  H  H9  1  0.85858432  0.43244125  0.43666092  1.0
  H  H10  1  0.62264656  0.73576698  0.48753518  1.0
  H  H11  1  0.63058972  0.87530618  0.48850048  1.0
  H  H12  1  0.37269594  0.88469283  0.50903368  1.0
  H  H13  1  0.63491304  0.12727989  0.51026737  1.0
  H  H14  1  0.37382203  0.25998646  0.49089169  1.0
  H  H15  1  0.37692960  0.12160489  0.48945279  1.0
  H  H16  1  0.59799149  0.40053423  0.77641893  1.0
  H  H17  1  0.60155367  0.40133302  0.60378982  1.0
  H  H18  1  0.36964311  0.50168259  0.02774674  1.0
  H  H19  1  0.36802796  0.50369961  0.11417039  1.0
  H  H20  1  0.62850022  0.50194117  0.11432218  1.0
  H  H21  1  0.36842684  0.52061268  0.26549235  1.0
  H  H22  1  0.62389285  0.48019127  0.35180157  1.0
  H  H23  1  0.62562834  0.48237656  0.26540454  1.0
  H  H24  1  0.71843537  0.59423278  0.84143669  1.0
  H  H25  1  0.86863997  0.60178237  0.84225946  1.0
  H  H26  1  0.86925414  0.39169696  0.91721273  1.0
  H  H27  1  0.13151013  0.57252914  0.81999247  1.0
  H  H28  1  0.29244684  0.44250931  0.93801699  1.0
  H  H29  1  0.14219974  0.43529156  0.94357755  1.0
  H  H30  1  0.38256861  0.73646382  0.87597724  1.0
  H  H31  1  0.37264798  0.87588882  0.87287655  1.0
  H  H32  1  0.63259893  0.88915501  0.87935356  1.0
  H  H33  1  0.36525265  0.12984145  0.87697159  1.0
  H  H34  1  0.62922857  0.26127883  0.87580999  1.0
  H  H35  1  0.62565112  0.12275853  0.87596399  1.0
  H  H36  1  0.34456290  0.37848531  0.47078996  1.0
  H  H37  1  0.65501846  0.55483477  0.57317644  1.0
  H  H38  1  0.36232665  0.68720205  0.50977634  1.0
  H  H39  1  0.63184966  0.32442684  0.51483378  1.0
  H  H40  1  0.63179808  0.50108443  0.99213591  1.0
  H  H41  1  0.36569487  0.52127358  0.38771894  1.0
  H  H42  1  0.65713387  0.37734920  0.90306345  1.0
  H  H43  1  0.34198765  0.55901372  0.80616046  1.0
  H  H44  1  0.64656907  0.69176552  0.88375909  1.0
  H  H45  1  0.36836674  0.32721863  0.87510292  1.0
  C  C46  1  0.49353857  0.64967578  0.49707173  1.0
  C  C47  1  0.49878645  0.50787188  0.58861810  1.0
  C  C48  1  0.49880228  0.35456128  0.50164432  1.0
  C  C49  1  0.49849373  0.49769270  0.40809943  1.0
  C  C50  1  0.51367291  0.65258884  0.88182187  1.0
  C  C51  1  0.49780909  0.51169230  0.79020932  1.0
  C  C52  1  0.50321604  0.35635614  0.87677513  1.0
  C  C53  1  0.49664320  0.49925751  0.97160911  1.0
  C  C54  1  0.24516424  0.54675861  0.52328607  1.0
  C  C55  1  0.16228713  0.54999826  0.52335762  1.0
  C  C56  1  0.11905033  0.49372060  0.49954903  1.0
  C  C57  1  0.16203115  0.43647971  0.47807582  1.0
  C  C58  1  0.24655689  0.43632109  0.48058170  1.0
  C  C59  1  0.03383972  0.49513156  0.49837181  1.0
  C  C60  1  0.96049468  0.49714701  0.49835657  1.0
  C  C61  1  0.87526368  0.49881647  0.49920783  1.0
  C  C62  1  0.83480088  0.53565800  0.53476715  1.0
  C  C63  1  0.75022119  0.53464445  0.53580778  1.0
  C  C64  1  0.74656473  0.46562687  0.46744831  1.0
  C  C65  1  0.82933199  0.46223394  0.46472911  1.0
  C  C66  1  0.49508049  0.73202279  0.49794727  1.0
  C  C67  1  0.56881929  0.76961080  0.49227827  1.0
  C  C68  1  0.57327615  0.84664342  0.49273038  1.0
  C  C69  1  0.50192509  0.88906890  0.49857118  1.0
  C  C70  1  0.42780896  0.85264055  0.50433629  1.0
  C  C71  1  0.42372707  0.77459088  0.50441613  1.0
  C  C72  1  0.50502140  0.96804368  0.49869803  1.0
  C  C73  1  0.50720089  0.03618063  0.49898829  1.0
  C  C74  1  0.50626460  0.11515976  0.49960981  1.0
  C  C75  1  0.57751387  0.15585992  0.50591637  1.0
  C  C76  1  0.57601185  0.23399196  0.50722748  1.0
  C  C77  1  0.50165198  0.27260870  0.50138022  1.0
  C  C78  1  0.43076816  0.23056791  0.49499226  1.0
  C  C79  1  0.43205250  0.15354271  0.49418738  1.0
  C  C80  1  0.50009633  0.50864911  0.73850424  1.0
  C  C81  1  0.55010297  0.45601349  0.71476474  1.0
  C  C82  1  0.45301937  0.55722471  0.71306284  1.0
  C  C83  1  0.59730765  0.40239806  0.73884407  1.0
  C  C84  1  0.64362561  0.35242277  0.71479855  1.0
  C  C85  1  0.50134674  0.50729640  0.64037060  1.0
  C  C86  1  0.45335910  0.55636029  0.66442275  1.0
  C  C87  1  0.55103029  0.45577860  0.66505921  1.0
  C  C88  1  0.59972949  0.40303353  0.64140605  1.0
  C  C89  1  0.64530369  0.35289484  0.66598640  1.0
  C  C90  1  0.49839331  0.50045959  0.02252022  1.0
  C  C91  1  0.42557899  0.50155461  0.04741732  1.0
  C  C92  1  0.42451427  0.50280369  0.09514282  1.0
  C  C93  1  0.49831414  0.50253545  0.11986549  1.0
  C  C94  1  0.57146476  0.50180408  0.09572716  1.0
  C  C95  1  0.57242296  0.50107302  0.04734205  1.0
  C  C96  1  0.49805207  0.50273033  0.16875797  1.0
  C  C97  1  0.49714885  0.50229570  0.21093289  1.0
  C  C98  1  0.49690013  0.50132316  0.25982405  1.0
  C  C99  1  0.42469467  0.51160359  0.28404782  1.0
  C  C100  1  0.42383116  0.51111639  0.33243984  1.0
  C  C101  1  0.49680024  0.49907246  0.35720649  1.0
  C  C102  1  0.56865342  0.48884778  0.33220045  1.0
  C  C103  1  0.56978291  0.49002732  0.28448421  1.0
  C  C104  1  0.75477745  0.55094784  0.85782667  1.0
  C  C105  1  0.83757302  0.55507217  0.85835155  1.0
  C  C106  1  0.88108746  0.49748709  0.88088973  1.0
  C  C107  1  0.83863102  0.43796213  0.90028758  1.0
  C  C108  1  0.75424029  0.43694265  0.89700760  1.0
  C  C109  1  0.96616648  0.49983599  0.88270394  1.0
  C  C110  1  0.03944550  0.50246816  0.88312257  1.0
  C  C111  1  0.12457027  0.50445966  0.88213685  1.0
  C  C112  1  0.16432157  0.54291825  0.84692325  1.0
  C  C113  1  0.24879528  0.54119861  0.84514184  1.0
  C  C114  1  0.25370649  0.46949610  0.91253272  1.0
  C  C115  1  0.17099070  0.46627368  0.91579415  1.0
  C  C116  1  0.51133347  0.73479437  0.87949825  1.0
  C  C117  1  0.43635466  0.77118713  0.87672437  1.0
  C  C118  1  0.43083217  0.84807141  0.87499891  1.0
  C  C119  1  0.50216542  0.89144513  0.87627832  1.0
  C  C120  1  0.57755298  0.85618310  0.87846933  1.0
  C  C121  1  0.58290762  0.77824887  0.88003050  1.0
  C  C122  1  0.49772128  0.97028307  0.87590543  1.0
  C  C123  1  0.49443162  0.03834958  0.87631403  1.0
  C  C124  1  0.49519482  0.11723994  0.87663535  1.0
  C  C125  1  0.42324689  0.15817009  0.87686305  1.0
  C  C126  1  0.42483371  0.23630790  0.87662815  1.0
  C  C127  1  0.50010769  0.27447195  0.87665726  1.0
  C  C128  1  0.57171736  0.23214952  0.87639013  1.0
  C  C129  1  0.57019527  0.15514637  0.87636781  1.0
  N  N130  1  0.28736738  0.49201447  0.50180031  1.0
  N  N131  1  0.70686179  0.50127592  0.50199418  1.0
  N  N132  1  0.71301103  0.49398670  0.87734396  1.0
  N  N133  1  0.29268762  0.50617802  0.87811479  1.0
  O  O134  1  0.55827835  0.61474114  0.48838348  1.0
  O  O135  1  0.42518176  0.61691762  0.50536796  1.0
  O  O136  1  0.43257470  0.49275439  0.56953943  1.0
  O  O137  1  0.56444218  0.52254589  0.56738322  1.0
  O  O138  1  0.43281284  0.38864861  0.49234396  1.0
  O  O139  1  0.56385691  0.39070305  0.51148045  1.0
  O  O140  1  0.56456526  0.48315547  0.42873793  1.0
  O  O141  1  0.43167971  0.51152540  0.42957373  1.0
  O  O142  1  0.44759895  0.61708173  0.88303401  1.0
  O  O143  1  0.58386600  0.62055528  0.88248058  1.0
  O  O144  1  0.56458087  0.50999438  0.81124435  1.0
  O  O145  1  0.42881913  0.51389091  0.80959754  1.0
  O  O146  1  0.57164141  0.38974630  0.87851221  1.0
  O  O147  1  0.43647746  0.39277962  0.87452280  1.0
  O  O148  1  0.42900178  0.49645608  0.95098425  1.0
  O  O149  1  0.56526749  0.50107632  0.95022269  1.0
  O  O150  1  0.28594063  0.37962321  0.46132693  1.0
  O  O151  1  0.71394404  0.56768452  0.57133127  1.0
  O  O152  1  0.35105168  0.74224149  0.51056714  1.0
  O  O153  1  0.64635347  0.27006907  0.51389609  1.0
  O  O154  1  0.64461019  0.50084844  0.02602996  1.0
  O  O155  1  0.35273761  0.52223555  0.35384571  1.0
  O  O156  1  0.71506758  0.37814760  0.91396318  1.0
  O  O157  1  0.28454719  0.57536898  0.80979795  1.0
  O  O158  1  0.65685296  0.74692267  0.88235791  1.0
  O  O159  1  0.35381302  0.27284329  0.87637120  1.0
  F  F160  1  0.40646395  0.60655951  0.64201901  1.0
  F  F161  1  0.40622657  0.60912046  0.73385707  1.0
  F  F162  1  0.68893594  0.30120547  0.73755994  1.0
  F  F163  1  0.69249880  0.30264597  0.64399285  1.0
