# generated using pymatgen
data_Al6H37C67NO29
_symmetry_space_group_name_H-M   'P 1'
_cell_length_a   12.55379746
_cell_length_b   12.62160116
_cell_length_c   26.86646108
_cell_angle_alpha   83.04634603
_cell_angle_beta   83.28252681
_cell_angle_gamma   62.77232292
_symmetry_Int_Tables_number   1
_chemical_formula_structural   Al6H37C67NO29
_chemical_formula_sum   'Al6 H37 C67 N1 O29'
_cell_volume   3748.27430745
_cell_formula_units_Z   1
loop_
 _symmetry_equiv_pos_site_id
 _symmetry_equiv_pos_as_xyz
  1  'x, y, z'
loop_
 _atom_site_type_symbol
 _atom_site_label
 _atom_site_symmetry_multiplicity
 _atom_site_fract_x
 _atom_site_fract_y
 _atom_site_fract_z
 _atom_site_occupancy
  Al  Al0  1  0.59691434  0.59423365  0.48949370  1.0
  Al  Al1  1  0.57633435  0.34739549  0.50452831  1.0
  Al  Al2  1  0.34753466  0.57737627  0.50286546  1.0
  Al  Al3  1  0.06491959  0.07054983  0.01975082  1.0
  Al  Al4  1  0.31587818  0.08414038  0.00493537  1.0
  Al  Al5  1  0.08843721  0.31580521  0.00636971  1.0
  H  H6  1  0.37151114  0.63295806  0.73115592  1.0
  H  H7  1  0.35953541  0.66409625  0.81562633  1.0
  H  H8  1  0.46840340  0.89078723  0.78444374  1.0
  H  H9  1  0.76501463  0.52548079  0.79422973  1.0
  H  H10  1  0.73517636  0.53276068  0.70909133  1.0
  H  H11  1  0.00685222  0.23870902  0.69634894  1.0
  H  H12  1  0.95508419  0.39508595  0.69119799  1.0
  H  H13  1  0.98624788  0.38797871  0.77603555  1.0
  H  H14  1  0.03807138  0.23165315  0.78110644  1.0
  H  H15  1  0.70578450  0.24780376  0.73326157  1.0
  H  H16  1  0.21731722  0.73192115  0.72849371  1.0
  H  H17  1  0.85965889  0.15212795  0.72102474  1.0
  H  H18  1  0.73713583  0.24018306  0.81815495  1.0
  H  H19  1  0.63173645  0.47356863  0.72611511  1.0
  H  H20  1  0.66274004  0.46477311  0.81106806  1.0
  H  H21  1  0.89089135  0.14457871  0.80615416  1.0
  H  H22  1  0.25887999  0.50589400  0.19713953  1.0
  H  H23  1  0.27259010  0.52639895  0.28112731  1.0
  H  H24  1  0.22966745  0.25220854  0.32029000  1.0
  H  H25  1  0.15418529  0.40936309  0.30953924  1.0
  H  H26  1  0.13928620  0.38940466  0.22558743  1.0
  H  H27  1  0.25607033  0.00882885  0.69169716  1.0
  H  H28  1  0.21444477  0.23237714  0.23658325  1.0
  H  H29  1  0.54037546  0.22295613  0.28876306  1.0
  H  H30  1  0.45590795  0.14301622  0.30744228  1.0
  H  H31  1  0.52456041  0.21274765  0.20464930  1.0
  H  H32  1  0.43073820  0.45105667  0.27253982  1.0
  H  H33  1  0.41688626  0.42979949  0.18875260  1.0
  H  H34  1  0.14969703  0.95224700  0.70455156  1.0
  H  H35  1  0.13551487  0.98845036  0.78953817  1.0
  H  H36  1  0.24600207  0.03849599  0.77675437  1.0
  H  H37  1  0.52676112  0.71551492  0.71169179  1.0
  H  H38  1  0.47678244  0.87045745  0.69821736  1.0
  H  H39  1  0.50933444  0.73748090  0.79806036  1.0
  H  H40  1  0.11531970  0.82468943  0.80497828  1.0
  H  H41  1  0.71760691  0.67809392  0.44753511  1.0
  H  H42  1  0.97380073  0.95677544  0.06213480  1.0
  C  C43  1  0.71697108  0.38509786  0.56455382  1.0
  C  C44  1  0.33177522  0.34328157  0.73158083  1.0
  C  C45  1  0.34587325  0.35723517  0.68126266  1.0
  C  C46  1  0.36018158  0.37015595  0.63530512  1.0
  C  C47  1  0.30309092  0.72366205  0.73888199  1.0
  C  C48  1  0.23510380  0.94309586  0.71580938  1.0
  C  C49  1  0.22655490  0.96398462  0.77199568  1.0
  C  C50  1  0.29812620  0.89950486  0.89647522  1.0
  C  C51  1  0.33470876  0.81612020  0.70579002  1.0
  C  C52  1  0.29186224  0.74303756  0.79552873  1.0
  C  C53  1  0.31751812  0.85057656  0.80123549  1.0
  C  C54  1  0.38774749  0.39382254  0.58280082  1.0
  C  C55  1  0.44615756  0.81932443  0.77775410  1.0
  C  C56  1  0.45531375  0.80356080  0.72105234  1.0
  C  C57  1  0.30727370  0.87391477  0.85349956  1.0
  C  C58  1  0.34472050  0.79377612  0.65339862  1.0
  C  C59  1  0.35763004  0.76908455  0.61006798  1.0
  C  C60  1  0.72338571  0.45890938  0.73086696  1.0
  C  C61  1  0.94268493  0.32175359  0.71313760  1.0
  C  C62  1  0.96328043  0.31705613  0.76920481  1.0
  C  C63  1  0.89471872  0.31209177  0.89844704  1.0
  C  C64  1  0.81359505  0.34020264  0.70803345  1.0
  C  C65  1  0.38706999  0.71780454  0.56249282  1.0
  C  C66  1  0.74365145  0.45372017  0.78699449  1.0
  C  C67  1  0.84844665  0.33188660  0.80266657  1.0
  C  C68  1  0.81727601  0.23053326  0.79386114  1.0
  C  C69  1  0.79665820  0.23549203  0.73786874  1.0
  C  C70  1  0.87110763  0.32453523  0.85489351  1.0
  C  C71  1  0.79150397  0.34711593  0.65576422  1.0
  C  C72  1  0.76750007  0.35615790  0.61245170  1.0
  C  C73  1  0.34816781  0.44451748  0.26801369  1.0
  C  C74  1  0.23035705  0.32842511  0.29599262  1.0
  C  C75  1  0.22038535  0.31511104  0.24038440  1.0
  C  C76  1  0.71539890  0.38548023  0.42302697  1.0
  C  C77  1  0.30878540  0.29209609  0.11189167  1.0
  C  C78  1  0.34826260  0.33563189  0.30179561  1.0
  C  C79  1  0.33885862  0.43087671  0.21236960  1.0
  C  C80  1  0.33083776  0.31382956  0.20731809  1.0
  C  C81  1  0.44802094  0.20786369  0.22752716  1.0
  C  C82  1  0.45601401  0.22038570  0.28394313  1.0
  C  C83  1  0.31996107  0.30220460  0.15521175  1.0
  C  C84  1  0.35730117  0.34893864  0.35390354  1.0
  C  C85  1  0.36563192  0.36129168  0.39731093  1.0
  C  C86  1  0.30400882  0.89291351  0.13605240  1.0
  C  C87  1  0.38784108  0.38713305  0.44448482  1.0
  C  C88  1  0.31521884  0.86428995  0.18111651  1.0
  C  C89  1  0.32644012  0.83592824  0.23050466  1.0
  C  C90  1  0.33569863  0.81346200  0.27619630  1.0
  C  C91  1  0.34859832  0.78762386  0.32559881  1.0
  C  C92  1  0.36166187  0.76189492  0.37073460  1.0
  C  C93  1  0.90037555  0.30508828  0.13825936  1.0
  C  C94  1  0.87276883  0.31641708  0.18330819  1.0
  C  C95  1  0.84492615  0.32723823  0.23266998  1.0
  C  C96  1  0.82171085  0.33529382  0.27835937  1.0
  C  C97  1  0.79388081  0.34609901  0.32772585  1.0
  C  C98  1  0.39013577  0.71196869  0.42112202  1.0
  C  C99  1  0.76635613  0.35722215  0.37279423  1.0
  C  C100  1  0.27135176  0.94938362  0.94430295  1.0
  C  C101  1  0.27262340  0.27286111  0.92678434  1.0
  C  C102  1  0.94431756  0.28181489  0.94658027  1.0
  C  C103  1  0.27521857  0.94605775  0.08604140  1.0
  C  C104  1  0.28179867  0.26971544  0.06492120  1.0
  C  C105  1  0.95138923  0.27664983  0.08801673  1.0
  C  C106  1  0.29639792  0.29997497  0.87420749  1.0
  C  C107  1  0.30797519  0.31534694  0.82825626  1.0
  C  C108  1  0.32048934  0.33073141  0.77793847  1.0
  C  C109  1  0.45323802  0.09279486  0.22074173  1.0
  N  N110  1  0.45655115  0.00057803  0.21637308  1.0
  O  O111  1  0.48941777  0.69491537  0.54113745  1.0
  O  O112  1  0.48427393  0.31170882  0.46476849  1.0
  O  O113  1  0.31292639  0.48662939  0.46195277  1.0
  O  O114  1  0.30946613  0.69005981  0.44821238  1.0
  O  O115  1  0.50582235  0.50488832  0.49872072  1.0
  O  O116  1  0.96483298  0.18032326  0.96792842  1.0
  O  O117  1  0.16870986  0.97454466  0.96576132  1.0
  O  O118  1  0.35336588  0.96906406  0.96053693  1.0
  O  O119  1  0.34759635  0.17311080  0.94670612  1.0
  O  O120  1  0.17572371  0.34847482  0.94815007  1.0
  O  O121  1  0.96870526  0.35978787  0.96313612  1.0
  O  O122  1  0.69272002  0.48768178  0.54358443  1.0
  O  O123  1  0.97102605  0.17598884  0.07542630  1.0
  O  O124  1  0.17292184  0.96842960  0.07318783  1.0
  O  O125  1  0.35466798  0.97035072  0.05938563  1.0
  O  O126  1  0.35494954  0.17217938  0.04557879  1.0
  O  O127  1  0.18287270  0.34655535  0.04693973  1.0
  O  O128  1  0.97647875  0.35545181  0.06142093  1.0
  O  O129  1  0.15761804  0.15829644  0.01059516  1.0
  O  O130  1  0.69565697  0.30518625  0.54775142  1.0
  O  O131  1  0.48756813  0.31821278  0.56330798  1.0
  O  O132  1  0.31283845  0.49080332  0.56096563  1.0
  O  O133  1  0.30730376  0.69448248  0.54658454  1.0
  O  O134  1  0.49229790  0.68968400  0.43392313  1.0
  O  O135  1  0.69764581  0.48526725  0.43611287  1.0
  O  O136  1  0.68828676  0.30770071  0.44928021  1.0
  O  O137  1  0.18071742  0.75431425  0.81996853  1.0
  O  O138  1  0.68051469  0.67477478  0.48091900  1.0
  O  O139  1  0.97855240  0.99288727  0.02864163  1.0
