# generated using pymatgen
data_Al2H11C24Cl(O5F)2
_symmetry_space_group_name_H-M   'P 1'
_cell_length_a   6.67739226
_cell_length_b   11.13621939
_cell_length_c   17.77557117
_cell_angle_alpha   88.95376059
_cell_angle_beta   79.34316237
_cell_angle_gamma   72.61003732
_symmetry_Int_Tables_number   1
_chemical_formula_structural   Al2H11C24Cl(O5F)2
_chemical_formula_sum   'Al2 H11 C24 Cl1 O10 F2'
_cell_volume   1238.66965166
_cell_formula_units_Z   1
loop_
 _symmetry_equiv_pos_site_id
 _symmetry_equiv_pos_as_xyz
  1  'x, y, z'
loop_
 _atom_site_type_symbol
 _atom_site_label
 _atom_site_symmetry_multiplicity
 _atom_site_fract_x
 _atom_site_fract_y
 _atom_site_fract_z
 _atom_site_occupancy
  Al  Al0  1  0.99789262  0.50742337  0.49800094  1.0
  Al  Al1  1  0.49624909  0.51176658  0.49729228  1.0
  H  H2  1  0.34787262  0.36036993  0.45585021  1.0
  H  H3  1  0.66208055  0.59481569  0.58614061  1.0
  H  H4  1  0.37502592  0.88964952  0.45588873  1.0
  H  H5  1  0.72924966  0.88877479  0.54066977  1.0
  H  H6  1  0.24882549  0.12577874  0.45901528  1.0
  H  H7  1  0.18903382  0.47986614  0.26930884  1.0
  H  H8  1  0.27324132  0.46549947  0.12554050  1.0
  H  H9  1  0.51934244  0.56182888  0.26474143  1.0
  H  H10  1  0.48403223  0.44349692  0.73015455  1.0
  H  H11  1  0.81507712  0.51060688  0.72973671  1.0
  H  H12  1  0.74190532  0.50494104  0.87284186  1.0
  C  C13  1  0.80391645  0.52094804  0.36057073  1.0
  C  C14  1  0.86119582  0.28091414  0.50036223  1.0
  C  C15  1  0.19067067  0.49440146  0.63672150  1.0
  C  C16  1  0.12890518  0.73536778  0.49533549  1.0
  C  C17  1  0.92146879  0.14051018  0.50293969  1.0
  C  C18  1  0.05824963  0.87585551  0.49670097  1.0
  C  C19  1  0.77529771  0.07247397  0.52758615  1.0
  C  C20  1  0.20699464  0.94173213  0.47472017  1.0
  C  C21  1  0.84283864  0.94116371  0.52268647  1.0
  C  C22  1  0.13695713  0.07240786  0.47696960  1.0
  C  C23  1  0.85090397  0.52052445  0.27529988  1.0
  C  C24  1  0.06275074  0.49476615  0.23601663  1.0
  C  C25  1  0.10934633  0.48621908  0.15656951  1.0
  C  C26  1  0.94463959  0.50375824  0.11387222  1.0
  C  C27  1  0.73328304  0.53303139  0.15527842  1.0
  C  C28  1  0.68388526  0.54109691  0.23438208  1.0
  C  C29  1  0.98904824  0.49128204  0.03323867  1.0
  C  C30  1  0.02982549  0.47941809  0.96347579  1.0
  C  C31  1  0.07032342  0.47346439  0.88273429  1.0
  C  C32  1  0.27849931  0.45324112  0.84006221  1.0
  C  C33  1  0.32163954  0.45741997  0.76111878  1.0
  C  C34  1  0.15178195  0.48066050  0.72135218  1.0
  C  C35  1  0.94397009  0.49501655  0.76180713  1.0
  C  C36  1  0.90319536  0.49204965  0.84109018  1.0
  Cl  Cl37  1  0.51061519  0.14485396  0.56864168  1.0
  O  O38  1  0.96194898  0.50353098  0.39448503  1.0
  O  O39  1  0.67418928  0.33851472  0.48931601  1.0
  O  O40  1  0.37881077  0.49221462  0.60397763  1.0
  O  O41  1  0.99063623  0.68016918  0.48984459  1.0
  O  O42  1  0.03049091  0.51034616  0.60386132  1.0
  O  O43  1  0.32211941  0.68215132  0.50126692  1.0
  O  O44  1  0.61132602  0.53519473  0.39323148  1.0
  O  O45  1  0.00543985  0.33169775  0.50652813  1.0
  O  O46  1  0.29316109  0.45103386  0.46494430  1.0
  O  O47  1  0.70365557  0.56211962  0.53360772  1.0
  F  F48  1  0.57225650  0.55259101  0.11499872  1.0
  F  F49  1  0.44259542  0.43108527  0.87904434  1.0
