# generated using pymatgen
data_Hf3H25C25O16
_symmetry_space_group_name_H-M   'P 1'
_cell_length_a   15.38872558
_cell_length_b   17.34873372
_cell_length_c   25.50310162
_cell_angle_alpha   88.70165016
_cell_angle_beta   89.82792985
_cell_angle_gamma   64.73899352
_symmetry_Int_Tables_number   1
_chemical_formula_structural   Hf3H25C25O16
_chemical_formula_sum   'Hf12 H100 C100 O64'
_cell_volume   6155.84670267
_cell_formula_units_Z   4
loop_
 _symmetry_equiv_pos_site_id
 _symmetry_equiv_pos_as_xyz
  1  'x, y, z'
loop_
 _atom_site_type_symbol
 _atom_site_label
 _atom_site_symmetry_multiplicity
 _atom_site_fract_x
 _atom_site_fract_y
 _atom_site_fract_z
 _atom_site_occupancy
  Hf  Hf0  1  0.95317292  0.10119383  0.96662586  1.0
  Hf  Hf1  1  0.08817266  0.81648624  0.04592747  1.0
  Hf  Hf2  1  0.85732119  0.95537419  0.99964754  1.0
  Hf  Hf3  1  0.18475979  0.96121223  0.01285251  1.0
  Hf  Hf4  1  0.98048101  0.02378106  0.09622246  1.0
  Hf  Hf5  1  0.06322030  0.89394334  0.91834646  1.0
  Hf  Hf6  1  0.09900873  0.80126813  0.46549703  1.0
  Hf  Hf7  1  0.96333921  0.07831679  0.54645748  1.0
  Hf  Hf8  1  0.19767023  0.93814572  0.50847540  1.0
  Hf  Hf9  1  0.86461118  0.94239355  0.50207328  1.0
  Hf  Hf10  1  0.05722297  0.86778729  0.59566071  1.0
  Hf  Hf11  1  0.00140819  0.01310288  0.41822707  1.0
  H  H12  1  0.06110524  0.12480499  0.04836037  1.0
  H  H13  1  0.92302856  0.89086324  0.11100082  1.0
  H  H14  1  0.23599320  0.79608640  0.97391031  1.0
  H  H15  1  0.87643727  0.01538434  0.89767313  1.0
  H  H16  1  0.79166720  0.11911048  0.12499382  1.0
  H  H17  1  0.75290910  0.94593580  0.91774034  1.0
  H  H18  1  0.98407595  0.79588402  0.87409040  1.0
  H  H19  1  0.09834684  0.02870387  0.16869274  1.0
  H  H20  1  0.24887419  0.05856948  0.06430918  1.0
  H  H21  1  0.30909733  0.95610969  0.94055686  1.0
  H  H22  1  0.24677321  0.88721856  0.91003884  1.0
  H  H23  1  0.94609576  0.98092982  0.19208074  1.0
  H  H24  1  0.17676487  0.72173417  0.13132377  1.0
  H  H25  1  0.89583669  0.14922724  0.86134844  1.0
  H  H26  1  0.00311110  0.95126003  0.81975078  1.0
  H  H27  1  0.15750722  0.03620877  0.11518681  1.0
  H  H28  1  0.07657583  0.71565877  0.12483757  1.0
  H  H29  1  0.73393214  0.95435249  0.07199310  1.0
  H  H30  1  0.78698432  0.03699835  0.09731872  1.0
  H  H31  1  0.18699960  0.90472715  0.85308879  1.0
  H  H32  1  0.89089422  0.87666356  0.89855326  1.0
  H  H33  1  0.99194788  0.05839020  0.85996318  1.0
  H  H34  1  0.97895019  0.77477866  0.54060138  1.0
  H  H35  1  0.12076633  0.99388685  0.61759178  1.0
  H  H36  1  0.82484888  0.10901873  0.46711212  1.0
  H  H37  1  0.18735389  0.88972241  0.40360172  1.0
  H  H38  1  0.23848022  0.76668004  0.63538728  1.0
  H  H39  1  0.31515994  0.95382492  0.43336500  1.0
  H  H40  1  0.08921305  0.11215076  0.38364017  1.0
  H  H41  1  0.92997336  0.86084898  0.66134428  1.0
  H  H42  1  0.78278357  0.85270258  0.54998493  1.0
  H  H43  1  0.70646491  0.03730767  0.44638471  1.0
  H  H44  1  0.88346489  0.01210728  0.34603976  1.0
  H  H45  1  0.08126664  0.90321210  0.69332834  1.0
  H  H46  1  0.86814632  0.16918898  0.62906086  1.0
  H  H47  1  0.16648031  0.76086191  0.36175193  1.0
  H  H48  1  0.06916284  0.96385452  0.32008539  1.0
  H  H49  1  0.87594857  0.86148316  0.60464393  1.0
  H  H50  1  0.96949058  0.17493394  0.62615550  1.0
  H  H51  1  0.35600934  0.83899023  0.55763550  1.0
  H  H52  1  0.25204091  0.84705744  0.60750792  1.0
  H  H53  1  0.81628946  0.02537593  0.39946494  1.0
  H  H54  1  0.17840024  0.02620901  0.40836170  1.0
  H  H55  1  0.07366961  0.85399948  0.35855412  1.0
  H  H56  1  0.58755900  0.72634842  0.35015225  1.0
  H  H57  1  0.60032100  0.50056976  0.43002785  1.0
  H  H58  1  0.43272487  0.58109900  0.45968312  1.0
  H  H59  1  0.42538782  0.80928985  0.38571565  1.0
  H  H60  1  0.74715023  0.50606922  0.47314343  1.0
  H  H61  1  0.80269103  0.41662490  0.31504969  1.0
  H  H62  1  0.88584776  0.26790356  0.34926598  1.0
  H  H63  1  0.82932435  0.35619844  0.50698154  1.0
  H  H64  1  0.90477209  0.52924620  0.36005622  1.0
  H  H65  1  0.65535211  0.69845674  0.44395676  1.0
  H  H66  1  0.74374443  0.77964274  0.47220860  1.0
  H  H67  1  0.99466530  0.60998550  0.39084052  1.0
  H  H68  1  0.61498689  0.51299278  0.20978921  1.0
  H  H69  1  0.78864876  0.65234779  0.20761852  1.0
  H  H70  1  0.79243489  0.64875408  0.30319911  1.0
  H  H71  1  0.61927382  0.50890105  0.30601763  1.0
  H  H72  1  0.98387336  0.61686700  0.11354151  1.0
  H  H73  1  0.73095104  0.78492709  0.02855247  1.0
  H  H74  1  0.64192025  0.70701536  0.06486721  1.0
  H  H75  1  0.89494509  0.53841387  0.15061095  1.0
  H  H76  1  0.57839748  0.51718908  0.09098940  1.0
  H  H77  1  0.58616699  0.73658793  0.16252437  1.0
  H  H78  1  0.41937004  0.82562727  0.13114678  1.0
  H  H79  1  0.40736744  0.60379295  0.06632035  1.0
  H  H80  1  0.86648210  0.27438501  0.16463108  1.0
  H  H81  1  0.79486987  0.37309753  0.00713281  1.0
  H  H82  1  0.72245332  0.52118480  0.04021000  1.0
  H  H83  1  0.79542920  0.42141392  0.19810748  1.0
  H  H84  1  0.38623337  0.38617664  0.54965591  1.0
  H  H85  1  0.20390605  0.45403115  0.68541318  1.0
  H  H86  1  0.12875350  0.60481473  0.65353282  1.0
  H  H87  1  0.30320253  0.53511854  0.51559285  1.0
  H  H88  1  0.40619050  0.14448297  0.64121934  1.0
  H  H89  1  0.16039293  0.37834382  0.60087080  1.0
  H  H90  1  0.07428832  0.29488101  0.57017986  1.0
  H  H91  1  0.32257966  0.06165030  0.60600261  1.0
  H  H92  1  0.40393094  0.24485964  0.54636161  1.0
  H  H93  1  0.52600726  0.27652021  0.69147361  1.0
  H  H94  1  0.68815870  0.20080096  0.65548730  1.0
  H  H95  1  0.56709633  0.16167375  0.51252074  1.0
  H  H96  1  0.26824060  0.24822394  0.80992587  1.0
  H  H97  1  0.41057328  0.41448185  0.80058421  1.0
  H  H98  1  0.41202445  0.40673447  0.70476272  1.0
  H  H99  1  0.27718363  0.23472467  0.71499271  1.0
  H  H100  1  0.24300501  0.49508984  0.81424684  1.0
  H  H101  1  0.31281463  0.39676091  0.97260904  1.0
  H  H102  1  0.23428216  0.54479391  0.00540293  1.0
  H  H103  1  0.16743811  0.64198292  0.84727825  1.0
  H  H104  1  0.39661533  0.21030296  0.94873466  1.0
  H  H105  1  0.14611507  0.37692414  0.86035118  1.0
  H  H106  1  0.05758568  0.29540620  0.89468962  1.0
  H  H107  1  0.30898113  0.12932596  0.98150768  1.0
  H  H108  1  0.45728290  0.18147001  0.85143761  1.0
  H  H109  1  0.45827358  0.40213961  0.92484394  1.0
  H  H110  1  0.62884594  0.31751377  0.95088878  1.0
  H  H111  1  0.62273245  0.09502089  0.88329116  1.0
  C  C112  1  0.33599509  0.34220184  0.87293061  1.0
  C  C113  1  0.34777832  0.31587042  0.64181482  1.0
  C  C114  1  0.70362660  0.57500113  0.14060441  1.0
  C  C115  1  0.71422142  0.56575673  0.37268946  1.0
  C  C116  1  0.87560772  0.22554884  0.06467461  1.0
  C  C117  1  0.13360082  0.14795421  0.95623603  1.0
  C  C118  1  0.73272265  0.14377892  0.94268993  1.0
  C  C119  1  0.90764231  0.76505149  0.05219834  1.0
  C  C120  1  0.15279508  0.69148442  0.94784776  1.0
  C  C121  1  0.30781629  0.77655460  0.07335234  1.0
  C  C122  1  0.16587407  0.66955215  0.56393795  1.0
  C  C123  1  0.91927601  0.75845156  0.44787319  1.0
  C  C124  1  0.32387058  0.75464881  0.45026224  1.0
  C  C125  1  0.14772867  0.12083334  0.56331250  1.0
  C  C126  1  0.90906281  0.21279972  0.44988756  1.0
  C  C127  1  0.73592040  0.12258945  0.56052404  1.0
  C  C128  1  0.55471274  0.69466917  0.37533048  1.0
  C  C129  1  0.60813977  0.60840888  0.38989775  1.0
  C  C130  1  0.56216274  0.56798076  0.41938526  1.0
  C  C131  1  0.46764295  0.61341547  0.43658757  1.0
  C  C132  1  0.41920496  0.70103945  0.42644628  1.0
  C  C133  1  0.46321137  0.74113192  0.39475011  1.0
  C  C134  1  0.77614618  0.45377015  0.44579492  1.0
  C  C135  1  0.76590670  0.47208735  0.39152091  1.0
  C  C136  1  0.80741245  0.40430774  0.35719563  1.0
  C  C137  1  0.85480344  0.32059731  0.37616475  1.0
  C  C138  1  0.86204114  0.30277226  0.43013589  1.0
  C  C139  1  0.82271820  0.37040457  0.46495785  1.0
  C  C140  1  0.86891095  0.58460582  0.38456662  1.0
  C  C141  1  0.77124571  0.61108329  0.39692300  1.0
  C  C142  1  0.72900596  0.67878258  0.43113243  1.0
  C  C143  1  0.77897151  0.72415174  0.44788606  1.0
  C  C144  1  0.87373520  0.70164731  0.43227906  1.0
  C  C145  1  0.91984350  0.62927107  0.40183002  1.0
  C  C146  1  0.65620593  0.54118944  0.23017392  1.0
  C  C147  1  0.70674222  0.57833621  0.20085006  1.0
  C  C148  1  0.75294114  0.61865078  0.22847617  1.0
  C  C149  1  0.75512497  0.61657021  0.28341786  1.0
  C  C150  1  0.71131895  0.57400520  0.31239233  1.0
  C  C151  1  0.65856042  0.53892027  0.28453826  1.0
  C  C152  1  0.90830146  0.63718532  0.10351985  1.0
  C  C153  1  0.86169763  0.70873781  0.07031527  1.0
  C  C154  1  0.76619643  0.73119664  0.05578248  1.0
  C  C155  1  0.71639178  0.68711621  0.07663676  1.0
  C  C156  1  0.75965119  0.62022089  0.11338452  1.0
  C  C157  1  0.85796213  0.59340451  0.12443167  1.0
  C  C158  1  0.54374708  0.58425920  0.10100044  1.0
  C  C159  1  0.59584245  0.62160080  0.12652842  1.0
  C  C160  1  0.54766797  0.70769865  0.14037695  1.0
  C  C161  1  0.45416859  0.75742375  0.12384039  1.0
  C  C162  1  0.40376473  0.72024834  0.09615764  1.0
  C  C163  1  0.44750123  0.63290826  0.08684036  1.0
  C  C164  1  0.83340652  0.32896913  0.13770831  1.0
  C  C165  1  0.83259597  0.31452563  0.08403992  1.0
  C  C166  1  0.79302356  0.38465245  0.04903569  1.0
  C  C167  1  0.75258103  0.46714558  0.06780495  1.0
  C  C168  1  0.75001385  0.48226025  0.12189302  1.0
  C  C169  1  0.79323282  0.41185441  0.15621737  1.0
  C  C170  1  0.32864956  0.43296549  0.57238678  1.0
  C  C171  1  0.30157830  0.40880215  0.62025999  1.0
  C  C172  1  0.22740249  0.47152944  0.64853327  1.0
  C  C173  1  0.18451662  0.55594936  0.63081005  1.0
  C  C174  1  0.21212118  0.57912836  0.58282825  1.0
  C  C175  1  0.28315720  0.51677354  0.55329314  1.0
  C  C176  1  0.33357286  0.17790842  0.62532916  1.0
  C  C177  1  0.29001240  0.26757767  0.62280711  1.0
  C  C178  1  0.19598809  0.30896103  0.60329478  1.0
  C  C179  1  0.14732059  0.26225383  0.58574257  1.0
  C  C180  1  0.19346551  0.17325579  0.58578798  1.0
  C  C181  1  0.28712582  0.13113911  0.60610390  1.0
  C  C182  1  0.46588549  0.23636551  0.57044357  1.0
  C  C183  1  0.45169592  0.26878912  0.62141213  1.0
  C  C184  1  0.53336582  0.25499649  0.65131666  1.0
  C  C185  1  0.62568071  0.21140985  0.63117896  1.0
  C  C186  1  0.63866923  0.17714671  0.58122695  1.0
  C  C187  1  0.55746970  0.18984538  0.55108349  1.0
  C  C188  1  0.30081484  0.28308657  0.78754011  1.0
  C  C189  1  0.33569960  0.33462266  0.81292534  1.0
  C  C190  1  0.37928672  0.37612843  0.78192150  1.0
  C  C191  1  0.38236329  0.36993495  0.72773835  1.0
  C  C192  1  0.34611421  0.31872913  0.70203526  1.0
  C  C193  1  0.30630553  0.27503158  0.73304042  1.0
  C  C194  1  0.24311695  0.50495148  0.85620627  1.0
  C  C195  1  0.28713502  0.43507286  0.89079125  1.0
  C  C196  1  0.28206399  0.45055915  0.94489305  1.0
  C  C197  1  0.23793591  0.53295850  0.96350063  1.0
  C  C198  1  0.19714109  0.60273020  0.92833585  1.0
  C  C199  1  0.19950651  0.58783095  0.87459499  1.0
  C  C200  1  0.32280259  0.22943917  0.93594752  1.0
  C  C201  1  0.27982911  0.29667489  0.89954770  1.0
  C  C202  1  0.18229035  0.32225219  0.88690620  1.0
  C  C203  1  0.13215313  0.27712456  0.90609500  1.0
  C  C204  1  0.17879485  0.20525016  0.93899940  1.0
  C  C205  1  0.27338406  0.18386851  0.95492145  1.0
  C  C206  1  0.49380954  0.21129438  0.87432827  1.0
  C  C207  1  0.44363793  0.29717924  0.88819976  1.0
  C  C208  1  0.49412372  0.33515561  0.91472471  1.0
  C  C209  1  0.59030090  0.28753411  0.92976786  1.0
  C  C210  1  0.63607039  0.20030951  0.92025182  1.0
  C  C211  1  0.58714144  0.16288059  0.89149004  1.0
  O  O212  1  0.95947829  0.11877896  0.87682334  1.0
  O  O213  1  0.88646958  0.21573027  0.01529320  1.0
  O  O214  1  0.79979040  0.16911519  0.94057645  1.0
  O  O215  1  0.19203421  0.07640311  0.97636156  1.0
  O  O216  1  0.74001498  0.07298596  0.96172515  1.0
  O  O217  1  0.04339327  0.17233895  0.95019288  1.0
  O  O218  1  0.89949538  0.16517483  0.09924977  1.0
  O  O219  1  0.90604338  0.04347956  0.02322690  1.0
  O  O220  1  0.04925230  0.07744301  0.03646031  1.0
  O  O221  1  0.91803912  0.00024401  0.92827509  1.0
  O  O222  1  0.07645543  0.99369514  0.95386265  1.0
  O  O223  1  0.28826490  0.91348511  0.95315933  1.0
  O  O224  1  0.82403434  0.05720404  0.12412107  1.0
  O  O225  1  0.10189127  0.92411911  0.06516146  1.0
  O  O226  1  0.95242842  0.90893206  0.08249457  1.0
  O  O227  1  0.99823742  0.86879126  0.98485282  1.0
  O  O228  1  0.17445258  0.84181231  0.98270988  1.0
  O  O229  1  0.75076236  0.99778204  0.05659175  1.0
  O  O230  1  0.85233946  0.83517682  0.03018965  1.0
  O  O231  1  0.99745014  0.74157464  0.06155768  1.0
  O  O232  1  0.04095212  0.96472329  0.84533962  1.0
  O  O233  1  0.14823343  0.70099074  0.99740136  1.0
  O  O234  1  0.81293423  0.90734898  0.93425245  1.0
  O  O235  1  0.95542682  0.85784785  0.87546763  1.0
  O  O236  1  0.20741689  0.86631458  0.88385641  1.0
  O  O237  1  0.12347403  0.75225865  0.91335354  1.0
  O  O238  1  0.10664730  0.75461062  0.13041998  1.0
  O  O239  1  0.23657276  0.00965123  0.07373631  1.0
  O  O240  1  0.24233017  0.74858698  0.07327419  1.0
  O  O241  1  0.29922853  0.84724420  0.05457278  1.0
  O  O242  1  0.09264244  0.05859913  0.13499466  1.0
  O  O243  1  0.99750507  0.98705886  0.17312025  1.0
  O  O244  1  0.10203638  0.79229952  0.37529467  1.0
  O  O245  1  0.16137977  0.68349380  0.51453030  1.0
  O  O246  1  0.25504208  0.73281346  0.44413128  1.0
  O  O247  1  0.86078334  0.82990789  0.46551169  1.0
  O  O248  1  0.31925620  0.82007559  0.47402011  1.0
  O  O249  1  0.01003365  0.73326607  0.44336239  1.0
  O  O250  1  0.13376499  0.72623285  0.59913096  1.0
  O  O251  1  0.14032692  0.85231989  0.52618749  1.0
  O  O252  1  0.99497216  0.82148095  0.53087176  1.0
  O  O253  1  0.14355783  0.90273781  0.43291141  1.0
  O  O254  1  0.97934997  0.91190610  0.44871997  1.0
  O  O255  1  0.76939538  0.99379888  0.43751635  1.0
  O  O256  1  0.20906334  0.82858919  0.63230023  1.0
  O  O257  1  0.94169993  0.97182617  0.56104431  1.0
  O  O258  1  0.09363536  0.97982613  0.58695804  1.0
  O  O259  1  0.05972503  0.02914762  0.48902590  1.0
  O  O260  1  0.88481650  0.06206008  0.47782528  1.0
  O  O261  1  0.29687769  0.88447013  0.56986112  1.0
  O  O262  1  0.20428382  0.05119880  0.54359803  1.0
  O  O263  1  0.05597529  0.14835441  0.56630644  1.0
  O  O264  1  0.03013967  0.94918042  0.34478252  1.0
  O  O265  1  0.90837107  0.19919391  0.49929317  1.0
  O  O266  1  0.25200248  0.98882514  0.44705228  1.0
  O  O267  1  0.11594743  0.05017144  0.38303870  1.0
  O  O268  1  0.86026465  0.04767354  0.37685219  1.0
  O  O269  1  0.94527857  0.15498478  0.41552678  1.0
  O  O270  1  0.93821906  0.13626661  0.63003248  1.0
  O  O271  1  0.80185507  0.89669367  0.56047717  1.0
  O  O272  1  0.80587590  0.14166723  0.57143548  1.0
  O  O273  1  0.74171351  0.06096955  0.53285864  1.0
  O  O274  1  0.93826035  0.83392482  0.62723603  1.0
  O  O275  1  0.03046181  0.90046991  0.67220847  1.0
