# generated using pymatgen
data_Zn4H39C72(N5O2)5
_symmetry_space_group_name_H-M   'P 1'
_cell_length_a   20.04306516
_cell_length_b   20.26891042
_cell_length_c   20.66230260
_cell_angle_alpha   104.48339038
_cell_angle_beta   106.85442452
_cell_angle_gamma   112.69752285
_symmetry_Int_Tables_number   1
_chemical_formula_structural   Zn4H39C72(N5O2)5
_chemical_formula_sum   'Zn4 H39 C72 N25 O10'
_cell_volume   6759.87132866
_cell_formula_units_Z   1
loop_
 _symmetry_equiv_pos_site_id
 _symmetry_equiv_pos_as_xyz
  1  'x, y, z'
loop_
 _atom_site_type_symbol
 _atom_site_label
 _atom_site_symmetry_multiplicity
 _atom_site_fract_x
 _atom_site_fract_y
 _atom_site_fract_z
 _atom_site_occupancy
  Zn  Zn0  1  0.39530411  0.37912907  0.50495734  1.0
  Zn  Zn1  1  0.61569845  0.60404080  0.50816974  1.0
  Zn  Zn2  1  0.41259011  0.48008755  0.38868328  1.0
  Zn  Zn3  1  0.59382237  0.49658865  0.61658067  1.0
  H  H4  1  0.72854406  0.55977151  0.45582098  1.0
  H  H5  1  0.43023746  0.45956658  0.22519172  1.0
  H  H6  1  0.42143421  0.24516574  0.42056239  1.0
  H  H7  1  0.71499153  0.43320459  0.59630862  1.0
  H  H8  1  0.25164270  0.35427841  0.24495380  1.0
  H  H9  1  0.34897283  0.42478072  0.66333970  1.0
  H  H10  1  0.36913017  0.60096928  0.47669597  1.0
  H  H11  1  0.72343383  0.65261883  0.78225442  1.0
  H  H12  1  0.69572045  0.77478085  0.64089445  1.0
  H  H13  1  0.57445328  0.62609697  0.72059639  1.0
  H  H14  1  0.39438626  0.61674077  0.32796161  1.0
  H  H15  1  0.47541932  0.00373725  0.31667229  1.0
  H  H16  1  0.60760509  0.97751019  0.35396551  1.0
  H  H17  1  0.39935237  0.89328978  0.36920504  1.0
  H  H18  1  0.47335429  0.01644244  0.51259123  1.0
  H  H19  1  0.60611864  0.98977967  0.54959516  1.0
  H  H20  1  0.68185818  0.10016662  0.49669680  1.0
  H  H21  1  0.95615531  0.39925184  0.51091666  1.0
  H  H22  1  0.02083566  0.46096895  0.42008072  1.0
  H  H23  1  0.10892768  0.50094793  0.63488271  1.0
  H  H24  1  0.06326805  0.61673833  0.66683572  1.0
  H  H25  1  0.12753681  0.67841595  0.57642105  1.0
  H  H26  1  0.97546763  0.57756716  0.45257265  1.0
  H  H27  1  0.48779616  0.49124087  0.13800618  1.0
  H  H28  1  0.60021298  0.72837050  0.30175748  1.0
  H  H29  1  0.59624692  0.67819387  0.97129910  1.0
  H  H30  1  0.59295884  0.77612665  0.20208939  1.0
  H  H31  1  0.58667235  0.62755462  0.84456977  1.0
  H  H32  1  0.72883759  0.75744032  0.87420384  1.0
  H  H33  1  0.80243128  0.87867439  0.99046664  1.0
  H  H34  1  0.98578066  0.01281277  0.17992161  1.0
  H  H35  1  0.12253669  0.11305485  0.27782790  1.0
  H  H36  1  0.80097567  0.89633317  0.75389568  1.0
  H  H37  1  0.87277171  0.01748871  0.87077960  1.0
  H  H38  1  0.25373643  0.21095161  0.36871250  1.0
  H  H39  1  0.61071897  0.76233198  0.53367791  1.0
  H  H40  1  0.24680664  0.40685527  0.52787159  1.0
  H  H41  1  0.62198597  0.33932143  0.63333998  1.0
  H  H42  1  0.11486595  0.27515049  0.17755052  1.0
  C  C43  1  0.26620489  0.25579291  0.34704478  1.0
  C  C44  1  0.71360846  0.52998926  0.49070328  1.0
  C  C45  1  0.48533074  0.50273376  0.27465788  1.0
  C  C46  1  0.57025169  0.32701737  0.58617311  1.0
  C  C47  1  0.59933521  0.60452245  0.35987174  1.0
  C  C48  1  0.46801719  0.27841445  0.47706596  1.0
  C  C49  1  0.70678010  0.46532845  0.56269319  1.0
  C  C50  1  0.26460265  0.32884100  0.28418070  1.0
  C  C51  1  0.21527970  0.25781338  0.28496848  1.0
  C  C52  1  0.75276441  0.49577946  0.52650526  1.0
  C  C53  1  0.54574438  0.57424080  0.28401286  1.0
  C  C54  1  0.52758224  0.26396637  0.51536675  1.0
  C  C55  1  0.40556125  0.46594718  0.66711858  1.0
  C  C56  1  0.55642949  0.71494159  0.48597189  1.0
  C  C57  1  0.34715624  0.54784087  0.48590619  1.0
  C  C58  1  0.70950017  0.67066616  0.73710762  1.0
  C  C59  1  0.69564392  0.73298213  0.66504928  1.0
  C  C60  1  0.28418977  0.44780041  0.51133500  1.0
  C  C61  1  0.52109588  0.56919110  0.69702489  1.0
  C  C62  1  0.44624850  0.64077548  0.38022037  1.0
  C  C63  1  0.45798123  0.54536745  0.71787742  1.0
  C  C64  1  0.50664096  0.71949917  0.42511314  1.0
  C  C65  1  0.28793260  0.51849600  0.51056834  1.0
  C  C66  1  0.72500811  0.74560753  0.74018690  1.0
  C  C67  1  0.57780894  0.98649507  0.38942080  1.0
  C  C68  1  0.50418939  0.00030482  0.36854984  1.0
  C  C69  1  0.53887891  0.19958509  0.48965128  1.0
  C  C70  1  0.51598899  0.78781444  0.41446697  1.0
  C  C71  1  0.61896220  0.05390290  0.46859924  1.0
  C  C72  1  0.54509695  0.06911156  0.44834186  1.0
  C  C73  1  0.57704260  0.99408232  0.49835428  1.0
  C  C74  1  0.53546257  0.92478409  0.41897033  1.0
  C  C75  1  0.50298108  0.00663611  0.47726338  1.0
  C  C76  1  0.46196081  0.94020536  0.39797800  1.0
  C  C77  1  0.54559377  0.14167121  0.46762007  1.0
  C  C78  1  0.52763529  0.85033119  0.41099075  1.0
  C  C79  1  0.02892484  0.49512778  0.47471123  1.0
  C  C80  1  0.99495577  0.46121865  0.52526654  1.0
  C  C81  1  0.82583275  0.49994869  0.53105202  1.0
  C  C82  1  0.23690994  0.54525578  0.52641787  1.0
  C  C83  1  0.00586189  0.56047219  0.49282904  1.0
  C  C84  1  0.96905116  0.52582069  0.54278783  1.0
  C  C85  1  0.08910803  0.61623262  0.56162375  1.0
  C  C86  1  0.11426783  0.55118771  0.54338288  1.0
  C  C87  1  0.05427840  0.58219570  0.61193035  1.0
  C  C88  1  0.07805089  0.51718192  0.59408339  1.0
  C  C89  1  0.89266881  0.51181673  0.53839304  1.0
  C  C90  1  0.18462807  0.55530167  0.53836591  1.0
  C  C91  1  0.46097233  0.58838947  0.78791639  1.0
  C  C92  1  0.53481938  0.62718585  0.85181649  1.0
  C  C93  1  0.54116492  0.65668134  0.92256759  1.0
  C  C94  1  0.47295820  0.64921094  0.93349702  1.0
  C  C95  1  0.40138797  0.62127078  0.87061619  1.0
  C  C96  1  0.39596593  0.59156446  0.79948938  1.0
  C  C97  1  0.50505627  0.58107154  0.09794694  1.0
  C  C98  1  0.50956748  0.55370921  0.15332034  1.0
  C  C99  1  0.53481911  0.66176716  0.11426102  1.0
  C  C100  1  0.54471021  0.60609750  0.22786778  1.0
  C  C101  1  0.57431014  0.68673441  0.24462706  1.0
  C  C102  1  0.57033408  0.71385736  0.18897604  1.0
  C  C103  1  0.13206178  0.20079888  0.23333649  1.0
  C  C104  1  0.08874100  0.21774079  0.17905724  1.0
  C  C105  1  0.01177775  0.16187775  0.12599105  1.0
  C  C106  1  0.97468695  0.08534680  0.12303890  1.0
  C  C107  1  0.01502828  0.07141124  0.18144894  1.0
  C  C108  1  0.09199809  0.12750252  0.23528801  1.0
  C  C109  1  0.80098809  0.88153534  0.93817028  1.0
  C  C110  1  0.76102455  0.81440782  0.87335722  1.0
  C  C111  1  0.84341844  0.95513804  0.93750436  1.0
  C  C112  1  0.76176022  0.81775184  0.80596842  1.0
  C  C113  1  0.79987225  0.89204159  0.80518342  1.0
  C  C114  1  0.84002416  0.95981170  0.86997637  1.0
  N  N115  1  0.33906308  0.32062546  0.38132412  1.0
  N  N116  1  0.65109324  0.52233387  0.50652761  1.0
  N  N117  1  0.50152792  0.49274568  0.33932816  1.0
  N  N118  1  0.53850638  0.37459542  0.59016110  1.0
  N  N119  1  0.57189341  0.55465884  0.39027795  1.0
  N  N120  1  0.47494227  0.34404916  0.52219399  1.0
  N  N121  1  0.64668605  0.48224082  0.55037469  1.0
  N  N122  1  0.33772450  0.36563469  0.34156650  1.0
  N  N123  1  0.43638409  0.44440386  0.62175554  1.0
  N  N124  1  0.52864748  0.63988982  0.47782800  1.0
  N  N125  1  0.37551836  0.49763179  0.47222530  1.0
  N  N126  1  0.67329710  0.61809712  0.66637735  1.0
  N  N127  1  0.66425566  0.65691473  0.62148192  1.0
  N  N128  1  0.33591064  0.43618175  0.48770478  1.0
  N  N129  1  0.50755517  0.50869318  0.63950736  1.0
  N  N130  1  0.46050805  0.59466942  0.41230025  1.0
  N  N131  1  0.47017185  0.64662298  0.99945400  1.0
  N  N132  1  0.53366413  0.69037364  0.05912927  1.0
  N  N133  1  0.90874747  0.01833708  0.06244772  1.0
  N  N134  1  0.89807204  0.02492819  0.00109368  1.0
  N  N135  1  0.47635199  0.52240731  0.02306236  1.0
  N  N136  1  0.33255902  0.62034982  0.88279052  1.0
  N  N137  1  0.32259675  0.56823358  0.73449971  1.0
  N  N138  1  0.96929958  0.18731923  0.07544605  1.0
  N  N139  1  0.67279961  0.67521198  0.40858752  1.0
  O  O140  1  0.52165456  0.53560186  0.99202303  1.0
  O  O141  1  0.41164003  0.46164857  0.99872765  1.0
  O  O142  1  0.34823119  0.67140165  0.94141856  1.0
  O  O143  1  0.26442994  0.56822877  0.83515266  1.0
  O  O144  1  0.28192234  0.49836176  0.69098202  1.0
  O  O145  1  0.30983625  0.62167620  0.72810496  1.0
  O  O146  1  0.90123748  0.17301566  0.06891237  1.0
  O  O147  1  0.00664784  0.22551310  0.04709413  1.0
  O  O148  1  0.70703996  0.72085766  0.38422189  1.0
  O  O149  1  0.70058808  0.68887118  0.47727705  1.0
