# generated using pymatgen
data_AlH15(C4O)6
_symmetry_space_group_name_H-M   'P 1'
_cell_length_a   3.98295530
_cell_length_b   28.53574328
_cell_length_c   28.53543375
_cell_angle_alpha   119.99966780
_cell_angle_beta   90.00028445
_cell_angle_gamma   89.99915506
_symmetry_Int_Tables_number   1
_chemical_formula_structural   AlH15(C4O)6
_chemical_formula_sum   'Al2 H30 C48 O12'
_cell_volume   2808.73771249
_cell_formula_units_Z   2
loop_
 _symmetry_equiv_pos_site_id
 _symmetry_equiv_pos_as_xyz
  1  'x, y, z'
loop_
 _atom_site_type_symbol
 _atom_site_label
 _atom_site_symmetry_multiplicity
 _atom_site_fract_x
 _atom_site_fract_y
 _atom_site_fract_z
 _atom_site_occupancy
  Al  Al0  1  0.01452263  0.49999794  0.99999813  1.0
  Al  Al1  1  0.01462448  0.83333707  0.66666863  1.0
  H  H2  1  0.21930617  0.69856598  0.51284679  1.0
  H  H3  1  0.21232453  0.65403419  0.41236559  1.0
  H  H4  1  0.75627533  0.78920353  0.42191885  1.0
  H  H5  1  0.78745774  0.83093524  0.52219247  1.0
  H  H6  1  0.75626528  0.54412278  0.24474963  1.0
  H  H7  1  0.21227016  0.67929719  0.25430311  1.0
  H  H8  1  0.21921285  0.63476216  0.15381827  1.0
  H  H9  1  0.78741849  0.50238526  0.14446871  1.0
  H  H10  1  0.50537329  0.72163539  0.33569385  1.0
  H  H11  1  0.50537911  0.61170358  0.33097229  1.0
  H  H12  1  0.21919459  0.81427620  0.80142734  1.0
  H  H13  1  0.21223106  0.75832678  0.84596031  1.0
  H  H14  1  0.75632136  0.63272026  0.71079860  1.0
  H  H15  1  0.78749798  0.69126087  0.66906582  1.0
  H  H16  1  0.75635972  0.70061064  0.95586733  1.0
  H  H17  1  0.21226306  0.57500802  0.82070140  1.0
  H  H18  1  0.21917881  0.51905733  0.86523448  1.0
  H  H19  1  0.78748371  0.64207163  0.99760466  1.0
  H  H20  1  0.50536669  0.61406087  0.77836322  1.0
  H  H21  1  0.50540065  0.71926862  0.88829957  1.0
  H  H22  1  0.21925857  0.98715367  0.68572191  1.0
  H  H23  1  0.21227530  0.08763417  0.74167162  1.0
  H  H24  1  0.75636900  0.07808160  0.86727933  1.0
  H  H25  1  0.78754280  0.97781091  0.80873901  1.0
  H  H26  1  0.75624781  0.25524828  0.79937171  1.0
  H  H27  1  0.21225248  0.24569728  0.92499017  1.0
  H  H28  1  0.21918764  0.34617981  0.98093911  1.0
  H  H29  1  0.78740625  0.35552454  0.85791003  1.0
  H  H30  1  0.50541285  0.16430581  0.88594066  1.0
  H  H31  1  0.50534043  0.16902632  0.78072789  1.0
  C  C32  1  0.51331676  0.41676590  0.95615625  1.0
  C  C33  1  0.51330740  0.53939123  0.08323084  1.0
  C  C34  1  0.51331001  0.54383251  0.96060617  1.0
  C  C35  1  0.51340050  0.79394295  0.58344259  1.0
  C  C36  1  0.51340542  0.78950193  0.70606077  1.0
  C  C37  1  0.51340871  0.91656369  0.71050098  1.0
  C  C38  1  0.50711157  0.76716773  0.52348341  1.0
  C  C39  1  0.34484224  0.71724058  0.49235490  1.0
  C  C40  1  0.34212098  0.69253195  0.43629134  1.0
  C  C41  1  0.48885942  0.71806737  0.40989304  1.0
  C  C42  1  0.64098549  0.76899383  0.44178312  1.0
  C  C43  1  0.65844964  0.79256021  0.49765852  1.0
  C  C44  1  0.48772738  0.69352401  0.35118829  1.0
  C  C45  1  0.48774972  0.63979830  0.31547179  1.0
  C  C46  1  0.64093490  0.56434527  0.22488945  1.0
  C  C47  1  0.48885972  0.61526734  0.25678484  1.0
  C  C48  1  0.34209500  0.64079464  0.23037812  1.0
  C  C49  1  0.34480438  0.61608342  0.17431010  1.0
  C  C50  1  0.50704283  0.56615195  0.14317221  1.0
  C  C51  1  0.65838956  0.54077164  0.16900593  1.0
  C  C52  1  0.50710833  0.75631653  0.73283097  1.0
  C  C53  1  0.34478890  0.77511360  0.78275669  1.0
  C  C54  1  0.34206190  0.74375892  0.80746636  1.0
  C  C55  1  0.48884218  0.69182657  0.78193012  1.0
  C  C56  1  0.64099816  0.67279286  0.73100843  1.0
  C  C57  1  0.65847298  0.70510244  0.70744393  1.0
  C  C58  1  0.48771715  0.65766589  0.80647431  1.0
  C  C59  1  0.48776232  0.67567156  0.86019943  1.0
  C  C60  1  0.64098236  0.66053771  0.93565147  1.0
  C  C61  1  0.48887432  0.64151060  0.88472904  1.0
  C  C62  1  0.34209620  0.58957866  0.85919934  1.0
  C  C63  1  0.34478728  0.55822347  0.88390941  1.0
  C  C64  1  0.50705109  0.57701369  0.93383802  1.0
  C  C65  1  0.65843136  0.62822507  0.95922042  1.0
  C  C66  1  0.50713184  0.97651683  0.74368268  1.0
  C  C67  1  0.34483414  0.00764672  0.72488705  1.0
  C  C68  1  0.34211762  0.06370941  0.75624177  1.0
  C  C69  1  0.48888251  0.09010803  0.80817498  1.0
  C  C70  1  0.64103289  0.05821638  0.82720691  1.0
  C  C71  1  0.65851229  0.00234338  0.79489923  1.0
  C  C72  1  0.48775015  0.14881132  0.84233474  1.0
  C  C73  1  0.48773284  0.18452715  0.82432329  1.0
  C  C74  1  0.64094613  0.27511148  0.83945714  1.0
  C  C75  1  0.48885760  0.24321616  0.85848184  1.0
  C  C76  1  0.34207664  0.26962047  0.91041390  1.0
  C  C77  1  0.34479327  0.32569028  0.94177306  1.0
  C  C78  1  0.50704014  0.35682605  0.92297658  1.0
  C  C79  1  0.65838804  0.33099017  0.87176156  1.0
  O  O80  1  0.75028491  0.55294223  0.99431018  1.0
  O  O81  1  0.75030513  0.44136218  0.94704968  1.0
  O  O82  1  0.75027101  0.50568660  0.05863407  1.0
  O  O83  1  0.28080092  0.50876504  0.94870637  1.0
  O  O84  1  0.28080813  0.55128972  0.06005864  1.0
  O  O85  1  0.28083298  0.43994249  0.99123084  1.0
  O  O86  1  0.75042515  0.89196881  0.71961272  1.0
  O  O87  1  0.75041408  0.82764586  0.60803197  1.0
  O  O88  1  0.75042529  0.78039019  0.67235788  1.0
  O  O89  1  0.28088099  0.89338952  0.67542609  1.0
  O  O90  1  0.28088042  0.82457422  0.71795946  1.0
  O  O91  1  0.28088827  0.78204453  0.60661609  1.0
