# generated using pymatgen
data_Zn4H22C29N2O17
_symmetry_space_group_name_H-M   'P 1'
_cell_length_a   18.02840815
_cell_length_b   18.23311126
_cell_length_c   18.43042779
_cell_angle_alpha   90.36477755
_cell_angle_beta   119.23629637
_cell_angle_gamma   119.17809121
_symmetry_Int_Tables_number   1
_chemical_formula_structural   Zn4H22C29N2O17
_chemical_formula_sum   'Zn8 H44 C58 N4 O34'
_cell_volume   4371.66700625
_cell_formula_units_Z   2
loop_
 _symmetry_equiv_pos_site_id
 _symmetry_equiv_pos_as_xyz
  1  'x, y, z'
loop_
 _atom_site_type_symbol
 _atom_site_label
 _atom_site_symmetry_multiplicity
 _atom_site_fract_x
 _atom_site_fract_y
 _atom_site_fract_z
 _atom_site_occupancy
  Zn  Zn0  1  0.59061699  0.29206301  0.38128641  1.0
  Zn  Zn1  1  0.59676953  0.30051853  0.21308208  1.0
  Zn  Zn2  1  0.40494179  0.70353788  0.61957938  1.0
  Zn  Zn3  1  0.40426907  0.70245383  0.78909559  1.0
  Zn  Zn4  1  0.41250289  0.29501639  0.20684471  1.0
  Zn  Zn5  1  0.58485513  0.87842110  0.78966926  1.0
  Zn  Zn6  1  0.41600296  0.12344648  0.20986817  1.0
  Zn  Zn7  1  0.58979941  0.70939335  0.79363116  1.0
  H  H8  1  0.91884720  0.34138964  0.48268392  1.0
  H  H9  1  0.91554811  0.41612498  0.56824764  1.0
  H  H10  1  0.08412083  0.51822729  0.65884227  1.0
  H  H11  1  0.08446834  0.43062754  0.57256187  1.0
  H  H12  1  0.90807446  0.50195256  0.35111549  1.0
  H  H13  1  0.90423525  0.56162564  0.42222488  1.0
  H  H14  1  0.08284061  0.65358321  0.50637539  1.0
  H  H15  1  0.08697886  0.59020444  0.43882185  1.0
  H  H16  1  0.33765652  0.93850231  0.34418566  1.0
  H  H17  1  0.36251528  0.95193785  0.01975091  1.0
  H  H18  1  0.66497112  0.63959437  0.62401023  1.0
  H  H19  1  0.66076791  0.59887891  0.00149103  1.0
  H  H20  1  0.64419282  0.05032946  0.64814524  1.0
  H  H21  1  0.65717617  0.05664071  0.99397984  1.0
  H  H22  1  0.34280909  0.37046787  0.37634122  1.0
  H  H23  1  0.35091805  0.40927418  0.00537235  1.0
  H  H24  1  0.64410238  0.14984407  0.55455066  1.0
  H  H25  1  0.66563093  0.15903822  0.09388524  1.0
  H  H26  1  0.33459994  0.46288638  0.46972136  1.0
  H  H27  1  0.34975807  0.50541563  0.90836630  1.0
  H  H28  1  0.10160902  0.93526615  0.04994006  1.0
  H  H29  1  0.90880753  0.83807590  0.95304507  1.0
  H  H30  1  0.90018511  0.06940509  0.94783299  1.0
  H  H31  1  0.09300119  0.16665860  0.04556874  1.0
  H  H32  1  0.83242681  0.20475743  0.37390698  1.0
  H  H33  1  0.74414649  0.23565581  0.33116283  1.0
  H  H34  1  0.77221151  0.20227885  0.26273045  1.0
  H  H35  1  0.87090707  0.36704532  0.30932368  1.0
  H  H36  1  0.95406848  0.33189683  0.35575966  1.0
  H  H37  1  0.76783919  0.38048231  0.56874711  1.0
  H  H38  1  0.88027787  0.46086359  0.67028268  1.0
  H  H39  1  0.77750570  0.47408679  0.61332732  1.0
  H  H40  1  0.91226726  0.57454167  0.59053061  1.0
  H  H41  1  0.80515712  0.49346259  0.49150198  1.0
  H  H42  1  0.01399181  0.58118949  0.72390440  1.0
  H  H43  1  0.14826318  0.63146508  0.78816341  1.0
  H  H44  1  0.09969917  0.69828680  0.76515070  1.0
  H  H45  1  0.16764168  0.68615370  0.67513328  1.0
  H  H46  1  0.04213549  0.65903944  0.61055661  1.0
  H  H47  1  0.04769021  0.45953746  0.35085316  1.0
  H  H48  1  0.17481439  0.55207708  0.42721699  1.0
  H  H49  1  0.15281587  0.45322016  0.37904393  1.0
  H  H50  1  0.20455009  0.47787329  0.53775408  1.0
  H  H51  1  0.09484276  0.37441329  0.46339549  1.0
  C  C52  1  0.50238092  0.39162364  0.11407651  1.0
  C  C53  1  0.50629682  0.39459494  0.38815751  1.0
  C  C54  1  0.50101888  0.88955516  0.88817053  1.0
  C  C55  1  0.49559964  0.88405589  0.60880651  1.0
  C  C56  1  0.49235460  0.10886990  0.38756067  1.0
  C  C57  1  0.51711340  0.12000419  0.12280420  1.0
  C  C58  1  0.49594258  0.60953975  0.61260642  1.0
  C  C59  1  0.50257007  0.61289211  0.88896136  1.0
  C  C60  1  0.22295483  0.11418232  0.11083012  1.0
  C  C61  1  0.77897877  0.89053504  0.88636134  1.0
  C  C62  1  0.78047553  0.38415174  0.39010321  1.0
  C  C63  1  0.21520875  0.60952239  0.61159854  1.0
  C  C64  1  0.94289462  0.39048040  0.45069944  1.0
  C  C65  1  0.93175618  0.47563622  0.54772266  1.0
  C  C66  1  0.05235427  0.54469181  0.60714531  1.0
  C  C67  1  0.06421213  0.45356801  0.51486484  1.0
  C  C68  1  0.93731831  0.52506543  0.42032202  1.0
  C  C69  1  0.05565584  0.58547147  0.47784421  1.0
  C  C70  1  0.89737510  0.44488114  0.45143632  1.0
  C  C71  1  0.09760291  0.54967770  0.55249643  1.0
  C  C72  1  0.40475919  0.96372394  0.41091504  1.0
  C  C73  1  0.42718201  0.97547061  0.01417106  1.0
  C  C74  1  0.59374606  0.58083982  0.57001369  1.0
  C  C75  1  0.59279864  0.55801658  0.00232505  1.0
  C  C76  1  0.40429819  0.91144670  0.46533095  1.0
  C  C77  1  0.42198750  0.92197714  0.95574983  1.0
  C  C78  1  0.59601457  0.53259096  0.51340777  1.0
  C  C79  1  0.59382554  0.50818827  0.05905626  1.0
  C  C80  1  0.49037046  0.94110594  0.55085006  1.0
  C  C81  1  0.50415535  0.94905376  0.94777342  1.0
  C  C82  1  0.50667460  0.45501446  0.44446931  1.0
  C  C83  1  0.50689653  0.45312664  0.06041873  1.0
  C  C84  1  0.57711134  0.02732825  0.58190996  1.0
  C  C85  1  0.59272990  0.03498212  0.99954758  1.0
  C  C86  1  0.41268392  0.43026806  0.43014799  1.0
  C  C87  1  0.41870691  0.45226400  0.00483108  1.0
  C  C88  1  0.57747526  0.08219799  0.52985177  1.0
  C  C89  1  0.59792280  0.09148171  0.05573020  1.0
  C  C90  1  0.40821253  0.48093698  0.48283794  1.0
  C  C91  1  0.41761933  0.50473861  0.95034764  1.0
  C  C92  1  0.49154938  0.05017703  0.44388636  1.0
  C  C93  1  0.51533898  0.06147970  0.06378387  1.0
  C  C94  1  0.49905529  0.55532906  0.55421826  1.0
  C  C95  1  0.50431179  0.55703951  0.94820874  1.0
  C  C96  1  0.05673047  0.96389633  0.02731937  1.0
  C  C97  1  0.94997313  0.91004050  0.97357559  1.0
  C  C98  1  0.89366312  0.94827174  0.94475317  1.0
  C  C99  1  0.10820086  0.05649974  0.05313448  1.0
  C  C100  1  0.94509832  0.04084836  0.97066070  1.0
  C  C101  1  0.05184786  0.09471288  0.02474907  1.0
  C  C102  1  0.89606500  0.33519534  0.35788215  1.0
  C  C103  1  0.80607025  0.23946936  0.32973761  1.0
  C  C104  1  0.86706620  0.50347127  0.55656872  1.0
  C  C105  1  0.82020555  0.45200405  0.60458256  1.0
  C  C106  1  0.08862106  0.63656754  0.65501890  1.0
  C  C107  1  0.08694124  0.63689154  0.73716931  1.0
  C  C108  1  0.12417756  0.44526475  0.48129951  1.0
  C  C109  1  0.12443506  0.47957759  0.40549757  1.0
  N  N110  1  0.30585777  0.82543665  0.43146025  1.0
  N  N111  1  0.32139192  0.83781829  0.89641080  1.0
  N  N112  1  0.69523882  0.57090300  0.52339752  1.0
  N  N113  1  0.69345720  0.52073356  0.12267240  1.0
  O  O114  1  0.50286107  0.25317926  0.25204248  1.0
  O  O115  1  0.49674574  0.74899997  0.74878905  1.0
  O  O116  1  0.55562073  0.36026196  0.12728758  1.0
  O  O117  1  0.56932937  0.37272096  0.42786806  1.0
  O  O118  1  0.43758089  0.80616759  0.86562418  1.0
  O  O119  1  0.44790260  0.80156282  0.57185895  1.0
  O  O120  1  0.55535405  0.19191561  0.42766480  1.0
  O  O121  1  0.58377266  0.20305961  0.14899540  1.0
  O  O122  1  0.41677466  0.61226299  0.57725545  1.0
  O  O123  1  0.43672673  0.63197802  0.86486302  1.0
  O  O124  1  0.43769465  0.36723326  0.30646664  1.0
  O  O125  1  0.44207257  0.37388528  0.13844006  1.0
  O  O126  1  0.55118751  0.92504818  0.69076119  1.0
  O  O127  1  0.56468116  0.92914542  0.86713866  1.0
  O  O128  1  0.45012373  0.08047378  0.14057225  1.0
  O  O129  1  0.43009714  0.07062707  0.30466018  1.0
  O  O130  1  0.56697329  0.63616250  0.86815888  1.0
  O  O131  1  0.57301070  0.64823762  0.69241545  1.0
  O  O132  1  0.26579495  0.19806580  0.13371091  1.0
  O  O133  1  0.73262179  0.92955875  0.85829507  1.0
  O  O134  1  0.73844766  0.38593164  0.31131126  1.0
  O  O135  1  0.73075727  0.33333333  0.41993139  1.0
  O  O136  1  0.26083718  0.61416420  0.69259798  1.0
  O  O137  1  0.26167307  0.65087480  0.57588051  1.0
  O  O138  1  0.26912410  0.07483716  0.13270897  1.0
  O  O139  1  0.73619573  0.80691001  0.86896403  1.0
  O  O140  1  0.26246685  0.77623252  0.35758709  1.0
  O  O141  1  0.27256600  0.81107733  0.47830987  1.0
  O  O142  1  0.28767484  0.78364695  0.93024062  1.0
  O  O143  1  0.27686033  0.83104050  0.81763049  1.0
  O  O144  1  0.77475959  0.61626671  0.59800423  1.0
  O  O145  1  0.69182734  0.55755901  0.45547365  1.0
  O  O146  1  0.73841763  0.51289549  0.09272762  1.0
  O  O147  1  0.72595545  0.54175356  0.20117017  1.0
