# generated using pymatgen
data_MoH18C17(NO)4
_symmetry_space_group_name_H-M   'P 1'
_cell_length_a   13.12503208
_cell_length_b   13.63108854
_cell_length_c   13.63097810
_cell_angle_alpha   82.31970208
_cell_angle_beta   72.76010592
_cell_angle_gamma   72.76001396
_symmetry_Int_Tables_number   1
_chemical_formula_structural   MoH18C17(NO)4
_chemical_formula_sum   'Mo4 H72 C68 N16 O16'
_cell_volume   2221.68165086
_cell_formula_units_Z   4
loop_
 _symmetry_equiv_pos_site_id
 _symmetry_equiv_pos_as_xyz
  1  'x, y, z'
loop_
 _atom_site_type_symbol
 _atom_site_label
 _atom_site_symmetry_multiplicity
 _atom_site_fract_x
 _atom_site_fract_y
 _atom_site_fract_z
 _atom_site_occupancy
  Mo  Mo0  1  0.99149981  0.21800437  0.59588300  1.0
  Mo  Mo1  1  0.50850758  0.40411449  0.78199603  1.0
  Mo  Mo2  1  0.00849950  0.78199209  0.40411885  1.0
  Mo  Mo3  1  0.49149466  0.59588279  0.21800485  1.0
  H  H4  1  0.30987825  0.02361275  0.63519866  1.0
  H  H5  1  0.19012071  0.36480291  0.97638583  1.0
  H  H6  1  0.69012377  0.97637990  0.36479483  1.0
  H  H7  1  0.80987963  0.63520052  0.02361478  1.0
  H  H8  1  0.40645735  0.79490347  0.40519334  1.0
  H  H9  1  0.09354423  0.59480512  0.20509790  1.0
  H  H10  1  0.59354707  0.20509694  0.59479989  1.0
  H  H11  1  0.90645453  0.40519829  0.79490391  1.0
  H  H12  1  0.24369508  0.88603311  0.34709151  1.0
  H  H13  1  0.25630273  0.65290972  0.11397055  1.0
  H  H14  1  0.75630824  0.11396573  0.65290444  1.0
  H  H15  1  0.74369817  0.34709449  0.88602907  1.0
  H  H16  1  0.08108743  0.02153379  0.35247358  1.0
  H  H17  1  0.41891139  0.64752810  0.97846888  1.0
  H  H18  1  0.91891075  0.97846884  0.64752556  1.0
  H  H19  1  0.58109148  0.35247228  0.02153067  1.0
  H  H20  1  0.81683171  0.22530867  0.27336992  1.0
  H  H21  1  0.68315997  0.72663512  0.77469200  1.0
  H  H22  1  0.18316791  0.77468934  0.72663235  1.0
  H  H23  1  0.31684106  0.27336601  0.22530505  1.0
  H  H24  1  0.67105729  0.34161826  0.19623022  1.0
  H  H25  1  0.82893456  0.80377173  0.65838455  1.0
  H  H26  1  0.32894296  0.65838285  0.80376852  1.0
  H  H27  1  0.17106598  0.19623094  0.34161024  1.0
  H  H28  1  0.55987757  0.54012867  0.43298553  1.0
  H  H29  1  0.94012101  0.56701509  0.45987512  1.0
  H  H30  1  0.44011588  0.45986614  0.56702190  1.0
  H  H31  1  0.05987995  0.43298372  0.54012373  1.0
  H  H32  1  0.69408155  0.42756481  0.52567122  1.0
  H  H33  1  0.80591526  0.47433395  0.57243702  1.0
  H  H34  1  0.30591499  0.57242774  0.47433488  1.0
  H  H35  1  0.19408284  0.52566636  0.42756246  1.0
  H  H36  1  0.48004543  0.70689975  0.50822928  1.0
  H  H37  1  0.01995035  0.49177446  0.29310272  1.0
  H  H38  1  0.51995109  0.29310053  0.49177213  1.0
  H  H39  1  0.98005230  0.50822669  0.70689899  1.0
  H  H40  1  0.55925122  0.70498934  0.59280231  1.0
  H  H41  1  0.94074652  0.40719886  0.29501430  1.0
  H  H42  1  0.44074897  0.29500945  0.40720043  1.0
  H  H43  1  0.05924780  0.59280602  0.70498860  1.0
  H  H44  1  0.60415816  0.79361105  0.36837910  1.0
  H  H45  1  0.89584040  0.63161797  0.20639037  1.0
  H  H46  1  0.39583938  0.20638848  0.63161992  1.0
  H  H47  1  0.10416319  0.36838783  0.79360825  1.0
  H  H48  1  0.67992073  0.67476128  0.41349878  1.0
  H  H49  1  0.82007933  0.58650183  0.32523651  1.0
  H  H50  1  0.32007730  0.32523670  0.58650249  1.0
  H  H51  1  0.17992793  0.41350248  0.67476271  1.0
  H  H52  1  0.68540348  0.79125505  0.45360394  1.0
  H  H53  1  0.81459108  0.54640155  0.20874290  1.0
  H  H54  1  0.31459271  0.20874368  0.54639630  1.0
  H  H55  1  0.18541282  0.45360580  0.79125395  1.0
  H  H56  1  0.58273334  0.86152943  0.62533616  1.0
  H  H57  1  0.91727165  0.37466167  0.13847002  1.0
  H  H58  1  0.41726801  0.13847325  0.37466132  1.0
  H  H59  1  0.08272687  0.62534250  0.86153102  1.0
  H  H60  1  0.47660701  0.97563614  0.62436290  1.0
  H  H61  1  0.02339717  0.37563343  0.02436326  1.0
  H  H62  1  0.52339298  0.02436575  0.37563289  1.0
  H  H63  1  0.97660047  0.62436841  0.97563982  1.0
  H  H64  1  0.34306604  0.89066498  0.76287321  1.0
  H  H65  1  0.15693674  0.23712539  0.10934137  1.0
  H  H66  1  0.65693031  0.10933839  0.23712563  1.0
  H  H67  1  0.84306083  0.76287412  0.89066350  1.0
  H  H68  1  0.45568848  0.90147360  0.80417561  1.0
  H  H69  1  0.04431646  0.19582562  0.09853212  1.0
  H  H70  1  0.54431002  0.09853058  0.19582323  1.0
  H  H71  1  0.95567697  0.80417693  0.90147134  1.0
  H  H72  1  0.45770908  0.78120256  0.76637089  1.0
  H  H73  1  0.04229547  0.23363069  0.21880266  1.0
  H  H74  1  0.54229020  0.21880164  0.23362553  1.0
  H  H75  1  0.95769885  0.76637419  0.78120171  1.0
  C  C76  1  0.18280125  0.00606303  0.45542991  1.0
  C  C77  1  0.31719637  0.54457229  0.99393722  1.0
  C  C78  1  0.81720353  0.99393119  0.54457064  1.0
  C  C79  1  0.68280390  0.45542882  0.00606519  1.0
  C  C80  1  0.20570944  0.04339045  0.53753865  1.0
  C  C81  1  0.29429118  0.46246178  0.95660918  1.0
  C  C82  1  0.79428882  0.95660677  0.46246193  1.0
  C  C83  1  0.70570804  0.53754009  0.04339123  1.0
  C  C84  1  0.29815925  0.99188381  0.57162905  1.0
  C  C85  1  0.20183975  0.42837319  0.00811384  1.0
  C  C86  1  0.70183986  0.00810802  0.42836907  1.0
  C  C87  1  0.79815932  0.57163176  0.99188620  1.0
  C  C88  1  0.37248941  0.90025167  0.52698163  1.0
  C  C89  1  0.12750821  0.47301769  0.09974681  1.0
  C  C90  1  0.62751216  0.09974251  0.47301472  1.0
  C  C91  1  0.87249267  0.52698652  0.90025134  1.0
  C  C92  1  0.35097085  0.86356889  0.44374724  1.0
  C  C93  1  0.14902671  0.55625308  0.13643188  1.0
  C  C94  1  0.64903160  0.13642763  0.55624854  1.0
  C  C95  1  0.85097132  0.44375263  0.86356836  1.0
  C  C96  1  0.25960434  0.91547954  0.41012449  1.0
  C  C97  1  0.24039162  0.58988209  0.08452164  1.0
  C  C98  1  0.74039550  0.08451770  0.58987562  1.0
  C  C99  1  0.75960697  0.41012440  0.91547834  1.0
  C  C100  1  0.08994787  0.05452813  0.41749182  1.0
  C  C101  1  0.41005095  0.58250688  0.94547412  1.0
  C  C102  1  0.91005507  0.94546684  0.58250697  1.0
  C  C103  1  0.58995089  0.41749426  0.05452563  1.0
  C  C104  1  0.86168495  0.26018847  0.44725438  1.0
  C  C105  1  0.63831904  0.55274247  0.73980987  1.0
  C  C106  1  0.13831958  0.73980652  0.55274467  1.0
  C  C107  1  0.36168270  0.44725635  0.26018728  1.0
  C  C108  1  0.77086052  0.31970307  0.40369709  1.0
  C  C109  1  0.72913213  0.59630493  0.68029859  1.0
  C  C110  1  0.22913830  0.68029493  0.59630323  1.0
  C  C111  1  0.27086676  0.40369539  0.31970066  1.0
  C  C112  1  0.76071431  0.29427684  0.31118856  1.0
  C  C113  1  0.73927521  0.68881371  0.70572570  1.0
  C  C114  1  0.23928490  0.70572503  0.68881112  1.0
  C  C115  1  0.26072424  0.31118739  0.29427328  1.0
  C  C116  1  0.67962591  0.35922875  0.26852416  1.0
  C  C117  1  0.82036456  0.73147883  0.64077084  1.0
  C  C118  1  0.32037307  0.64076616  0.73147725  1.0
  C  C119  1  0.17963749  0.26852154  0.35922528  1.0
  C  C120  1  0.61729828  0.46867636  0.40140312  1.0
  C  C121  1  0.88268941  0.59860005  0.53132665  1.0
  C  C122  1  0.38269556  0.53132232  0.59860221  1.0
  C  C123  1  0.11730733  0.40139946  0.46867186  1.0
  C  C124  1  0.69410320  0.40728621  0.45116446  1.0
  C  C125  1  0.80589083  0.54884055  0.59271564  1.0
  C  C126  1  0.30589578  0.59270870  0.54883841  1.0
  C  C127  1  0.19410837  0.45116132  0.40728184  1.0
  C  C128  1  0.53146410  0.74819207  0.52698734  1.0
  C  C129  1  0.96853331  0.47301493  0.25181151  1.0
  C  C130  1  0.46853632  0.25180595  0.47301470  1.0
  C  C131  1  0.03146886  0.52698775  0.74819014  1.0
  C  C132  1  0.63094761  0.75291295  0.43545945  1.0
  C  C133  1  0.86904716  0.56454032  0.24708625  1.0
  C  C134  1  0.36904802  0.24708500  0.56454032  1.0
  C  C135  1  0.13095746  0.43546472  0.75291143  1.0
  C  C136  1  0.49244870  0.89193861  0.63898244  1.0
  C  C137  1  0.00755421  0.36102101  0.10806321  1.0
  C  C138  1  0.50755131  0.10806327  0.36101628  1.0
  C  C139  1  0.99244567  0.63898395  0.89193807  1.0
  C  C140  1  0.43348221  0.86463832  0.74952514  1.0
  C  C141  1  0.06652168  0.25047554  0.13536618  1.0
  C  C142  1  0.56651549  0.13536585  0.25047321  1.0
  C  C143  1  0.93347461  0.74952551  0.86463666  1.0
  N  N144  1  0.01177595  0.13740969  0.45526532  1.0
  N  N145  1  0.48822307  0.54473357  0.86258951  1.0
  N  N146  1  0.98822593  0.86258605  0.54473074  1.0
  N  N147  1  0.51177902  0.45526679  0.13741100  1.0
  N  N148  1  0.93279128  0.17821616  0.40287466  1.0
  N  N149  1  0.56720389  0.59712547  0.82178384  1.0
  N  N150  1  0.06720674  0.82178183  0.59712442  1.0
  N  N151  1  0.43279683  0.40287411  0.17821498  1.0
  N  N152  1  0.61000651  0.44693261  0.31075481  1.0
  N  N153  1  0.88998699  0.68924783  0.55306712  1.0
  N  N154  1  0.38999145  0.55306305  0.68924973  1.0
  N  N155  1  0.11001425  0.31075253  0.44692704  1.0
  N  N156  1  0.46191860  0.84947622  0.56222919  1.0
  N  N157  1  0.03808187  0.43777201  0.15052746  1.0
  N  N158  1  0.53808052  0.15052333  0.43776862  1.0
  N  N159  1  0.96192055  0.56222990  0.84947495  1.0
  O  O160  1  0.14010499  0.12986167  0.58359989  1.0
  O  O161  1  0.35990317  0.41639196  0.87013980  1.0
  O  O162  1  0.85989936  0.87013642  0.41639513  1.0
  O  O163  1  0.64009971  0.58360842  0.12986048  1.0
  O  O164  1  0.87113749  0.29629763  0.52920603  1.0
  O  O165  1  0.62886926  0.47078898  0.70371000  1.0
  O  O166  1  0.12886421  0.70369886  0.47079804  1.0
  O  O167  1  0.37113220  0.52920828  0.29629331  1.0
  O  O168  1  0.91781017  0.14534675  0.68486216  1.0
  O  O169  1  0.58219059  0.31513439  0.85465788  1.0
  O  O170  1  0.08219000  0.85465204  0.31513912  1.0
  O  O171  1  0.41781483  0.68486294  0.14534207  1.0
  O  O172  1  0.98749108  0.32229628  0.65771216  1.0
  O  O173  1  0.51251313  0.34228354  0.67770671  1.0
  O  O174  1  0.01251467  0.67770259  0.34228969  1.0
  O  O175  1  0.48748556  0.65770982  0.32229940  1.0
