# generated using pymatgen
data_AlH11(C8O3)2
_symmetry_space_group_name_H-M   'P 1'
_cell_length_a   6.69900965
_cell_length_b   19.16704571
_cell_length_c   21.84369696
_cell_angle_alpha   99.47509167
_cell_angle_beta   89.99730721
_cell_angle_gamma   89.99998988
_symmetry_Int_Tables_number   1
_chemical_formula_structural   AlH11(C8O3)2
_chemical_formula_sum   'Al4 H44 C64 O24'
_cell_volume   2766.47130456
_cell_formula_units_Z   4
loop_
 _symmetry_equiv_pos_site_id
 _symmetry_equiv_pos_as_xyz
  1  'x, y, z'
loop_
 _atom_site_type_symbol
 _atom_site_label
 _atom_site_symmetry_multiplicity
 _atom_site_fract_x
 _atom_site_fract_y
 _atom_site_fract_z
 _atom_site_occupancy
  Al  Al0  1  0.10325596  0.50223179  0.50146302  1.0
  Al  Al1  1  0.60325992  0.49777820  0.49852900  1.0
  Al  Al2  1  0.66891199  0.99885831  0.99750691  1.0
  Al  Al3  1  0.16890838  0.00114851  0.00250163  1.0
  H  H4  1  0.10438412  0.76837798  0.95345226  1.0
  H  H5  1  0.60430074  0.23163235  0.04653881  1.0
  H  H6  1  0.14869579  0.65626401  0.87885438  1.0
  H  H7  1  0.64864994  0.34373785  0.12113594  1.0
  H  H8  1  0.78909576  0.85946399  0.81476433  1.0
  H  H9  1  0.28914970  0.14053909  0.18524914  1.0
  H  H10  1  0.68926324  0.73174781  0.54370931  1.0
  H  H11  1  0.18944824  0.26824475  0.45631232  1.0
  H  H12  1  0.64526076  0.84654121  0.61536762  1.0
  H  H13  1  0.14537651  0.15345974  0.38465430  1.0
  H  H14  1  0.01071341  0.57836279  0.66601524  1.0
  H  H15  1  0.51071691  0.42163440  0.33398668  1.0
  H  H16  1  0.84235263  0.37910645  0.78737494  1.0
  H  H17  1  0.34234886  0.62088762  0.21262927  1.0
  H  H18  1  0.87115674  0.30485245  0.86005881  1.0
  H  H19  1  0.37122493  0.69513684  0.13994490  1.0
  H  H20  1  0.21336617  0.18698072  0.76219948  1.0
  H  H21  1  0.71337929  0.81300903  0.23779854  1.0
  H  H22  1  0.18466467  0.33096747  0.73881866  1.0
  H  H23  1  0.68467976  0.66902166  0.26117892  1.0
  H  H24  1  0.18288619  0.25356546  0.68219372  1.0
  H  H25  1  0.68287861  0.74642498  0.31780528  1.0
  H  H26  1  0.66431321  0.15033537  0.74377780  1.0
  H  H27  1  0.16431327  0.84966139  0.25621873  1.0
  H  H28  1  0.62923178  0.23107018  0.67508172  1.0
  H  H29  1  0.12923208  0.76893311  0.32492192  1.0
  H  H30  1  0.62186840  0.33661962  0.75683608  1.0
  H  H31  1  0.12187985  0.66339221  0.24316862  1.0
  H  H32  1  0.85726635  0.19824465  0.64017476  1.0
  H  H33  1  0.35727239  0.80175442  0.35982548  1.0
  H  H34  1  0.18580894  0.26326752  0.81930293  1.0
  H  H35  1  0.68584927  0.73672335  0.18069556  1.0
  H  H36  1  0.93927077  0.06538963  0.73860844  1.0
  H  H37  1  0.43926087  0.93460557  0.26138206  1.0
  H  H38  1  0.50005173  0.22093929  0.80811603  1.0
  H  H39  1  0.00007992  0.77905031  0.19186750  1.0
  H  H40  1  0.11345724  0.58799804  0.77506239  1.0
  H  H41  1  0.61346614  0.41200260  0.22493826  1.0
  H  H42  1  0.74198575  0.85723008  0.72489605  1.0
  H  H43  1  0.24200100  0.14276896  0.27511542  1.0
  H  H44  1  0.36232818  0.54794592  0.57446721  1.0
  H  H45  1  0.86238072  0.45201964  0.42554636  1.0
  H  H46  1  0.40901270  0.95182329  0.92586188  1.0
  H  H47  1  0.90898910  0.04818476  0.07414447  1.0
  C  C48  1  0.35318473  0.57278689  0.41934071  1.0
  C  C49  1  0.85326625  0.42720952  0.58065078  1.0
  C  C50  1  0.34789098  0.38738668  0.43136760  1.0
  C  C51  1  0.84786886  0.61262226  0.56862401  1.0
  C  C52  1  0.07339746  0.70142653  0.86450948  1.0
  C  C53  1  0.57335437  0.29858154  0.13548350  1.0
  C  C54  1  0.94224953  0.81979785  0.88737970  1.0
  C  C55  1  0.44222926  0.18021395  0.11261867  1.0
  C  C56  1  0.73868678  0.73741354  0.59183789  1.0
  C  C57  1  0.23879304  0.26258723  0.40818292  1.0
  C  C58  1  0.71168298  0.80149070  0.63243696  1.0
  C  C59  1  0.21176348  0.19851329  0.36757875  1.0
  C  C60  1  0.76674676  0.80720875  0.69413976  1.0
  C  C61  1  0.26677418  0.19279361  0.30587269  1.0
  C  C62  1  0.85404927  0.74987503  0.71758811  1.0
  C  C63  1  0.35405867  0.25012771  0.28241498  1.0
  C  C64  1  0.89148157  0.68562054  0.67565050  1.0
  C  C65  1  0.39148370  0.31438183  0.32435335  1.0
  C  C66  1  0.90915016  0.75424894  0.78244761  1.0
  C  C67  1  0.40915168  0.24575860  0.21755316  1.0
  C  C68  1  0.00787396  0.69579079  0.80227837  1.0
  C  C69  1  0.50785104  0.30421738  0.19771525  1.0
  C  C70  1  0.04072807  0.63250043  0.75874360  1.0
  C  C71  1  0.54072306  0.36750163  0.24125643  1.0
  C  C72  1  0.98377444  0.62725769  0.69818516  1.0
  C  C73  1  0.48377931  0.37273990  0.30181527  1.0
  C  C74  1  0.87077128  0.81470266  0.82723418  1.0
  C  C75  1  0.37078339  0.18530412  0.17276817  1.0
  C  C76  1  0.04758332  0.76311745  0.90615349  1.0
  C  C77  1  0.54751759  0.23689731  0.09383623  1.0
  C  C78  1  0.82950490  0.68074178  0.61282692  1.0
  C  C79  1  0.32954653  0.31926267  0.38717983  1.0
  C  C80  1  0.79057145  0.27799333  0.81904135  1.0
  C  C81  1  0.29061474  0.72199959  0.18095676  1.0
  C  C82  1  0.12036631  0.23406062  0.77655369  1.0
  C  C83  1  0.62038897  0.76593174  0.22344451  1.0
  C  C84  1  0.10929336  0.27995242  0.72471014  1.0
  C  C85  1  0.60930491  0.72003719  0.27528732  1.0
  C  C86  1  0.85927472  0.37981409  0.62558969  1.0
  C  C87  1  0.35928850  0.62017657  0.37439613  1.0
  C  C88  1  0.90949090  0.20972793  0.79256681  1.0
  C  C89  1  0.40952597  0.79026500  0.20743115  1.0
  C  C90  1  0.77796234  0.32723914  0.76897630  1.0
  C  C91  1  0.27797834  0.67275964  0.23102250  1.0
  C  C92  1  0.88841251  0.29350197  0.70916140  1.0
  C  C93  1  0.38841902  0.70649276  0.29083507  1.0
  C  C94  1  0.78743966  0.22179948  0.68428163  1.0
  C  C95  1  0.28744710  0.77819692  0.31571840  1.0
  C  C96  1  0.81000568  0.17075208  0.73120000  1.0
  C  C97  1  0.31001013  0.82924427  0.26879687  1.0
  C  C98  1  0.87366100  0.34024712  0.66345513  1.0
  C  C99  1  0.37366915  0.65974426  0.33654297  1.0
  C  C100  1  0.91767872  0.16321213  0.83874628  1.0
  C  C101  1  0.41772565  0.83678260  0.16125294  1.0
  C  C102  1  0.92230233  0.12409025  0.87717897  1.0
  C  C103  1  0.42235863  0.87590985  0.12282668  1.0
  C  C104  1  0.42395194  0.11203454  0.06905910  1.0
  C  C105  1  0.92397816  0.88797504  0.93094700  1.0
  C  C106  1  0.42198676  0.92452680  0.07868285  1.0
  C  C107  1  0.92193678  0.07547748  0.92132281  1.0
  C  C108  1  0.93237327  0.10523408  0.70669566  1.0
  C  C109  1  0.43237126  0.89476313  0.29330007  1.0
  C  C110  1  0.58215276  0.26335088  0.83947679  1.0
  C  C111  1  0.08221510  0.73664290  0.16051510  1.0
  O  O112  1  0.52088418  0.41199278  0.44625317  1.0
  O  O113  1  0.02078793  0.58795802  0.55380791  1.0
  O  O114  1  0.18199551  0.55730643  0.43852093  1.0
  O  O115  1  0.68203171  0.44279796  0.56153253  1.0
  O  O116  1  0.18317875  0.41587072  0.45060352  1.0
  O  O117  1  0.68308165  0.58420676  0.54929954  1.0
  O  O118  1  0.02242948  0.44934908  0.56530691  1.0
  O  O119  1  0.52235057  0.55053877  0.43462041  1.0
  O  O120  1  0.35508036  0.51234715  0.53741194  1.0
  O  O121  1  0.85507565  0.48765430  0.46257582  1.0
  O  O122  1  0.25059366  0.94555722  0.06444739  1.0
  O  O123  1  0.75054936  0.05446405  0.93557139  1.0
  O  O124  1  0.58870759  0.08508275  0.04788894  1.0
  O  O125  1  0.08874729  0.91491532  0.95213161  1.0
  O  O126  1  0.59140854  0.94196966  0.05966076  1.0
  O  O127  1  0.09137250  0.05801592  0.94033188  1.0
  O  O128  1  0.75179217  0.91501482  0.94283989  1.0
  O  O129  1  0.25174971  0.08500615  0.05714917  1.0
  O  O130  1  0.41603664  0.98817207  0.96239384  1.0
  O  O131  1  0.91603888  0.01183701  0.03761239  1.0
  O  O132  1  0.01941623  0.09521447  0.65701538  1.0
  O  O133  1  0.51941666  0.90478306  0.34297433  1.0
  O  O134  1  0.49866873  0.29643974  0.88478185  1.0
  O  O135  1  0.99876258  0.70354417  0.11520393  1.0
