# generated using pymatgen
data_AlH8C15NO9
_symmetry_space_group_name_H-M   'P 1'
_cell_length_a   6.59336550
_cell_length_b   10.97187822
_cell_length_c   16.98938954
_cell_angle_alpha   84.92163796
_cell_angle_beta   81.18459341
_cell_angle_gamma   74.23068665
_symmetry_Int_Tables_number   1
_chemical_formula_structural   AlH8C15NO9
_chemical_formula_sum   'Al2 H16 C30 N2 O18'
_cell_volume   1167.39079599
_cell_formula_units_Z   2
loop_
 _symmetry_equiv_pos_site_id
 _symmetry_equiv_pos_as_xyz
  1  'x, y, z'
loop_
 _atom_site_type_symbol
 _atom_site_label
 _atom_site_symmetry_multiplicity
 _atom_site_fract_x
 _atom_site_fract_y
 _atom_site_fract_z
 _atom_site_occupancy
  Al  Al0  1  0.49221268  0.49370623  0.50166800  1.0
  Al  Al1  1  0.99816024  0.49074216  0.50017428  1.0
  H  H2  1  0.19353842  0.64271717  0.44822695  1.0
  H  H3  1  0.81135137  0.33441174  0.50720812  1.0
  H  H4  1  0.81008068  0.54842130  0.74013738  1.0
  H  H5  1  0.75283035  0.54700982  0.88976971  1.0
  H  H6  1  0.42548489  0.39111367  0.89256945  1.0
  H  H7  1  0.48475541  0.39957390  0.74284740  1.0
  H  H8  1  0.54334678  0.58601547  0.11270813  1.0
  H  H9  1  0.21137596  0.40858260  0.11030254  1.0
  H  H10  1  0.16576445  0.41177767  0.25991180  1.0
  H  H11  1  0.49648090  0.58599946  0.26302846  1.0
  H  H12  1  0.87844619  0.76972177  0.60771801  1.0
  H  H13  1  0.58607414  0.23781015  0.60143894  1.0
  H  H14  1  0.44935865  0.18556774  0.33963644  1.0
  H  H15  1  0.56583793  0.84902505  0.33038518  1.0
  H  H16  1  0.89844903  0.80463921  0.76662445  1.0
  H  H17  1  0.81723748  0.31319486  0.63340676  1.0
  C  C18  1  0.63044213  0.71557350  0.51527554  1.0
  C  C19  1  0.80453247  0.50097732  0.35788611  1.0
  C  C20  1  0.36718979  0.26559559  0.48927524  1.0
  C  C21  1  0.18207369  0.47820391  0.64455124  1.0
  C  C22  1  0.15069981  0.47554065  0.73286850  1.0
  C  C23  1  0.94373572  0.51623935  0.77423224  1.0
  C  C24  1  0.91134570  0.51471244  0.85670501  1.0
  C  C25  1  0.08713001  0.46940127  0.89911311  1.0
  C  C26  1  0.29317655  0.42700343  0.85802336  1.0
  C  C27  1  0.32527169  0.43130334  0.77513850  1.0
  C  C28  1  0.67729579  0.54770190  0.14617204  1.0
  C  C29  1  0.87946222  0.49829540  0.10358799  1.0
  C  C30  1  0.05689648  0.44809144  0.14449179  1.0
  C  C31  1  0.03144396  0.45002396  0.22683749  1.0
  C  C32  1  0.82919739  0.49976223  0.26962750  1.0
  C  C33  1  0.65173548  0.54769893  0.22897417  1.0
  C  C34  1  0.56570695  0.85784403  0.51083279  1.0
  C  C35  1  0.65760150  0.92903300  0.55502720  1.0
  C  C36  1  0.41693900  0.91908764  0.46058695  1.0
  C  C37  1  0.81519256  0.87234421  0.60535341  1.0
  C  C38  1  0.89530615  0.94521730  0.64857399  1.0
  C  C39  1  0.43771998  0.12409657  0.49622428  1.0
  C  C40  1  0.35828132  0.05331302  0.45089282  1.0
  C  C41  1  0.58422008  0.06431951  0.55004388  1.0
  C  C42  1  0.65818534  0.13619202  0.59937766  1.0
  C  C43  1  0.81279921  0.07988726  0.64684477  1.0
  C  C44  1  0.21522075  0.11839394  0.39007911  1.0
  C  C45  1  0.32461881  0.84658783  0.41033773  1.0
  C  C46  1  0.08282690  0.88180560  0.69175194  1.0
  C  C47  1  0.87674159  0.15512630  0.70371970  1.0
  N  N48  1  0.07433885  0.46300589  0.98292437  1.0
  N  N49  1  0.88860504  0.50389283  0.01969779  1.0
  O  O50  1  0.48348668  0.65909544  0.53099706  1.0
  O  O51  1  0.97338996  0.47558961  0.39110859  1.0
  O  O52  1  0.16860021  0.31607043  0.50234477  1.0
  O  O53  1  0.37302966  0.45384754  0.60817617  1.0
  O  O54  1  0.51134767  0.32393761  0.47224478  1.0
  O  O55  1  0.01583355  0.50289025  0.60981029  1.0
  O  O56  1  0.82705984  0.66184789  0.49995579  1.0
  O  O57  1  0.61569351  0.52860971  0.39529527  1.0
  O  O58  1  0.22978461  0.55409357  0.46847472  1.0
  O  O59  1  0.76702340  0.41589044  0.53239723  1.0
  O  O60  1  0.30348374  0.18973451  0.33186445  1.0
  O  O61  1  0.03625616  0.10868994  0.38963993  1.0
  O  O62  1  0.43471404  0.82162716  0.33652720  1.0
  O  O63  1  0.16152685  0.81392757  0.43048959  1.0
  O  O64  1  0.05022819  0.79914590  0.75350614  1.0
  O  O65  1  0.25961992  0.89597964  0.66928674  1.0
  O  O66  1  0.85550642  0.28036932  0.68689064  1.0
  O  O67  1  0.93972226  0.10582950  0.76589230  1.0
