# generated using pymatgen
data_Zn2H23C49IN2O11
_symmetry_space_group_name_H-M   'P 1'
_cell_length_a   12.67895477
_cell_length_b   13.55957372
_cell_length_c   15.21429471
_cell_angle_alpha   88.66392327
_cell_angle_beta   74.18357716
_cell_angle_gamma   76.06041107
_symmetry_Int_Tables_number   1
_chemical_formula_structural   Zn2H23C49IN2O11
_chemical_formula_sum   'Zn2 H23 C49 I1 N2 O11'
_cell_volume   2440.00469552
_cell_formula_units_Z   1
loop_
 _symmetry_equiv_pos_site_id
 _symmetry_equiv_pos_as_xyz
  1  'x, y, z'
loop_
 _atom_site_type_symbol
 _atom_site_label
 _atom_site_symmetry_multiplicity
 _atom_site_fract_x
 _atom_site_fract_y
 _atom_site_fract_z
 _atom_site_occupancy
  Zn  Zn0  1  0.61770595  0.50486838  0.47159669  1.0
  Zn  Zn1  1  0.38510448  0.49585391  0.52217441  1.0
  H  H2  1  0.68033911  0.51440326  0.17577884  1.0
  H  H3  1  0.90161236  0.71252394  0.34410214  1.0
  H  H4  1  0.33199930  0.50891044  0.26466999  1.0
  H  H5  1  0.27987910  0.36762464  0.64727677  1.0
  H  H6  1  0.94347332  0.38520828  0.62910119  1.0
  H  H7  1  0.09546872  0.31684740  0.70288635  1.0
  H  H8  1  0.24187457  0.60421952  0.43315205  1.0
  H  H9  1  0.21470883  0.51695817  0.98583655  1.0
  H  H10  1  0.31639282  0.50822450  0.81888226  1.0
  H  H11  1  0.67023883  0.49844376  0.73347192  1.0
  H  H12  1  0.77616537  0.50465878  0.84877148  1.0
  H  H13  1  0.24797893  0.16538791  0.44130855  1.0
  H  H14  1  0.77876124  0.51040898  0.01084620  1.0
  H  H15  1  0.75468296  0.37173287  0.53797976  1.0
  H  H16  1  0.18762064  0.52242899  0.23486405  1.0
  H  H17  1  0.19082745  0.76469643  0.57547901  1.0
  H  H18  1  0.18626017  0.00533982  0.47262675  1.0
  H  H19  1  0.57081908  0.82071351  0.48363903  1.0
  H  H20  1  0.77139390  0.18508588  0.45847210  1.0
  H  H21  1  0.68760622  0.89575742  0.46255716  1.0
  H  H22  1  0.38866899  0.26397097  0.43765280  1.0
  H  H23  1  0.72130448  0.65408654  0.37687956  1.0
  H  H24  1  0.08992544  0.69346111  0.36591722  1.0
  C  C25  1  0.56863150  0.30435397  0.47443054  1.0
  C  C26  1  0.39416137  0.50680360  0.83705425  1.0
  C  C27  1  0.49351433  0.50210182  0.76740281  1.0
  C  C28  1  0.49280822  0.49868523  0.66912730  1.0
  C  C29  1  0.59405566  0.50146160  0.78916693  1.0
  C  C30  1  0.27125689  0.96588872  0.47507194  1.0
  C  C31  1  0.40394755  0.81125376  0.49549577  1.0
  C  C32  1  0.71070248  0.14056176  0.45760606  1.0
  C  C33  1  0.74161151  0.03384487  0.45658042  1.0
  C  C34  1  0.66249166  0.97810653  0.45996953  1.0
  C  C35  1  0.55063791  0.02674481  0.46041071  1.0
  C  C36  1  0.60133787  0.51188419  0.06631698  1.0
  C  C37  1  0.51930352  0.13495322  0.45665383  1.0
  C  C38  1  0.46576192  0.96943279  0.46775627  1.0
  C  C39  1  0.35506964  0.02106913  0.46347124  1.0
  C  C40  1  0.43601024  0.69859919  0.50415373  1.0
  C  C41  1  0.33106667  0.12781432  0.44924706  1.0
  C  C42  1  0.40915433  0.18256661  0.44715939  1.0
  C  C43  1  0.48735130  0.86434330  0.48188179  1.0
  C  C44  1  0.29295202  0.86331994  0.49363494  1.0
  C  C45  1  0.60045487  0.19074895  0.46005749  1.0
  C  C46  1  0.89038405  0.64764644  0.38615910  1.0
  C  C47  1  0.29375215  0.51641972  0.09228280  1.0
  C  C48  1  0.21004372  0.39742146  0.61755639  1.0
  C  C49  1  0.10776857  0.36830322  0.64705175  1.0
  C  C50  1  0.02369862  0.40592202  0.60466604  1.0
  C  C51  1  0.04173317  0.47136756  0.53146499  1.0
  C  C52  1  0.50865013  0.50792162  0.32549739  1.0
  C  C53  1  0.14490949  0.50330099  0.51026103  1.0
  C  C54  1  0.95944798  0.51369824  0.48173103  1.0
  C  C55  1  0.97641765  0.59740885  0.42539738  1.0
  C  C56  1  0.07948280  0.62910959  0.40886529  1.0
  C  C57  1  0.16272702  0.58106632  0.44683600  1.0
  C  C58  1  0.29424117  0.51447456  0.00174134  1.0
  C  C59  1  0.86107594  0.47885943  0.48524317  1.0
  C  C60  1  0.79197085  0.61540721  0.40264363  1.0
  C  C61  1  0.60283080  0.51345645  0.15805367  1.0
  C  C62  1  0.50563988  0.51153451  0.22772256  1.0
  C  C63  1  0.40448450  0.51131644  0.20739192  1.0
  C  C64  1  0.39730503  0.51336106  0.11696763  1.0
  C  C65  1  0.49808794  0.51169392  0.04496732  1.0
  C  C66  1  0.84421344  0.37522793  0.51313762  1.0
  C  C67  1  0.18484734  0.52352361  0.16233603  1.0
  C  C68  1  0.19631879  0.81480106  0.51657485  1.0
  C  C69  1  0.39407862  0.50977890  0.92932280  1.0
  C  C70  1  0.49676767  0.50909515  0.95190199  1.0
  C  C71  1  0.59785393  0.50557900  0.88023503  1.0
  C  C72  1  0.69963474  0.50646854  0.90390521  1.0
  C  C73  1  0.70111055  0.50973942  0.99312748  1.0
  I  I74  1  0.90704112  0.95616844  0.45519528  1.0
  N  N75  1  0.77868596  0.53140122  0.45011617  1.0
  N  N76  1  0.22721358  0.46437198  0.55279103  1.0
  O  O77  1  0.64508403  0.35190711  0.44153286  1.0
  O  O78  1  0.09382884  0.53122687  0.14537728  1.0
  O  O79  1  0.12197087  0.83225166  0.47661651  1.0
  O  O80  1  0.46844284  0.34474925  0.52197297  1.0
  O  O81  1  0.58869360  0.48194294  0.60959429  1.0
  O  O82  1  0.39723047  0.51293880  0.65246358  1.0
  O  O83  1  0.53601206  0.65780723  0.50757690  1.0
  O  O84  1  0.36017720  0.65057329  0.50534246  1.0
  O  O85  1  0.59066354  0.53272124  0.34502375  1.0
  O  O86  1  0.42791545  0.47964769  0.38190917  1.0
  O  O87  1  0.92201398  0.29916598  0.50339129  1.0
