# generated using pymatgen
data_EuH24C24(NO2)6
_symmetry_space_group_name_H-M   'P 1'
_cell_length_a   15.93135851
_cell_length_b   15.93137944
_cell_length_c   16.42232902
_cell_angle_alpha   90.00006871
_cell_angle_beta   89.99999949
_cell_angle_gamma   119.99996211
_symmetry_Int_Tables_number   1
_chemical_formula_structural   EuH24C24(NO2)6
_chemical_formula_sum   'Eu4 H96 C96 N24 O48'
_cell_volume   3609.70523038
_cell_formula_units_Z   4
loop_
 _symmetry_equiv_pos_site_id
 _symmetry_equiv_pos_as_xyz
  1  'x, y, z'
loop_
 _atom_site_type_symbol
 _atom_site_label
 _atom_site_symmetry_multiplicity
 _atom_site_fract_x
 _atom_site_fract_y
 _atom_site_fract_z
 _atom_site_occupancy
  Eu  Eu0  1  0.66666667  0.33333333  0.66603782  1.0
  Eu  Eu1  1  0.33333333  0.66666667  0.83396185  1.0
  Eu  Eu2  1  0.33333333  0.66666667  0.33396212  1.0
  Eu  Eu3  1  0.66666667  0.33333333  0.16603809  1.0
  H  H4  1  0.09177492  0.43125515  0.69656342  1.0
  H  H5  1  0.33948056  0.90822604  0.69656370  1.0
  H  H6  1  0.56874446  0.66051904  0.69656355  1.0
  H  H7  1  0.66051931  0.56874510  0.80343625  1.0
  H  H8  1  0.43125465  0.09177420  0.80343598  1.0
  H  H9  1  0.90822523  0.33948053  0.80343612  1.0
  H  H10  1  0.90822591  0.56874542  0.30343652  1.0
  H  H11  1  0.66051964  0.09177454  0.30343625  1.0
  H  H12  1  0.43125538  0.33948081  0.30343639  1.0
  H  H13  1  0.33948053  0.43125476  0.19656369  1.0
  H  H14  1  0.56874518  0.90822564  0.19656397  1.0
  H  H15  1  0.09177461  0.66051933  0.19656383  1.0
  H  H16  1  0.99017434  0.31442060  0.67933799  1.0
  H  H17  1  0.32424588  0.00982576  0.67933782  1.0
  H  H18  1  0.68557980  0.67575388  0.67933820  1.0
  H  H19  1  0.67575323  0.68557969  0.82066228  1.0
  H  H20  1  0.31442024  0.99017448  0.82066185  1.0
  H  H21  1  0.00982599  0.32424636  0.82066208  1.0
  H  H22  1  0.00982648  0.68557996  0.32066256  1.0
  H  H23  1  0.67575395  0.99017409  0.32066213  1.0
  H  H24  1  0.31442039  0.32424669  0.32066174  1.0
  H  H25  1  0.32424660  0.31442015  0.17933766  1.0
  H  H26  1  0.68557996  0.00982610  0.17933809  1.0
  H  H27  1  0.99017385  0.67575349  0.17933787  1.0
  H  H28  1  0.74520597  0.49343998  0.48541189  1.0
  H  H29  1  0.74823394  0.25479364  0.48541236  1.0
  H  H30  1  0.50655988  0.25176615  0.48541236  1.0
  H  H31  1  0.25176567  0.50655946  0.01458772  1.0
  H  H32  1  0.49344001  0.74520582  0.01458786  1.0
  H  H33  1  0.25479442  0.74823400  0.01458786  1.0
  H  H34  1  0.25479386  0.50655986  0.51458806  1.0
  H  H35  1  0.25176590  0.74520621  0.51458759  1.0
  H  H36  1  0.49344031  0.74823442  0.51458759  1.0
  H  H37  1  0.74823416  0.49344039  0.98541222  1.0
  H  H38  1  0.50655983  0.25479404  0.98541209  1.0
  H  H39  1  0.74520605  0.25176585  0.98541208  1.0
  H  H40  1  0.09450325  0.68598243  0.56028692  1.0
  H  H41  1  0.59147929  0.90549709  0.56028643  1.0
  H  H42  1  0.31401724  0.40852038  0.56028675  1.0
  H  H43  1  0.40852096  0.31401780  0.93971336  1.0
  H  H44  1  0.68598234  0.09450318  0.93971324  1.0
  H  H45  1  0.90549668  0.59147917  0.93971352  1.0
  H  H46  1  0.90549659  0.31401742  0.43971303  1.0
  H  H47  1  0.40852091  0.09450349  0.43971351  1.0
  H  H48  1  0.68598260  0.59147947  0.43971319  1.0
  H  H49  1  0.59147888  0.68598205  0.06028658  1.0
  H  H50  1  0.31401749  0.90549666  0.06028671  1.0
  H  H51  1  0.09450315  0.40852067  0.06028642  1.0
  H  H52  1  0.84799727  0.65941389  0.42970430  1.0
  H  H53  1  0.81141669  0.15200230  0.42970400  1.0
  H  H54  1  0.34058613  0.18858418  0.42970402  1.0
  H  H55  1  0.18858341  0.34058628  0.07029592  1.0
  H  H56  1  0.65941411  0.84799716  0.07029622  1.0
  H  H57  1  0.15200201  0.81141596  0.07029620  1.0
  H  H58  1  0.15200257  0.34058597  0.57029565  1.0
  H  H59  1  0.18858377  0.84799755  0.57029655  1.0
  H  H60  1  0.65941407  0.81141640  0.57029592  1.0
  H  H61  1  0.81141642  0.65941356  0.92970402  1.0
  H  H62  1  0.34058572  0.15200268  0.92970373  1.0
  H  H63  1  0.84799783  0.18858389  0.92970375  1.0
  H  H64  1  0.02292782  0.75850182  0.46842971  1.0
  H  H65  1  0.73557393  0.97707207  0.46842922  1.0
  H  H66  1  0.24149727  0.26442576  0.46842942  1.0
  H  H67  1  0.26442572  0.24149757  0.03156991  1.0
  H  H68  1  0.75850196  0.02292812  0.03157099  1.0
  H  H69  1  0.97707192  0.73557368  0.03157019  1.0
  H  H70  1  0.97707201  0.24149802  0.53157024  1.0
  H  H71  1  0.26442590  0.02292777  0.53157072  1.0
  H  H72  1  0.75850193  0.73557408  0.53157052  1.0
  H  H73  1  0.73557411  0.75850227  0.96843004  1.0
  H  H74  1  0.24149788  0.97707174  0.96842895  1.0
  H  H75  1  0.02292791  0.26442616  0.96842976  1.0
  H  H76  1  0.08681805  0.55995858  0.63655252  1.0
  H  H77  1  0.47314078  0.91318216  0.63655150  1.0
  H  H78  1  0.44004166  0.52685934  0.63655189  1.0
  H  H79  1  0.52685962  0.44004165  0.86344776  1.0
  H  H80  1  0.55995840  0.08681738  0.86344817  1.0
  H  H81  1  0.91318250  0.47314094  0.86344778  1.0
  H  H82  1  0.91318215  0.44004199  0.36344743  1.0
  H  H83  1  0.52685906  0.08681770  0.36344844  1.0
  H  H84  1  0.55995817  0.47314050  0.36344806  1.0
  H  H85  1  0.47314021  0.55995819  0.13655218  1.0
  H  H86  1  0.44004144  0.91318247  0.13655178  1.0
  H  H87  1  0.08681796  0.52685891  0.13655216  1.0
  H  H88  1  0.89206268  0.38702557  0.64604130  1.0
  H  H89  1  0.49496284  0.10793704  0.64604174  1.0
  H  H90  1  0.61297411  0.50503684  0.64604137  1.0
  H  H91  1  0.50503686  0.61297399  0.85395898  1.0
  H  H92  1  0.38702556  0.89206250  0.85395854  1.0
  H  H93  1  0.10793699  0.49496268  0.85395831  1.0
  H  H94  1  0.10793716  0.61297428  0.35395865  1.0
  H  H95  1  0.50503700  0.89206282  0.35395881  1.0
  H  H96  1  0.38702572  0.49496301  0.35395858  1.0
  H  H97  1  0.49496298  0.38702586  0.14604096  1.0
  H  H98  1  0.61297428  0.10793735  0.14604141  1.0
  H  H99  1  0.89206285  0.50503717  0.14604164  1.0
  C  C100  1  0.01319736  0.38653741  0.70467796  1.0
  C  C101  1  0.37334058  0.98680264  0.70467769  1.0
  C  C102  1  0.61346227  0.62665947  0.70467809  1.0
  C  C103  1  0.62665976  0.61346210  0.79532233  1.0
  C  C104  1  0.38653770  0.01319688  0.79532198  1.0
  C  C105  1  0.98680261  0.37334009  0.79532218  1.0
  C  C106  1  0.98680247  0.61346243  0.29532199  1.0
  C  C107  1  0.62665926  0.01319721  0.29532225  1.0
  C  C108  1  0.38653756  0.37334037  0.29532246  1.0
  C  C109  1  0.37334008  0.38653775  0.20467823  1.0
  C  C110  1  0.61346213  0.98680296  0.20467797  1.0
  C  C111  1  0.01319722  0.62665975  0.20467776  1.0
  C  C112  1  0.96154294  0.55084899  0.57506486  1.0
  C  C113  1  0.58930612  0.03845730  0.57506456  1.0
  C  C114  1  0.44915120  0.41069442  0.57506478  1.0
  C  C115  1  0.41069404  0.44915129  0.92493481  1.0
  C  C116  1  0.55084895  0.96154296  0.92493511  1.0
  C  C117  1  0.03845686  0.58930581  0.92493550  1.0
  C  C118  1  0.03845726  0.44915159  0.42493509  1.0
  C  C119  1  0.41069371  0.96154254  0.42493538  1.0
  C  C120  1  0.55084863  0.58930542  0.42493517  1.0
  C  C121  1  0.58930579  0.55084855  0.07506513  1.0
  C  C122  1  0.44915089  0.03845689  0.07506484  1.0
  C  C123  1  0.96154297  0.41069404  0.07506505  1.0
  C  C124  1  0.85986606  0.49437286  0.55529783  1.0
  C  C125  1  0.63450646  0.14013385  0.55529763  1.0
  C  C126  1  0.50562735  0.36549323  0.55529715  1.0
  C  C127  1  0.36549330  0.50562742  0.94470244  1.0
  C  C128  1  0.49437237  0.85986569  0.94470265  1.0
  C  C129  1  0.14013385  0.63450629  0.94470252  1.0
  C  C130  1  0.14013414  0.50562772  0.44470272  1.0
  C  C131  1  0.36549337  0.85986599  0.44470231  1.0
  C  C132  1  0.49437248  0.63450662  0.44470279  1.0
  C  C133  1  0.63450654  0.49437243  0.05529750  1.0
  C  C134  1  0.50562747  0.14013416  0.05529790  1.0
  C  C135  1  0.85986599  0.36549356  0.05529743  1.0
  C  C136  1  0.82183616  0.53644359  0.50115329  1.0
  C  C137  1  0.71460728  0.17816386  0.50115308  1.0
  C  C138  1  0.46355673  0.28539307  0.50115314  1.0
  C  C139  1  0.28539265  0.46355667  0.99884699  1.0
  C  C140  1  0.53644354  0.82183641  0.99884659  1.0
  C  C141  1  0.17816375  0.71460717  0.99884714  1.0
  C  C142  1  0.17816367  0.46355625  0.49884666  1.0
  C  C143  1  0.28539255  0.82183599  0.49884687  1.0
  C  C144  1  0.53644311  0.71460678  0.49884680  1.0
  C  C145  1  0.71460718  0.53644317  0.00115295  1.0
  C  C146  1  0.46355629  0.17816343  0.00115335  1.0
  C  C147  1  0.82183609  0.28539268  0.00115341  1.0
  C  C148  1  0.01843486  0.64556996  0.54297814  1.0
  C  C149  1  0.62713499  0.98156514  0.54297773  1.0
  C  C150  1  0.35442990  0.37286474  0.54297798  1.0
  C  C151  1  0.37286504  0.35443027  0.95702214  1.0
  C  C152  1  0.64556962  0.01843440  0.95702194  1.0
  C  C153  1  0.98156535  0.62713554  0.95702229  1.0
  C  C154  1  0.98156498  0.35442989  0.45702180  1.0
  C  C155  1  0.37286484  0.01843470  0.45702222  1.0
  C  C156  1  0.64556993  0.62713510  0.45702196  1.0
  C  C157  1  0.62713480  0.64556958  0.04297781  1.0
  C  C158  1  0.35443021  0.98156544  0.04297800  1.0
  C  C159  1  0.01843449  0.37286432  0.04297826  1.0
  C  C160  1  0.87963027  0.62944867  0.47129947  1.0
  C  C161  1  0.74981817  0.12036933  0.47129857  1.0
  C  C162  1  0.37055133  0.25018173  0.47129926  1.0
  C  C163  1  0.25018127  0.37055077  0.02870074  1.0
  C  C164  1  0.62944893  0.87963086  0.02870165  1.0
  C  C165  1  0.12036929  0.74981768  0.02870097  1.0
  C  C166  1  0.12036956  0.37055117  0.52870108  1.0
  C  C167  1  0.25018203  0.87963125  0.52870137  1.0
  C  C168  1  0.62944913  0.74981812  0.52870069  1.0
  C  C169  1  0.74981857  0.62944908  0.97129920  1.0
  C  C170  1  0.37055091  0.12036899  0.97129830  1.0
  C  C171  1  0.87963117  0.25018216  0.97129898  1.0
  C  C172  1  0.97851891  0.68539498  0.49237143  1.0
  C  C173  1  0.70687604  0.02148179  0.49237104  1.0
  C  C174  1  0.31460521  0.29312373  0.49237120  1.0
  C  C175  1  0.29312396  0.31460519  0.00762879  1.0
  C  C176  1  0.68539434  0.97851839  0.00762918  1.0
  C  C177  1  0.02148152  0.70687640  0.00762902  1.0
  C  C178  1  0.02148129  0.31460560  0.50762852  1.0
  C  C179  1  0.29312415  0.97851877  0.50762890  1.0
  C  C180  1  0.68539463  0.70687612  0.50762874  1.0
  C  C181  1  0.70687587  0.68539465  0.99237176  1.0
  C  C182  1  0.31460550  0.02148146  0.99237138  1.0
  C  C183  1  0.97851868  0.29312418  0.99237153  1.0
  C  C184  1  0.00909176  0.51453053  0.62486353  1.0
  C  C185  1  0.50543894  0.99090855  0.62486319  1.0
  C  C186  1  0.48546878  0.49456024  0.62486351  1.0
  C  C187  1  0.49456139  0.48546970  0.87513675  1.0
  C  C188  1  0.51453016  0.00909099  0.87513648  1.0
  C  C189  1  0.99090836  0.50543931  0.87513676  1.0
  C  C190  1  0.99090870  0.48546932  0.37513642  1.0
  C  C191  1  0.49456090  0.00909130  0.37513675  1.0
  C  C192  1  0.51453105  0.50543960  0.37513643  1.0
  C  C193  1  0.50543907  0.51453014  0.12486380  1.0
  C  C194  1  0.48546968  0.99090886  0.12486347  1.0
  C  C195  1  0.00909148  0.49456054  0.12486318  1.0
  N  N196  1  0.96545340  0.42822154  0.65825213  1.0
  N  N197  1  0.46276806  0.03454637  0.65825191  1.0
  N  N198  1  0.57177818  0.53723156  0.65825220  1.0
  N  N199  1  0.53723197  0.57177875  0.84174814  1.0
  N  N200  1  0.42822145  0.96545316  0.84174776  1.0
  N  N201  1  0.03454669  0.46276867  0.84174808  1.0
  N  N202  1  0.03454706  0.57177831  0.34174781  1.0
  N  N203  1  0.53723178  0.96545348  0.34174804  1.0
  N  N204  1  0.42822165  0.46276828  0.34174836  1.0
  N  N205  1  0.46276823  0.42822182  0.15825180  1.0
  N  N206  1  0.57177838  0.03454668  0.15825218  1.0
  N  N207  1  0.96545351  0.53723190  0.15825247  1.0
  N  N208  1  0.72133370  0.20944192  0.76029295  1.0
  N  N209  1  0.48810817  0.27866645  0.76029299  1.0
  N  N210  1  0.79055825  0.51189207  0.76029313  1.0
  N  N211  1  0.51189190  0.79055835  0.73970672  1.0
  N  N212  1  0.20944182  0.72133379  0.73970668  1.0
  N  N213  1  0.27866627  0.48810820  0.73970654  1.0
  N  N214  1  0.27866613  0.79055792  0.23970699  1.0
  N  N215  1  0.51189202  0.72133411  0.23970695  1.0
  N  N216  1  0.20944159  0.48810779  0.23970682  1.0
  N  N217  1  0.48810794  0.20944150  0.26029323  1.0
  N  N218  1  0.79055838  0.27866678  0.26029327  1.0
  N  N219  1  0.72133393  0.51189238  0.26029340  1.0
  O  O220  1  0.80553862  0.40770104  0.58606626  1.0
  O  O221  1  0.60216223  0.19446097  0.58606614  1.0
  O  O222  1  0.59229870  0.39783728  0.58606625  1.0
  O  O223  1  0.39783830  0.59229922  0.91393402  1.0
  O  O224  1  0.40770101  0.80553857  0.91393353  1.0
  O  O225  1  0.19446115  0.60216224  0.91393403  1.0
  O  O226  1  0.19446121  0.59229880  0.41393369  1.0
  O  O227  1  0.39783761  0.80553889  0.41393381  1.0
  O  O228  1  0.40770113  0.60216256  0.41393369  1.0
  O  O229  1  0.60216252  0.40770134  0.08606653  1.0
  O  O230  1  0.59229882  0.19446128  0.08606641  1.0
  O  O231  1  0.80553869  0.39783761  0.08606592  1.0
  O  O232  1  0.77026172  0.25779809  0.69797904  1.0
  O  O233  1  0.48753760  0.22973905  0.69797903  1.0
  O  O234  1  0.74220136  0.51246315  0.69797919  1.0
  O  O235  1  0.51246374  0.74220218  0.80202123  1.0
  O  O236  1  0.25779865  0.77026119  0.80202064  1.0
  O  O237  1  0.22973830  0.48753711  0.80202109  1.0
  O  O238  1  0.22973811  0.74220175  0.30202090  1.0
  O  O239  1  0.51246260  0.77026152  0.30202092  1.0
  O  O240  1  0.25779910  0.48753669  0.30202075  1.0
  O  O241  1  0.48753645  0.25779839  0.19797871  1.0
  O  O242  1  0.74220118  0.22973865  0.19797869  1.0
  O  O243  1  0.77026217  0.51246274  0.19797886  1.0
  O  O244  1  0.64449343  0.21400525  0.77645936  1.0
  O  O245  1  0.56951142  0.35550790  0.77646005  1.0
  O  O246  1  0.78599440  0.43048806  0.77646009  1.0
  O  O247  1  0.43048829  0.78599501  0.72354031  1.0
  O  O248  1  0.21400425  0.64449235  0.72354023  1.0
  O  O249  1  0.35550608  0.56951148  0.72353957  1.0
  O  O250  1  0.35550641  0.78599460  0.22354058  1.0
  O  O251  1  0.43048877  0.64449267  0.22354050  1.0
  O  O252  1  0.21400543  0.56951179  0.22353985  1.0
  O  O253  1  0.56951154  0.21400483  0.27645964  1.0
  O  O254  1  0.78599622  0.35550750  0.27645972  1.0
  O  O255  1  0.64449376  0.43048837  0.27646037  1.0
  O  O256  1  0.74648137  0.16163514  0.80249644  1.0
  O  O257  1  0.41515341  0.25351751  0.80249650  1.0
  O  O258  1  0.83836404  0.58484644  0.80249669  1.0
  O  O259  1  0.58484599  0.83836441  0.69750323  1.0
  O  O260  1  0.16163564  0.74648200  0.69750318  1.0
  O  O261  1  0.25351768  0.41515382  0.69750359  1.0
  O  O262  1  0.25351847  0.83836471  0.19750350  1.0
  O  O263  1  0.58484642  0.74648233  0.19750345  1.0
  O  O264  1  0.16163579  0.41515340  0.19750326  1.0
  O  O265  1  0.41515384  0.16163543  0.30249672  1.0
  O  O266  1  0.83836420  0.25351785  0.30249677  1.0
  O  O267  1  0.74648216  0.58484603  0.30249696  1.0
