# generated using pymatgen
data_Al2H3C24S6(BrO4)3
_symmetry_space_group_name_H-M   'P 1'
_cell_length_a   3.97731946
_cell_length_b   20.14062386
_cell_length_c   20.14073258
_cell_angle_alpha   60.00000725
_cell_angle_beta   89.99998392
_cell_angle_gamma   89.99978909
_symmetry_Int_Tables_number   1
_chemical_formula_structural   Al2H3C24S6(BrO4)3
_chemical_formula_sum   'Al2 H3 C24 S6 Br3 O12'
_cell_volume   1397.23456430
_cell_formula_units_Z   1
loop_
 _symmetry_equiv_pos_site_id
 _symmetry_equiv_pos_as_xyz
  1  'x, y, z'
loop_
 _atom_site_type_symbol
 _atom_site_label
 _atom_site_symmetry_multiplicity
 _atom_site_fract_x
 _atom_site_fract_y
 _atom_site_fract_z
 _atom_site_occupancy
  Al  Al0  1  0.00012595  0.99999792  0.50000185  1.0
  Al  Al1  1  0.00264964  0.66666599  0.16666726  1.0
  H  H2  1  0.47541969  0.43748106  0.38511261  1.0
  H  H3  1  0.47541706  0.88511242  0.17740710  1.0
  H  H4  1  0.47541851  0.67740415  0.93748186  1.0
  C  C5  1  0.50053377  0.94244692  0.61733262  1.0
  C  C6  1  0.50053485  0.11732914  0.44022123  1.0
  C  C7  1  0.50053387  0.94021637  0.44245181  1.0
  C  C8  1  0.50206740  0.54908717  0.22490934  1.0
  C  C9  1  0.50206587  0.72490825  0.22600325  1.0
  C  C10  1  0.50206594  0.72600181  0.04908851  1.0
  C  C11  1  0.49187967  0.25096228  0.31911884  1.0
  C  C12  1  0.48585155  0.41642812  0.34486185  1.0
  C  C13  1  0.49946054  0.20219930  0.39756632  1.0
  C  C14  1  0.49859342  0.46423193  0.26639149  1.0
  C  C15  1  0.50326847  0.33860344  0.36405682  1.0
  C  C16  1  0.50688660  0.32895434  0.29960235  1.0
  C  C17  1  0.49187835  0.81911520  0.42991948  1.0
  C  C18  1  0.48584903  0.84486090  0.23870956  1.0
  C  C19  1  0.49946068  0.89756304  0.40023604  1.0
  C  C20  1  0.49859698  0.76639127  0.26937556  1.0
  C  C21  1  0.50326257  0.86405517  0.29733986  1.0
  C  C22  1  0.50688363  0.79960043  0.37144198  1.0
  C  C23  1  0.49187975  0.92991612  0.75096427  1.0
  C  C24  1  0.48585466  0.73870746  0.91643024  1.0
  C  C25  1  0.49945800  0.90023184  0.70220193  1.0
  C  C26  1  0.49859662  0.76937384  0.96423283  1.0
  C  C27  1  0.50327547  0.79733669  0.83860556  1.0
  C  C28  1  0.50689033  0.87143938  0.82895749  1.0
  S  S29  1  0.51725348  0.25144008  0.44798200  1.0
  S  S30  1  0.52343220  0.41544175  0.21561844  1.0
  S  S31  1  0.51725116  0.94798000  0.30057999  1.0
  S  S32  1  0.52343068  0.71561597  0.36893869  1.0
  S  S33  1  0.51724972  0.80057520  0.75144125  1.0
  S  S34  1  0.52343412  0.86893757  0.91544362  1.0
  Br  Br35  1  0.48580051  0.21955512  0.24553963  1.0
  Br  Br36  1  0.48579695  0.74553555  0.53490583  1.0
  Br  Br37  1  0.48580189  0.03490351  0.71955635  1.0
  O  O38  1  0.73523927  0.98909632  0.42656521  1.0
  O  O39  1  0.73523974  0.92656005  0.58434057  1.0
  O  O40  1  0.73524092  0.08433629  0.48909974  1.0
  O  O41  1  0.26638884  0.92559980  0.49095570  1.0
  O  O42  1  0.26638750  0.08344203  0.42560284  1.0
  O  O43  1  0.26638823  0.99095211  0.58344490  1.0
  O  O44  1  0.73738760  0.74098490  0.08273749  1.0
  O  O45  1  0.73739145  0.58273567  0.17627794  1.0
  O  O46  1  0.73738809  0.67627633  0.24098631  1.0
  O  O47  1  0.26967366  0.67662656  0.08266751  1.0
  O  O48  1  0.26967557  0.74070438  0.17662907  1.0
  O  O49  1  0.26967943  0.58266550  0.24070544  1.0
