# generated using pymatgen
data_MgH(CO)5
_symmetry_space_group_name_H-M   'P 1'
_cell_length_a   6.88778117
_cell_length_b   15.19121497
_cell_length_c   15.19458980
_cell_angle_alpha   117.75410165
_cell_angle_beta   98.69118678
_cell_angle_gamma   98.69403279
_symmetry_Int_Tables_number   1
_chemical_formula_structural   MgH(CO)5
_chemical_formula_sum   'Mg6 H6 C30 O30'
_cell_volume   1345.47121528
_cell_formula_units_Z   6
loop_
 _symmetry_equiv_pos_site_id
 _symmetry_equiv_pos_as_xyz
  1  'x, y, z'
loop_
 _atom_site_type_symbol
 _atom_site_label
 _atom_site_symmetry_multiplicity
 _atom_site_fract_x
 _atom_site_fract_y
 _atom_site_fract_z
 _atom_site_occupancy
  Mg  Mg0  1  0.52605698  0.41048224  0.73347313  1.0
  Mg  Mg1  1  0.79260438  0.26656392  0.67702616  1.0
  Mg  Mg2  1  0.11561873  0.32303613  0.58959045  1.0
  Mg  Mg3  1  0.47394199  0.58951737  0.26652686  1.0
  Mg  Mg4  1  0.20739529  0.73343568  0.32297229  1.0
  Mg  Mg5  1  0.88438023  0.67696413  0.41040955  1.0
  H  H6  1  0.18750244  0.53387564  0.55588771  1.0
  H  H7  1  0.63163849  0.44403437  0.97804460  1.0
  H  H8  1  0.65363970  0.02202242  0.46606926  1.0
  H  H9  1  0.81249653  0.46612396  0.44411228  1.0
  H  H10  1  0.36835825  0.55596305  0.02195386  1.0
  H  H11  1  0.34635927  0.97797785  0.53393073  1.0
  C  C12  1  0.74374093  0.38995848  0.56371302  1.0
  C  C13  1  0.17997697  0.43638401  0.82625746  1.0
  C  C14  1  0.35378820  0.17375831  0.61011831  1.0
  C  C15  1  0.25625765  0.61004075  0.43628620  1.0
  C  C16  1  0.82002123  0.56361417  0.17374099  1.0
  C  C17  1  0.64621185  0.82624168  0.38988092  1.0
  C  C18  1  0.61519624  0.44694259  0.53399935  1.0
  C  C19  1  0.08112982  0.46607778  0.91295208  1.0
  C  C20  1  0.16821400  0.08705955  0.55312334  1.0
  C  C21  1  0.38480235  0.55305597  0.46599987  1.0
  C  C22  1  0.91886838  0.53392040  0.08704638  1.0
  C  C23  1  0.83178752  0.91294053  0.44687589  1.0
  C  C24  1  0.43454426  0.46634634  0.56761132  1.0
  C  C25  1  0.86689484  0.43240569  0.89874964  1.0
  C  C26  1  0.96819897  0.10127224  0.53367849  1.0
  C  C27  1  0.56545579  0.53365298  0.43238790  1.0
  C  C28  1  0.13310189  0.56759173  0.10124882  1.0
  C  C29  1  0.03180070  0.89872736  0.46631997  1.0
  C  C30  1  0.32540779  0.51882912  0.53139652  1.0
  C  C31  1  0.79403184  0.46854932  0.98744716  1.0
  C  C32  1  0.80660471  0.01257303  0.48112372  1.0
  C  C33  1  0.67459227  0.48117021  0.46860270  1.0
  C  C34  1  0.20596636  0.53144886  0.01255129  1.0
  C  C35  1  0.19339534  0.98742695  0.51887550  1.0
  C  C36  1  0.78638452  0.64047796  0.90571280  1.0
  C  C37  1  0.88081436  0.09432258  0.73468771  1.0
  C  C38  1  0.14596901  0.26529387  0.35975533  1.0
  C  C39  1  0.21362039  0.35952217  0.09429027  1.0
  C  C40  1  0.11918723  0.90568157  0.26531459  1.0
  C  C41  1  0.85402913  0.73470485  0.64024005  1.0
  O  O42  1  0.69125813  0.35793841  0.62378870  1.0
  O  O43  1  0.06744095  0.37632378  0.73417558  1.0
  O  O44  1  0.33333333  0.26586760  0.64212493  1.0
  O  O45  1  0.30874045  0.64206147  0.37621052  1.0
  O  O46  1  0.93255764  0.62367545  0.26582364  1.0
  O  O47  1  0.66663312  0.73413248  0.35787430  1.0
  O  O48  1  0.90069077  0.37363882  0.53027091  1.0
  O  O49  1  0.37036030  0.46983492  0.84337157  1.0
  O  O50  1  0.52706664  0.15664892  0.62646792  1.0
  O  O51  1  0.09930743  0.62636002  0.46972755  1.0
  O  O52  1  0.62963867  0.53016534  0.15662843  1.0
  O  O53  1  0.47293449  0.84335078  0.37353054  1.0
  O  O54  1  0.36394979  0.43707219  0.63001083  1.0
  O  O55  1  0.73385986  0.37002974  0.80708881  1.0
  O  O56  1  0.92687839  0.19297084  0.56301442  1.0
  O  O57  1  0.63605065  0.56292818  0.36998916  1.0
  O  O58  1  0.26613872  0.62996948  0.19291041  1.0
  O  O59  1  0.07312089  0.80702837  0.43698326  1.0
  O  O60  1  0.83841837  0.70744641  0.99124352  1.0
  O  O61  1  0.84717966  0.00875373  0.71606521  1.0
  O  O62  1  0.13084083  0.28383662  0.29277640  1.0
  O  O63  1  0.16158962  0.29255812  0.00876570  1.0
  O  O64  1  0.15282494  0.99125535  0.28394016  1.0
  O  O65  1  0.86915853  0.71615811  0.70722436  1.0
  O  O66  1  0.73542693  0.57555678  0.81832416  1.0
  O  O67  1  0.91739516  0.18174751  0.75721616  1.0
  O  O68  1  0.16014674  0.24283576  0.42469623  1.0
  O  O69  1  0.26457959  0.42444895  0.18168505  1.0
  O  O70  1  0.08260566  0.81826048  0.24278460  1.0
  O  O71  1  0.83985415  0.75716314  0.57530761  1.0
