# generated using pymatgen
data_AlH9C16O5
_symmetry_space_group_name_H-M   'P 1'
_cell_length_a   6.69746663
_cell_length_b   23.44924153
_cell_length_c   25.97580493
_cell_angle_alpha   90.00003933
_cell_angle_beta   89.99996286
_cell_angle_gamma   89.99991755
_symmetry_Int_Tables_number   1
_chemical_formula_structural   AlH9C16O5
_chemical_formula_sum   'Al4 H36 C64 O20'
_cell_volume   4079.51348064
_cell_formula_units_Z   4
loop_
 _symmetry_equiv_pos_site_id
 _symmetry_equiv_pos_as_xyz
  1  'x, y, z'
loop_
 _atom_site_type_symbol
 _atom_site_label
 _atom_site_symmetry_multiplicity
 _atom_site_fract_x
 _atom_site_fract_y
 _atom_site_fract_z
 _atom_site_occupancy
  Al  Al0  1  0.21048316  0.75096251  0.25000055  1.0
  Al  Al1  1  0.78951937  0.24903847  0.74999986  1.0
  Al  Al2  1  0.71048416  0.74903699  0.25000051  1.0
  Al  Al3  1  0.28951687  0.25096357  0.74999991  1.0
  H  H4  1  0.35127585  0.36868801  0.63202631  1.0
  H  H5  1  0.64872519  0.63131511  0.36797372  1.0
  H  H6  1  0.64872396  0.63131502  0.13202685  1.0
  H  H7  1  0.35127558  0.36868681  0.86797242  1.0
  H  H8  1  0.85127277  0.13131359  0.86797230  1.0
  H  H9  1  0.14872528  0.86868697  0.13202851  1.0
  H  H10  1  0.14872949  0.86868706  0.36797115  1.0
  H  H11  1  0.85127602  0.13131307  0.63202773  1.0
  H  H12  1  0.33838577  0.44080929  0.56103142  1.0
  H  H13  1  0.66161078  0.55919255  0.43896861  1.0
  H  H14  1  0.66160523  0.55919240  0.06103268  1.0
  H  H15  1  0.33838983  0.44080815  0.93896774  1.0
  H  H16  1  0.83838593  0.05919145  0.93896603  1.0
  H  H17  1  0.16161361  0.94080995  0.06103515  1.0
  H  H18  1  0.16161319  0.94081052  0.43896570  1.0
  H  H19  1  0.83838486  0.05919046  0.56103395  1.0
  H  H20  1  0.71177785  0.35961942  0.63307764  1.0
  H  H21  1  0.28822467  0.64038455  0.36692470  1.0
  H  H22  1  0.28822046  0.64038318  0.13307401  1.0
  H  H23  1  0.71177759  0.35961780  0.86692410  1.0
  H  H24  1  0.21177572  0.14038393  0.86692484  1.0
  H  H25  1  0.78822532  0.85961492  0.13307480  1.0
  H  H26  1  0.78822804  0.85961501  0.36692550  1.0
  H  H27  1  0.21177747  0.14038342  0.63307608  1.0
  H  H28  1  0.69565970  0.43152705  0.56196803  1.0
  H  H29  1  0.30433984  0.56847607  0.43803431  1.0
  H  H30  1  0.30433430  0.56847465  0.06196551  1.0
  H  H31  1  0.69566226  0.43152421  0.93803530  1.0
  H  H32  1  0.19566079  0.06847545  0.93803330  1.0
  H  H33  1  0.80434024  0.93152382  0.06196634  1.0
  H  H34  1  0.80434131  0.93152482  0.43803400  1.0
  H  H35  1  0.19565972  0.06847446  0.56196719  1.0
  H  H36  1  0.45631364  0.67444613  0.24999974  1.0
  H  H37  1  0.54368590  0.32555442  0.74999991  1.0
  H  H38  1  0.95631570  0.82555413  0.24999974  1.0
  H  H39  1  0.04368384  0.17444643  0.74999952  1.0
  C  C40  1  0.46217059  0.81878345  0.31972467  1.0
  C  C41  1  0.53783044  0.18121668  0.68027652  1.0
  C  C42  1  0.53782879  0.18121631  0.81972398  1.0
  C  C43  1  0.46216478  0.81878382  0.18027644  1.0
  C  C44  1  0.96215870  0.68121596  0.18027519  1.0
  C  C45  1  0.03784532  0.31878503  0.81972484  1.0
  C  C46  1  0.03784697  0.31878540  0.68027507  1.0
  C  C47  1  0.96215854  0.68121601  0.31972496  1.0
  C  C48  1  0.20153854  0.42287527  0.57690466  1.0
  C  C49  1  0.79846548  0.57712742  0.42309614  1.0
  C  C50  1  0.79845840  0.57712687  0.07690475  1.0
  C  C51  1  0.20153815  0.42287326  0.92309567  1.0
  C  C52  1  0.70153564  0.07712510  0.92309436  1.0
  C  C53  1  0.29846539  0.92287503  0.07690644  1.0
  C  C54  1  0.29846799  0.92287516  0.42309398  1.0
  C  C55  1  0.70153603  0.07712455  0.57690643  1.0
  C  C56  1  0.20891453  0.38294094  0.61634058  1.0
  C  C57  1  0.79108799  0.61706175  0.38365984  1.0
  C  C58  1  0.79108382  0.61706208  0.11634069  1.0
  C  C59  1  0.20891274  0.38293933  0.88365895  1.0
  C  C60  1  0.70890851  0.11706028  0.88365806  1.0
  C  C61  1  0.29108954  0.88293985  0.11634236  1.0
  C  C62  1  0.29109371  0.88293952  0.38365766  1.0
  C  C63  1  0.70890881  0.11706018  0.61634199  1.0
  C  C64  1  0.03213280  0.36035091  0.63691127  1.0
  C  C65  1  0.96786823  0.63965178  0.36308953  1.0
  C  C66  1  0.96786550  0.63965127  0.13691021  1.0
  C  C67  1  0.03213255  0.36034971  0.86308905  1.0
  C  C68  1  0.53213417  0.13965123  0.86308740  1.0
  C  C69  1  0.46786836  0.86034848  0.13691263  1.0
  C  C70  1  0.46786960  0.86034856  0.36308811  1.0
  C  C71  1  0.53213293  0.13965072  0.63691192  1.0
  C  C72  1  0.84741418  0.37790953  0.61690450  1.0
  C  C73  1  0.15258536  0.62209401  0.38309745  1.0
  C  C74  1  0.15258417  0.62209348  0.11690281  1.0
  C  C75  1  0.84741239  0.37790750  0.88309683  1.0
  C  C76  1  0.34740912  0.12209292  0.88309603  1.0
  C  C77  1  0.65258892  0.87790636  0.11690362  1.0
  C  C78  1  0.65259161  0.87790689  0.38309710  1.0
  C  C79  1  0.34741092  0.12209239  0.61690485  1.0
  C  C80  1  0.83880638  0.41770867  0.57748514  1.0
  C  C81  1  0.16118868  0.58229402  0.42251758  1.0
  C  C82  1  0.16118310  0.58229346  0.07748304  1.0
  C  C83  1  0.83881047  0.41770539  0.92251661  1.0
  C  C84  1  0.33880892  0.08229335  0.92251539  1.0
  C  C85  1  0.66119062  0.91770592  0.07748464  1.0
  C  C86  1  0.66119321  0.91770733  0.42251610  1.0
  C  C87  1  0.33880782  0.08229280  0.57748585  1.0
  C  C88  1  0.01601015  0.44116245  0.55689761  1.0
  C  C89  1  0.98399088  0.55883939  0.44310397  1.0
  C  C90  1  0.98398236  0.55883796  0.05689611  1.0
  C  C91  1  0.01601419  0.44116004  0.94310469  1.0
  C  C92  1  0.51600880  0.05883799  0.94310299  1.0
  C  C93  1  0.48399074  0.94116172  0.05689781  1.0
  C  C94  1  0.48399179  0.94116229  0.44310259  1.0
  C  C95  1  0.51600924  0.05883741  0.55689821  1.0
  C  C96  1  0.00613470  0.48222603  0.51711829  1.0
  C  C97  1  0.99386633  0.51777581  0.48288135  1.0
  C  C98  1  0.99385790  0.51777393  0.01711831  1.0
  C  C99  1  0.00613567  0.48222364  0.98288365  1.0
  C  C100  1  0.50613499  0.01777484  0.98288269  1.0
  C  C101  1  0.49386604  0.98222572  0.01711811  1.0
  C  C102  1  0.49386551  0.98222461  0.48288154  1.0
  C  C103  1  0.50613403  0.01777466  0.51711810  1.0
  O  O104  1  0.63015967  0.80179306  0.19748281  1.0
  O  O105  1  0.36984286  0.19820792  0.80251799  1.0
  O  O106  1  0.36984297  0.19820789  0.69748178  1.0
  O  O107  1  0.63016403  0.80179139  0.30251940  1.0
  O  O108  1  0.13016780  0.69820817  0.30251865  1.0
  O  O109  1  0.86983323  0.30179323  0.69748215  1.0
  O  O110  1  0.86983162  0.30179327  0.80251759  1.0
  O  O111  1  0.13016643  0.69820686  0.19748283  1.0
  O  O112  1  0.29132546  0.80404995  0.30259874  1.0
  O  O113  1  0.70868304  0.19595103  0.69740206  1.0
  O  O114  1  0.70868292  0.19595107  0.80259803  1.0
  O  O115  1  0.29131960  0.80404948  0.19740200  1.0
  O  O116  1  0.79132688  0.69595123  0.19740038  1.0
  O  O117  1  0.20867266  0.30405018  0.80259965  1.0
  O  O118  1  0.20867427  0.30405057  0.69739983  1.0
  O  O119  1  0.79132825  0.69594956  0.30259905  1.0
  O  O120  1  0.45939977  0.71569011  0.25000013  1.0
  O  O121  1  0.54060276  0.28431045  0.74999990  1.0
  O  O122  1  0.95940206  0.78430972  0.25000011  1.0
  O  O123  1  0.04060046  0.21569083  0.74999992  1.0
