# generated using pymatgen
data_YbH24C24(NO2)6
_symmetry_space_group_name_H-M   'P 1'
_cell_length_a   15.72930539
_cell_length_b   15.72930141
_cell_length_c   16.77303172
_cell_angle_alpha   89.99980004
_cell_angle_beta   89.99990101
_cell_angle_gamma   60.00004522
_symmetry_Int_Tables_number   1
_chemical_formula_structural   YbH24C24(NO2)6
_chemical_formula_sum   'Yb4 H96 C96 N24 O48'
_cell_volume   3593.86183631
_cell_formula_units_Z   4
loop_
 _symmetry_equiv_pos_site_id
 _symmetry_equiv_pos_as_xyz
  1  'x, y, z'
loop_
 _atom_site_type_symbol
 _atom_site_label
 _atom_site_symmetry_multiplicity
 _atom_site_fract_x
 _atom_site_fract_y
 _atom_site_fract_z
 _atom_site_occupancy
  Yb  Yb0  1  0.66666667  0.66666667  0.82656884  1.0
  Yb  Yb1  1  0.33333333  0.33333333  0.67343053  1.0
  Yb  Yb2  1  0.33333333  0.33333333  0.17342969  1.0
  Yb  Yb3  1  0.66666667  0.66666667  0.32656919  1.0
  H  H4  1  0.73691695  0.51310691  0.00406657  1.0
  H  H5  1  0.51311056  0.74997695  0.00406815  1.0
  H  H6  1  0.74997614  0.73691583  0.00406738  1.0
  H  H7  1  0.25002561  0.48688947  0.49593292  1.0
  H  H8  1  0.48689211  0.26308215  0.49593249  1.0
  H  H9  1  0.26308692  0.25002372  0.49593210  1.0
  H  H10  1  0.26308401  0.48689369  0.99593256  1.0
  H  H11  1  0.48688977  0.25002364  0.99593157  1.0
  H  H12  1  0.25002593  0.26308256  0.99593234  1.0
  H  H13  1  0.74997482  0.51310965  0.50406740  1.0
  H  H14  1  0.51310632  0.73691844  0.50406723  1.0
  H  H15  1  0.73691341  0.74997687  0.50406762  1.0
  H  H16  1  0.84175037  0.34931344  0.06630595  1.0
  H  H17  1  0.34931333  0.80894028  0.06630440  1.0
  H  H18  1  0.80893649  0.84175001  0.06630517  1.0
  H  H19  1  0.19106342  0.65068517  0.43369529  1.0
  H  H20  1  0.65068778  0.15824955  0.43369453  1.0
  H  H21  1  0.15825280  0.19106097  0.43369547  1.0
  H  H22  1  0.15825141  0.65068935  0.93369497  1.0
  H  H23  1  0.65068664  0.19106104  0.93369532  1.0
  H  H24  1  0.19106294  0.15824984  0.93369455  1.0
  H  H25  1  0.80893637  0.34931396  0.56630503  1.0
  H  H26  1  0.34931192  0.84175103  0.56630579  1.0
  H  H27  1  0.84174690  0.80893962  0.56630425  1.0
  H  H28  1  0.09470699  0.32203877  0.94377066  1.0
  H  H29  1  0.32204194  0.58325575  0.94377005  1.0
  H  H30  1  0.58325423  0.09470640  0.94377123  1.0
  H  H31  1  0.41674636  0.67795768  0.55623090  1.0
  H  H32  1  0.67796137  0.90529267  0.55622853  1.0
  H  H33  1  0.90529695  0.41674550  0.55622974  1.0
  H  H34  1  0.90529488  0.67796256  0.05622966  1.0
  H  H35  1  0.67795739  0.41674558  0.05622968  1.0
  H  H36  1  0.41674620  0.90529273  0.05622849  1.0
  H  H37  1  0.58325454  0.32203923  0.44377001  1.0
  H  H38  1  0.32203796  0.09470865  0.44377179  1.0
  H  H39  1  0.09470238  0.58325582  0.44377058  1.0
  H  H40  1  0.08677887  0.44827903  0.86594672  1.0
  H  H41  1  0.44828053  0.46494347  0.86594700  1.0
  H  H42  1  0.46494249  0.08677885  0.86594641  1.0
  H  H43  1  0.53505775  0.55171969  0.63405355  1.0
  H  H44  1  0.55172138  0.91322008  0.63405414  1.0
  H  H45  1  0.91322418  0.53505712  0.63405268  1.0
  H  H46  1  0.91322137  0.55172303  0.13405419  1.0
  H  H47  1  0.55171789  0.53505712  0.13405332  1.0
  H  H48  1  0.53505858  0.91322027  0.13405391  1.0
  H  H49  1  0.46494241  0.44827870  0.36594676  1.0
  H  H50  1  0.44827832  0.08678050  0.36594618  1.0
  H  H51  1  0.08677615  0.46494348  0.36594704  1.0
  H  H52  1  0.02090102  0.25110358  0.03465135  1.0
  H  H53  1  0.25110646  0.72799703  0.03465038  1.0
  H  H54  1  0.72799532  0.02090096  0.03465115  1.0
  H  H55  1  0.27200463  0.74889389  0.46534989  1.0
  H  H56  1  0.74889672  0.97909861  0.46534853  1.0
  H  H57  1  0.97910232  0.27200461  0.46534950  1.0
  H  H58  1  0.97910022  0.74889774  0.96534957  1.0
  H  H59  1  0.74889351  0.27200429  0.96534994  1.0
  H  H60  1  0.27200475  0.97909889  0.96534917  1.0
  H  H61  1  0.72799553  0.25110450  0.53465042  1.0
  H  H62  1  0.25110361  0.02090199  0.53465178  1.0
  H  H63  1  0.02089701  0.72799671  0.53465022  1.0
  H  H64  1  0.88728432  0.61789783  0.84625332  1.0
  H  H65  1  0.61790354  0.49481570  0.84625314  1.0
  H  H66  1  0.49481717  0.88728510  0.84625379  1.0
  H  H67  1  0.50518527  0.38209690  0.65374752  1.0
  H  H68  1  0.38210301  0.11271523  0.65374628  1.0
  H  H69  1  0.11271843  0.50518454  0.65374764  1.0
  H  H70  1  0.11271675  0.38210128  0.15374640  1.0
  H  H71  1  0.38209626  0.50518342  0.15374717  1.0
  H  H72  1  0.50518189  0.11271549  0.15374593  1.0
  H  H73  1  0.49481662  0.61789930  0.34625339  1.0
  H  H74  1  0.61789605  0.88728536  0.34625285  1.0
  H  H75  1  0.88728126  0.49481605  0.34625268  1.0
  H  H76  1  0.09082269  0.57676343  0.80475900  1.0
  H  H77  1  0.57676331  0.33241444  0.80475960  1.0
  H  H78  1  0.33241434  0.09082309  0.80475841  1.0
  H  H79  1  0.66758663  0.42323609  0.69524116  1.0
  H  H80  1  0.42323670  0.90917717  0.69524235  1.0
  H  H81  1  0.90917762  0.66758548  0.69524176  1.0
  H  H82  1  0.90917664  0.42323789  0.19524072  1.0
  H  H83  1  0.42323485  0.66758542  0.19524191  1.0
  H  H84  1  0.66758599  0.90917750  0.19524191  1.0
  H  H85  1  0.33241217  0.57676376  0.30476094  1.0
  H  H86  1  0.57676300  0.09082342  0.30475796  1.0
  H  H87  1  0.09082208  0.33241510  0.30475796  1.0
  H  H88  1  0.98600943  0.69449034  0.81924428  1.0
  H  H89  1  0.69449074  0.31949910  0.81924454  1.0
  H  H90  1  0.31950068  0.98601008  0.81924434  1.0
  H  H91  1  0.68050214  0.30550821  0.68075694  1.0
  H  H92  1  0.30551044  0.01399084  0.68075652  1.0
  H  H93  1  0.01398976  0.68050114  0.68075686  1.0
  H  H94  1  0.01398990  0.30551098  0.18075544  1.0
  H  H95  1  0.30550752  0.68049928  0.18075757  1.0
  H  H96  1  0.68049865  0.01399124  0.18075597  1.0
  H  H97  1  0.31949929  0.69449018  0.31924517  1.0
  H  H98  1  0.69448862  0.98600975  0.31924379  1.0
  H  H99  1  0.98600993  0.31949946  0.31924346  1.0
  C  C100  1  0.85456905  0.51120609  0.93757810  1.0
  C  C101  1  0.51120862  0.63422256  0.93758115  1.0
  C  C102  1  0.63422445  0.85457022  0.93758010  1.0
  C  C103  1  0.36577873  0.48879075  0.56242050  1.0
  C  C104  1  0.48879373  0.14542877  0.56241918  1.0
  C  C105  1  0.14543108  0.36577765  0.56241969  1.0
  C  C106  1  0.14543128  0.48879451  0.06242103  1.0
  C  C107  1  0.48879171  0.36577804  0.06241857  1.0
  C  C108  1  0.36577688  0.14542964  0.06241903  1.0
  C  C109  1  0.63422407  0.51120617  0.43757922  1.0
  C  C110  1  0.51120479  0.85457035  0.43757876  1.0
  C  C111  1  0.85456925  0.63422294  0.43758063  1.0
  C  C112  1  0.81527617  0.47041454  0.99157618  1.0
  C  C113  1  0.47042001  0.71430699  0.99157726  1.0
  C  C114  1  0.71430821  0.81527631  0.99157689  1.0
  C  C115  1  0.28569529  0.52957931  0.50842370  1.0
  C  C116  1  0.52958405  0.18472201  0.50842288  1.0
  C  C117  1  0.18472694  0.28569321  0.50842359  1.0
  C  C118  1  0.18472452  0.52958533  0.00842354  1.0
  C  C119  1  0.52957969  0.28569360  0.00842246  1.0
  C  C120  1  0.28569449  0.18472208  0.00842283  1.0
  C  C121  1  0.71430724  0.47041688  0.49157721  1.0
  C  C122  1  0.47041347  0.81527785  0.49157625  1.0
  C  C123  1  0.81527340  0.71430737  0.49157673  1.0
  C  C124  1  0.95856865  0.45562173  0.92204543  1.0
  C  C125  1  0.45562490  0.58580888  0.92204682  1.0
  C  C126  1  0.58580947  0.95856908  0.92204670  1.0
  C  C127  1  0.41419368  0.54437446  0.57795364  1.0
  C  C128  1  0.54437886  0.04142845  0.57795317  1.0
  C  C129  1  0.04143273  0.41419198  0.57795415  1.0
  C  C130  1  0.04143104  0.54437886  0.07795429  1.0
  C  C131  1  0.54437443  0.41419245  0.07795350  1.0
  C  C132  1  0.41419260  0.04142931  0.07795302  1.0
  C  C133  1  0.58580949  0.45562173  0.42204668  1.0
  C  C134  1  0.45562029  0.95857068  0.42204596  1.0
  C  C135  1  0.95856760  0.58580861  0.42204676  1.0
  C  C136  1  0.87427470  0.37870134  0.02506229  1.0
  C  C137  1  0.37870512  0.74702499  0.02506208  1.0
  C  C138  1  0.74702410  0.87427397  0.02506336  1.0
  C  C139  1  0.25297663  0.62129511  0.47493828  1.0
  C  C140  1  0.62129773  0.12572482  0.47493641  1.0
  C  C141  1  0.12572964  0.25297553  0.47493839  1.0
  C  C142  1  0.12572654  0.62129998  0.97493744  1.0
  C  C143  1  0.62129421  0.25297633  0.97493764  1.0
  C  C144  1  0.25297760  0.12572515  0.97493636  1.0
  C  C145  1  0.74702290  0.37870327  0.52506263  1.0
  C  C146  1  0.37870069  0.87427578  0.52506331  1.0
  C  C147  1  0.87427069  0.74702506  0.52506252  1.0
  C  C148  1  0.01667061  0.36223992  0.95768108  1.0
  C  C149  1  0.36224203  0.62109093  0.95768276  1.0
  C  C150  1  0.62108888  0.01667073  0.95768235  1.0
  C  C151  1  0.37890941  0.63775868  0.54231878  1.0
  C  C152  1  0.63776008  0.98332906  0.54231741  1.0
  C  C153  1  0.98333255  0.37890965  0.54231752  1.0
  C  C154  1  0.98333099  0.63776067  0.04231804  1.0
  C  C155  1  0.63775730  0.37891040  0.04231756  1.0
  C  C156  1  0.37891082  0.98332986  0.04231737  1.0
  C  C157  1  0.62108911  0.36224044  0.45768034  1.0
  C  C158  1  0.36223962  0.01667152  0.45768172  1.0
  C  C159  1  0.01666779  0.62109093  0.45768339  1.0
  C  C160  1  0.00717769  0.49234600  0.87383855  1.0
  C  C161  1  0.49234992  0.50047577  0.87383993  1.0
  C  C162  1  0.50047628  0.00717807  0.87383894  1.0
  C  C163  1  0.49952529  0.50765046  0.62616122  1.0
  C  C164  1  0.50765511  0.99282085  0.62616161  1.0
  C  C165  1  0.99282519  0.49952488  0.62616084  1.0
  C  C166  1  0.99282264  0.50765460  0.12615998  1.0
  C  C167  1  0.50764914  0.49952482  0.12616039  1.0
  C  C168  1  0.49952415  0.99282105  0.12616137  1.0
  C  C169  1  0.50047624  0.49234646  0.37383850  1.0
  C  C170  1  0.49234432  0.00717900  0.37383811  1.0
  C  C171  1  0.00717451  0.50047570  0.37383948  1.0
  C  C172  1  0.97553997  0.32323004  0.00789247  1.0
  C  C173  1  0.32323240  0.70122988  0.00789178  1.0
  C  C174  1  0.70122901  0.97554048  0.00789341  1.0
  C  C175  1  0.29877084  0.67676723  0.49210917  1.0
  C  C176  1  0.67677030  0.02445831  0.49210635  1.0
  C  C177  1  0.02446149  0.29877129  0.49210822  1.0
  C  C178  1  0.02445936  0.67677128  0.99210725  1.0
  C  C179  1  0.67676693  0.29877145  0.99210794  1.0
  C  C180  1  0.29877179  0.02445791  0.99210631  1.0
  C  C181  1  0.70122932  0.32323116  0.50789234  1.0
  C  C182  1  0.32322876  0.97554228  0.50789218  1.0
  C  C183  1  0.97553784  0.70123003  0.50789269  1.0
  C  C184  1  0.01152237  0.62083777  0.79465885  1.0
  C  C185  1  0.62083900  0.36763918  0.79465877  1.0
  C  C186  1  0.36763997  0.01152334  0.79465837  1.0
  C  C187  1  0.63236226  0.37916096  0.70534200  1.0
  C  C188  1  0.37916325  0.98847693  0.70534240  1.0
  C  C189  1  0.98847797  0.63236081  0.70534190  1.0
  C  C190  1  0.98847696  0.37916355  0.20534147  1.0
  C  C191  1  0.37916042  0.63236069  0.20534274  1.0
  C  C192  1  0.63235972  0.98847726  0.20534255  1.0
  C  C193  1  0.36763790  0.62083743  0.29465951  1.0
  C  C194  1  0.62083644  0.01152367  0.29465792  1.0
  C  C195  1  0.01152236  0.36763978  0.29465783  1.0
  N  N196  1  0.71629624  0.79171560  0.73582293  1.0
  N  N197  1  0.79171112  0.49199410  0.73582157  1.0
  N  N198  1  0.49198506  0.71630205  0.73582502  1.0
  N  N199  1  0.50801109  0.20828492  0.76417745  1.0
  N  N200  1  0.20828747  0.28369891  0.76417519  1.0
  N  N201  1  0.28370602  0.50800634  0.76417655  1.0
  N  N202  1  0.28370372  0.20828573  0.26417679  1.0
  N  N203  1  0.20828794  0.50800650  0.26417756  1.0
  N  N204  1  0.50801400  0.28369854  0.26417470  1.0
  N  N205  1  0.49198870  0.79171421  0.23582286  1.0
  N  N206  1  0.79171287  0.71630167  0.23582513  1.0
  N  N207  1  0.71629468  0.49199352  0.23582198  1.0
  N  N208  1  0.96252587  0.57779212  0.83802106  1.0
  N  N209  1  0.57779559  0.45968129  0.83802157  1.0
  N  N210  1  0.45968156  0.96252674  0.83802143  1.0
  N  N211  1  0.54032036  0.42220415  0.66197910  1.0
  N  N212  1  0.42220933  0.03747286  0.66197863  1.0
  N  N213  1  0.03747639  0.54031962  0.66197871  1.0
  N  N214  1  0.03747446  0.42220847  0.16197926  1.0
  N  N215  1  0.42220384  0.54031856  0.16197935  1.0
  N  N216  1  0.54031787  0.03747311  0.16197888  1.0
  N  N217  1  0.45968090  0.57779204  0.33802122  1.0
  N  N218  1  0.57779137  0.96252700  0.33802050  1.0
  N  N219  1  0.96252394  0.45968097  0.33802101  1.0
  O  O220  1  0.79947150  0.59638686  0.90335103  1.0
  O  O221  1  0.59639114  0.60413966  0.90335595  1.0
  O  O222  1  0.60414075  0.79947254  0.90335444  1.0
  O  O223  1  0.39586192  0.40360851  0.59664639  1.0
  O  O224  1  0.40361236  0.20052639  0.59664612  1.0
  O  O225  1  0.20053062  0.39586063  0.59664537  1.0
  O  O226  1  0.20052893  0.40361226  0.09664749  1.0
  O  O227  1  0.40360792  0.39586093  0.09664377  1.0
  O  O228  1  0.39586122  0.20052732  0.09664648  1.0
  O  O229  1  0.60413961  0.59638841  0.40335333  1.0
  O  O230  1  0.59638552  0.79947274  0.40335181  1.0
  O  O231  1  0.79946971  0.60413996  0.40335495  1.0
  O  O232  1  0.76659335  0.74391187  0.79686977  1.0
  O  O233  1  0.74391064  0.48949652  0.79686961  1.0
  O  O234  1  0.48949603  0.76659419  0.79687294  1.0
  O  O235  1  0.51050534  0.25608720  0.70312997  1.0
  O  O236  1  0.25609073  0.23340533  0.70312664  1.0
  O  O237  1  0.23340847  0.51050313  0.70312918  1.0
  O  O238  1  0.23340635  0.25608871  0.20312935  1.0
  O  O239  1  0.25608842  0.51050407  0.20312952  1.0
  O  O240  1  0.51050340  0.23340567  0.20312619  1.0
  O  O241  1  0.48949418  0.74391119  0.29686915  1.0
  O  O242  1  0.74390833  0.76659526  0.29687308  1.0
  O  O243  1  0.76659159  0.48949673  0.29686994  1.0
  O  O244  1  0.63925908  0.78514458  0.72151372  1.0
  O  O245  1  0.78513352  0.57560386  0.72151037  1.0
  O  O246  1  0.57559156  0.63926337  0.72151342  1.0
  O  O247  1  0.42440357  0.21485584  0.77848679  1.0
  O  O248  1  0.21485567  0.36073690  0.77848672  1.0
  O  O249  1  0.36073871  0.42439661  0.77848769  1.0
  O  O250  1  0.36073988  0.21485748  0.27848600  1.0
  O  O251  1  0.21486554  0.42439673  0.27848816  1.0
  O  O252  1  0.42440787  0.36073648  0.27848631  1.0
  O  O253  1  0.57559723  0.78514254  0.22151293  1.0
  O  O254  1  0.78514466  0.63926369  0.22151359  1.0
  O  O255  1  0.63926226  0.57560398  0.22151084  1.0
  O  O256  1  0.74013251  0.84055221  0.69332067  1.0
  O  O257  1  0.84055263  0.41932046  0.69332069  1.0
  O  O258  1  0.41931017  0.74014370  0.69332408  1.0
  O  O259  1  0.58068446  0.15944836  0.80667963  1.0
  O  O260  1  0.15945353  0.25985719  0.80667623  1.0
  O  O261  1  0.25987233  0.58067925  0.80667860  1.0
  O  O262  1  0.25986782  0.15944838  0.30667964  1.0
  O  O263  1  0.15944770  0.58068013  0.30667904  1.0
  O  O264  1  0.58068889  0.25985689  0.30667564  1.0
  O  O265  1  0.41931587  0.84055223  0.19332009  1.0
  O  O266  1  0.84054580  0.74014413  0.19332409  1.0
  O  O267  1  0.74012710  0.41932060  0.19332112  1.0
