# generated using pymatgen
data_CuH5C7N2
_symmetry_space_group_name_H-M   'P 1'
_cell_length_a   21.99374778
_cell_length_b   24.07694475
_cell_length_c   24.12298359
_cell_angle_alpha   94.57978321
_cell_angle_beta   95.12405912
_cell_angle_gamma   94.93343361
_symmetry_Int_Tables_number   1
_chemical_formula_structural   CuH5C7N2
_chemical_formula_sum   'Cu12 H60 C84 N24'
_cell_volume   12626.54610564
_cell_formula_units_Z   12
loop_
 _symmetry_equiv_pos_site_id
 _symmetry_equiv_pos_as_xyz
  1  'x, y, z'
loop_
 _atom_site_type_symbol
 _atom_site_label
 _atom_site_symmetry_multiplicity
 _atom_site_fract_x
 _atom_site_fract_y
 _atom_site_fract_z
 _atom_site_occupancy
  Cu  Cu0  1  0.19951491  0.23357714  0.11611882  1.0
  Cu  Cu1  1  0.22731393  0.16572800  0.22242419  1.0
  Cu  Cu2  1  0.09679623  0.21086947  0.19675668  1.0
  Cu  Cu3  1  0.80866988  0.22426439  0.86162679  1.0
  Cu  Cu4  1  0.80451448  0.11001741  0.78275097  1.0
  Cu  Cu5  1  0.87936667  0.22045940  0.75364409  1.0
  Cu  Cu6  1  0.21355039  0.77423579  0.87493342  1.0
  Cu  Cu7  1  0.23579052  0.85406183  0.77958597  1.0
  Cu  Cu8  1  0.10485871  0.78383189  0.78489713  1.0
  Cu  Cu9  1  0.75334224  0.76569455  0.13638848  1.0
  Cu  Cu10  1  0.76171649  0.82460193  0.25957902  1.0
  Cu  Cu11  1  0.85444354  0.73706237  0.22902324  1.0
  H  H12  1  0.31657536  0.21323719  0.05234736  1.0
  H  H13  1  0.35503803  0.12330088  0.19808432  1.0
  H  H14  1  0.99459558  0.28417377  0.14772103  1.0
  H  H15  1  0.13850749  0.31970625  0.04061086  1.0
  H  H16  1  0.20736854  0.10924549  0.33515458  1.0
  H  H17  1  0.02703533  0.16302901  0.29420503  1.0
  H  H18  1  0.71555271  0.18766638  0.94690552  1.0
  H  H19  1  0.70431118  0.03480194  0.83727353  1.0
  H  H20  1  0.90906620  0.35095009  0.74430177  1.0
  H  H21  1  0.83471260  0.35375288  0.90465575  1.0
  H  H22  1  0.84639321  0.02079619  0.69146895  1.0
  H  H23  1  0.95045593  0.17256260  0.65539064  1.0
  H  H24  1  0.31640170  0.82664398  0.96712250  1.0
  H  H25  1  0.35870368  0.92667603  0.83169602  1.0
  H  H26  1  0.00192560  0.69683550  0.82554437  1.0
  H  H27  1  0.16028219  0.67336019  0.93868328  1.0
  H  H28  1  0.20693696  0.91741197  0.67240074  1.0
  H  H29  1  0.02713669  0.83483042  0.68815482  1.0
  H  H30  1  0.66829092  0.84521735  0.07272093  1.0
  H  H31  1  0.66602278  0.91413712  0.24400255  1.0
  H  H32  1  0.90847289  0.63477031  0.16513939  1.0
  H  H33  1  0.77764810  0.67998943  0.03521226  1.0
  H  H34  1  0.82433450  0.88284077  0.37321466  1.0
  H  H35  1  0.96600744  0.78270146  0.31893520  1.0
  H  H36  1  0.04006028  0.12095198  0.49284813  1.0
  H  H37  1  0.98578552  0.96193289  0.55472608  1.0
  H  H38  1  0.16495415  0.01432050  0.50519661  1.0
  H  H39  1  0.02435099  0.98742382  0.38585727  1.0
  H  H40  1  0.52459551  0.02630288  0.14521351  1.0
  H  H41  1  0.57512414  0.98800072  0.97820907  1.0
  H  H42  1  0.53586190  0.15119692  0.04826667  1.0
  H  H43  1  0.39790858  0.03324551  0.01980523  1.0
  H  H44  1  0.09495935  0.48827391  0.99358503  1.0
  H  H45  1  0.92749670  0.56284082  0.94897110  1.0
  H  H46  1  0.95768016  0.45793666  0.08391697  1.0
  H  H47  1  0.95351707  0.38670844  0.92720083  1.0
  H  H48  1  0.41529101  0.15150700  0.04628379  1.0
  H  H49  1  0.44156392  0.08553140  0.14851953  1.0
  H  H50  1  0.63287947  0.02849620  0.92718281  1.0
  H  H51  1  0.61945840  0.14655744  0.98130542  1.0
  H  H52  1  0.38892177  0.92711724  0.99848570  1.0
  H  H53  1  0.46895566  0.95782245  0.90531955  1.0
  H  H54  1  0.59955435  0.96863614  0.16887190  1.0
  H  H55  1  0.61382956  0.93127876  0.04610660  1.0
  H  H56  1  0.97281821  0.36860348  0.07931712  1.0
  H  H57  1  0.07489649  0.38921679  0.00205642  1.0
  H  H58  1  0.87033245  0.60823954  0.99987479  1.0
  H  H59  1  0.90257432  0.54365724  0.10204335  1.0
  H  H60  1  0.86398253  0.45597596  0.78968828  1.0
  H  H61  1  0.89435094  0.52183783  0.86347721  1.0
  H  H62  1  0.97962481  0.61972606  0.90538018  1.0
  H  H63  1  0.10300053  0.58470519  0.95537274  1.0
  H  H64  1  0.03354016  0.10349550  0.38469019  1.0
  H  H65  1  0.15985421  0.06405467  0.41899952  1.0
  H  H66  1  0.02779326  0.91248357  0.60967683  1.0
  H  H67  1  0.15895648  0.95470829  0.58752841  1.0
  H  H68  1  0.00675155  0.88282458  0.38764527  1.0
  H  H69  1  0.90771523  0.91493590  0.46343653  1.0
  H  H70  1  0.93375229  0.00580365  0.61197869  1.0
  H  H71  1  0.97185174  0.12067673  0.57129222  1.0
  C  C72  1  0.31744698  0.19462032  0.09192833  1.0
  C  C73  1  0.36003042  0.16069288  0.11537294  1.0
  C  C74  1  0.33727614  0.14860050  0.16618983  1.0
  C  C75  1  0.03551257  0.28630934  0.12558596  1.0
  C  C76  1  0.05059947  0.31958521  0.08263491  1.0
  C  C77  1  0.10882248  0.30454565  0.07082231  1.0
  C  C78  1  0.16672084  0.12663976  0.31768178  1.0
  C  C79  1  0.10774543  0.12561122  0.33605743  1.0
  C  C80  1  0.07474989  0.15417343  0.29654766  1.0
  C  C81  1  0.71958962  0.15440712  0.91471878  1.0
  C  C82  1  0.68903795  0.10010189  0.90578671  1.0
  C  C83  1  0.71452289  0.07625585  0.85904904  1.0
  C  C84  1  0.88920069  0.34176960  0.78254153  1.0
  C  C85  1  0.87606686  0.37882687  0.82703558  1.0
  C  C86  1  0.85222670  0.34316811  0.86488799  1.0
  C  C87  1  0.86734652  0.06301457  0.68946057  1.0
  C  C88  1  0.90976771  0.08288147  0.65362503  1.0
  C  C89  1  0.91982219  0.14059330  0.67042454  1.0
  C  C90  1  0.31933884  0.84525623  0.92779220  1.0
  C  C91  1  0.35890936  0.89059176  0.91525270  1.0
  C  C92  1  0.34176177  0.89582608  0.85843712  1.0
  C  C93  1  0.04641103  0.69811490  0.84933054  1.0
  C  C94  1  0.06528532  0.66592106  0.89286222  1.0
  C  C95  1  0.12740805  0.68553915  0.90668740  1.0
  C  C96  1  0.16703928  0.89225096  0.68310694  1.0
  C  C97  1  0.10557485  0.88873993  0.65993781  1.0
  C  C98  1  0.07528021  0.85036708  0.69163860  1.0
  C  C99  1  0.67395835  0.85562629  0.11759345  1.0
  C  C100  1  0.65091304  0.89886455  0.15010349  1.0
  C  C101  1  0.67266034  0.89037097  0.20516900  1.0
  C  C102  1  0.87218269  0.65166058  0.14003428  1.0
  C  C103  1  0.85159310  0.63866945  0.08313747  1.0
  C  C104  1  0.80640835  0.67560506  0.07329948  1.0
  C  C105  1  0.85143700  0.85224115  0.35422499  1.0
  C  C106  1  0.91419350  0.84567499  0.36508576  1.0
  C  C107  1  0.92394519  0.80165332  0.32581410  1.0
  C  C108  1  0.07657048  0.03961094  0.46094085  1.0
  C  C109  1  0.03763670  0.07596883  0.49613454  1.0
  C  C110  1  0.00469528  0.04824365  0.53167746  1.0
  C  C111  1  0.01284233  0.98524804  0.52685584  1.0
  C  C112  1  0.11509639  0.01082439  0.50403523  1.0
  C  C113  1  0.08248766  0.98160886  0.53886904  1.0
  C  C114  1  0.03022465  0.99283104  0.43129611  1.0
  C  C115  1  0.99720517  0.96343712  0.46523853  1.0
  C  C116  1  0.48678603  0.06981415  0.07100268  1.0
  C  C117  1  0.52614318  0.02958617  0.10056535  1.0
  C  C118  1  0.55883513  0.99889495  0.06689962  1.0
  C  C119  1  0.54863917  0.01291270  0.00554288  1.0
  C  C120  1  0.53182746  0.10575280  0.04057448  1.0
  C  C121  1  0.56496887  0.07639392  0.00607190  1.0
  C  C122  1  0.44749052  0.03244105  0.02381238  1.0
  C  C123  1  0.47916909  0.00159231  0.98986097  1.0
  C  C124  1  0.00021343  0.44403778  0.00153646  1.0
  C  C125  1  0.04582192  0.49218519  0.98823392  1.0
  C  C126  1  0.02001951  0.53623875  0.96803392  1.0
  C  C127  1  0.94955462  0.52744149  0.96475802  1.0
  C  C128  1  0.96048589  0.47180559  0.04226864  1.0
  C  C129  1  0.93434992  0.51655683  0.02393743  1.0
  C  C130  1  0.95782429  0.42933296  0.94678659  1.0
  C  C131  1  0.93189760  0.47319572  0.92626423  1.0
  C  C132  1  0.41021288  0.13856529  0.08831414  1.0
  C  C133  1  0.44628379  0.10044255  0.10731337  1.0
  C  C134  1  0.64254214  0.07375482  0.93636454  1.0
  C  C135  1  0.61072737  0.10095331  0.97407895  1.0
  C  C136  1  0.40069841  0.92633017  0.95528834  1.0
  C  C137  1  0.45052178  0.96031194  0.94606345  1.0
  C  C138  1  0.61435376  0.94291308  0.13398068  1.0
  C  C139  1  0.59761042  0.95552971  0.08128224  1.0
  C  C140  1  0.01547630  0.36258179  0.06041397  1.0
  C  C141  1  0.03265970  0.39597019  0.02141127  1.0
  C  C142  1  0.87453555  0.59895290  0.04363295  1.0
  C  C143  1  0.90228213  0.55340305  0.05842669  1.0
  C  C144  1  0.87987072  0.43960259  0.82890850  1.0
  C  C145  1  0.89959860  0.47844148  0.87206073  1.0
  C  C146  1  0.02920842  0.62196457  0.91606387  1.0
  C  C147  1  0.05305796  0.58310711  0.94729473  1.0
  C  C148  1  0.08256091  0.09963755  0.38214529  1.0
  C  C149  1  0.11119394  0.06998617  0.41978574  1.0
  C  C150  1  0.07787711  0.91794370  0.61560450  1.0
  C  C151  1  0.10874128  0.95079179  0.58219677  1.0
  C  C152  1  0.96027487  0.88167946  0.40067259  1.0
  C  C153  1  0.95140665  0.91771937  0.44476734  1.0
  C  C154  1  0.93799694  0.05129248  0.61095561  1.0
  C  C155  1  0.97004129  0.07513600  0.57201567  1.0
  N  N156  1  0.28514350  0.17317235  0.17203929  1.0
  N  N157  1  0.27264560  0.20173311  0.12583779  1.0
  N  N158  1  0.12682691  0.26577918  0.10449433  1.0
  N  N159  1  0.08131176  0.25433592  0.13854595  1.0
  N  N160  1  0.11113757  0.17079569  0.25774573  1.0
  N  N161  1  0.16830000  0.15374376  0.27095210  1.0
  N  N162  1  0.75638598  0.11347702  0.84145506  1.0
  N  N163  1  0.75966043  0.16196294  0.87625318  1.0
  N  N164  1  0.85103421  0.28929827  0.84425033  1.0
  N  N165  1  0.87469656  0.28840943  0.79331884  1.0
  N  N166  1  0.88590972  0.15369923  0.71251867  1.0
  N  N167  1  0.85311461  0.10558150  0.72437365  1.0
  N  N168  1  0.29542636  0.85675222  0.83901445  1.0
  N  N169  1  0.28186454  0.82507354  0.88215230  1.0
  N  N170  1  0.14381949  0.72585236  0.87386090  1.0
  N  N171  1  0.09367615  0.73358527  0.83797293  1.0
  N  N172  1  0.11537487  0.83258722  0.73043796  1.0
  N  N173  1  0.17243395  0.85875740  0.72511550  1.0
  N  N174  1  0.70617002  0.84607324  0.20534593  1.0
  N  N175  1  0.70692906  0.82452902  0.15085423  1.0
  N  N176  1  0.80046311  0.70767011  0.12063170  1.0
  N  N177  1  0.84165557  0.69298220  0.16202537  1.0
  N  N178  1  0.87126817  0.78367840  0.29414243  1.0
  N  N179  1  0.82612271  0.81540725  0.31164018  1.0
