# generated using pymatgen
data_ZnH33C45N2O10F9
_symmetry_space_group_name_H-M   'P 1'
_cell_length_a   16.55368725
_cell_length_b   16.67001737
_cell_length_c   27.67694288
_cell_angle_alpha   88.05636830
_cell_angle_beta   89.85099327
_cell_angle_gamma   93.98954517
_symmetry_Int_Tables_number   1
_chemical_formula_structural   ZnH33C45N2O10F9
_chemical_formula_sum   'Zn2 H66 C90 N4 O20 F18'
_cell_volume   7614.47444232
_cell_formula_units_Z   2
loop_
 _symmetry_equiv_pos_site_id
 _symmetry_equiv_pos_as_xyz
  1  'x, y, z'
loop_
 _atom_site_type_symbol
 _atom_site_label
 _atom_site_symmetry_multiplicity
 _atom_site_fract_x
 _atom_site_fract_y
 _atom_site_fract_z
 _atom_site_occupancy
  Zn  Zn0  1  0.50126634  0.59275083  0.48727541  1.0
  Zn  Zn1  1  0.50625042  0.40531613  0.49753205  1.0
  H  H2  1  0.65582836  0.40938824  0.25909898  1.0
  H  H3  1  0.36960477  0.60279518  0.71849510  1.0
  H  H4  1  0.75430992  0.42961630  0.48360964  1.0
  H  H5  1  0.27383726  0.59122672  0.55289191  1.0
  H  H6  1  0.99900587  0.38465433  0.55157851  1.0
  H  H7  1  0.00177787  0.55029458  0.59799599  1.0
  H  H8  1  0.61634911  0.13250071  0.55177643  1.0
  H  H9  1  0.44817799  0.86838782  0.41145036  1.0
  H  H10  1  0.50410917  0.87608974  0.56382543  1.0
  H  H11  1  0.40660148  0.11860761  0.45844351  1.0
  H  H12  1  0.91050693  0.60917251  0.69329537  1.0
  H  H13  1  0.89315070  0.50961903  0.67199929  1.0
  H  H14  1  0.76044740  0.62640162  0.68815235  1.0
  H  H15  1  0.74383759  0.52567550  0.67066611  1.0
  H  H16  1  0.80138224  0.47666828  0.75013597  1.0
  H  H17  1  0.71878380  0.53707986  0.75970138  1.0
  H  H18  1  0.81946449  0.57800880  0.76759106  1.0
  H  H19  1  0.04583130  0.21791989  0.53547233  1.0
  H  H20  1  0.09118156  0.27369169  0.58348988  1.0
  H  H21  1  0.18635698  0.19879563  0.50313873  1.0
  H  H22  1  0.22853842  0.24480659  0.55470761  1.0
  H  H23  1  0.15325569  0.13605490  0.60845870  1.0
  H  H24  1  0.22005418  0.09464190  0.56740872  1.0
  H  H25  1  0.11455015  0.08954561  0.55574081  1.0
  H  H26  1  0.30894412  0.29299218  0.40983113  1.0
  H  H27  1  0.32217357  0.19115689  0.42696290  1.0
  H  H28  1  0.43743846  0.29919789  0.36131900  1.0
  H  H29  1  0.44831178  0.19621058  0.37484050  1.0
  H  H30  1  0.31480871  0.15962990  0.33333333  1.0
  H  H31  1  0.38358027  0.21495480  0.29316806  1.0
  H  H32  1  0.30366039  0.26327893  0.31996967  1.0
  H  H33  1  0.52264548  0.69867884  0.64200728  1.0
  H  H34  1  0.48586977  0.79256998  0.62347674  1.0
  H  H35  1  0.65999054  0.74422975  0.60899272  1.0
  H  H36  1  0.62679014  0.84070380  0.59523678  1.0
  H  H37  1  0.59577231  0.85814221  0.68407904  1.0
  H  H38  1  0.69867646  0.83889569  0.67506774  1.0
  H  H39  1  0.62896802  0.76086072  0.69776403  1.0
  H  H40  1  0.46154536  0.68700999  0.34115185  1.0
  H  H41  1  0.47209437  0.79080542  0.35482117  1.0
  H  H42  1  0.32093768  0.67667187  0.37521521  1.0
  H  H43  1  0.32769845  0.78100685  0.38544028  1.0
  H  H44  1  0.35034239  0.80976921  0.29498775  1.0
  H  H45  1  0.25653332  0.75464295  0.30711036  1.0
  H  H46  1  0.34001192  0.70452517  0.28570953  1.0
  H  H47  1  0.74594178  0.32131826  0.54866771  1.0
  H  H48  1  0.71745524  0.21725357  0.54286921  1.0
  H  H49  1  0.68524705  0.31540673  0.63203301  1.0
  H  H50  1  0.66751712  0.20998203  0.62894532  1.0
  H  H51  1  0.81903388  0.19759760  0.61662518  1.0
  H  H52  1  0.79940808  0.24541062  0.67132456  1.0
  H  H53  1  0.83534188  0.30368417  0.61983202  1.0
  H  H54  1  0.75174254  0.45796067  0.99459579  1.0
  H  H55  1  0.79760822  0.50600219  0.04562960  1.0
  H  H56  1  0.82156043  0.56549358  0.94010397  1.0
  H  H57  1  0.86842277  0.60966612  0.99101627  1.0
  H  H58  1  0.93874599  0.48093528  0.00891239  1.0
  H  H59  1  0.96325141  0.52130549  0.95015669  1.0
  H  H60  1  0.89175206  0.43741421  0.95749690  1.0
  H  H61  1  0.21122335  0.33008491  0.99706498  1.0
  H  H62  1  0.23873727  0.33142777  0.93487001  1.0
  H  H63  1  0.12244883  0.44247241  0.98182508  1.0
  H  H64  1  0.14828736  0.44607714  0.91962444  1.0
  H  H65  1  0.08896111  0.30276192  0.91219380  1.0
  H  H66  1  0.01569414  0.36621978  0.93314826  1.0
  H  H67  1  0.06157111  0.29964043  0.97439795  1.0
  C  C68  1  0.65134971  0.53357431  0.51126499  1.0
  C  C69  1  0.35198221  0.49856770  0.49302505  1.0
  C  C70  1  0.48298198  0.48316554  0.58509185  1.0
  C  C71  1  0.52727082  0.47997025  0.40178366  1.0
  C  C72  1  0.52514819  0.58449401  0.80966852  1.0
  C  C73  1  0.48016118  0.40400938  0.17386826  1.0
  C  C74  1  0.39935254  0.48959531  0.81405049  1.0
  C  C75  1  0.60145694  0.50434948  0.16903457  1.0
  C  C76  1  0.41437605  0.56345289  0.70584750  1.0
  C  C77  1  0.60336347  0.43444827  0.27499309  1.0
  C  C78  1  0.42046203  0.54780453  0.65712150  1.0
  C  C79  1  0.59851967  0.44310706  0.32457837  1.0
  C  C80  1  0.52606921  0.46046209  0.67201866  1.0
  C  C81  1  0.47206876  0.50153768  0.31737606  1.0
  C  C82  1  0.52143069  0.47505173  0.72114234  1.0
  C  C83  1  0.47511615  0.49402206  0.26743888  1.0
  C  C84  1  0.46570771  0.52645458  0.73803914  1.0
  C  C85  1  0.54050256  0.45999329  0.24612984  1.0
  C  C86  1  0.47374712  0.52648023  0.89041642  1.0
  C  C87  1  0.52385689  0.46920001  0.09325689  1.0
  C  C88  1  0.52894408  0.57925744  0.86289316  1.0
  C  C89  1  0.47080777  0.41477361  0.12102772  1.0
  C  C90  1  0.58549851  0.62677377  0.88819586  1.0
  C  C91  1  0.41216434  0.36936334  0.09595255  1.0
  C  C92  1  0.40503322  0.48939881  0.86726097  1.0
  C  C93  1  0.59402610  0.50492798  0.11585547  1.0
  C  C94  1  0.47541193  0.49622323  0.63862938  1.0
  C  C95  1  0.53363064  0.47625324  0.34729163  1.0
  C  C96  1  0.56954802  0.53238957  0.01483248  1.0
  C  C97  1  0.42460199  0.46524598  0.96886124  1.0
  C  C98  1  0.44141040  0.44579010  0.01949116  1.0
  C  C99  1  0.55233410  0.55295786  0.96465473  1.0
  C  C100  1  0.50989176  0.48508346  0.04303427  1.0
  C  C101  1  0.48445327  0.51317826  0.94110119  1.0
  C  C102  1  0.64671526  0.54834611  0.03531311  1.0
  C  C103  1  0.34842509  0.44606940  0.94714215  1.0
  C  C104  1  0.65502963  0.54023141  0.08605575  1.0
  C  C105  1  0.34270053  0.45447131  0.89619331  1.0
  C  C106  1  0.59437367  0.61596518  0.93838780  1.0
  C  C107  1  0.40073285  0.38249185  0.04615676  1.0
  C  C108  1  0.73579313  0.52794922  0.53002816  1.0
  C  C109  1  0.26838895  0.48167654  0.51346474  1.0
  C  C110  1  0.77999910  0.46655444  0.51218798  1.0
  C  C111  1  0.23797527  0.53588962  0.54540293  1.0
  C  C112  1  0.85464991  0.45262404  0.53103642  1.0
  C  C113  1  0.16349012  0.51836142  0.56715585  1.0
  C  C114  1  0.89191695  0.49753699  0.56832243  1.0
  C  C115  1  0.11266565  0.44937396  0.55770374  1.0
  C  C116  1  0.84513772  0.55777730  0.58729353  1.0
  C  C117  1  0.14603563  0.39271041  0.52726962  1.0
  C  C118  1  0.76973102  0.57290208  0.56735041  1.0
  C  C119  1  0.22165551  0.41024144  0.50557424  1.0
  C  C120  1  0.97685893  0.49604009  0.58102577  1.0
  C  C121  1  0.02628154  0.43949801  0.56645009  1.0
  C  C122  1  0.45643837  0.23639234  0.47683143  1.0
  C  C123  1  0.50148466  0.76007801  0.53093311  1.0
  C  C124  1  0.45358999  0.15252146  0.47770965  1.0
  C  C125  1  0.49524167  0.84337485  0.53092021  1.0
  C  C126  1  0.51154219  0.11452808  0.50545699  1.0
  C  C127  1  0.47713802  0.88284845  0.48720668  1.0
  C  C128  1  0.57134364  0.16102385  0.52998936  1.0
  C  C129  1  0.46324399  0.83869669  0.44539373  1.0
  C  C130  1  0.57054544  0.24478376  0.52584719  1.0
  C  C131  1  0.47215767  0.75605372  0.44890841  1.0
  C  C132  1  0.51132896  0.02736830  0.51029204  1.0
  C  C133  1  0.47332815  0.96975896  0.48328823  1.0
  C  C134  1  0.86944072  0.56996242  0.67182949  1.0
  C  C135  1  0.78361666  0.56625681  0.69219168  1.0
  C  C136  1  0.78071430  0.53775592  0.74533173  1.0
  C  C137  1  0.09990701  0.25534847  0.54595764  1.0
  C  C138  1  0.17538583  0.20857564  0.54166012  1.0
  C  C139  1  0.16527239  0.12791994  0.56987778  1.0
  C  C140  1  0.35431774  0.24865498  0.41505462  1.0
  C  C141  1  0.40326792  0.24114717  0.36898445  1.0
  C  C142  1  0.34830731  0.21832585  0.32658914  1.0
  C  C143  1  0.53218370  0.74994919  0.61614774  1.0
  C  C144  1  0.61796298  0.78821179  0.62038539  1.0
  C  C145  1  0.63617606  0.81286368  0.67218165  1.0
  C  C146  1  0.44005837  0.73241953  0.36497874  1.0
  C  C147  1  0.34854470  0.73502723  0.36157176  1.0
  C  C148  1  0.32248838  0.75201413  0.30947632  1.0
  C  C149  1  0.70292386  0.27193318  0.56137779  1.0
  C  C150  1  0.70778952  0.26170162  0.61604173  1.0
  C  C151  1  0.79514202  0.25138230  0.63180408  1.0
  C  C152  1  0.77688908  0.51588122  0.00829747  1.0
  C  C153  1  0.84544239  0.55199731  0.97632527  1.0
  C  C154  1  0.91347280  0.49476614  0.97310384  1.0
  C  C155  1  0.21848052  0.36837230  0.96401145  1.0
  C  C156  1  0.13965339  0.40566302  0.95168480  1.0
  C  C157  1  0.07282531  0.33987015  0.94239479  1.0
  N  N158  1  0.46132031  0.53683133  0.78907565  1.0
  N  N159  1  0.54181614  0.45491654  0.19459399  1.0
  N  N160  1  0.51308484  0.28134791  0.50072807  1.0
  N  N161  1  0.49126810  0.71780673  0.49048403  1.0
  O  O162  1  0.62321360  0.60159868  0.50354881  1.0
  O  O163  1  0.39183135  0.43743029  0.48724647  1.0
  O  O164  1  0.61579388  0.46493084  0.50458363  1.0
  O  O165  1  0.37704181  0.57180155  0.48523318  1.0
  O  O166  1  0.48654374  0.54701526  0.55925376  1.0
  O  O167  1  0.52642656  0.41205168  0.42351006  1.0
  O  O168  1  0.48577339  0.41137590  0.57198515  1.0
  O  O169  1  0.52233914  0.54887765  0.41875370  1.0
  O  O170  1  0.57442606  0.62404925  0.78365509  1.0
  O  O171  1  0.43717586  0.35711079  0.19950911  1.0
  O  O172  1  0.65328797  0.54510128  0.19063241  1.0
  O  O173  1  0.34782001  0.44983139  0.79163043  1.0
  O  O174  1  0.87562545  0.60567778  0.62324441  1.0
  O  O175  1  0.10033265  0.32542001  0.51351699  1.0
  O  O176  1  0.40379608  0.28098381  0.45365953  1.0
  O  O177  1  0.51708015  0.71431781  0.56988544  1.0
  O  O178  1  0.46532123  0.70558802  0.41228568  1.0
  O  O179  1  0.62515721  0.29703331  0.54538522  1.0
  O  O180  1  0.71237572  0.57139863  0.00730695  1.0
  O  O181  1  0.28296489  0.42928758  0.97575046  1.0
  F  F182  1  0.58260869  0.41165461  0.65740708  1.0
  F  F183  1  0.40635275  0.53317335  0.33649698  1.0
  F  F184  1  0.24680895  0.35622576  0.47419786  1.0
  F  F185  1  0.72790867  0.63114468  0.58708918  1.0
  F  F186  1  0.13619771  0.57334496  0.59792692  1.0
  F  F187  1  0.89421803  0.39250028  0.51058398  1.0
  F  F188  1  0.42933286  0.99528430  0.44461394  1.0
  F  F189  1  0.55976967  0.00089478  0.54668642  1.0
  F  F190  1  0.57129210  0.43869051  0.75257279  1.0
  F  F191  1  0.41420487  0.52038674  0.23974316  1.0
  F  F192  1  0.63284704  0.68601400  0.86655397  1.0
  F  F193  1  0.36531159  0.30942353  0.11729282  1.0
  F  F194  1  0.66057921  0.41877651  0.35225688  1.0
  F  F195  1  0.36925008  0.58403824  0.62648787  1.0
  F  F196  1  0.72681998  0.56710724  0.10430116  1.0
  F  F197  1  0.27109054  0.43154894  0.87597259  1.0
  F  F198  1  0.64203371  0.67261364  0.96004853  1.0
  F  F199  1  0.35133814  0.32642431  0.02486228  1.0
