# generated using pymatgen
data_AlC24(OF2)6
_symmetry_space_group_name_H-M   'P 1'
_cell_length_a   3.97094250
_cell_length_b   29.08941426
_cell_length_c   29.08863773
_cell_angle_alpha   60.00009927
_cell_angle_beta   89.99865208
_cell_angle_gamma   89.99943712
_symmetry_Int_Tables_number   1
_chemical_formula_structural   AlC24(OF2)6
_chemical_formula_sum   'Al2 C48 O12 F24'
_cell_volume   2909.93322918
_cell_formula_units_Z   2
loop_
 _symmetry_equiv_pos_site_id
 _symmetry_equiv_pos_as_xyz
  1  'x, y, z'
loop_
 _atom_site_type_symbol
 _atom_site_label
 _atom_site_symmetry_multiplicity
 _atom_site_fract_x
 _atom_site_fract_y
 _atom_site_fract_z
 _atom_site_occupancy
  Al  Al0  1  0.99997031  0.50000023  0.00000140  1.0
  Al  Al1  1  0.00041053  0.16665507  0.66668095  1.0
  C  C2  1  0.49999124  0.58128551  0.95935429  1.0
  C  C3  1  0.50000053  0.45935701  0.08128834  1.0
  C  C4  1  0.50000070  0.45936007  0.95935427  1.0
  C  C5  1  0.50042816  0.20729261  0.58539162  1.0
  C  C6  1  0.50042044  0.20730609  0.70731736  1.0
  C  C7  1  0.50036694  0.08537134  0.70732290  1.0
  C  C8  1  0.50037668  0.23699113  0.52599783  1.0
  C  C9  1  0.50760707  0.29256956  0.49750016  1.0
  C  C10  1  0.50364691  0.32030272  0.44228397  1.0
  C  C11  1  0.50018516  0.29337362  0.41325317  1.0
  C  C12  1  0.49683542  0.23740782  0.44227602  1.0
  C  C13  1  0.49294353  0.20992165  0.49748706  1.0
  C  C14  1  0.50014350  0.32125321  0.35749592  1.0
  C  C15  1  0.50009632  0.34540994  0.30918999  1.0
  C  C16  1  0.50004207  0.37329116  0.25342878  1.0
  C  C17  1  0.49674603  0.42925497  0.22440237  1.0
  C  C18  1  0.49278840  0.45674127  0.16918420  1.0
  C  C19  1  0.49996640  0.42966443  0.14068332  1.0
  C  C20  1  0.50719604  0.37408462  0.16918098  1.0
  C  C21  1  0.50331675  0.34635611  0.22439956  1.0
  C  C22  1  0.50035139  0.23700732  0.73700755  1.0
  C  C23  1  0.50760636  0.20993487  0.79258892  1.0
  C  C24  1  0.50366442  0.23741937  0.82031296  1.0
  C  C25  1  0.50016674  0.29338501  0.79337853  1.0
  C  C26  1  0.49680603  0.32031517  0.73741009  1.0
  C  C27  1  0.49292865  0.29258468  0.70993259  1.0
  C  C28  1  0.50013820  0.32126015  0.82125221  1.0
  C  C29  1  0.50008493  0.34541810  0.84540632  1.0
  C  C30  1  0.50003625  0.37329347  0.87328436  1.0
  C  C31  1  0.49672096  0.34636036  0.92925321  1.0
  C  C32  1  0.49278155  0.37408582  0.95673390  1.0
  C  C33  1  0.49997406  0.42966416  0.92966170  1.0
  C  C34  1  0.50721029  0.45673926  0.87407990  1.0
  C  C35  1  0.50332033  0.42925993  0.84635310  1.0
  C  C36  1  0.50032379  0.02597844  0.73701419  1.0
  C  C37  1  0.50756204  0.99748085  0.70993280  1.0
  C  C38  1  0.50363068  0.94226875  0.73741108  1.0
  C  C39  1  0.50018704  0.91323377  0.79337871  1.0
  C  C40  1  0.49680417  0.94225899  0.82031835  1.0
  C  C41  1  0.49292632  0.99747254  0.79259516  1.0
  C  C42  1  0.50012880  0.85748230  0.82124958  1.0
  C  C43  1  0.50009075  0.80917115  0.84540258  1.0
  C  C44  1  0.50002748  0.75341942  0.87327741  1.0
  C  C45  1  0.49671420  0.72438896  0.84634412  1.0
  C  C46  1  0.49277778  0.66917646  0.87407210  1.0
  C  C47  1  0.49997143  0.64067656  0.92965227  1.0
  C  C48  1  0.50720066  0.66917968  0.95672925  1.0
  C  C49  1  0.50333035  0.72438880  0.92924661  1.0
  O  O50  1  0.26345999  0.44914988  0.99246668  1.0
  O  O51  1  0.26345211  0.55838474  0.94914662  1.0
  O  O52  1  0.26343776  0.49246554  0.05839080  1.0
  O  O53  1  0.73650341  0.49246829  0.94914674  1.0
  O  O54  1  0.73649328  0.44914740  0.05838875  1.0
  O  O55  1  0.73648730  0.55838510  0.99246614  1.0
  O  O56  1  0.26389998  0.10827917  0.71753496  1.0
  O  O57  1  0.26391180  0.17417837  0.60830191  1.0
  O  O58  1  0.26389714  0.21751126  0.67419982  1.0
  O  O59  1  0.73695001  0.10826480  0.67422570  1.0
  O  O60  1  0.73693390  0.17420533  0.71752447  1.0
  O  O61  1  0.73693899  0.21750166  0.60828484  1.0
  F  F62  1  0.50802445  0.32005990  0.52346683  1.0
  F  F63  1  0.49264865  0.15646402  0.52344817  1.0
  F  F64  1  0.49824633  0.21022168  0.41609420  1.0
  F  F65  1  0.50213620  0.37367162  0.41611049  1.0
  F  F66  1  0.49835455  0.45644333  0.25058181  1.0
  F  F67  1  0.50174759  0.29299000  0.25057503  1.0
  F  F68  1  0.50743594  0.34659133  0.14321470  1.0
  F  F69  1  0.49252170  0.51020210  0.14322150  1.0
  F  F70  1  0.50803064  0.15647579  0.82008470  1.0
  F  F71  1  0.49263657  0.32008057  0.65647177  1.0
  F  F72  1  0.49820655  0.37368438  0.71021841  1.0
  F  F73  1  0.50218772  0.21023045  0.87368367  1.0
  F  F74  1  0.49830462  0.29299416  0.95644092  1.0
  F  F75  1  0.50176752  0.45644727  0.79298555  1.0
  F  F76  1  0.50745241  0.51020124  0.84658374  1.0
  F  F77  1  0.49250860  0.34658845  0.01019830  1.0
  F  F78  1  0.50797116  0.02344957  0.65647119  1.0
  F  F79  1  0.49263359  0.02342852  0.82009690  1.0
  F  F80  1  0.49823858  0.91607701  0.87368829  1.0
  F  F81  1  0.50216071  0.91609599  0.71021662  1.0
  F  F82  1  0.49830678  0.75056662  0.79297458  1.0
  F  F83  1  0.50177332  0.75056527  0.95643711  1.0
  F  F84  1  0.50744642  0.64321202  0.01019168  1.0
  F  F85  1  0.49249395  0.64321446  0.84657436  1.0
