# generated using pymatgen
data_AlH4C10SBrO6
_symmetry_space_group_name_H-M   'P 1'
_cell_length_a   6.70278761
_cell_length_b   11.08668784
_cell_length_c   12.55413674
_cell_angle_alpha   91.70842019
_cell_angle_beta   101.64595988
_cell_angle_gamma   106.83180355
_symmetry_Int_Tables_number   1
_chemical_formula_structural   AlH4C10SBrO6
_chemical_formula_sum   'Al2 H8 C20 S2 Br2 O12'
_cell_volume   870.68432736
_cell_formula_units_Z   2
loop_
 _symmetry_equiv_pos_site_id
 _symmetry_equiv_pos_as_xyz
  1  'x, y, z'
loop_
 _atom_site_type_symbol
 _atom_site_label
 _atom_site_symmetry_multiplicity
 _atom_site_fract_x
 _atom_site_fract_y
 _atom_site_fract_z
 _atom_site_occupancy
  Al  Al0  1  0.00232682  0.50451651  0.50180759  1.0
  Al  Al1  1  0.50228674  0.50359138  0.50311248  1.0
  H  H2  1  0.33422495  0.57782005  0.63063203  1.0
  H  H3  1  0.64914199  0.34994911  0.44132946  1.0
  H  H4  1  0.50183612  0.76379999  0.35661618  1.0
  H  H5  1  0.77248441  0.22978133  0.35135529  1.0
  H  H6  1  0.36080072  0.11851719  0.56421714  1.0
  H  H7  1  0.23433544  0.88191559  0.55436629  1.0
  H  H8  1  0.36209093  0.46746916  0.87673536  1.0
  H  H9  1  0.81474128  0.51249816  0.25602528  1.0
  C  C10  1  0.85197059  0.72747663  0.48157136  1.0
  C  C11  1  0.83428623  0.51401858  0.69997778  1.0
  C  C12  1  0.13952116  0.27410971  0.49609100  1.0
  C  C13  1  0.17510114  0.49568620  0.30311329  1.0
  C  C14  1  0.08913919  0.49502592  0.87459293  1.0
  C  C15  1  0.92307623  0.50922769  0.13010902  1.0
  C  C16  1  0.89779440  0.51132883  0.81778390  1.0
  C  C17  1  0.11676198  0.49417420  0.18566672  1.0
  C  C18  1  0.91503144  0.51163038  0.01661833  1.0
  C  C19  1  0.09851955  0.49586794  0.98880721  1.0
  C  C20  1  0.91628938  0.86645566  0.47056195  1.0
  C  C21  1  0.77276582  0.93075886  0.41670223  1.0
  C  C22  1  0.12650766  0.93382539  0.51788887  1.0
  C  C23  1  0.56208129  0.86602586  0.35754168  1.0
  C  C24  1  0.43211183  0.93012709  0.30100148  1.0
  C  C25  1  0.06118542  0.13306427  0.47723079  1.0
  C  C26  1  0.19799152  0.06630834  0.52233716  1.0
  C  C27  1  0.84884953  0.06633357  0.41807927  1.0
  C  C28  1  0.71325042  0.12854695  0.35639723  1.0
  C  C29  1  0.50940358  0.06329709  0.29978071  1.0
  S  S30  1  0.73452954  0.53073840  0.90501332  1.0
  S  S31  1  0.28638270  0.48244165  0.10011633  1.0
  Br  Br32  1  0.15293788  0.83705420  0.22402002  1.0
  Br  Br33  1  0.34144233  0.15651294  0.22071043  1.0
  O  O34  1  0.99634239  0.67359837  0.48410154  1.0
  O  O35  1  0.64238550  0.51182977  0.65734374  1.0
  O  O36  1  0.33843753  0.32760357  0.50283651  1.0
  O  O37  1  0.02176350  0.49390243  0.35225386  1.0
  O  O38  1  0.00202854  0.33032826  0.50574750  1.0
  O  O39  1  0.36282192  0.49862449  0.35069287  1.0
  O  O40  1  0.66214289  0.67381556  0.49183079  1.0
  O  O41  1  0.98159115  0.51872268  0.64836480  1.0
  O  O42  1  0.29881445  0.56127374  0.55147099  1.0
  O  O43  1  0.70376275  0.44148777  0.45587711  1.0
  O  O44  1  0.24076964  0.47929502  0.82438305  1.0
  O  O45  1  0.76651141  0.52181149  0.17653837  1.0
