# generated using pymatgen
data_Zn4H30C61S6N4(Cl3O8)2
_symmetry_space_group_name_H-M   'P 1'
_cell_length_a   12.70439371
_cell_length_b   14.09697107
_cell_length_c   28.15696752
_cell_angle_alpha   90.60898686
_cell_angle_beta   89.80268720
_cell_angle_gamma   89.83832456
_symmetry_Int_Tables_number   1
_chemical_formula_structural   Zn4H30C61S6N4(Cl3O8)2
_chemical_formula_sum   'Zn4 H30 C61 S6 N4 Cl6 O16'
_cell_volume   5042.39369187
_cell_formula_units_Z   1
loop_
 _symmetry_equiv_pos_site_id
 _symmetry_equiv_pos_as_xyz
  1  'x, y, z'
loop_
 _atom_site_type_symbol
 _atom_site_label
 _atom_site_symmetry_multiplicity
 _atom_site_fract_x
 _atom_site_fract_y
 _atom_site_fract_z
 _atom_site_occupancy
  Zn  Zn0  1  0.50403925  0.39972789  0.49521390  1.0
  Zn  Zn1  1  0.49763413  0.59938487  0.50134864  1.0
  Zn  Zn2  1  0.50414757  0.60006230  0.04922229  1.0
  Zn  Zn3  1  0.49894600  0.40029314  0.04332557  1.0
  H  H4  1  0.62429318  0.05949311  0.44334192  1.0
  H  H5  1  0.37629294  0.93986961  0.55459045  1.0
  H  H6  1  0.60536409  0.74454854  0.45269375  1.0
  H  H7  1  0.61950943  0.91917468  0.44631005  1.0
  H  H8  1  0.39878224  0.25578671  0.54634691  1.0
  H  H9  1  0.38398556  0.08132638  0.55298360  1.0
  H  H10  1  0.49971504  0.34041817  0.21162198  1.0
  H  H11  1  0.50025147  0.34276010  0.74221195  1.0
  H  H12  1  0.50199998  0.65635482  0.80227430  1.0
  H  H13  1  0.49912012  0.36546292  0.89797248  1.0
  H  H14  1  0.49657767  0.35039034  0.81102853  1.0
  H  H15  1  0.49906897  0.63363008  0.64647768  1.0
  H  H16  1  0.49728747  0.64878509  0.73345837  1.0
  H  H17  1  0.86716294  0.65966255  0.49931353  1.0
  H  H18  1  0.62416556  0.93972552  0.10078583  1.0
  H  H19  1  0.37812205  0.06091835  0.98953635  1.0
  H  H20  1  0.60679096  0.25445552  0.09123452  1.0
  H  H21  1  0.62102978  0.07975015  0.09721851  1.0
  H  H22  1  0.39981437  0.74454987  0.99800126  1.0
  H  H23  1  0.38618804  0.91908213  0.99087538  1.0
  H  H24  1  0.86896211  0.34204380  0.04557524  1.0
  H  H25  1  0.57275581  0.70663331  0.35393425  1.0
  H  H26  1  0.49771552  0.73097381  0.30198320  1.0
  H  H27  1  0.43429717  0.70595716  0.35721901  1.0
  H  H28  1  0.18102681  0.29465739  0.53146805  1.0
  H  H29  1  0.06461188  0.26939283  0.49846154  1.0
  H  H30  1  0.18648991  0.29363113  0.46902369  1.0
  H  H31  1  0.18102642  0.70690641  0.01327581  1.0
  H  H32  1  0.06411404  0.73225677  0.04637139  1.0
  H  H33  1  0.18582808  0.70802274  0.07571938  1.0
  C  C34  1  0.50087644  0.48395957  0.59092469  1.0
  C  C35  1  0.29563353  0.48778080  0.49822127  1.0
  C  C36  1  0.50076791  0.51146378  0.40550339  1.0
  C  C37  1  0.70550248  0.51528026  0.49925163  1.0
  C  C38  1  0.50155236  0.51506602  0.95357274  1.0
  C  C39  1  0.29647792  0.51381642  0.04706709  1.0
  C  C40  1  0.50160899  0.48499453  0.13892311  1.0
  C  C41  1  0.70633973  0.48661953  0.04493060  1.0
  C  C42  1  0.57396640  0.19715525  0.46600039  1.0
  C  C43  1  0.57168668  0.09821452  0.46711098  1.0
  C  C44  1  0.42765916  0.80234106  0.53198430  1.0
  C  C45  1  0.42939880  0.90132963  0.53096174  1.0
  C  C46  1  0.55646010  0.79176034  0.47437466  1.0
  C  C47  1  0.56332349  0.88954933  0.47125451  1.0
  C  C48  1  0.44619817  0.20836437  0.52413366  1.0
  C  C49  1  0.43917029  0.11059600  0.52747042  1.0
  C  C50  1  0.50293428  0.05249532  0.49827912  1.0
  C  C51  1  0.49860367  0.94741945  0.50012884  1.0
  C  C52  1  0.50110454  0.58420481  0.32140159  1.0
  C  C53  1  0.50060063  0.41432933  0.22309481  1.0
  C  C54  1  0.50067106  0.50930498  0.35320560  1.0
  C  C55  1  0.50126930  0.48845639  0.19134503  1.0
  C  C56  1  0.50078130  0.44824424  0.27052360  1.0
  C  C57  1  0.50133624  0.54810562  0.27419424  1.0
  C  C58  1  0.50006934  0.48244933  0.64434391  1.0
  C  C59  1  0.50107475  0.51661126  0.90014043  1.0
  C  C60  1  0.50021375  0.40094203  0.67288513  1.0
  C  C61  1  0.49953722  0.40850365  0.72235521  1.0
  C  C62  1  0.50180485  0.59812053  0.87160845  1.0
  C  C63  1  0.50079673  0.59062321  0.82213739  1.0
  C  C64  1  0.49930329  0.42869297  0.87610223  1.0
  C  C65  1  0.49801805  0.42097834  0.82703233  1.0
  C  C66  1  0.49896134  0.57041305  0.66837626  1.0
  C  C67  1  0.49808422  0.57816242  0.71745475  1.0
  C  C68  1  0.49856705  0.49666594  0.74595141  1.0
  C  C69  1  0.49884817  0.50247461  0.79855165  1.0
  C  C70  1  0.10883096  0.41615241  0.49924911  1.0
  C  C71  1  0.89229578  0.58586202  0.49935092  1.0
  C  C72  1  0.17987629  0.49110763  0.49888940  1.0
  C  C73  1  0.82150671  0.51155601  0.49944145  1.0
  C  C74  1  0.99715901  0.55212060  0.49942106  1.0
  C  C75  1  0.00455391  0.45225870  0.49953568  1.0
  C  C76  1  0.57356688  0.80233197  0.07841352  1.0
  C  C77  1  0.57194236  0.90125614  0.07702155  1.0
  C  C78  1  0.42972111  0.19805450  0.01209765  1.0
  C  C79  1  0.43130163  0.09904622  0.01301318  1.0
  C  C80  1  0.55823235  0.20765656  0.06945773  1.0
  C  C81  1  0.56500699  0.10980048  0.07241774  1.0
  C  C82  1  0.44701805  0.79175079  0.02015103  1.0
  C  C83  1  0.44065031  0.88954640  0.01653528  1.0
  C  C84  1  0.50411878  0.94733354  0.04565577  1.0
  C  C85  1  0.50025916  0.05243242  0.04367629  1.0
  C  C86  1  0.10924116  0.58544499  0.04562252  1.0
  C  C87  1  0.89361310  0.41584125  0.04533694  1.0
  C  C88  1  0.18073577  0.51047147  0.04621591  1.0
  C  C89  1  0.82236759  0.49014357  0.04488293  1.0
  C  C90  1  0.99830879  0.44955088  0.04537951  1.0
  C  C91  1  0.00515562  0.54939587  0.04509742  1.0
  C  C92  1  0.50131719  0.68765165  0.33412426  1.0
  C  C93  1  0.13624239  0.31274752  0.49946976  1.0
  C  C94  1  0.13601522  0.68886388  0.04533201  1.0
  S  S95  1  0.50025611  0.39764243  0.32591077  1.0
  S  S96  1  0.50193836  0.59963173  0.21887778  1.0
  S  S97  1  0.12036920  0.60278395  0.49912883  1.0
  S  S98  1  0.88168829  0.40053728  0.49972665  1.0
  S  S99  1  0.12181362  0.39884626  0.04593955  1.0
  S  S100  1  0.88196505  0.60114230  0.04444608  1.0
  N  N101  1  0.51228752  0.25171356  0.49369184  1.0
  N  N102  1  0.48965323  0.74795202  0.50434646  1.0
  N  N103  1  0.51217966  0.74806051  0.05079315  1.0
  N  N104  1  0.49163123  0.25195142  0.03966140  1.0
  Cl  Cl105  1  0.65923876  0.25141009  0.42781268  1.0
  Cl  Cl106  1  0.34278537  0.74772497  0.57030921  1.0
  Cl  Cl107  1  0.50268582  0.28573108  0.65036794  1.0
  Cl  Cl108  1  0.50573085  0.71324768  0.89415336  1.0
  Cl  Cl109  1  0.65747383  0.74765828  0.11696595  1.0
  Cl  Cl110  1  0.34492937  0.25339644  0.97409488  1.0
  O  O111  1  0.49383593  0.40574188  0.56844502  1.0
  O  O112  1  0.50825122  0.56564574  0.57215241  1.0
  O  O113  1  0.34182914  0.56844174  0.49904729  1.0
  O  O114  1  0.34049266  0.40683806  0.49685588  1.0
  O  O115  1  0.50194569  0.59157142  0.42696307  1.0
  O  O116  1  0.49982144  0.42996184  0.42516004  1.0
  O  O117  1  0.65953603  0.43484082  0.50054580  1.0
  O  O118  1  0.66090821  0.59630474  0.49782104  1.0
  O  O119  1  0.49164878  0.59309221  0.97607974  1.0
  O  O120  1  0.51126807  0.43358013  0.97234731  1.0
  O  O121  1  0.34334075  0.43325510  0.04551734  1.0
  O  O122  1  0.34075420  0.59474652  0.04924304  1.0
  O  O123  1  0.50113709  0.40446056  0.11806341  1.0
  O  O124  1  0.50250124  0.56614821  0.11898108  1.0
  O  O125  1  0.66015911  0.56707902  0.04262764  1.0
  O  O126  1  0.66193710  0.40582608  0.04727958  1.0
