# generated using pymatgen
data_AlH12C21(SO5)3
_symmetry_space_group_name_H-M   'P 1'
_cell_length_a   4.32009051
_cell_length_b   24.47691849
_cell_length_c   24.47691317
_cell_angle_alpha   60.00012301
_cell_angle_beta   89.99996267
_cell_angle_gamma   89.99981900
_symmetry_Int_Tables_number   1
_chemical_formula_structural   AlH12C21(SO5)3
_chemical_formula_sum   'Al2 H24 C42 S6 O30'
_cell_volume   2241.49309166
_cell_formula_units_Z   2
loop_
 _symmetry_equiv_pos_site_id
 _symmetry_equiv_pos_as_xyz
  1  'x, y, z'
loop_
 _atom_site_type_symbol
 _atom_site_label
 _atom_site_symmetry_multiplicity
 _atom_site_fract_x
 _atom_site_fract_y
 _atom_site_fract_z
 _atom_site_occupancy
  Al  Al0  1  0.97665775  0.49999953  0.00000170  1.0
  Al  Al1  1  0.97650672  0.16666539  0.66666885  1.0
  H  H2  1  0.52711782  0.26334563  0.29297309  1.0
  H  H3  1  0.52705854  0.40333360  0.37369876  1.0
  H  H4  1  0.50191278  0.16970366  0.49898693  1.0
  H  H5  1  0.54565930  0.22152904  0.38401996  1.0
  H  H6  1  0.50202852  0.49697548  0.16767124  1.0
  H  H7  1  0.54577322  0.44516106  0.28263586  1.0
  H  H8  1  0.52712876  0.44368068  0.76334931  1.0
  H  H9  1  0.52705872  0.22296667  0.90333770  1.0
  H  H10  1  0.50191056  0.33130821  0.66970760  1.0
  H  H11  1  0.54565898  0.39445016  0.72153279  1.0
  H  H12  1  0.50202334  0.33535370  0.99697892  1.0
  H  H13  1  0.54576614  0.27220261  0.94516460  1.0
  H  H14  1  0.52711603  0.79297016  0.94368445  1.0
  H  H15  1  0.52706942  0.87369498  0.72297037  1.0
  H  H16  1  0.50190659  0.99898405  0.83131183  1.0
  H  H17  1  0.54565196  0.88401749  0.89445362  1.0
  H  H18  1  0.50202761  0.66766780  0.83535571  1.0
  H  H19  1  0.54577346  0.78263319  0.77220640  1.0
  H  H20  1  0.99996884  0.31839038  0.12375627  1.0
  H  H21  1  0.99974789  0.34830552  0.54290296  1.0
  H  H22  1  0.99997421  0.55785288  0.81839337  1.0
  H  H23  1  0.99975873  0.10879091  0.84830880  1.0
  H  H24  1  0.99996160  0.62375379  0.05785689  1.0
  H  H25  1  0.99975977  0.04289931  0.60879479  1.0
  C  C26  1  0.47886648  0.59420732  0.96050540  1.0
  C  C27  1  0.47887220  0.44528649  0.09421065  1.0
  C  C28  1  0.47887002  0.46050294  0.94529032  1.0
  C  C29  1  0.47876683  0.22138472  0.57245932  1.0
  C  C30  1  0.47876901  0.20615609  0.72138767  1.0
  C  C31  1  0.47876792  0.07245569  0.70615891  1.0
  C  C32  1  0.50329547  0.41056199  0.16469014  1.0
  C  C33  1  0.50316661  0.25611484  0.50197511  1.0
  C  C34  1  0.51343467  0.34456673  0.20157152  1.0
  C  C35  1  0.53518899  0.31463796  0.26704999  1.0
  C  C36  1  0.51332559  0.32211177  0.46509609  1.0
  C  C37  1  0.53513749  0.35204134  0.39961763  1.0
  C  C38  1  0.51550700  0.22102917  0.47111078  1.0
  C  C39  1  0.54013828  0.25094855  0.40577855  1.0
  C  C40  1  0.51560966  0.44565041  0.19554976  1.0
  C  C41  1  0.54022966  0.41573586  0.26088293  1.0
  C  C42  1  0.54878093  0.34950163  0.29835258  1.0
  C  C43  1  0.54874406  0.31718229  0.36831315  1.0
  C  C44  1  0.50329582  0.42474784  0.91056566  1.0
  C  C45  1  0.50316626  0.24190933  0.75611847  1.0
  C  C46  1  0.51344130  0.45386146  0.84457015  1.0
  C  C47  1  0.53519122  0.41831149  0.81464177  1.0
  C  C48  1  0.51333008  0.21279175  0.82211497  1.0
  C  C49  1  0.53513943  0.24834058  0.85204477  1.0
  C  C50  1  0.51550761  0.30785902  0.72103309  1.0
  C  C51  1  0.54014098  0.34327146  0.75095297  1.0
  C  C52  1  0.51561090  0.35879961  0.94565343  1.0
  C  C53  1  0.54023113  0.32338082  0.91573969  1.0
  C  C54  1  0.54877711  0.35214543  0.84950499  1.0
  C  C55  1  0.54874047  0.31450388  0.81718625  1.0
  C  C56  1  0.50329133  0.66468755  0.92475009  1.0
  C  C57  1  0.50316844  0.00197248  0.74191280  1.0
  C  C58  1  0.51342962  0.70156893  0.95386471  1.0
  C  C59  1  0.53518327  0.76704766  0.91831461  1.0
  C  C60  1  0.51333049  0.96509321  0.71279530  1.0
  C  C61  1  0.53514536  0.89961548  0.74834257  1.0
  C  C62  1  0.51550845  0.97110876  0.80786202  1.0
  C  C63  1  0.54014271  0.90577652  0.84327437  1.0
  C  C64  1  0.51561268  0.69554806  0.85880128  1.0
  C  C65  1  0.54023201  0.76087978  0.82338423  1.0
  C  C66  1  0.54878005  0.79835028  0.85214833  1.0
  C  C67  1  0.54875403  0.86831029  0.81450744  1.0
  S  S68  1  0.44305240  0.29394126  0.16972072  1.0
  S  S69  1  0.44282424  0.37274273  0.49693272  1.0
  S  S70  1  0.44306019  0.53633857  0.79394480  1.0
  S  S71  1  0.44283220  0.13032353  0.87274549  1.0
  S  S72  1  0.44303076  0.66972129  0.03634034  1.0
  S  S73  1  0.44283878  0.99693182  0.63032720  1.0
  O  O74  1  0.23811815  0.44991827  0.97886665  1.0
  O  O75  1  0.23811712  0.57121561  0.94991972  1.0
  O  O76  1  0.23812004  0.47886319  0.07121895  1.0
  O  O77  1  0.70680707  0.49624117  0.93920103  1.0
  O  O78  1  0.70680966  0.43919822  0.06456066  1.0
  O  O79  1  0.70681098  0.56455808  0.99624285  1.0
  O  O80  1  0.23802274  0.09544903  0.71674405  1.0
  O  O81  1  0.23802677  0.18780585  0.59545237  1.0
  O  O82  1  0.23802402  0.21674170  0.68780891  1.0
  O  O83  1  0.70670739  0.10210723  0.67042151  1.0
  O  O84  1  0.70671130  0.17041902  0.72747275  1.0
  O  O85  1  0.70671102  0.22747050  0.60211077  1.0
  O  O86  1  0.72100736  0.28452021  0.14162941  1.0
  O  O87  1  0.29509295  0.23805631  0.21791090  1.0
  O  O88  1  0.22856126  0.33496399  0.11294887  1.0
  O  O89  1  0.72077199  0.38217714  0.52502314  1.0
  O  O90  1  0.29481304  0.42861587  0.44874345  1.0
  O  O91  1  0.22832205  0.33171171  0.55369933  1.0
  O  O92  1  0.72101701  0.57385063  0.78452354  1.0
  O  O93  1  0.29510499  0.54403388  0.73805886  1.0
  O  O94  1  0.22856909  0.55208666  0.83496776  1.0
  O  O95  1  0.72077855  0.09279878  0.88217996  1.0
  O  O96  1  0.29482369  0.12263918  0.92861866  1.0
  O  O97  1  0.22833043  0.11458775  0.83171489  1.0
  O  O98  1  0.72099735  0.64162772  0.07385347  1.0
  O  O99  1  0.29507046  0.71790851  0.04403465  1.0
  O  O100  1  0.22855194  0.61294677  0.05208964  1.0
  O  O101  1  0.72078432  0.02501970  0.59280334  1.0
  O  O102  1  0.29482380  0.94874114  0.62264324  1.0
  O  O103  1  0.22833138  0.05369777  0.61459065  1.0
