# generated using pymatgen
data_Al6H41C67NO30
_symmetry_space_group_name_H-M   'P 1'
_cell_length_a   12.17326300
_cell_length_b   12.21255414
_cell_length_c   26.98603659
_cell_angle_alpha   82.24286575
_cell_angle_beta   82.38180656
_cell_angle_gamma   63.26298447
_symmetry_Int_Tables_number   1
_chemical_formula_structural   Al6H41C67NO30
_chemical_formula_sum   'Al6 H41 C67 N1 O30'
_cell_volume   3538.46390009
_cell_formula_units_Z   1
loop_
 _symmetry_equiv_pos_site_id
 _symmetry_equiv_pos_as_xyz
  1  'x, y, z'
loop_
 _atom_site_type_symbol
 _atom_site_label
 _atom_site_symmetry_multiplicity
 _atom_site_fract_x
 _atom_site_fract_y
 _atom_site_fract_z
 _atom_site_occupancy
  Al  Al0  1  0.59681248  0.59470156  0.49012151  1.0
  Al  Al1  1  0.57489182  0.33959091  0.50501131  1.0
  Al  Al2  1  0.33992039  0.57591620  0.50289509  1.0
  Al  Al3  1  0.06442996  0.06962594  0.02117960  1.0
  Al  Al4  1  0.32336604  0.08503895  0.00417934  1.0
  Al  Al5  1  0.09026048  0.32264257  0.00674098  1.0
  H  H6  1  0.27503410  0.70135430  0.82107684  1.0
  H  H7  1  0.78456039  0.17336098  0.72992076  1.0
  H  H8  1  0.27085374  0.67541797  0.73708837  1.0
  H  H9  1  0.94132014  0.14241451  0.71596005  1.0
  H  H10  1  0.79361352  0.19025346  0.81491561  1.0
  H  H11  1  0.62500957  0.39484943  0.73979133  1.0
  H  H12  1  0.66051909  0.42105674  0.81978036  1.0
  H  H13  1  0.95500376  0.13204925  0.80234134  1.0
  H  H14  1  0.35069516  0.48213051  0.18687641  1.0
  H  H15  1  0.32088765  0.51670459  0.27267625  1.0
  H  H16  1  0.18819774  0.29450616  0.31464914  1.0
  H  H17  1  0.43289245  0.61974292  0.72983722  1.0
  H  H18  1  0.15163413  0.45247544  0.30588321  1.0
  H  H19  1  0.19752574  0.00512388  0.69774935  1.0
  H  H20  1  0.15880009  0.30601412  0.23003411  1.0
  H  H21  1  0.53110770  0.18044910  0.28903467  1.0
  H  H22  1  0.41708857  0.13219693  0.31376351  1.0
  H  H23  1  0.50140705  0.14382334  0.21055265  1.0
  H  H24  1  0.47779749  0.41010377  0.27548691  1.0
  H  H25  1  0.49141806  0.35038660  0.19509116  1.0
  H  H26  1  0.13225316  0.90060960  0.71369518  1.0
  H  H27  1  0.12457061  0.92183525  0.79924659  1.0
  H  H28  1  0.43532292  0.65730829  0.81236984  1.0
  H  H29  1  0.17631706  0.03677018  0.78246255  1.0
  H  H30  1  0.52607666  0.77040182  0.70487299  1.0
  H  H31  1  0.43064137  0.92669426  0.68824282  1.0
  H  H32  1  0.51390956  0.81962187  0.78716798  1.0
  H  H33  1  0.13380917  0.29156392  0.75938997  1.0
  H  H34  1  0.14786693  0.55174116  0.21881774  1.0
  H  H35  1  0.94026013  0.61737756  0.20486034  1.0
  H  H36  1  0.96171267  0.52807050  0.26414080  1.0
  H  H37  1  0.96536163  0.46198871  0.20851820  1.0
  H  H38  1  0.30162111  0.10947231  0.26217124  1.0
  H  H39  1  0.40799542  0.97331088  0.77152067  1.0
  H  H40  1  0.72465368  0.52279409  0.79479808  1.0
  H  H41  1  0.66254443  0.51754830  0.71680708  1.0
  H  H42  1  0.00076727  0.31701025  0.68752514  1.0
  H  H43  1  0.88820329  0.47066028  0.69405957  1.0
  H  H44  1  0.94843442  0.44685806  0.77498258  1.0
  H  H45  1  0.70581385  0.69921412  0.44685637  1.0
  H  H46  1  0.96106811  0.95974912  0.00351241  1.0
  C  C47  1  0.71555137  0.38090305  0.56578345  1.0
  C  C48  1  0.34652312  0.71920210  0.79710485  1.0
  C  C49  1  0.32190175  0.85404175  0.80060129  1.0
  C  C50  1  0.37748872  0.38248660  0.58149951  1.0
  C  C51  1  0.42721818  0.87695465  0.76959690  1.0
  C  C52  1  0.43709411  0.84778383  0.71471875  1.0
  C  C53  1  0.31377416  0.87735831  0.85251966  1.0
  C  C54  1  0.34014303  0.78923751  0.65528206  1.0
  C  C55  1  0.35093282  0.76471531  0.61218130  1.0
  C  C56  1  0.69699293  0.42655862  0.73784807  1.0
  C  C57  1  0.91833216  0.37523034  0.71044924  1.0
  C  C58  1  0.32254663  0.33818162  0.73035664  1.0
  C  C59  1  0.95242900  0.36039743  0.76503666  1.0
  C  C60  1  0.90017228  0.31782625  0.89696422  1.0
  C  C61  1  0.81457964  0.33602496  0.70849445  1.0
  C  C62  1  0.37955900  0.71593721  0.56415524  1.0
  C  C63  1  0.72759217  0.43304234  0.79082760  1.0
  C  C64  1  0.85792999  0.33067713  0.80148753  1.0
  C  C65  1  0.86670480  0.20521834  0.79088587  1.0
  C  C66  1  0.85367139  0.20482206  0.73480849  1.0
  C  C67  1  0.88112644  0.32656328  0.85318793  1.0
  C  C68  1  0.78896171  0.34228772  0.65701727  1.0
  C  C69  1  0.33406314  0.34819131  0.68000853  1.0
  C  C70  1  0.76436469  0.35220812  0.61394226  1.0
  C  C71  1  0.38800282  0.42186020  0.26591383  1.0
  C  C72  1  0.21443271  0.36249581  0.29211401  1.0
  C  C73  1  0.20087917  0.36643340  0.23507188  1.0
  C  C74  1  0.71873352  0.38085776  0.42361224  1.0
  C  C75  1  0.31593108  0.29249189  0.11133856  1.0
  C  C76  1  0.34871436  0.33162582  0.30114643  1.0
  C  C77  1  0.39512714  0.39642145  0.21072819  1.0
  C  C78  1  0.33229229  0.31226395  0.20699721  1.0
  C  C79  1  0.41313545  0.18344269  0.23344825  1.0
  C  C80  1  0.34716635  0.35821835  0.63397872  1.0
  C  C81  1  0.43462711  0.19952741  0.28668976  1.0
  C  C82  1  0.32366953  0.30198506  0.15491725  1.0
  C  C83  1  0.35698423  0.34423752  0.35303124  1.0
  C  C84  1  0.36360307  0.35650252  0.39641831  1.0
  C  C85  1  0.30704307  0.89419372  0.13675005  1.0
  C  C86  1  0.38397678  0.38290038  0.44351970  1.0
  C  C87  1  0.31860112  0.86903331  0.18188312  1.0
  C  C88  1  0.32913401  0.84349953  0.23133852  1.0
  C  C89  1  0.33678085  0.82227386  0.27707648  1.0
  C  C90  1  0.34739190  0.79673756  0.32653555  1.0
  C  C91  1  0.34668797  0.69751582  0.74191877  1.0
  C  C92  1  0.35827793  0.77096801  0.37172809  1.0
  C  C93  1  0.89158018  0.30692413  0.13796312  1.0
  C  C94  1  0.86263732  0.31558337  0.18306308  1.0
  C  C95  1  0.83498359  0.32473751  0.23250363  1.0
  C  C96  1  0.81425137  0.33255770  0.27821971  1.0
  C  C97  1  0.79064469  0.34292871  0.32769360  1.0
  C  C98  1  0.38624587  0.71877544  0.42206333  1.0
  C  C99  1  0.76749685  0.35358775  0.37292319  1.0
  C  C100  1  0.27746643  0.94699540  0.94415098  1.0
  C  C101  1  0.27921969  0.28079747  0.92618927  1.0
  C  C102  1  0.20662346  0.92163018  0.72168575  1.0
  C  C103  1  0.94581543  0.28781038  0.94581298  1.0
  C  C104  1  0.27834770  0.94459024  0.08623631  1.0
  C  C105  1  0.28911689  0.27255236  0.06438521  1.0
  C  C106  1  0.94539649  0.28011110  0.08766496  1.0
  C  C107  1  0.30089754  0.30772375  0.87310975  1.0
  C  C108  1  0.30822356  0.31935193  0.82706698  1.0
  C  C109  1  0.31560924  0.33014405  0.77672374  1.0
  C  C110  1  0.99161505  0.52544796  0.22347434  1.0
  C  C111  1  0.19817121  0.94102985  0.77778003  1.0
  C  C112  1  0.30371605  0.89963967  0.89590684  1.0
  C  C113  1  0.33238324  0.81428128  0.70691826  1.0
  N  N114  1  0.12345020  0.48629973  0.21141098  1.0
  O  O115  1  0.48370128  0.69631999  0.54173555  1.0
  O  O116  1  0.18112506  0.35874167  0.94808050  1.0
  O  O117  1  0.96872681  0.36862055  0.96307634  1.0
  O  O118  1  0.69368939  0.48585937  0.54396784  1.0
  O  O119  1  0.96448856  0.17746394  0.07457056  1.0
  O  O120  1  0.17240274  0.96835217  0.07473906  1.0
  O  O121  1  0.36227204  0.96538305  0.05807906  1.0
  O  O122  1  0.36448922  0.17397728  0.04389200  1.0
  O  O123  1  0.18760945  0.35198985  0.04667726  1.0
  O  O124  1  0.97333710  0.36189027  0.06164464  1.0
  O  O125  1  0.16054058  0.16037806  0.01036430  1.0
  O  O126  1  0.48102554  0.30504508  0.46455872  1.0
  O  O127  1  0.69347998  0.29840773  0.54948517  1.0
  O  O128  1  0.48143218  0.30566937  0.56281162  1.0
  O  O129  1  0.30133637  0.48157035  0.55935072  1.0
  O  O130  1  0.29765452  0.69132134  0.54858716  1.0
  O  O131  1  0.49188343  0.69433270  0.43427241  1.0
  O  O132  1  0.70006720  0.48394156  0.43617718  1.0
  O  O133  1  0.69355988  0.29857485  0.45089588  1.0
  O  O134  1  0.07275293  0.26191957  0.77263219  1.0
  O  O135  1  0.36202658  0.09853430  0.23346922  1.0
  O  O136  1  0.30678754  0.48565891  0.46035716  1.0
  O  O137  1  0.30210162  0.69689992  0.44961877  1.0
  O  O138  1  0.50267727  0.50191530  0.49918001  1.0
  O  O139  1  0.96486797  0.18308841  0.96728019  1.0
  O  O140  1  0.17319808  0.96878522  0.96702513  1.0
  O  O141  1  0.36172767  0.96831403  0.95954806  1.0
  O  O142  1  0.35657631  0.17823168  0.94558226  1.0
  O  O143  1  0.68384118  0.67795532  0.48128456  1.0
  O  O144  1  0.97642203  0.98734151  0.03264954  1.0
