# generated using pymatgen
data_Zn4H34C36N2O13
_symmetry_space_group_name_H-M   'P 1'
_cell_length_a   17.79570141
_cell_length_b   18.64333816
_cell_length_c   23.33517923
_cell_angle_alpha   66.65275647
_cell_angle_beta   69.75964593
_cell_angle_gamma   89.95219496
_symmetry_Int_Tables_number   1
_chemical_formula_structural   Zn4H34C36N2O13
_chemical_formula_sum   'Zn8 H68 C72 N4 O26'
_cell_volume   6585.13324390
_cell_formula_units_Z   2
loop_
 _symmetry_equiv_pos_site_id
 _symmetry_equiv_pos_as_xyz
  1  'x, y, z'
loop_
 _atom_site_type_symbol
 _atom_site_label
 _atom_site_symmetry_multiplicity
 _atom_site_fract_x
 _atom_site_fract_y
 _atom_site_fract_z
 _atom_site_occupancy
  Zn  Zn0  1  0.11775468  0.53130258  0.94114230  1.0
  Zn  Zn1  1  0.97156402  0.55951329  0.05148519  1.0
  Zn  Zn2  1  0.97525504  0.38934961  0.05157556  1.0
  Zn  Zn3  1  0.93841516  0.53064378  0.93485666  1.0
  Zn  Zn4  1  0.38499107  0.97696779  0.05061112  1.0
  Zn  Zn5  1  0.52896128  0.11603982  0.93615433  1.0
  Zn  Zn6  1  0.52326892  0.94630809  0.93697537  1.0
  Zn  Zn7  1  0.56685107  0.97298240  0.05104914  1.0
  H  H8  1  0.49883212  0.86614031  0.26320227  1.0
  H  H9  1  0.43545503  0.80184785  0.38890716  1.0
  H  H10  1  0.26195115  0.87250609  0.25354514  1.0
  H  H11  1  0.24872711  0.63015054  0.73694533  1.0
  H  H12  1  0.01320688  0.63598486  0.72468909  1.0
  H  H13  1  0.07809814  0.69740276  0.59905286  1.0
  H  H14  1  0.63203271  0.01732112  0.73014306  1.0
  H  H15  1  0.70358290  0.07972397  0.60481386  1.0
  H  H16  1  0.62853544  0.24763131  0.73039646  1.0
  H  H17  1  0.87002616  0.25717137  0.25901148  1.0
  H  H18  1  0.87099099  0.48831044  0.25772191  1.0
  H  H19  1  0.81413090  0.42675020  0.38368510  1.0
  H  H20  1  0.19714235  0.30181991  0.91115614  1.0
  H  H21  1  0.12547203  0.23003353  0.98751466  1.0
  H  H22  1  0.21483046  0.13831182  0.98457817  1.0
  H  H23  1  0.28623089  0.21083809  0.90851830  1.0
  H  H24  1  0.21484357  0.12407230  0.09583432  1.0
  H  H25  1  0.28674949  0.18488204  0.10013136  1.0
  H  H26  1  0.12642488  0.21699824  0.09893618  1.0
  H  H27  1  0.19968842  0.27796609  0.10165048  1.0
  H  H28  1  0.30146066  0.39111913  0.91439442  1.0
  H  H29  1  0.30253577  0.38246640  0.99187574  1.0
  H  H30  1  0.39111635  0.28989073  0.99056796  1.0
  H  H31  1  0.39071220  0.29949293  0.91272125  1.0
  H  H32  1  0.89035965  0.80052803  0.90476949  1.0
  H  H33  1  0.88769846  0.78798686  0.98472434  1.0
  H  H34  1  0.79878234  0.88048152  0.98591077  1.0
  H  H35  1  0.80168526  0.89196105  0.90613307  1.0
  H  H36  1  0.69565172  0.77736736  0.09162332  1.0
  H  H37  1  0.62343068  0.71585864  0.08827866  1.0
  H  H38  1  0.78321474  0.68357546  0.09065995  1.0
  H  H39  1  0.71113496  0.62359903  0.08566098  1.0
  H  H40  1  0.78883574  0.71287704  0.89708895  1.0
  H  H41  1  0.71593786  0.64016945  0.97066411  1.0
  H  H42  1  0.62657089  0.73189296  0.97292857  1.0
  H  H43  1  0.69929819  0.80429767  0.89914864  1.0
  H  H44  1  0.16178287  0.79288466  0.93739240  1.0
  H  H45  1  0.24602610  0.75662795  0.89657261  1.0
  H  H46  1  0.33326287  0.85215695  0.89446123  1.0
  H  H47  1  0.24853675  0.88717166  0.93618374  1.0
  H  H48  1  0.39343091  0.74331672  0.96142220  1.0
  H  H49  1  0.35250273  0.70210108  0.05029537  1.0
  H  H50  1  0.30501701  0.64747094  0.96449087  1.0
  H  H51  1  0.26395478  0.60774978  0.05333517  1.0
  H  H52  1  0.10146018  0.73492163  0.06545456  1.0
  H  H53  1  0.14275551  0.65898348  0.11279230  1.0
  H  H54  1  0.23148898  0.75308632  0.11077113  1.0
  H  H55  1  0.18960143  0.82904219  0.06404547  1.0
  H  H56  1  0.89935767  0.26733502  0.92896208  1.0
  H  H57  1  0.85502001  0.34336649  0.88372377  1.0
  H  H58  1  0.76875642  0.24780978  0.88496598  1.0
  H  H59  1  0.81216125  0.17219248  0.93161135  1.0
  H  H60  1  0.64957079  0.29835800  0.94467911  1.0
  H  H61  1  0.60657249  0.25759860  0.03346273  1.0
  H  H62  1  0.73653654  0.39265334  0.94474895  1.0
  H  H63  1  0.69392631  0.35040220  0.03354439  1.0
  H  H64  1  0.83954618  0.20556848  0.05696563  1.0
  H  H65  1  0.75658031  0.23980611  0.10023843  1.0
  H  H66  1  0.66717118  0.14722694  0.10131143  1.0
  H  H67  1  0.75016997  0.11149023  0.05971421  1.0
  H  H68  1  0.15559195  0.78731319  0.43642020  1.0
  H  H69  1  0.14511474  0.82910429  0.35996298  1.0
  H  H70  1  0.35697991  0.72880879  0.55423489  1.0
  H  H71  1  0.36660757  0.69419782  0.63097576  1.0
  H  H72  1  0.72460158  0.35220969  0.54667056  1.0
  H  H73  1  0.67894758  0.36274784  0.62029486  1.0
  H  H74  1  0.77584699  0.15446949  0.44290477  1.0
  H  H75  1  0.80595127  0.14338345  0.36900926  1.0
  C  C76  1  0.14120090  0.63476451  0.00362609  1.0
  C  C77  1  0.90766404  0.41210213  0.17663363  1.0
  C  C78  1  0.14404588  0.36431106  0.00125595  1.0
  C  C79  1  0.86111492  0.36595675  0.99000188  1.0
  C  C80  1  0.09004908  0.59322994  0.81287854  1.0
  C  C81  1  0.86086223  0.64369969  0.98905062  1.0
  C  C82  1  0.36010197  0.14209799  0.99659938  1.0
  C  C83  1  0.58381944  0.09286699  0.81141751  1.0
  C  C84  1  0.35541805  0.86274471  0.99881440  1.0
  C  C85  1  0.64405468  0.86574244  0.99211339  1.0
  C  C86  1  0.41968731  0.91229776  0.17619042  1.0
  C  C87  1  0.64684182  0.14004984  0.99165720  1.0
  C  C88  1  0.38344884  0.87317114  0.25147312  1.0
  C  C89  1  0.43321129  0.85310316  0.28923881  1.0
  C  C90  1  0.39766122  0.81740672  0.35898642  1.0
  C  C91  1  0.31253657  0.80033025  0.39308064  1.0
  C  C92  1  0.26217564  0.82010441  0.35451606  1.0
  C  C93  1  0.29910539  0.85665588  0.28405156  1.0
  C  C94  1  0.27565740  0.76483978  0.46403315  1.0
  C  C95  1  0.23810444  0.73433131  0.52525328  1.0
  C  C96  1  0.20049480  0.69900831  0.59616084  1.0
  C  C97  1  0.25001036  0.67968312  0.63543913  1.0
  C  C98  1  0.21223532  0.64545865  0.70587750  1.0
  C  C99  1  0.12781443  0.62987060  0.73767675  1.0
  C  C100  1  0.07889185  0.64847794  0.69918311  1.0
  C  C101  1  0.11527785  0.68254245  0.62949171  1.0
  C  C102  1  0.62599899  0.12956262  0.73671676  1.0
  C  C103  1  0.64722771  0.08127215  0.70195923  1.0
  C  C104  1  0.68687319  0.11619376  0.63261921  1.0
  C  C105  1  0.70631723  0.19922041  0.59624454  1.0
  C  C106  1  0.68576007  0.24812145  0.63179227  1.0
  C  C107  1  0.64527793  0.21181062  0.70194054  1.0
  C  C108  1  0.74411869  0.23524798  0.52548917  1.0
  C  C109  1  0.77503639  0.27129323  0.46399351  1.0
  C  C110  1  0.80907370  0.30693067  0.39305570  1.0
  C  C111  1  0.82499181  0.25758428  0.35779957  1.0
  C  C112  1  0.85704787  0.29341501  0.28720456  1.0
  C  C113  1  0.87319881  0.37567362  0.25174504  1.0
  C  C114  1  0.85788404  0.42436809  0.28633270  1.0
  C  C115  1  0.82639394  0.38991546  0.35607125  1.0
  C  C116  1  0.18886818  0.25960255  0.96256304  1.0
  C  C117  1  0.24811426  0.19876985  0.96081503  1.0
  C  C118  1  0.30322712  0.20298172  0.99854721  1.0
  C  C119  1  0.24841594  0.18435478  0.07201091  1.0
  C  C120  1  0.18997674  0.24582653  0.07351469  1.0
  C  C121  1  0.20385302  0.30580559  0.00110219  1.0
  C  C122  1  0.29208888  0.34808759  0.96566612  1.0
  C  C123  1  0.35090483  0.28715215  0.96455246  1.0
  C  C124  1  0.84948634  0.78683776  0.95676269  1.0
  C  C125  1  0.79038092  0.84801059  0.95767540  1.0
  C  C126  1  0.70171062  0.80533514  0.99072221  1.0
  C  C127  1  0.68698797  0.74518501  0.06331182  1.0
  C  C128  1  0.74535263  0.68373170  0.06216130  1.0
  C  C129  1  0.80127209  0.70244984  0.98880804  1.0
  C  C130  1  0.74908494  0.70033948  0.94900353  1.0
  C  C131  1  0.68995553  0.76103810  0.95036134  1.0
  C  C132  1  0.21847253  0.77091319  0.93996052  1.0
  C  C133  1  0.27640975  0.83384090  0.93878049  1.0
  C  C134  1  0.29647048  0.79991274  0.00309053  1.0
  C  C135  1  0.33645700  0.72574241  0.00547004  1.0
  C  C136  1  0.27783648  0.66275690  0.00730369  1.0
  C  C137  1  0.19807914  0.69410470  0.00545112  1.0
  C  C138  1  0.15878638  0.71367952  0.06629473  1.0
  C  C139  1  0.21727759  0.77611619  0.06509179  1.0
  C  C140  1  0.84132518  0.28790768  0.92926003  1.0
  C  C141  1  0.78341457  0.22476525  0.93039239  1.0
  C  C142  1  0.70367507  0.19987568  0.99314090  1.0
  C  C143  1  0.66435240  0.27460374  0.98999028  1.0
  C  C144  1  0.72231884  0.33673920  0.98983299  1.0
  C  C145  1  0.80181426  0.30514922  0.99199276  1.0
  C  C146  1  0.78262083  0.22738728  0.05564228  1.0
  C  C147  1  0.72380397  0.16549771  0.05673982  1.0
  N  N148  1  0.17916729  0.80109824  0.38640002  1.0
  N  N149  1  0.33317184  0.69231971  0.60411147  1.0
  N  N150  1  0.70783672  0.32892762  0.59742313  1.0
  N  N151  1  0.81126933  0.17656404  0.39318142  1.0
  O  O152  1  0.00059851  0.50310040  0.99366825  1.0
  O  O153  1  0.17131032  0.60664000  0.96021268  1.0
  O  O154  1  0.91854735  0.48760456  0.14709190  1.0
  O  O155  1  0.07043349  0.33552115  0.04089632  1.0
  O  O156  1  0.06762479  0.61907734  0.04430825  1.0
  O  O157  1  0.17127632  0.43686302  0.96099101  1.0
  O  O158  1  0.92373542  0.36518737  0.14773399  1.0
  O  O159  1  0.90094187  0.33934075  0.02805818  1.0
  O  O160  1  0.01256309  0.57967830  0.83960063  1.0
  O  O161  1  0.86763216  0.43827868  0.94988158  1.0
  O  O162  1  0.13846441  0.57839882  0.84438253  1.0
  O  O163  1  0.90116086  0.63672766  0.02636800  1.0
  O  O164  1  0.86653423  0.60651330  0.95254328  1.0
  O  O165  1  0.50114669  0.00253306  0.99495744  1.0
  O  O166  1  0.32851700  0.06924348  0.03169232  1.0
  O  O167  1  0.56466288  0.13965045  0.84023529  1.0
  O  O168  1  0.42692743  0.87818122  0.95423498  1.0
  O  O169  1  0.43477445  0.16838629  0.95957309  1.0
  O  O170  1  0.32927505  0.89583097  0.03881822  1.0
  O  O171  1  0.57031098  0.01730322  0.84081876  1.0
  O  O172  1  0.60334629  0.87736572  0.95470595  1.0
  O  O173  1  0.49697687  0.92263051  0.14780370  1.0
  O  O174  1  0.64093397  0.90010375  0.03047371  1.0
  O  O175  1  0.36993638  0.93239536  0.14620613  1.0
  O  O176  1  0.61734389  0.16671218  0.94586798  1.0
  O  O177  1  0.63329433  0.06861375  0.03532490  1.0
