# generated using pymatgen
data_ZnH14C18Br3N3O4
_symmetry_space_group_name_H-M   'P 1'
_cell_length_a   8.78032874
_cell_length_b   16.45711844
_cell_length_c   16.89587785
_cell_angle_alpha   85.94679594
_cell_angle_beta   89.83143855
_cell_angle_gamma   77.41761655
_symmetry_Int_Tables_number   1
_chemical_formula_structural   ZnH14C18Br3N3O4
_chemical_formula_sum   'Zn2 H28 C36 Br6 N6 O8'
_cell_volume   2376.64758715
_cell_formula_units_Z   2
loop_
 _symmetry_equiv_pos_site_id
 _symmetry_equiv_pos_as_xyz
  1  'x, y, z'
loop_
 _atom_site_type_symbol
 _atom_site_label
 _atom_site_symmetry_multiplicity
 _atom_site_fract_x
 _atom_site_fract_y
 _atom_site_fract_z
 _atom_site_occupancy
  Zn  Zn0  1  0.47480774  0.59664343  0.50381468  1.0
  Zn  Zn1  1  0.52109684  0.40326994  0.50144468  1.0
  H  H2  1  0.69871860  0.45511795  0.11822642  1.0
  H  H3  1  0.01742319  0.43402159  0.77259056  1.0
  H  H4  1  0.05709486  0.37736229  0.68619276  1.0
  H  H5  1  0.88956330  0.31168642  0.78234368  1.0
  H  H6  1  0.79549283  0.34431612  0.68935950  1.0
  H  H7  1  0.00948001  0.53687962  0.18685869  1.0
  H  H8  1  0.08801247  0.48212146  0.27733930  1.0
  H  H9  1  0.92962502  0.56948393  0.27921073  1.0
  H  H10  1  0.17342268  0.61256477  0.31585048  1.0
  H  H11  1  0.10402866  0.66281023  0.22293079  1.0
  H  H12  1  0.79725223  0.78456932  0.35738487  1.0
  H  H13  1  0.34137292  0.55232690  0.88852567  1.0
  H  H14  1  0.83697492  0.68102067  0.40278777  1.0
  H  H15  1  0.79667119  0.69918356  0.29901795  1.0
  H  H16  1  0.56341604  0.66801791  0.37168865  1.0
  H  H17  1  0.52318626  0.76865001  0.32324264  1.0
  H  H18  1  0.50197091  0.26601486  0.69969950  1.0
  H  H19  1  0.30599436  0.28319174  0.73237049  1.0
  H  H20  1  0.39979563  0.18300345  0.70325903  1.0
  H  H21  1  0.31554414  0.34579440  0.59385191  1.0
  H  H22  1  0.21313510  0.26485946  0.59690708  1.0
  H  H23  1  0.67334865  0.44851299  0.26671188  1.0
  H  H24  1  0.34095815  0.54414880  0.74033776  1.0
  H  H25  1  0.58716765  0.88700273  0.40215326  1.0
  H  H26  1  0.36613321  0.11703389  0.57879305  1.0
  H  H27  1  0.69852070  0.11010862  0.39017069  1.0
  H  H28  1  0.40461610  0.87838595  0.63845351  1.0
  H  H29  1  0.91471364  0.47240077  0.68241156  1.0
  C  C30  1  0.43744463  0.51350348  0.35290052  1.0
  C  C31  1  0.44314109  0.84879690  0.58419370  1.0
  C  C32  1  0.61663267  0.22758040  0.44333964  1.0
  C  C33  1  0.43887683  0.76580172  0.57532125  1.0
  C  C34  1  0.78797370  0.49027178  0.48357807  1.0
  C  C35  1  0.20326250  0.53520839  0.52709068  1.0
  C  C36  1  0.96107750  0.48613129  0.48681256  1.0
  C  C37  1  0.03094850  0.53806825  0.52470143  1.0
  C  C38  1  0.43706558  0.52067389  0.26352838  1.0
  C  C39  1  0.57012462  0.46376883  0.73960131  1.0
  C  C40  1  0.30839814  0.56519062  0.21700812  1.0
  C  C41  1  0.55893943  0.46325982  0.65086690  1.0
  C  C42  1  0.70146679  0.41852561  0.78358633  1.0
  C  C43  1  0.32767544  0.56854625  0.13425085  1.0
  C  C44  1  0.69926604  0.42634571  0.86593087  1.0
  C  C45  1  0.46571300  0.52774119  0.09829363  1.0
  C  C46  1  0.57123384  0.47481103  0.90392848  1.0
  C  C47  1  0.59174104  0.48504488  0.14683659  1.0
  C  C48  1  0.44090791  0.51701640  0.85790023  1.0
  C  C49  1  0.57682222  0.48171636  0.22836585  1.0
  C  C50  1  0.44158404  0.51202171  0.77663789  1.0
  C  C51  1  0.83841714  0.36674951  0.74281565  1.0
  C  C52  1  0.43397562  0.23258457  0.54417533  1.0
  C  C53  1  0.96431793  0.41555812  0.71983749  1.0
  C  C54  1  0.15406072  0.60173223  0.25376568  1.0
  C  C55  1  0.03846934  0.54415952  0.24872935  1.0
  C  C56  1  0.59143967  0.72949855  0.37211582  1.0
  C  C57  1  0.76617218  0.72336339  0.35722734  1.0
  C  C58  1  0.32950897  0.27831931  0.60479698  1.0
  C  C59  1  0.38848967  0.25046012  0.69010412  1.0
  C  C60  1  0.53879014  0.76961855  0.44765241  1.0
  C  C61  1  0.43827186  0.14780411  0.53970592  1.0
  C  C62  1  0.54544981  0.85308047  0.45228713  1.0
  C  C63  1  0.53399801  0.10258944  0.48460886  1.0
  C  C64  1  0.49680591  0.89335220  0.52085716  1.0
  C  C65  1  0.62391758  0.14337205  0.43425272  1.0
  Br  Br66  1  0.07451491  0.39632393  0.43064472  1.0
  Br  Br67  1  0.91131289  0.62495892  0.58237969  1.0
  Br  Br68  1  0.87650839  0.37202792  0.92963588  1.0
  Br  Br69  1  0.15938517  0.62691596  0.06633629  1.0
  Br  Br70  1  0.75015564  0.27860242  0.37855136  1.0
  Br  Br71  1  0.36287585  0.70910042  0.66251240  1.0
  N  N72  1  0.47043712  0.53137333  0.01496557  1.0
  N  N73  1  0.57355784  0.47441680  0.98720021  1.0
  N  N74  1  0.52425034  0.27249137  0.49573621  1.0
  N  N75  1  0.48469752  0.72586159  0.50952846  1.0
  N  N76  1  0.54430142  0.01680521  0.47405299  1.0
  N  N77  1  0.49333430  0.97845829  0.53209407  1.0
  O  O78  1  0.40773186  0.58067378  0.38829016  1.0
  O  O79  1  0.55672424  0.39426584  0.62186723  1.0
  O  O80  1  0.47604495  0.43952614  0.38524375  1.0
  O  O81  1  0.54759199  0.53353213  0.61244704  1.0
  O  O82  1  0.70139683  0.56188017  0.46710115  1.0
  O  O83  1  0.29208444  0.46355790  0.52694408  1.0
  O  O84  1  0.74680577  0.42175860  0.49709985  1.0
  O  O85  1  0.24433982  0.60448221  0.52837705  1.0
