# generated using pymatgen
data_FeH20C26(SN3)2
_symmetry_space_group_name_H-M   'P 1'
_cell_length_a   14.45735503
_cell_length_b   15.60758562
_cell_length_c   15.87179619
_cell_angle_alpha   89.99999521
_cell_angle_beta   90.00037916
_cell_angle_gamma   89.99998084
_symmetry_Int_Tables_number   1
_chemical_formula_structural   FeH20C26(SN3)2
_chemical_formula_sum   'Fe4 H80 C104 S8 N24'
_cell_volume   3581.38203082
_cell_formula_units_Z   4
loop_
 _symmetry_equiv_pos_site_id
 _symmetry_equiv_pos_as_xyz
  1  'x, y, z'
loop_
 _atom_site_type_symbol
 _atom_site_label
 _atom_site_symmetry_multiplicity
 _atom_site_fract_x
 _atom_site_fract_y
 _atom_site_fract_z
 _atom_site_occupancy
  Fe  Fe0  1  0.74999991  0.24880217  0.25000032  1.0
  Fe  Fe1  1  0.24999948  0.25119785  0.75000019  1.0
  Fe  Fe2  1  0.25000008  0.75119767  0.75000017  1.0
  Fe  Fe3  1  0.74999982  0.74880135  0.24999967  1.0
  H  H4  1  0.55547041  0.28264536  0.21126435  1.0
  H  H5  1  0.94452941  0.28264529  0.28873565  1.0
  H  H6  1  0.05546958  0.21735344  0.78873687  1.0
  H  H7  1  0.44453009  0.21735338  0.71126288  1.0
  H  H8  1  0.44453097  0.71735256  0.78873865  1.0
  H  H9  1  0.05546921  0.71735262  0.71126169  1.0
  H  H10  1  0.94452903  0.78264704  0.21126235  1.0
  H  H11  1  0.55547129  0.78264710  0.28873760  1.0
  H  H12  1  0.46712055  0.37756204  0.11701010  1.0
  H  H13  1  0.03287888  0.37756274  0.38298940  1.0
  H  H14  1  0.96712079  0.12243535  0.88299045  1.0
  H  H15  1  0.53287857  0.12243607  0.61700917  1.0
  H  H16  1  0.53287875  0.62243331  0.88299164  1.0
  H  H17  1  0.96712111  0.62243390  0.61700857  1.0
  H  H18  1  0.03287852  0.87756449  0.11700940  1.0
  H  H19  1  0.46712143  0.87756441  0.38299006  1.0
  H  H20  1  0.72495516  0.50429525  0.05632713  1.0
  H  H21  1  0.77504388  0.50429523  0.44367285  1.0
  H  H22  1  0.22495674  0.99570442  0.94367129  1.0
  H  H23  1  0.27504334  0.99570442  0.55632839  1.0
  H  H24  1  0.27504276  0.49570267  0.94367084  1.0
  H  H25  1  0.22495681  0.49570269  0.55632889  1.0
  H  H26  1  0.77504395  0.00429670  0.05632919  1.0
  H  H27  1  0.72495666  0.00429669  0.44367083  1.0
  H  H28  1  0.80334746  0.40138438  0.15147098  1.0
  H  H29  1  0.69665231  0.40138439  0.34852901  1.0
  H  H30  1  0.30334780  0.09861498  0.84852922  1.0
  H  H31  1  0.19665191  0.09861437  0.65147117  1.0
  H  H32  1  0.19665115  0.59861546  0.84853013  1.0
  H  H33  1  0.30334907  0.59861481  0.65146958  1.0
  H  H34  1  0.69665220  0.90138614  0.15147127  1.0
  H  H35  1  0.80334809  0.90138611  0.34852931  1.0
  H  H36  1  0.58437406  0.56011681  0.99370328  1.0
  H  H37  1  0.91562514  0.56011678  0.50629694  1.0
  H  H38  1  0.08437577  0.93987970  0.00629618  1.0
  H  H39  1  0.41562416  0.93987963  0.49370327  1.0
  H  H40  1  0.41562109  0.43987726  0.00629720  1.0
  H  H41  1  0.08437763  0.43987730  0.49370292  1.0
  H  H42  1  0.91562492  0.06012142  0.99370367  1.0
  H  H43  1  0.58437584  0.06012085  0.50629659  1.0
  H  H44  1  0.86051379  0.09393835  0.20988295  1.0
  H  H45  1  0.63948610  0.09393838  0.29011706  1.0
  H  H46  1  0.36051428  0.40606291  0.79011885  1.0
  H  H47  1  0.13948532  0.40606231  0.70988215  1.0
  H  H48  1  0.13948483  0.90606405  0.79011879  1.0
  H  H49  1  0.36051528  0.90606338  0.70988090  1.0
  H  H50  1  0.63948571  0.59393564  0.20988164  1.0
  H  H51  1  0.86051468  0.59393625  0.29011771  1.0
  H  H52  1  0.95845438  0.99232200  0.29042041  1.0
  H  H53  1  0.54154518  0.99232207  0.20957953  1.0
  H  H54  1  0.45845374  0.50768016  0.70958005  1.0
  H  H55  1  0.04154651  0.50767958  0.79041967  1.0
  H  H56  1  0.04154631  0.00768232  0.70958007  1.0
  H  H57  1  0.45845343  0.00768225  0.79041969  1.0
  H  H58  1  0.54154626  0.49231776  0.29041980  1.0
  H  H59  1  0.95845417  0.49231834  0.20957955  1.0
  H  H60  1  0.87135506  0.12311902  0.51767298  1.0
  H  H61  1  0.62864568  0.12311904  0.98232665  1.0
  H  H62  1  0.37135263  0.37688224  0.48232826  1.0
  H  H63  1  0.12864680  0.37688166  0.01767250  1.0
  H  H64  1  0.12864563  0.87688338  0.48232877  1.0
  H  H65  1  0.37135432  0.87688336  0.01767195  1.0
  H  H66  1  0.62864529  0.62311695  0.51767222  1.0
  H  H67  1  0.87135389  0.62311690  0.98232736  1.0
  H  H68  1  0.77590226  0.21697212  0.42827259  1.0
  H  H69  1  0.72409758  0.21697214  0.07172741  1.0
  H  H70  1  0.27590191  0.28302853  0.57172807  1.0
  H  H71  1  0.22409843  0.28302852  0.92827231  1.0
  H  H72  1  0.22409704  0.78303028  0.57172852  1.0
  H  H73  1  0.27590380  0.78303026  0.92827181  1.0
  H  H74  1  0.72409601  0.71697002  0.42827305  1.0
  H  H75  1  0.77590364  0.71697003  0.07172755  1.0
  H  H76  1  0.01544490  0.93875460  0.42484722  1.0
  H  H77  1  0.48455503  0.93875454  0.07515286  1.0
  H  H78  1  0.51544292  0.56124834  0.57515246  1.0
  H  H79  1  0.98455697  0.56124825  0.92484776  1.0
  H  H80  1  0.98455786  0.06125037  0.57515264  1.0
  H  H81  1  0.51544289  0.06125042  0.92484762  1.0
  H  H82  1  0.48455708  0.43875022  0.42484739  1.0
  H  H83  1  0.01544303  0.43875031  0.07515273  1.0
  C  C84  1  0.59031551  0.33224752  0.17513433  1.0
  C  C85  1  0.90968429  0.33224746  0.32486567  1.0
  C  C86  1  0.09031565  0.16775063  0.82486584  1.0
  C  C87  1  0.40968403  0.16775123  0.67513391  1.0
  C  C88  1  0.40968518  0.66774976  0.82486805  1.0
  C  C89  1  0.09031501  0.66774982  0.67513230  1.0
  C  C90  1  0.90968365  0.83224921  0.17513401  1.0
  C  C91  1  0.59031665  0.83224925  0.32486594  1.0
  C  C92  1  0.54158855  0.38615016  0.12219688  1.0
  C  C93  1  0.95841123  0.38615073  0.37780248  1.0
  C  C94  1  0.04158910  0.11384608  0.87780300  1.0
  C  C95  1  0.45841130  0.11384730  0.62219613  1.0
  C  C96  1  0.45841214  0.61384455  0.87780360  1.0
  C  C97  1  0.04158808  0.61384527  0.62219611  1.0
  C  C98  1  0.95841159  0.88615376  0.12219686  1.0
  C  C99  1  0.54158939  0.88615445  0.37780309  1.0
  C  C100  1  0.58823798  0.44980190  0.07561376  1.0
  C  C101  1  0.91176177  0.44980247  0.42438560  1.0
  C  C102  1  0.08823820  0.05019625  0.92438640  1.0
  C  C103  1  0.41176153  0.05019621  0.57561336  1.0
  C  C104  1  0.41176132  0.55019346  0.92438609  1.0
  C  C105  1  0.08823822  0.55019352  0.57561363  1.0
  C  C106  1  0.91176111  0.94980423  0.07561409  1.0
  C  C107  1  0.58823847  0.94980362  0.42438586  1.0
  C  C108  1  0.68423346  0.45600335  0.08928799  1.0
  C  C109  1  0.81576560  0.45600332  0.41071136  1.0
  C  C110  1  0.18423496  0.04399604  0.91071149  1.0
  C  C111  1  0.31576546  0.04399604  0.58928828  1.0
  C  C112  1  0.31576584  0.54399520  0.91071186  1.0
  C  C113  1  0.18423370  0.54399588  0.58928786  1.0
  C  C114  1  0.81576573  0.95600507  0.08928900  1.0
  C  C115  1  0.68423454  0.95600508  0.41071095  1.0
  C  C116  1  0.72885801  0.39919571  0.14264441  1.0
  C  C117  1  0.77114176  0.39919569  0.35735558  1.0
  C  C118  1  0.22886048  0.10080431  0.85735408  1.0
  C  C119  1  0.27113922  0.10080560  0.64264505  1.0
  C  C120  1  0.27113991  0.60080413  0.85735608  1.0
  C  C121  1  0.22886031  0.60080350  0.64264427  1.0
  C  C122  1  0.77113951  0.89919552  0.14264577  1.0
  C  C123  1  0.72886077  0.89919488  0.35735417  1.0
  C  C124  1  0.54328970  0.50565808  0.01536020  1.0
  C  C125  1  0.95670934  0.50565799  0.48463978  1.0
  C  C126  1  0.04329088  0.99433908  0.98464090  1.0
  C  C127  1  0.45670850  0.99433968  0.51535941  1.0
  C  C128  1  0.45670892  0.49433791  0.98464091  1.0
  C  C129  1  0.04328927  0.49433864  0.51535882  1.0
  C  C130  1  0.95670911  0.00566140  0.01535958  1.0
  C  C131  1  0.54329149  0.00566208  0.48464044  1.0
  C  C132  1  0.86463719  0.09765000  0.27817202  1.0
  C  C133  1  0.63536269  0.09765004  0.22182799  1.0
  C  C134  1  0.36463789  0.40235062  0.72182854  1.0
  C  C135  1  0.13536240  0.40235129  0.77817119  1.0
  C  C136  1  0.13536280  0.90235111  0.72182846  1.0
  C  C137  1  0.36463800  0.90235108  0.77817186  1.0
  C  C138  1  0.63536349  0.59764794  0.27817194  1.0
  C  C139  1  0.86463690  0.59764790  0.22182803  1.0
  C  C140  1  0.91935070  0.04147282  0.32387464  1.0
  C  C141  1  0.58064851  0.04147288  0.17612601  1.0
  C  C142  1  0.41935035  0.45852906  0.67612562  1.0
  C  C143  1  0.08065062  0.45852911  0.82387474  1.0
  C  C144  1  0.08065068  0.95853086  0.67612584  1.0
  C  C145  1  0.41935010  0.95853080  0.82387385  1.0
  C  C146  1  0.58065034  0.54146885  0.32387486  1.0
  C  C147  1  0.91935007  0.54146881  0.17612512  1.0
  C  C148  1  0.92637858  0.04916523  0.41208144  1.0
  C  C149  1  0.57361993  0.04916594  0.08791984  1.0
  C  C150  1  0.42637759  0.45083601  0.58791824  1.0
  C  C151  1  0.07362268  0.45083605  0.91208212  1.0
  C  C152  1  0.07362211  0.95083845  0.58791904  1.0
  C  C153  1  0.42637799  0.95083838  0.91208065  1.0
  C  C154  1  0.57362240  0.54916190  0.41208225  1.0
  C  C155  1  0.92637731  0.54916186  0.08791773  1.0
  C  C156  1  0.87168405  0.11341669  0.44978841  1.0
  C  C157  1  0.62831513  0.11341610  0.05021223  1.0
  C  C158  1  0.37168212  0.38658521  0.55021220  1.0
  C  C159  1  0.12831817  0.38658523  0.94978754  1.0
  C  C160  1  0.12831663  0.88658699  0.55021270  1.0
  C  C161  1  0.37168418  0.88658694  0.94978699  1.0
  C  C162  1  0.62831649  0.61341334  0.44978766  1.0
  C  C163  1  0.87168321  0.61341332  0.05021232  1.0
  C  C164  1  0.81827645  0.16684777  0.40045294  1.0
  C  C165  1  0.68172341  0.16684716  0.09954707  1.0
  C  C166  1  0.31827559  0.33315351  0.59954735  1.0
  C  C167  1  0.18172473  0.33315352  0.90045302  1.0
  C  C168  1  0.18172286  0.83315335  0.59954692  1.0
  C  C169  1  0.31827728  0.83315332  0.90045341  1.0
  C  C170  1  0.68172372  0.66684569  0.40045313  1.0
  C  C171  1  0.81827596  0.66684568  0.09954683  1.0
  C  C172  1  0.98777709  0.99382574  0.45919598  1.0
  C  C173  1  0.51222247  0.99382519  0.04080459  1.0
  C  C174  1  0.48777523  0.50617640  0.54080340  1.0
  C  C175  1  0.01222503  0.50617646  0.95919633  1.0
  C  C176  1  0.01222567  0.00617986  0.54080388  1.0
  C  C177  1  0.48777476  0.00617977  0.95919652  1.0
  C  C178  1  0.51222408  0.49382151  0.45919645  1.0
  C  C179  1  0.98777497  0.49382146  0.04080353  1.0
  C  C180  1  0.91089403  0.24538073  0.12240277  1.0
  C  C181  1  0.58910511  0.24538077  0.37759787  1.0
  C  C182  1  0.41089521  0.25461859  0.87759304  1.0
  C  C183  1  0.08910513  0.25461865  0.62240671  1.0
  C  C184  1  0.08910528  0.75462167  0.87758953  1.0
  C  C185  1  0.41089489  0.75462163  0.62241081  1.0
  C  C186  1  0.58910963  0.74538060  0.12240682  1.0
  C  C187  1  0.91089002  0.74538118  0.37759378  1.0
  S  S188  1  0.99734252  0.24092327  0.05800389  1.0
  S  S189  1  0.50265800  0.24092333  0.44199548  1.0
  S  S190  1  0.49734279  0.25907923  0.94199118  1.0
  S  S191  1  0.00265755  0.25907932  0.55800857  1.0
  S  S192  1  0.00265540  0.75907849  0.94198777  1.0
  S  S193  1  0.49734477  0.75907843  0.55801193  1.0
  S  S194  1  0.50266135  0.74091997  0.05800301  1.0
  S  S195  1  0.99733760  0.74092052  0.44199758  1.0
  N  N196  1  0.68356496  0.33658449  0.18483736  1.0
  N  N197  1  0.81643414  0.33658447  0.31516264  1.0
  N  N198  1  0.18356504  0.16341554  0.81516275  1.0
  N  N199  1  0.31643534  0.16341553  0.68483764  1.0
  N  N200  1  0.31643572  0.66341534  0.81516439  1.0
  N  N201  1  0.18356447  0.66341537  0.68483595  1.0
  N  N202  1  0.81643496  0.83658429  0.18483711  1.0
  N  N203  1  0.68356535  0.83658431  0.31516348  1.0
  N  N204  1  0.81537727  0.16121590  0.31510090  1.0
  N  N205  1  0.68462259  0.16121656  0.18489911  1.0
  N  N206  1  0.31537702  0.33878474  0.68490063  1.0
  N  N207  1  0.18462329  0.33878476  0.81509974  1.0
  N  N208  1  0.18462273  0.83878650  0.68489958  1.0
  N  N209  1  0.31537810  0.83878584  0.81510074  1.0
  N  N210  1  0.68462297  0.66121381  0.31510048  1.0
  N  N211  1  0.81537740  0.66121380  0.18490011  1.0
  N  N212  1  0.84701183  0.24866312  0.16952768  1.0
  N  N213  1  0.65298868  0.24866250  0.33047233  1.0
  N  N214  1  0.34701199  0.25133943  0.83046900  1.0
  N  N215  1  0.15298836  0.25133947  0.66953137  1.0
  N  N216  1  0.15298955  0.75133864  0.83046777  1.0
  N  N217  1  0.34701131  0.75133862  0.66953194  1.0
  N  N218  1  0.65298663  0.74865912  0.16952896  1.0
  N  N219  1  0.84701302  0.74865909  0.33047100  1.0
