# generated using pymatgen
data_Cu2H9(C8N5)2
_symmetry_space_group_name_H-M   'P 1'
_cell_length_a   27.63359015
_cell_length_b   29.20761138
_cell_length_c   33.47617472
_cell_angle_alpha   89.85526390
_cell_angle_beta   89.17819896
_cell_angle_gamma   86.46370724
_symmetry_Int_Tables_number   1
_chemical_formula_structural   Cu2H9(C8N5)2
_chemical_formula_sum   'Cu12 H54 C96 N60'
_cell_volume   26964.73779896
_cell_formula_units_Z   6
loop_
 _symmetry_equiv_pos_site_id
 _symmetry_equiv_pos_as_xyz
  1  'x, y, z'
loop_
 _atom_site_type_symbol
 _atom_site_label
 _atom_site_symmetry_multiplicity
 _atom_site_fract_x
 _atom_site_fract_y
 _atom_site_fract_z
 _atom_site_occupancy
  Cu  Cu0  1  0.10237786  0.18393792  0.22370123  1.0
  Cu  Cu1  1  0.15824686  0.16138699  0.14372827  1.0
  Cu  Cu2  1  0.19582264  0.11317556  0.22290017  1.0
  Cu  Cu3  1  0.90074891  0.81704929  0.20869624  1.0
  Cu  Cu4  1  0.84694726  0.82795747  0.12714352  1.0
  Cu  Cu5  1  0.79661913  0.86786319  0.20652174  1.0
  Cu  Cu6  1  0.87757634  0.22327500  0.79177151  1.0
  Cu  Cu7  1  0.81347664  0.21337438  0.86969475  1.0
  Cu  Cu8  1  0.82177144  0.13237742  0.80826002  1.0
  Cu  Cu9  1  0.13641562  0.77953111  0.77491331  1.0
  Cu  Cu10  1  0.18501521  0.81634302  0.85245736  1.0
  Cu  Cu11  1  0.18803786  0.87448321  0.77361672  1.0
  H  H12  1  0.04529521  0.28009154  0.19984783  1.0
  H  H13  1  0.11420438  0.23937011  0.08727583  1.0
  H  H14  1  0.18642375  0.06927202  0.30934029  1.0
  H  H15  1  0.05105440  0.15189970  0.30313176  1.0
  H  H16  1  0.22719037  0.11020554  0.07963311  1.0
  H  H17  1  0.29325621  0.05960088  0.18912810  1.0
  H  H18  1  0.97261111  0.72892930  0.18924354  1.0
  H  H19  1  0.90700110  0.75477506  0.07393665  1.0
  H  H20  1  0.79108753  0.91368315  0.29335099  1.0
  H  H21  1  0.93970889  0.85695552  0.28941654  1.0
  H  H22  1  0.77198084  0.86905601  0.06281923  1.0
  H  H23  1  0.69201899  0.89874873  0.17295582  1.0
  H  H24  1  0.93941808  0.30766661  0.81578661  1.0
  H  H25  1  0.85766610  0.28778382  0.92524264  1.0
  H  H26  1  0.85423920  0.07478211  0.73159738  1.0
  H  H27  1  0.91358049  0.20468396  0.70186045  1.0
  H  H28  1  0.71751238  0.18783551  0.91780536  1.0
  H  H29  1  0.74718917  0.06487819  0.84731697  1.0
  H  H30  1  0.10552371  0.68164785  0.80645339  1.0
  H  H31  1  0.15373841  0.74247600  0.91575418  1.0
  H  H32  1  0.13815153  0.92135535  0.69841785  1.0
  H  H33  1  0.07529594  0.78917141  0.69535819  1.0
  H  H34  1  0.25257679  0.87086405  0.90796092  1.0
  H  H35  1  0.27143648  0.94269941  0.79591639  1.0
  H  H36  1  0.46044305  0.97823725  0.92195382  1.0
  H  H37  1  0.46109211  0.01394886  0.04747387  1.0
  H  H38  1  0.52695281  0.04548790  0.93752523  1.0
  H  H39  1  0.52630276  0.94610952  0.03364748  1.0
  H  H40  1  0.32583291  0.99958094  0.98772888  1.0
  H  H41  1  0.66029931  0.00093739  0.99465524  1.0
  H  H42  1  0.99614687  0.47555436  0.94695800  1.0
  H  H43  1  0.04312117  0.46401078  0.06984603  1.0
  H  H44  1  0.00096416  0.53847553  0.06783724  1.0
  H  H45  1  0.06011142  0.52392327  0.94749346  1.0
  H  H46  1  0.99514847  0.34602926  0.00847508  1.0
  H  H47  1  0.04782739  0.65635144  0.00443327  1.0
  H  H48  1  0.91218458  0.95586247  0.47363899  1.0
  H  H49  1  0.03708084  0.03799368  0.48081301  1.0
  H  H50  1  0.00846992  0.92714511  0.52900891  1.0
  H  H51  1  0.93770583  0.06366127  0.53381437  1.0
  H  H52  1  0.98307548  0.00052703  0.36618645  1.0
  H  H53  1  0.97825303  0.99261968  0.64243193  1.0
  H  H54  1  0.06015714  0.31244603  0.05007812  1.0
  H  H55  1  0.97520858  0.68699467  0.04119400  1.0
  H  H56  1  0.92813711  0.33959849  0.96522485  1.0
  H  H57  1  0.10178472  0.67514525  0.95853100  1.0
  H  H58  1  0.01274672  0.07650871  0.35215086  1.0
  H  H59  1  0.05964570  0.95561611  0.65120969  1.0
  H  H60  1  0.95959490  0.92700032  0.34612810  1.0
  H  H61  1  0.91221281  0.03582964  0.66737238  1.0
  H  H62  1  0.30090634  0.05740644  0.03586847  1.0
  H  H63  1  0.69000881  0.02344028  0.92512798  1.0
  H  H64  1  0.30962363  0.93523817  0.94487826  1.0
  H  H65  1  0.69474287  0.93617888  0.02631945  1.0
  C  C66  1  0.06535605  0.26312195  0.17543311  1.0
  C  C67  1  0.07045183  0.27743978  0.13561234  1.0
  C  C68  1  0.10016380  0.24238483  0.11765930  1.0
  C  C69  1  0.15615654  0.09295168  0.30172274  1.0
  C  C70  1  0.11175148  0.10157841  0.32196708  1.0
  C  C71  1  0.08661810  0.13470288  0.29843325  1.0
  C  C72  1  0.23698996  0.10134230  0.11009953  1.0
  C  C73  1  0.27666477  0.07425974  0.12455653  1.0
  C  C74  1  0.27060937  0.07578960  0.16627575  1.0
  C  C75  1  0.95224787  0.74202651  0.16376739  1.0
  C  C76  1  0.95196322  0.72498839  0.12461519  1.0
  C  C77  1  0.91915357  0.75527774  0.10461419  1.0
  C  C78  1  0.82582005  0.89609396  0.28617032  1.0
  C  C79  1  0.86915087  0.89483743  0.30757503  1.0
  C  C80  1  0.90202545  0.86757917  0.28410737  1.0
  C  C81  1  0.75936122  0.87412520  0.09343281  1.0
  C  C82  1  0.71426594  0.89167035  0.10827860  1.0
  C  C83  1  0.71855487  0.88867307  0.14995348  1.0
  C  C84  1  0.91497392  0.29709434  0.83921736  1.0
  C  C85  1  0.91018009  0.31254992  0.87882761  1.0
  C  C86  1  0.87358394  0.28685703  0.89539953  1.0
  C  C87  1  0.86654570  0.10935268  0.73068601  1.0
  C  C88  1  0.89115596  0.13192053  0.70021555  1.0
  C  C89  1  0.89635406  0.17602288  0.71547265  1.0
  C  C90  1  0.73174671  0.16126240  0.89750346  1.0
  C  C91  1  0.71529378  0.11739239  0.89114062  1.0
  C  C92  1  0.74710250  0.09801775  0.86192159  1.0
  C  C93  1  0.11997838  0.70297418  0.82932505  1.0
  C  C94  1  0.12242152  0.69543918  0.87069965  1.0
  C  C95  1  0.14417266  0.73399524  0.88543168  1.0
  C  C96  1  0.12716276  0.88672564  0.70336025  1.0
  C  C97  1  0.09388588  0.86174179  0.68250759  1.0
  C  C98  1  0.09549858  0.81892110  0.70167170  1.0
  C  C99  1  0.25092777  0.88448813  0.87777284  1.0
  C  C100  1  0.27728057  0.91869508  0.85971664  1.0
  C  C101  1  0.26065891  0.92082354  0.82028559  1.0
  C  C102  1  0.44151434  0.98713433  0.94988492  1.0
  C  C103  1  0.46690429  0.99609594  0.98464816  1.0
  C  C104  1  0.44171362  0.00627776  0.02045386  1.0
  C  C105  1  0.39110883  0.00836932  0.02121890  1.0
  C  C106  1  0.36527927  0.99866352  0.98704877  1.0
  C  C107  1  0.39093659  0.98753398  0.95177715  1.0
  C  C108  1  0.52058910  0.99516932  0.98495597  1.0
  C  C109  1  0.54594027  0.02306687  0.95897220  1.0
  C  C110  1  0.59612282  0.02435246  0.96260632  1.0
  C  C111  1  0.62168452  0.99734369  0.99071425  1.0
  C  C112  1  0.59595405  0.96890764  0.01580287  1.0
  C  C113  1  0.54561746  0.96783971  0.01322513  1.0
  C  C114  1  0.00353549  0.45543644  0.97384458  1.0
  C  C115  1  0.02089345  0.47573064  0.00833666  1.0
  C  C116  1  0.02880234  0.44926122  0.04294853  1.0
  C  C117  1  0.01983301  0.40274891  0.04242122  1.0
  C  C118  1  0.00219112  0.38228837  0.00836343  1.0
  C  C119  1  0.99388503  0.40910129  0.97428686  1.0
  C  C120  1  0.03004038  0.52512890  0.00789174  1.0
  C  C121  1  0.01753073  0.55267984  0.04120652  1.0
  C  C122  1  0.02394724  0.59963070  0.03927648  1.0
  C  C123  1  0.04337155  0.61961272  0.00519649  1.0
  C  C124  1  0.05621192  0.59178440  0.97239477  1.0
  C  C125  1  0.04961267  0.54477607  0.97346695  1.0
  C  C126  1  0.94061119  0.97461952  0.45938224  1.0
  C  C127  1  0.97398400  0.99720000  0.48209696  1.0
  C  C128  1  0.01063795  0.02086416  0.46332684  1.0
  C  C129  1  0.01348483  0.02191703  0.42168029  1.0
  C  C130  1  0.98047011  0.99967586  0.39865365  1.0
  C  C131  1  0.94437168  0.97597271  0.41771351  1.0
  C  C132  1  0.97245989  0.99533840  0.52657552  1.0
  C  C133  1  0.99283268  0.95633980  0.54596968  1.0
  C  C134  1  0.99528765  0.95617086  0.58758788  1.0
  C  C135  1  0.97602877  0.99332244  0.61000508  1.0
  C  C136  1  0.95488544  0.03155015  0.59035423  1.0
  C  C137  1  0.95347805  0.03316690  0.54863504  1.0
  C  C138  1  0.05115942  0.31941709  0.11715036  1.0
  C  C139  1  0.04897292  0.33082699  0.07702601  1.0
  C  C140  1  0.97761065  0.68418011  0.10872202  1.0
  C  C141  1  0.98523671  0.67098597  0.06934512  1.0
  C  C142  1  0.93814511  0.34611626  0.89830280  1.0
  C  C143  1  0.94372617  0.35429249  0.93863870  1.0
  C  C144  1  0.10382737  0.65763387  0.89286204  1.0
  C  C145  1  0.09519585  0.65319367  0.93344653  1.0
  C  C146  1  0.09410734  0.07860091  0.35719674  1.0
  C  C147  1  0.04699897  0.06869778  0.36675003  1.0
  C  C148  1  0.06301898  0.87801935  0.65021412  1.0
  C  C149  1  0.04983314  0.92287096  0.63975423  1.0
  C  C150  1  0.87897865  0.91815560  0.34441827  1.0
  C  C151  1  0.92299655  0.93137315  0.35807588  1.0
  C  C152  1  0.90915207  0.11309757  0.66252113  1.0
  C  C153  1  0.91777834  0.06760985  0.65176514  1.0
  C  C154  1  0.31566039  0.05064310  0.10204143  1.0
  C  C155  1  0.32213784  0.04539015  0.06117257  1.0
  C  C156  1  0.67361862  0.09839489  0.91043014  1.0
  C  C157  1  0.66683211  0.05471064  0.92478950  1.0
  C  C158  1  0.31433343  0.94442783  0.87779310  1.0
  C  C159  1  0.32518239  0.94880617  0.91778616  1.0
  C  C160  1  0.67226732  0.91030294  0.08704573  1.0
  C  C161  1  0.66828498  0.93035239  0.04962713  1.0
  N  N162  1  0.11193254  0.20960795  0.14484584  1.0
  N  N163  1  0.09028457  0.22242356  0.18065827  1.0
  N  N164  1  0.11405816  0.14492446  0.26638020  1.0
  N  N165  1  0.15712616  0.11884163  0.26831485  1.0
  N  N166  1  0.23017300  0.10187002  0.17582023  1.0
  N  N167  1  0.20933288  0.11777095  0.14098684  1.0
  N  N168  1  0.90111117  0.78794671  0.13005260  1.0
  N  N169  1  0.92174269  0.77976096  0.16671574  1.0
  N  N170  1  0.87982060  0.85364611  0.25109375  1.0
  N  N171  1  0.83260286  0.87144760  0.25230699  1.0
  N  N172  1  0.76312648  0.87091740  0.15918334  1.0
  N  N173  1  0.78844378  0.86168114  0.12415421  1.0
  N  N174  1  0.85779458  0.25812755  0.86764868  1.0
  N  N175  1  0.88357894  0.26441654  0.83285392  1.0
  N  N176  1  0.87643621  0.17924900  0.75244597  1.0
  N  N177  1  0.85785007  0.13793131  0.76187183  1.0
  N  N178  1  0.78014702  0.12827493  0.85161660  1.0
  N  N179  1  0.77073757  0.16737022  0.87392837  1.0
  N  N180  1  0.15376767  0.76249814  0.85499482  1.0
  N  N181  1  0.13866714  0.74330356  0.82022222  1.0
  N  N182  1  0.12723844  0.81869291  0.73195492  1.0
  N  N183  1  0.14696570  0.86073640  0.73294486  1.0
  N  N184  1  0.22679529  0.89004369  0.81537511  1.0
  N  N185  1  0.22086632  0.86744369  0.85100779  1.0
  N  N186  1  0.02018646  0.39042584  0.11433649  1.0
  N  N187  1  0.03285307  0.35693514  0.13866856  1.0
  N  N188  1  0.02992273  0.37496113  0.07634438  1.0
  N  N189  1  0.01548160  0.61584963  0.11038122  1.0
  N  N190  1  0.99708797  0.64941574  0.13261435  1.0
  N  N191  1  0.00845123  0.62853635  0.07144894  1.0
  N  N192  1  0.98775747  0.40179075  0.90236981  1.0
  N  N193  1  0.96591967  0.37600399  0.87744867  1.0
  N  N194  1  0.97455032  0.38890522  0.94013719  1.0
  N  N195  1  0.07204059  0.59119584  0.90113454  1.0
  N  N196  1  0.08906945  0.61874922  0.87446711  1.0
  N  N197  1  0.07548569  0.61175577  0.93762576  1.0
  N  N198  1  0.09772477  0.04007804  0.41361241  1.0
  N  N199  1  0.12370141  0.06032267  0.38676675  1.0
  N  N200  1  0.05039236  0.04502093  0.40176308  1.0
  N  N201  1  0.01437365  0.87441720  0.59911673  1.0
  N  N202  1  0.04025173  0.84971348  0.62456907  1.0
  N  N203  1  0.01988761  0.91944864  0.60811315  1.0
  N  N204  1  0.86360845  0.95284435  0.40176752  1.0
  N  N205  1  0.84381536  0.93215944  0.37216556  1.0
  N  N206  1  0.91233219  0.95258899  0.39356701  1.0
  N  N207  1  0.93830246  0.11335584  0.60113785  1.0
  N  N208  1  0.92232636  0.13968557  0.63051290  1.0
  N  N209  1  0.93570766  0.06886347  0.61367716  1.0
  N  N210  1  0.38578308  0.01212922  0.09336116  1.0
  N  N211  1  0.35548816  0.02941907  0.12031527  1.0
  N  N212  1  0.36592467  0.02157037  0.05681760  1.0
  N  N213  1  0.59983172  0.10061512  0.93580542  1.0
  N  N214  1  0.63158601  0.12508675  0.91805263  1.0
  N  N215  1  0.62075980  0.05708212  0.94007002  1.0
  N  N216  1  0.37789293  0.98590523  0.87998657  1.0
  N  N217  1  0.34741969  0.96799370  0.85594965  1.0
  N  N218  1  0.36473096  0.97443917  0.91806827  1.0
  N  N219  1  0.59535953  0.93176394  0.08011225  1.0
  N  N220  1  0.62658186  0.91208471  0.10438758  1.0
  N  N221  1  0.62021245  0.94321286  0.04615529  1.0
