# generated using pymatgen
data_Al4H27C46IO20
_symmetry_space_group_name_H-M   'P 1'
_cell_length_a   6.74973848
_cell_length_b   18.44264714
_cell_length_c   20.44543412
_cell_angle_alpha   72.32669179
_cell_angle_beta   89.93844282
_cell_angle_gamma   89.86264343
_symmetry_Int_Tables_number   1
_chemical_formula_structural   Al4H27C46IO20
_chemical_formula_sum   'Al4 H27 C46 I1 O20'
_cell_volume   2424.98125363
_cell_formula_units_Z   1
loop_
 _symmetry_equiv_pos_site_id
 _symmetry_equiv_pos_as_xyz
  1  'x, y, z'
loop_
 _atom_site_type_symbol
 _atom_site_label
 _atom_site_symmetry_multiplicity
 _atom_site_fract_x
 _atom_site_fract_y
 _atom_site_fract_z
 _atom_site_occupancy
  Al  Al0  1  0.10116641  0.49993560  0.50042636  1.0
  Al  Al1  1  0.60142292  0.50050933  0.49929169  1.0
  Al  Al2  1  0.64423134  0.00034790  0.99907571  1.0
  Al  Al3  1  0.14387025  0.99951637  0.00020332  1.0
  H  H4  1  0.11533977  0.85093386  0.70703768  1.0
  H  H5  1  0.97412744  0.67035650  0.86571567  1.0
  H  H6  1  0.63222478  0.64670172  0.79547138  1.0
  H  H7  1  0.54668571  0.80515063  0.75872232  1.0
  H  H8  1  0.26019368  0.17183140  0.36336797  1.0
  H  H9  1  0.60822756  0.14544047  0.29504024  1.0
  H  H10  1  0.04483782  0.19680273  0.23899655  1.0
  H  H11  1  0.13672040  0.35452925  0.20308217  1.0
  H  H12  1  0.73462944  0.29096504  0.37342454  1.0
  H  H13  1  0.86155775  0.21891887  0.34852055  1.0
  H  H14  1  0.97693139  0.30797682  0.34006648  1.0
  H  H15  1  0.85121792  0.30175970  0.22423993  1.0
  H  H16  1  0.73415576  0.37470763  0.24923353  1.0
  H  H17  1  0.58439687  0.92574639  0.64924631  1.0
  H  H18  1  0.83701015  0.95108457  0.63413852  1.0
  H  H19  1  0.67449227  0.96048955  0.56380148  1.0
  H  H20  1  0.88434001  0.84333914  0.58160458  1.0
  H  H21  1  0.63340224  0.81806302  0.59780367  1.0
  H  H22  1  0.22982737  0.69781246  0.63125269  1.0
  H  H23  1  0.35101579  0.77355358  0.65180786  1.0
  H  H24  1  0.47451205  0.68522755  0.66320754  1.0
  H  H25  1  0.35242351  0.69575630  0.77753355  1.0
  H  H26  1  0.23338493  0.62041617  0.75666312  1.0
  H  H27  1  0.35041017  0.59809990  0.49018318  1.0
  H  H28  1  0.85142865  0.40146057  0.51232925  1.0
  H  H29  1  0.39553232  0.90292605  0.00627026  1.0
  H  H30  1  0.89434422  0.09718916  0.99307426  1.0
  C  C31  1  0.35144589  0.42293521  0.42335323  1.0
  C  C32  1  0.35263566  0.39565101  0.60500986  1.0
  C  C33  1  0.84959208  0.57724578  0.57653160  1.0
  C  C34  1  0.85226628  0.60450197  0.39459258  1.0
  C  C35  1  0.85652762  0.66646955  0.33139568  1.0
  C  C36  1  0.86711046  0.72028570  0.27891076  1.0
  C  C37  1  0.87834870  0.77963550  0.22094604  1.0
  C  C38  1  0.88890428  0.83354577  0.16851927  1.0
  C  C39  1  0.81607223  0.79377683  0.68726826  1.0
  C  C40  1  0.00720238  0.80519587  0.72636614  1.0
  C  C41  1  0.89535358  0.87743117  0.87753768  1.0
  C  C42  1  0.84879880  0.62126501  0.62372483  1.0
  C  C43  1  0.69133896  0.77983946  0.75486293  1.0
  C  C44  1  0.88228313  0.79329888  0.79425471  1.0
  C  C45  1  0.73824264  0.69286219  0.77594201  1.0
  C  C46  1  0.86134296  0.70466695  0.70773940  1.0
  C  C47  1  0.92870466  0.70489017  0.81433071  1.0
  C  C48  1  0.05359421  0.71789248  0.74727929  1.0
  C  C49  1  0.89163030  0.83835535  0.83902811  1.0
  C  C50  1  0.85182665  0.65962856  0.66295491  1.0
  C  C51  1  0.50247112  0.19205943  0.27549850  1.0
  C  C52  1  0.30973305  0.20595395  0.31243210  1.0
  C  C53  1  0.35085881  0.37830306  0.37646737  1.0
  C  C54  1  0.39338737  0.12184118  0.12253628  1.0
  C  C55  1  0.55424622  0.27888517  0.25545671  1.0
  C  C56  1  0.35954357  0.29396622  0.29311740  1.0
  C  C57  1  0.43218461  0.29311100  0.18761130  1.0
  C  C58  1  0.38175593  0.20494933  0.20661398  1.0
  C  C59  1  0.23966683  0.30742429  0.22390931  1.0
  C  C60  1  0.18967078  0.22072581  0.24436775  1.0
  C  C61  1  0.35147504  0.33940115  0.33775472  1.0
  C  C62  1  0.39075111  0.16005671  0.16174414  1.0
  C  C63  1  0.35695333  0.33379563  0.66828567  1.0
  C  C64  1  0.36735228  0.28000630  0.72082946  1.0
  C  C65  1  0.37831538  0.22060962  0.77877154  1.0
  C  C66  1  0.38847795  0.16667279  0.83118240  1.0
  C  C67  1  0.39283963  0.10451305  0.89437533  1.0
  C  C68  1  0.39374142  0.07721753  0.07572202  1.0
  C  C69  1  0.89318927  0.89563525  0.10526731  1.0
  C  C70  1  0.89538561  0.92240959  0.92383574  1.0
  C  C71  1  0.75073775  0.31237402  0.26277611  1.0
  C  C72  1  0.83599472  0.28060904  0.33517648  1.0
  C  C73  1  0.76025360  0.84322129  0.61684953  1.0
  C  C74  1  0.71147121  0.92461575  0.61587599  1.0
  C  C75  1  0.24944894  0.68290232  0.74086570  1.0
  C  C76  1  0.33126698  0.71147529  0.66775568  1.0
  I  I77  1  0.52993760  0.36048608  0.08935987  1.0
  O  O78  1  0.52100742  0.41941535  0.57932988  1.0
  O  O79  1  0.18270625  0.43966608  0.44290943  1.0
  O  O80  1  0.02073921  0.58060502  0.42021708  1.0
  O  O81  1  0.18241510  0.41918581  0.58087181  1.0
  O  O82  1  0.01933169  0.55980606  0.55801849  1.0
  O  O83  1  0.52088754  0.44048828  0.44149585  1.0
  O  O84  1  0.35088209  0.54474153  0.49289124  1.0
  O  O85  1  0.68115846  0.56060548  0.55674369  1.0
  O  O86  1  0.68221308  0.58099121  0.41870101  1.0
  O  O87  1  0.85138898  0.45552629  0.50671302  1.0
  O  O88  1  0.22460700  0.05936928  0.05768061  1.0
  O  O89  1  0.56317928  0.08115275  0.91839798  1.0
  O  O90  1  0.72599485  0.94048350  0.94199609  1.0
  O  O91  1  0.56263491  0.06056600  0.05626155  1.0
  O  O92  1  0.72466792  0.91959160  0.07979885  1.0
  O  O93  1  0.22447579  0.08055351  0.91981524  1.0
  O  O94  1  0.39462705  0.95533654  0.00663485  1.0
  O  O95  1  0.06337249  0.91892401  0.08120515  1.0
  O  O96  1  0.06402165  0.93932431  0.94321202  1.0
  O  O97  1  0.89410310  0.04470819  0.99289769  1.0
