# generated using pymatgen
data_AlH8C9N3O5
_symmetry_space_group_name_H-M   'P 1'
_cell_length_a   6.68676236
_cell_length_b   8.83083867
_cell_length_c   16.83266274
_cell_angle_alpha   100.66290087
_cell_angle_beta   95.74597827
_cell_angle_gamma   104.26935665
_symmetry_Int_Tables_number   1
_chemical_formula_structural   AlH8C9N3O5
_chemical_formula_sum   'Al2 H16 C18 N6 O10'
_cell_volume   935.51780455
_cell_formula_units_Z   2
loop_
 _symmetry_equiv_pos_site_id
 _symmetry_equiv_pos_as_xyz
  1  'x, y, z'
loop_
 _atom_site_type_symbol
 _atom_site_label
 _atom_site_symmetry_multiplicity
 _atom_site_fract_x
 _atom_site_fract_y
 _atom_site_fract_z
 _atom_site_occupancy
  Al  Al0  1  0.00050338  0.49491546  0.50056293  1.0
  Al  Al1  1  0.50087881  0.49336730  0.50120528  1.0
  H  H2  1  0.17954761  0.34488484  0.40807370  1.0
  H  H3  1  0.82934508  0.68455444  0.56844831  1.0
  H  H4  1  0.58279348  0.41204301  0.72406527  1.0
  H  H5  1  0.65210242  0.40627155  0.87311037  1.0
  H  H6  1  0.09532127  0.55422730  0.90986526  1.0
  H  H7  1  0.93947443  0.56454958  0.10409984  1.0
  H  H8  1  0.27901059  0.41571035  0.10965692  1.0
  H  H9  1  0.35463713  0.41626882  0.25886377  1.0
  H  H10  1  0.94317243  0.55054700  0.69519413  1.0
  H  H11  1  0.88337365  0.58838219  0.79465220  1.0
  H  H12  1  0.09245394  0.57412868  0.31942149  1.0
  H  H13  1  0.17780165  0.60658777  0.22689591  1.0
  H  H14  1  0.72990099  0.84914690  0.46872584  1.0
  H  H15  1  0.88238037  0.03321786  0.45998783  1.0
  H  H16  1  0.27026584  0.13985707  0.52295294  1.0
  H  H17  1  0.11874216  0.95837268  0.53710468  1.0
  C  C18  1  0.65245102  0.20830366  0.49371273  1.0
  C  C19  1  0.71404324  0.48768110  0.35410368  1.0
  C  C20  1  0.35153717  0.78159628  0.50734943  1.0
  C  C21  1  0.28373245  0.49720198  0.64605859  1.0
  C  C22  1  0.30575853  0.48990271  0.73305206  1.0
  C  C23  1  0.47996898  0.44609892  0.76624863  1.0
  C  C24  1  0.51994063  0.44332122  0.84795656  1.0
  C  C25  1  0.37954550  0.48686956  0.89952670  1.0
  C  C26  1  0.20173651  0.52451878  0.86813588  1.0
  C  C27  1  0.15894835  0.52690983  0.78437501  1.0
  C  C28  1  0.81264015  0.53395522  0.13943959  1.0
  C  C29  1  0.60795407  0.49408729  0.09984598  1.0
  C  C30  1  0.43787693  0.45128263  0.14243988  1.0
  C  C31  1  0.48118861  0.45111381  0.22426152  1.0
  C  C32  1  0.68688281  0.49286361  0.26685253  1.0
  C  C33  1  0.85857754  0.53639161  0.22371754  1.0
  C  C34  1  0.60121447  0.03633946  0.49409933  1.0
  C  C35  1  0.40282090  0.95319131  0.50524242  1.0
  N  N36  1  0.40388541  0.49225602  0.98453481  1.0
  N  N37  1  0.58602987  0.49567088  0.01550035  1.0
  N  N38  1  0.98629428  0.56822564  0.75655424  1.0
  N  N39  1  0.06091548  0.58080038  0.26011151  1.0
  N  N40  1  0.76743894  0.97030129  0.48565668  1.0
  N  N41  1  0.23687459  0.01860351  0.51203350  1.0
  O  O42  1  0.83904742  0.27616316  0.48455316  1.0
  O  O43  1  0.55163825  0.46689792  0.38942478  1.0
  O  O44  1  0.49561579  0.70899614  0.50116211  1.0
  O  O45  1  0.10256221  0.49146743  0.60991661  1.0
  O  O46  1  0.16383001  0.71530838  0.51596858  1.0
  O  O47  1  0.44652084  0.51055152  0.61130456  1.0
  O  O48  1  0.50913759  0.28082541  0.50185319  1.0
  O  O49  1  0.89942889  0.50345133  0.39048800  1.0
  O  O50  1  0.21578500  0.41924310  0.46067091  1.0
  O  O51  1  0.78641840  0.57249269  0.54092461  1.0
