# generated using pymatgen
data_AlH7C11NO7
_symmetry_space_group_name_H-M   'P 1'
_cell_length_a   6.77672863
_cell_length_b   11.07139826
_cell_length_c   16.92768532
_cell_angle_alpha   89.91758600
_cell_angle_beta   82.77651545
_cell_angle_gamma   73.40691155
_symmetry_Int_Tables_number   1
_chemical_formula_structural   AlH7C11NO7
_chemical_formula_sum   'Al2 H14 C22 N2 O14'
_cell_volume   1206.70531776
_cell_formula_units_Z   2
loop_
 _symmetry_equiv_pos_site_id
 _symmetry_equiv_pos_as_xyz
  1  'x, y, z'
loop_
 _atom_site_type_symbol
 _atom_site_label
 _atom_site_symmetry_multiplicity
 _atom_site_fract_x
 _atom_site_fract_y
 _atom_site_fract_z
 _atom_site_occupancy
  Al  Al0  1  0.00000169  0.50000362  0.50000014  1.0
  Al  Al1  1  0.49999891  0.50000227  0.50000123  1.0
  H  H2  1  0.16467577  0.63033157  0.57122989  1.0
  H  H3  1  0.83532500  0.36967189  0.42877174  1.0
  H  H4  1  0.64210993  0.49977513  0.26270602  1.0
  H  H5  1  0.70535700  0.50125238  0.11469380  1.0
  H  H6  1  0.07014754  0.50856639  0.10367058  1.0
  H  H7  1  0.92984515  0.49143228  0.89633092  1.0
  H  H8  1  0.29464031  0.49873680  0.88530458  1.0
  H  H9  1  0.35789182  0.50021408  0.73729214  1.0
  H  H10  1  0.87454002  0.88799238  0.49990332  1.0
  H  H11  1  0.12546028  0.11201215  0.50010600  1.0
  H  H12  1  0.96974093  0.51539843  0.31590072  1.0
  H  H13  1  0.03026159  0.48459844  0.68410264  1.0
  H  H14  1  0.71279868  0.21982127  0.51821279  1.0
  H  H15  1  0.28719785  0.78018788  0.48179197  1.0
  C  C16  1  0.64261901  0.72828928  0.49207759  1.0
  C  C17  1  0.70662781  0.49983345  0.64494037  1.0
  C  C18  1  0.35738110  0.27170941  0.50792235  1.0
  C  C19  1  0.29337538  0.50016810  0.35505997  1.0
  C  C20  1  0.32159416  0.50362029  0.26777789  1.0
  C  C21  1  0.51804937  0.50140943  0.22753742  1.0
  C  C22  1  0.55442636  0.50209878  0.14565257  1.0
  C  C23  1  0.39100755  0.50364614  0.10114249  1.0
  C  C24  1  0.19432150  0.50671209  0.13920320  1.0
  C  C25  1  0.15684005  0.50796835  0.22257520  1.0
  C  C26  1  0.80567221  0.49328753  0.86079824  1.0
  C  C27  1  0.60898459  0.49635062  0.89885846  1.0
  C  C28  1  0.44557141  0.49788946  0.85434579  1.0
  C  C29  1  0.48195239  0.49857979  0.77246133  1.0
  C  C30  1  0.67840744  0.49637840  0.73222138  1.0
  C  C31  1  0.84315940  0.49202561  0.77742481  1.0
  C  C32  1  0.43141839  0.13259671  0.50547596  1.0
  C  C33  1  0.56859118  0.86740398  0.49452643  1.0
  C  C34  1  0.64573377  0.06768314  0.50609973  1.0
  C  C35  1  0.35427042  0.93231946  0.49390586  1.0
  C  C36  1  0.71046161  0.93636655  0.50021025  1.0
  C  C37  1  0.28954351  0.06363420  0.49979708  1.0
  N  N38  1  0.40986304  0.50261080  0.01684061  1.0
  N  N39  1  0.59012955  0.49738499  0.98315855  1.0
  O  O40  1  0.83121644  0.67254286  0.49909077  1.0
  O  O41  1  0.55017336  0.51254331  0.60783280  1.0
  O  O42  1  0.49462566  0.33043139  0.51578045  1.0
  O  O43  1  0.10769725  0.50866656  0.39025352  1.0
  O  O44  1  0.16878813  0.32745588  0.50091071  1.0
  O  O45  1  0.44982752  0.48746295  0.39216703  1.0
  O  O46  1  0.50537603  0.66957016  0.48421996  1.0
  O  O47  1  0.89230638  0.49133407  0.60974740  1.0
  O  O48  1  0.21158850  0.55885454  0.53359042  1.0
  O  O49  1  0.78841340  0.44115267  0.46640935  1.0
  O  O50  1  0.96398546  0.51281122  0.25713843  1.0
  O  O51  1  0.03601000  0.48718182  0.74286475  1.0
  O  O52  1  0.79104069  0.12852875  0.51215770  1.0
  O  O53  1  0.20896166  0.87147765  0.48784973  1.0
