# generated using pymatgen
data_Zn4H70C81(N8O3)2
_symmetry_space_group_name_H-M   'P 1'
_cell_length_a   19.25704383
_cell_length_b   19.92297583
_cell_length_c   20.27043401
_cell_angle_alpha   110.45531828
_cell_angle_beta   106.04739878
_cell_angle_gamma   110.18751053
_symmetry_Int_Tables_number   1
_chemical_formula_structural   Zn4H70C81(N8O3)2
_chemical_formula_sum   'Zn4 H70 C81 N16 O6'
_cell_volume   6102.19459679
_cell_formula_units_Z   1
loop_
 _symmetry_equiv_pos_site_id
 _symmetry_equiv_pos_as_xyz
  1  'x, y, z'
loop_
 _atom_site_type_symbol
 _atom_site_label
 _atom_site_symmetry_multiplicity
 _atom_site_fract_x
 _atom_site_fract_y
 _atom_site_fract_z
 _atom_site_occupancy
  Zn  Zn0  1  0.01344766  0.60840773  0.09946810  1.0
  Zn  Zn1  1  0.01097412  0.40482312  0.89517543  1.0
  Zn  Zn2  1  0.13205685  0.61853179  0.99321043  1.0
  Zn  Zn3  1  0.87726260  0.39624215  0.97483057  1.0
  H  H4  1  0.96014327  0.73917570  0.09411484  1.0
  H  H5  1  0.84718057  0.35981644  0.48064324  1.0
  H  H6  1  0.97299267  0.00902384  0.14119495  1.0
  H  H7  1  0.98077063  0.14011416  0.15244377  1.0
  H  H8  1  0.20112103  0.19981551  0.11881088  1.0
  H  H9  1  0.07357694  0.63671600  0.82768622  1.0
  H  H10  1  0.88450753  0.39075707  0.74774646  1.0
  H  H11  1  0.71142680  0.26624857  0.81884357  1.0
  H  H12  1  0.01603524  0.63542050  0.27662747  1.0
  H  H13  1  0.43387016  0.74469252  0.22269880  1.0
  H  H14  1  0.42258729  0.83363414  0.26401983  1.0
  H  H15  1  0.15992576  0.34992129  0.90142847  1.0
  H  H16  1  0.45167496  0.81513750  0.18509180  1.0
  H  H17  1  0.80487352  0.08893047  0.02780931  1.0
  H  H18  1  0.73164996  0.08881058  0.95179133  1.0
  H  H19  1  0.77185098  0.02072686  0.92735902  1.0
  H  H20  1  0.84090003  0.14068969  0.90864631  1.0
  H  H21  1  0.91349877  0.13986197  0.98360205  1.0
  H  H22  1  0.90061964  0.24375976  0.08640482  1.0
  H  H23  1  0.82869380  0.24515344  0.01070893  1.0
  H  H24  1  0.55442724  0.67365246  0.28394117  1.0
  H  H25  1  0.66077078  0.74173852  0.35208177  1.0
  H  H26  1  0.13923612  0.41219065  0.04978151  1.0
  H  H27  1  0.60710139  0.64697880  0.34841882  1.0
  H  H28  1  0.62290670  0.76226855  0.46548354  1.0
  H  H29  1  0.51722685  0.69593607  0.39728503  1.0
  H  H30  1  0.52231729  0.79083117  0.34230272  1.0
  H  H31  1  0.62860739  0.85792302  0.40998951  1.0
  H  H32  1  0.80279723  0.14703456  0.61937594  1.0
  H  H33  1  0.81610064  0.08313508  0.66017877  1.0
  H  H34  1  0.89397699  0.13596902  0.63671214  1.0
  H  H35  1  0.78784247  0.60142015  0.39017372  1.0
  H  H36  1  0.84093832  0.57849647  0.33241360  1.0
  H  H37  1  0.15547872  0.62654050  0.24241840  1.0
  H  H38  1  0.87335007  0.68332519  0.39788149  1.0
  H  H39  1  0.99904525  0.80863086  0.69632089  1.0
  H  H40  1  0.99406586  0.76067204  0.75526741  1.0
  H  H41  1  0.09012329  0.81449350  0.75655423  1.0
  H  H42  1  0.03084299  0.66218672  0.67346511  1.0
  H  H43  1  0.03475757  0.70963140  0.61445545  1.0
  H  H44  1  0.88508233  0.66938002  0.57270686  1.0
  H  H45  1  0.88121599  0.62217918  0.63259310  1.0
  H  H46  1  0.93635806  0.32332555  0.39450550  1.0
  H  H47  1  0.95158010  0.37648097  0.33949941  1.0
  H  H48  1  0.88139260  0.37083965  0.12572514  1.0
  H  H49  1  0.88069636  0.26809575  0.28864032  1.0
  H  H50  1  0.30988910  0.17428340  0.15887596  1.0
  H  H51  1  0.25115015  0.12498475  0.05351028  1.0
  H  H52  1  0.30905995  0.08423219  0.09576890  1.0
  H  H53  1  0.58292266  0.35553376  0.91172926  1.0
  H  H54  1  0.61052364  0.33860807  0.99422028  1.0
  H  H55  1  0.57898801  0.25962764  0.89709910  1.0
  H  H56  1  0.85384907  0.79801954  0.22612343  1.0
  H  H57  1  0.92480701  0.82706905  0.18793515  1.0
  H  H58  1  0.82789062  0.82323560  0.15028975  1.0
  H  H59  1  0.30073358  0.61300219  0.06115836  1.0
  H  H60  1  0.82462948  0.69842506  0.05561015  1.0
  H  H61  1  0.75256726  0.67051136  0.09192041  1.0
  H  H62  1  0.84719561  0.65546781  0.18878942  1.0
  H  H63  1  0.92664167  0.69078298  0.16233800  1.0
  H  H64  1  0.26277024  0.93663034  0.99054923  1.0
  H  H65  1  0.23600614  0.84260830  0.91066678  1.0
  H  H66  1  0.19221883  0.90367050  0.89345441  1.0
  H  H67  1  0.08832968  0.78350994  0.89290885  1.0
  H  H68  1  0.11464797  0.87804021  0.97068734  1.0
  H  H69  1  0.21953403  0.86549920  0.06392864  1.0
  H  H70  1  0.67108989  0.95299970  0.54190166  1.0
  H  H71  1  0.19069979  0.76883183  0.98778250  1.0
  H  H72  1  0.37965270  0.83981017  0.49974910  1.0
  H  H73  1  0.49040389  0.96579645  0.62526630  1.0
  C  C74  1  0.00560444  0.74079529  0.07214033  1.0
  C  C75  1  0.18430502  0.64740760  0.20920287  1.0
  C  C76  1  0.91764284  0.43697488  0.15178744  1.0
  C  C77  1  0.85209561  0.23833687  0.76917759  1.0
  C  C78  1  0.25361210  0.54995877  0.01760521  1.0
  C  C79  1  0.93759789  0.49877540  0.22630321  1.0
  C  C80  1  0.26251544  0.47899114  0.99379115  1.0
  C  C81  1  0.26977917  0.69422620  0.23269474  1.0
  C  C82  1  0.03853260  0.32346557  0.06087295  1.0
  C  C83  1  0.68135608  0.50323329  0.06340850  1.0
  C  C84  1  0.62129732  0.50235630  0.07454143  1.0
  C  C85  1  0.76767387  0.20167764  0.75442092  1.0
  C  C86  1  0.55017250  0.49736670  0.07449873  1.0
  C  C87  1  0.48104737  0.48997141  0.06490959  1.0
  C  C88  1  0.40555882  0.48297788  0.04577444  1.0
  C  C89  1  0.03476085  0.57779800  0.82081944  1.0
  C  C90  1  0.33649434  0.47714371  0.02144888  1.0
  C  C91  1  0.54592561  0.85632520  0.46221692  1.0
  C  C92  1  0.46189868  0.82666543  0.44853539  1.0
  C  C93  1  0.44401534  0.86471773  0.50991887  1.0
  C  C94  1  0.50567142  0.93510169  0.57988093  1.0
  C  C95  1  0.58813786  0.97026963  0.59077359  1.0
  C  C96  1  0.96053098  0.51047485  0.75497295  1.0
  C  C97  1  0.60694252  0.92745572  0.53265879  1.0
  C  C98  1  0.39549383  0.76732500  0.37238106  1.0
  C  C99  1  0.64986274  0.04930185  0.65410748  1.0
  C  C100  1  0.70408576  0.12052889  0.70106728  1.0
  C  C101  1  0.74894542  0.43593788  0.99243268  1.0
  C  C102  1  0.33650450  0.72995400  0.30695090  1.0
  C  C103  1  0.89205395  0.55869555  0.53010796  1.0
  C  C104  1  0.88091760  0.48882248  0.53912534  1.0
  C  C105  1  0.85936230  0.41451384  0.47478201  1.0
  C  C106  1  0.85713907  0.41148151  0.40486138  1.0
  C  C107  1  0.74611447  0.50234597  0.04579607  1.0
  C  C108  1  0.87673360  0.48274319  0.39684917  1.0
  C  C109  1  0.88951296  0.55451190  0.45897026  1.0
  C  C110  1  0.89797235  0.49506825  0.61436524  1.0
  C  C111  1  0.89163335  0.48420951  0.33304168  1.0
  C  C112  1  0.91320895  0.48973636  0.28303628  1.0
  C  C113  1  0.93781147  0.45187818  0.77971431  1.0
  C  C114  1  0.92343557  0.50175719  0.67992588  1.0
  C  C115  1  0.02747928  0.12444360  0.14328085  1.0
  C  C116  1  0.09008941  0.17705334  0.13362026  1.0
  C  C117  1  0.15229401  0.15803477  0.12468400  1.0
  C  C118  1  0.98635006  0.57241485  0.22955307  1.0
  C  C119  1  0.14792657  0.08480263  0.11870878  1.0
  C  C120  1  0.08078908  0.02812436  0.12154722  1.0
  C  C121  1  0.02320874  0.05132527  0.13691230  1.0
  C  C122  1  0.08452936  0.24183432  0.12302471  1.0
  C  C123  1  0.07130094  0.94975324  0.10456117  1.0
  C  C124  1  0.06232716  0.88064355  0.08356875  1.0
  C  C125  1  0.82659586  0.57061435  0.07735405  1.0
  C  C126  1  0.07082518  0.28675114  0.09925220  1.0
  C  C127  1  0.76422769  0.26643728  0.80915239  1.0
  C  C128  1  0.10134757  0.77090557  0.02975308  1.0
  C  C129  1  0.18212822  0.41529536  0.93514057  1.0
  C  C130  1  0.05534114  0.80278439  0.06178889  1.0
  C  C131  1  0.41467120  0.78639724  0.20969244  1.0
  C  C132  1  0.88307150  0.23614391  0.02663681  1.0
  C  C133  1  0.85862856  0.14799048  0.96827215  1.0
  C  C134  1  0.78788207  0.08307468  0.96879832  1.0
  C  C135  1  0.56920869  0.81347355  0.40182061  1.0
  C  C136  1  0.57676282  0.74039219  0.40576235  1.0
  C  C137  1  0.60105149  0.69840339  0.34428213  1.0
  C  C138  1  0.84832912  0.13930451  0.65821107  1.0
  C  C139  1  0.84836169  0.62080639  0.38928940  1.0
  C  C140  1  0.26977015  0.70336600  0.16616339  1.0
  C  C141  1  0.91120777  0.63718860  0.59684349  1.0
  C  C142  1  0.00474784  0.69510387  0.65036996  1.0
  C  C143  1  0.02312975  0.77404674  0.71837081  1.0
  C  C144  1  0.90600692  0.32671865  0.34190893  1.0
  C  C145  1  0.27203328  0.11477203  0.10372360  1.0
  C  C146  1  0.61175039  0.32597671  0.93745129  1.0
  C  C147  1  0.85870544  0.65674252  0.13874814  1.0
  C  C148  1  0.81938382  0.70264102  0.10950951  1.0
  C  C149  1  0.85862600  0.79258486  0.17183454  1.0
  C  C150  1  0.16679693  0.81077793  0.00918428  1.0
  C  C151  1  0.95302629  0.29959900  0.02712011  1.0
  C  C152  1  0.13954100  0.83761218  0.94880545  1.0
  C  C153  1  0.21139002  0.88244787  0.93491267  1.0
  C  C154  1  0.07500857  0.38007120  0.03781037  1.0
  N  N155  1  0.02178703  0.67786149  0.04984783  1.0
  N  N156  1  0.05454019  0.55903065  0.87830244  1.0
  N  N157  1  0.82302547  0.46303284  0.99197313  1.0
  N  N158  1  0.99468005  0.48157093  0.85357266  1.0
  N  N159  1  0.87116222  0.54636863  0.04463789  1.0
  N  N160  1  0.83919569  0.33424743  0.85287333  1.0
  N  N161  1  0.07997921  0.69648930  0.02321748  1.0
  N  N162  1  0.99322773  0.55407056  0.16203033  1.0
  N  N163  1  0.13104721  0.44689174  0.92517979  1.0
  N  N164  1  0.19187555  0.66542491  0.11014816  1.0
  N  N165  1  0.94145587  0.33878064  0.98682583  1.0
  N  N166  1  0.01607019  0.38855421  0.99274606  1.0
  N  N167  1  0.13826703  0.63080903  0.13636417  1.0
  N  N168  1  0.95076664  0.47081040  0.11364918  1.0
  N  N169  1  0.17515449  0.53009116  0.97660731  1.0
  N  N170  1  0.89334998  0.31631914  0.82788835  1.0
  O  O171  1  0.33026371  0.74152662  0.14952067  1.0
  O  O172  1  0.89514387  0.21000642  0.73621690  1.0
  O  O173  1  0.90766254  0.62563802  0.45474982  1.0
  O  O174  1  0.83667288  0.33869913  0.34227136  1.0
  O  O175  1  0.20354020  0.06026147  0.10707730  1.0
  O  O176  1  0.69542092  0.35438375  0.94696365  1.0
