# generated using pymatgen
data_AlH5C10SNO5F
_symmetry_space_group_name_H-M   'P 1'
_cell_length_a   6.61481946
_cell_length_b   10.98957697
_cell_length_c   12.15557022
_cell_angle_alpha   101.18877974
_cell_angle_beta   98.85805002
_cell_angle_gamma   105.37488041
_symmetry_Int_Tables_number   1
_chemical_formula_structural   AlH5C10SNO5F
_chemical_formula_sum   'Al2 H10 C20 S2 N2 O10 F2'
_cell_volume   815.86886539
_cell_formula_units_Z   2
loop_
 _symmetry_equiv_pos_site_id
 _symmetry_equiv_pos_as_xyz
  1  'x, y, z'
loop_
 _atom_site_type_symbol
 _atom_site_label
 _atom_site_symmetry_multiplicity
 _atom_site_fract_x
 _atom_site_fract_y
 _atom_site_fract_z
 _atom_site_occupancy
  Al  Al0  1  0.00513726  0.50477062  0.50516750  1.0
  Al  Al1  1  0.50561764  0.50624882  0.50501879  1.0
  H  H2  1  0.34959388  0.67404965  0.56824602  1.0
  H  H3  1  0.65691844  0.33782414  0.44985830  1.0
  H  H4  1  0.52439304  0.74498617  0.35501023  1.0
  H  H5  1  0.30014399  0.84378091  0.24282445  1.0
  H  H6  1  0.79836877  0.21205074  0.35262433  1.0
  H  H7  1  0.43906140  0.07847807  0.24033512  1.0
  H  H8  1  0.42174293  0.58478922  0.88094216  1.0
  H  H9  1  0.26032363  0.58845287  0.75500342  1.0
  H  H10  1  0.58395681  0.42271793  0.12889751  1.0
  H  H11  1  0.74627387  0.42057946  0.25498256  1.0
  C  C12  1  0.86105368  0.72641242  0.48973270  1.0
  C  C13  1  0.82099708  0.53203147  0.70701166  1.0
  C  C14  1  0.14700949  0.28094050  0.50914839  1.0
  C  C15  1  0.18658606  0.47690671  0.30180544  1.0
  C  C16  1  0.10109829  0.54707188  0.88047708  1.0
  C  C17  1  0.90387603  0.45961627  0.12823120  1.0
  C  C18  1  0.88655081  0.52090835  0.82196703  1.0
  C  C19  1  0.11880919  0.48636266  0.18665363  1.0
  C  C20  1  0.90035313  0.48183792  0.01588706  1.0
  C  C21  1  0.10365793  0.52433613  0.99250506  1.0
  C  C22  1  0.92742909  0.86678646  0.48732719  1.0
  C  C23  1  0.78956130  0.92330925  0.42536292  1.0
  C  C24  1  0.13084104  0.94385035  0.54633607  1.0
  C  C25  1  0.58310018  0.84805220  0.35762501  1.0
  C  C26  1  0.45787123  0.90364326  0.29441053  1.0
  C  C27  1  0.07302468  0.13691772  0.49563381  1.0
  C  C28  1  0.20259774  0.07809436  0.55156423  1.0
  C  C29  1  0.86564764  0.05920999  0.42754432  1.0
  C  C30  1  0.73555974  0.11173890  0.35794790  1.0
  C  C31  1  0.53548623  0.03601245  0.29348407  1.0
  S  S32  1  0.69713905  0.46605644  0.90166065  1.0
  S  S33  1  0.30752435  0.54029529  0.10629399  1.0
  N  N34  1  0.27933006  0.58969566  0.84001271  1.0
  N  N35  1  0.72626901  0.41731477  0.16953083  1.0
  O  O36  1  0.99108511  0.66353145  0.46596399  1.0
  O  O37  1  0.62178481  0.50895756  0.66216769  1.0
  O  O38  1  0.32903899  0.33048057  0.48818365  1.0
  O  O39  1  0.03461810  0.43961396  0.35459407  1.0
  O  O40  1  0.01916818  0.34300981  0.53911889  1.0
  O  O41  1  0.38705836  0.50360295  0.34669117  1.0
  O  O42  1  0.68303441  0.68058903  0.51673736  1.0
  O  O43  1  0.97463927  0.56762372  0.65478718  1.0
  O  O44  1  0.30349120  0.58004169  0.55730578  1.0
  O  O45  1  0.70594993  0.43015123  0.45207755  1.0
  F  F46  1  0.39875472  0.14736649  0.61761394  1.0
  F  F47  1  0.26729377  0.89574280  0.60700635  1.0
