# generated using pymatgen
data_AlH7C12SNO7
_symmetry_space_group_name_H-M   'P 1'
_cell_length_a   7.05414367
_cell_length_b   12.59514355
_cell_length_c   15.24150805
_cell_angle_alpha   93.96820162
_cell_angle_beta   102.59184111
_cell_angle_gamma   104.37524996
_symmetry_Int_Tables_number   1
_chemical_formula_structural   AlH7C12SNO7
_chemical_formula_sum   'Al2 H14 C24 S2 N2 O14'
_cell_volume   1269.28722784
_cell_formula_units_Z   2
loop_
 _symmetry_equiv_pos_site_id
 _symmetry_equiv_pos_as_xyz
  1  'x, y, z'
loop_
 _atom_site_type_symbol
 _atom_site_label
 _atom_site_symmetry_multiplicity
 _atom_site_fract_x
 _atom_site_fract_y
 _atom_site_fract_z
 _atom_site_occupancy
  Al  Al0  1  0.99672270  0.49305468  0.49886264  1.0
  Al  Al1  1  0.49625927  0.49062188  0.49947819  1.0
  H  H2  1  0.15701291  0.41080741  0.39136317  1.0
  H  H3  1  0.83178706  0.56428816  0.60930994  1.0
  H  H4  1  0.22195905  0.48594161  0.06576780  1.0
  H  H5  1  0.75607998  0.47914006  0.93562656  1.0
  H  H6  1  0.09603675  0.52197383  0.77242450  1.0
  H  H7  1  0.18682417  0.54723959  0.94012953  1.0
  H  H8  1  0.93807079  0.56258166  0.23374178  1.0
  H  H9  1  0.85548932  0.56721717  0.06756236  1.0
  H  H10  1  0.99262560  0.76952503  0.50047946  1.0
  H  H11  1  0.98030029  0.88644442  0.44206901  1.0
  H  H12  1  0.04544286  0.90273136  0.56203836  1.0
  H  H13  1  0.95367956  0.08256054  0.43289993  1.0
  H  H14  1  0.01854712  0.09698727  0.55282713  1.0
  H  H15  1  0.00547824  0.21489019  0.49586705  1.0
  C  C16  1  0.65646848  0.29611248  0.48718948  1.0
  C  C17  1  0.68301983  0.51485175  0.34286790  1.0
  C  C18  1  0.33983705  0.68743542  0.50988076  1.0
  C  C19  1  0.31542002  0.48193948  0.65769157  1.0
  C  C20  1  0.63235864  0.52577908  0.24391028  1.0
  C  C21  1  0.37284288  0.49169540  0.75903659  1.0
  C  C22  1  0.43362495  0.51049925  0.19424544  1.0
  C  C23  1  0.38088453  0.50502087  0.10062071  1.0
  C  C24  1  0.56000722  0.48400147  0.80817905  1.0
  C  C25  1  0.61149287  0.49111886  0.90196746  1.0
  C  C26  1  0.23998027  0.51286097  0.80963534  1.0
  C  C27  1  0.29162018  0.52533910  0.90375460  1.0
  C  C28  1  0.78199504  0.54627887  0.19550294  1.0
  C  C29  1  0.73366952  0.54670523  0.10215441  1.0
  C  C30  1  0.53161521  0.52188974  0.05214027  1.0
  C  C31  1  0.47722083  0.51290255  0.95218069  1.0
  C  C32  1  0.27894856  0.88132030  0.50111961  1.0
  C  C33  1  0.71958278  0.10198738  0.49424270  1.0
  C  C34  1  0.39532526  0.80659100  0.50489480  1.0
  C  C35  1  0.60302389  0.17662264  0.49090924  1.0
  C  C36  1  0.60011303  0.99442835  0.49791216  1.0
  C  C37  1  0.39871207  0.98865350  0.49730194  1.0
  C  C38  1  0.06256672  0.85732025  0.50125991  1.0
  C  C39  1  0.93603300  0.12680064  0.49412483  1.0
  S  S40  1  0.64383350  0.86626422  0.50327936  1.0
  S  S41  1  0.35461357  0.11662468  0.49252098  1.0
  N  N42  1  0.26808439  0.50409962  0.24016924  1.0
  N  N43  1  0.71920220  0.47332703  0.76230344  1.0
  O  O44  1  0.83632738  0.34414957  0.48324787  1.0
  O  O45  1  0.53696320  0.50448786  0.38091831  1.0
  O  O46  1  0.48225764  0.64024310  0.51210432  1.0
  O  O47  1  0.13549452  0.48172395  0.62094899  1.0
  O  O48  1  0.15886106  0.64123879  0.51306503  1.0
  O  O49  1  0.45465873  0.47585616  0.61827582  1.0
  O  O50  1  0.51263318  0.34173545  0.48720445  1.0
  O  O51  1  0.86248404  0.51340231  0.37849772  1.0
  O  O52  1  0.20388813  0.44548679  0.45408187  1.0
  O  O53  1  0.78847555  0.53772103  0.54466889  1.0
  O  O54  1  0.24918750  0.59406650  0.26913869  1.0
  O  O55  1  0.15529849  0.41207269  0.24198414  1.0
  O  O56  1  0.82448708  0.56209991  0.74743854  1.0
  O  O57  1  0.74451883  0.38127811  0.74699547  1.0
