# generated using pymatgen
data_ZnSiH12C24N4(Cl2F3)2
_symmetry_space_group_name_H-M   'P 1'
_cell_length_a   7.74178525
_cell_length_b   14.00685395
_cell_length_c   14.00681148
_cell_angle_alpha   90.00483944
_cell_angle_beta   90.32508543
_cell_angle_gamma   89.67726049
_symmetry_Int_Tables_number   1
_chemical_formula_structural   ZnSiH12C24N4(Cl2F3)2
_chemical_formula_sum   'Zn1 Si1 H12 C24 N4 Cl4 F6'
_cell_volume   1518.82285226
_cell_formula_units_Z   1
loop_
 _symmetry_equiv_pos_site_id
 _symmetry_equiv_pos_as_xyz
  1  'x, y, z'
loop_
 _atom_site_type_symbol
 _atom_site_label
 _atom_site_symmetry_multiplicity
 _atom_site_fract_x
 _atom_site_fract_y
 _atom_site_fract_z
 _atom_site_occupancy
  Zn  Zn0  1  0.49999581  0.49999985  0.49999940  1.0
  Si  Si1  1  0.99999946  0.49999314  0.50000247  1.0
  H  H2  1  0.76630588  0.66232211  0.49995685  1.0
  H  H3  1  0.77509575  0.83959602  0.50000658  1.0
  H  H4  1  0.22763224  0.66277626  0.50008850  1.0
  H  H5  1  0.77233620  0.33723491  0.49993312  1.0
  H  H6  1  0.23366086  0.33766978  0.49996766  1.0
  H  H7  1  0.22489424  0.16039584  0.49991726  1.0
  H  H8  1  0.76629973  0.50007113  0.33768036  1.0
  H  H9  1  0.77508317  0.49999010  0.16040599  1.0
  H  H10  1  0.22762602  0.49994268  0.33722084  1.0
  H  H11  1  0.77233439  0.50009277  0.66277220  1.0
  H  H12  1  0.23365997  0.49986009  0.66232053  1.0
  H  H13  1  0.22489609  0.49990896  0.83959993  1.0
  C  C14  1  0.64725463  0.70399025  0.50004511  1.0
  C  C15  1  0.65160152  0.80287338  0.50007422  1.0
  C  C16  1  0.49648409  0.85589963  0.50008392  1.0
  C  C17  1  0.34131640  0.80320372  0.50010593  1.0
  C  C18  1  0.34684011  0.70370277  0.50010144  1.0
  C  C19  1  0.49771620  0.95651529  0.49998973  1.0
  C  C20  1  0.50228008  0.04348583  0.49991055  1.0
  C  C21  1  0.50350595  0.14410579  0.49986205  1.0
  C  C22  1  0.65866350  0.19680029  0.49987644  1.0
  C  C23  1  0.65312691  0.29630697  0.49989518  1.0
  C  C24  1  0.35271092  0.29601164  0.49990724  1.0
  C  C25  1  0.34837824  0.19711707  0.49986888  1.0
  C  C26  1  0.64725078  0.49998652  0.29601289  1.0
  C  C27  1  0.65159671  0.49993105  0.19712736  1.0
  C  C28  1  0.49646969  0.49989820  0.14410275  1.0
  C  C29  1  0.34130765  0.49990727  0.19679565  1.0
  C  C30  1  0.34683623  0.49993322  0.29629341  1.0
  C  C31  1  0.49770995  0.49992814  0.04347252  1.0
  C  C32  1  0.50227957  0.49997948  0.95652699  1.0
  C  C33  1  0.50350418  0.50003800  0.85589602  1.0
  C  C34  1  0.65866729  0.50007105  0.80320241  1.0
  C  C35  1  0.65312695  0.50006724  0.70370035  1.0
  C  C36  1  0.35270884  0.49995898  0.70398729  1.0
  C  C37  1  0.34837723  0.49999586  0.80287641  1.0
  N  N38  1  0.49728172  0.65514658  0.50005750  1.0
  N  N39  1  0.50269300  0.34485458  0.49992057  1.0
  N  N40  1  0.49727833  0.49998314  0.34485288  1.0
  N  N41  1  0.50268496  0.50000019  0.65514445  1.0
  Cl  Cl42  1  0.14459264  0.86081065  0.50004746  1.0
  Cl  Cl43  1  0.85540276  0.13920905  0.49994992  1.0
  Cl  Cl44  1  0.14458308  0.49995352  0.13918275  1.0
  Cl  Cl45  1  0.85539424  0.50005620  0.86080675  1.0
  F  F46  1  0.77210048  0.50038176  0.49961128  1.0
  F  F47  1  0.22788480  0.49960796  0.50039822  1.0
  F  F48  1  0.00000456  0.58571321  0.58573611  1.0
  F  F49  1  0.00001225  0.41427417  0.41426730  1.0
  F  F50  1  0.99971055  0.58572441  0.41427880  1.0
  F  F51  1  0.00027989  0.41425746  0.58572214  1.0
