# generated using pymatgen
data_Zn3H52C64(N2O9)2
_symmetry_space_group_name_H-M   'P 1'
_cell_length_a   10.53300910
_cell_length_b   14.61591243
_cell_length_c   16.15313196
_cell_angle_alpha   99.66158665
_cell_angle_beta   102.52539784
_cell_angle_gamma   101.04328097
_symmetry_Int_Tables_number   1
_chemical_formula_structural   Zn3H52C64(N2O9)2
_chemical_formula_sum   'Zn3 H52 C64 N4 O18'
_cell_volume   2325.04693874
_cell_formula_units_Z   1
loop_
 _symmetry_equiv_pos_site_id
 _symmetry_equiv_pos_as_xyz
  1  'x, y, z'
loop_
 _atom_site_type_symbol
 _atom_site_label
 _atom_site_symmetry_multiplicity
 _atom_site_fract_x
 _atom_site_fract_y
 _atom_site_fract_z
 _atom_site_occupancy
  Zn  Zn0  1  0.99999865  0.49999938  0.50000014  1.0
  Zn  Zn1  1  0.78344887  0.62604493  0.53044239  1.0
  Zn  Zn2  1  0.21655025  0.37395543  0.46955837  1.0
  H  H3  1  0.91597173  0.33910625  0.68580411  1.0
  H  H4  1  0.08402812  0.66089626  0.31419523  1.0
  H  H5  1  0.56926998  0.45708295  0.66256388  1.0
  H  H6  1  0.43072768  0.54291598  0.33743770  1.0
  H  H7  1  0.92560294  0.49727926  0.29946684  1.0
  H  H8  1  0.07439933  0.50272466  0.70053429  1.0
  H  H9  1  0.90563389  0.39969219  0.15209850  1.0
  H  H10  1  0.09436936  0.60031173  0.84790278  1.0
  H  H11  1  0.47528898  0.33150838  0.10567896  1.0
  H  H12  1  0.52471281  0.66849125  0.89432207  1.0
  H  H13  1  0.49779924  0.42503851  0.25314625  1.0
  H  H14  1  0.50220304  0.57495969  0.74685463  1.0
  H  H15  1  0.61047536  0.91604553  0.39954249  1.0
  H  H16  1  0.38952474  0.08395483  0.60045655  1.0
  H  H17  1  0.41753649  0.92047104  0.60966100  1.0
  H  H18  1  0.58246457  0.07952932  0.39033756  1.0
  H  H19  1  0.34648357  0.74446808  0.52736854  1.0
  H  H20  1  0.65351627  0.25553442  0.47263141  1.0
  H  H21  1  0.74381236  0.83595269  0.50679928  1.0
  H  H22  1  0.25618749  0.16404695  0.49320024  1.0
  H  H23  1  0.47983261  0.59973486  0.54591644  1.0
  H  H24  1  0.52016433  0.40026479  0.45408205  1.0
  H  H25  1  0.48199284  0.35392421  0.75574808  1.0
  H  H26  1  0.51800701  0.64607543  0.24425391  1.0
  H  H27  1  0.23205469  0.02361153  0.77691778  1.0
  H  H28  1  0.76794614  0.97638811  0.22307940  1.0
  H  H29  1  0.49753604  0.83201576  0.77814833  1.0
  H  H30  1  0.50246137  0.16798246  0.22185310  1.0
  H  H31  1  0.05067163  0.89601005  0.67218654  1.0
  H  H32  1  0.94932677  0.10399104  0.32781051  1.0
  H  H33  1  0.31197396  0.70431723  0.67466498  1.0
  H  H34  1  0.68802444  0.29568099  0.32533349  1.0
  H  H35  1  0.39532864  0.07100582  0.92788881  1.0
  H  H36  1  0.60466951  0.92899455  0.07211058  1.0
  H  H37  1  0.41453850  0.12415667  0.83771138  1.0
  H  H38  1  0.58546426  0.87584296  0.16228793  1.0
  H  H39  1  0.77304624  0.23707579  0.91463823  1.0
  H  H40  1  0.22695482  0.76292456  0.08536281  1.0
  H  H41  1  0.69531171  0.12819226  0.83433399  1.0
  H  H42  1  0.30469227  0.87180808  0.16566622  1.0
  H  H43  1  0.83302311  0.23841833  0.78197266  1.0
  H  H44  1  0.16697990  0.76158488  0.21802785  1.0
  H  H45  1  0.50108711  0.27027418  0.95836450  1.0
  H  H46  1  0.49891249  0.72972475  0.04163487  1.0
  H  H47  1  0.51446334  0.20396605  0.04270736  1.0
  H  H48  1  0.48553846  0.79603359  0.95729305  1.0
  H  H49  1  0.70235710  0.03767757  0.95577615  1.0
  H  H50  1  0.29764251  0.96232136  0.04422385  1.0
  H  H51  1  0.62228803  0.06997727  0.03908319  1.0
  H  H52  1  0.37771182  0.93002237  0.96091694  1.0
  H  H53  1  0.77312527  0.14623887  0.03626427  1.0
  H  H54  1  0.22687410  0.85375935  0.96373496  1.0
  C  C55  1  0.80085743  0.46878445  0.61487628  1.0
  C  C56  1  0.19913976  0.53121306  0.38512130  1.0
  C  C57  1  0.75012665  0.40622178  0.67037283  1.0
  C  C58  1  0.24987077  0.59377644  0.32962674  1.0
  C  C59  1  0.82197709  0.34295899  0.70255097  1.0
  C  C60  1  0.17802349  0.65704279  0.29745022  1.0
  C  C61  1  0.62721325  0.40991344  0.68968484  1.0
  C  C62  1  0.37278465  0.59008621  0.31031564  1.0
  C  C63  1  0.72131510  0.51445592  0.37585722  1.0
  C  C64  1  0.27868426  0.48554516  0.62414369  1.0
  C  C65  1  0.71285426  0.46549107  0.28606692  1.0
  C  C66  1  0.28714680  0.53450928  0.71393288  1.0
  C  C67  1  0.82781604  0.46060617  0.25635707  1.0
  C  C68  1  0.17218406  0.53939133  0.74364216  1.0
  C  C69  1  0.81699715  0.40655315  0.17480309  1.0
  C  C70  1  0.18300440  0.59344863  0.82519761  1.0
  C  C71  1  0.69038060  0.35683820  0.12123366  1.0
  C  C72  1  0.30961877  0.64316288  0.87876601  1.0
  C  C73  1  0.57438252  0.36610631  0.14790694  1.0
  C  C74  1  0.42562023  0.63389618  0.85209528  1.0
  C  C75  1  0.58672308  0.41956476  0.23033815  1.0
  C  C76  1  0.41327750  0.58043417  0.76966198  1.0
  C  C77  1  0.56419592  0.95370546  0.44444055  1.0
  C  C78  1  0.43580539  0.04629561  0.55555815  1.0
  C  C79  1  0.45171072  0.95492652  0.56093447  1.0
  C  C80  1  0.54828962  0.04507456  0.43906410  1.0
  C  C81  1  0.51643219  0.90895329  0.50546040  1.0
  C  C82  1  0.48356790  0.09104707  0.49453803  1.0
  C  C83  1  0.44843773  0.74179709  0.52719789  1.0
  C  C84  1  0.55156090  0.25820470  0.47280240  1.0
  C  C85  1  0.65426943  0.78985527  0.51303284  1.0
  C  C86  1  0.34572946  0.21014438  0.48696531  1.0
  C  C87  1  0.51491395  0.67044619  0.53489452  1.0
  C  C88  1  0.48508371  0.32955560  0.46510626  1.0
  C  C89  1  0.57763025  0.35195781  0.74063877  1.0
  C  C90  1  0.42237105  0.64804040  0.25936321  1.0
  C  C91  1  0.37717011  0.93565913  0.78387070  1.0
  C  C92  1  0.62282780  0.06434052  0.21612917  1.0
  C  C93  1  0.25139654  0.95449041  0.75414879  1.0
  C  C94  1  0.74860137  0.04550924  0.24584860  1.0
  C  C95  1  0.39953634  0.84571099  0.75406390  1.0
  C  C96  1  0.60046205  0.15428722  0.24593643  1.0
  C  C97  1  0.05848580  0.71353987  0.60734501  1.0
  C  C98  1  0.94151600  0.28645690  0.39265620  1.0
  C  C99  1  0.17001250  0.79243185  0.66612245  1.0
  C  C100  1  0.82998735  0.20756780  0.33387645  1.0
  C  C101  1  0.14929515  0.88281311  0.69526947  1.0
  C  C102  1  0.85070179  0.11718654  0.30472963  1.0
  C  C103  1  0.29659283  0.77502784  0.69626960  1.0
  C  C104  1  0.70340751  0.22497324  0.30372711  1.0
  C  C105  1  0.46197859  0.08712779  0.88536036  1.0
  C  C106  1  0.53802247  0.91287256  0.11464067  1.0
  C  C107  1  0.59775231  0.15128645  0.93874852  1.0
  C  C108  1  0.40224851  0.84871319  0.06125176  1.0
  C  C109  1  0.67660501  0.18866411  0.87710910  1.0
  C  C110  1  0.32339678  0.81133552  0.12289193  1.0
  C  C111  1  0.65250410  0.29107807  0.77514067  1.0
  C  C112  1  0.34749696  0.70892228  0.22485974  1.0
  C  C113  1  0.77486575  0.28597879  0.75588837  1.0
  C  C114  1  0.22513799  0.71402084  0.24411294  1.0
  C  C115  1  0.56611951  0.23355868  0.99710459  1.0
  C  C116  1  0.43388155  0.76644167  0.00289583  1.0
  C  C117  1  0.67934345  0.09777134  0.99555661  1.0
  C  C118  1  0.32065762  0.90222901  0.00444381  1.0
  N  N119  1  0.64288277  0.70181133  0.52624649  1.0
  N  N120  1  0.35711514  0.29818832  0.47375275  1.0
  N  N121  1  0.53748391  0.81723198  0.51300377  1.0
  N  N122  1  0.46251619  0.18276838  0.48699527  1.0
  O  O123  1  0.75308533  0.54279039  0.61082310  1.0
  O  O124  1  0.24691015  0.45720785  0.38917373  1.0
  O  O125  1  0.61769233  0.51331729  0.40259083  1.0
  O  O126  1  0.38231116  0.48668162  0.59741218  1.0
  O  O127  1  0.83928477  0.56061164  0.42685367  1.0
  O  O128  1  0.16071629  0.43938872  0.57314675  1.0
  O  O129  1  0.08354137  0.63257336  0.58729383  1.0
  O  O130  1  0.91645386  0.36742415  0.41271027  1.0
  O  O131  1  0.88599507  0.44428523  0.57623464  1.0
  O  O132  1  0.11400259  0.55571371  0.42376569  1.0
  O  O133  1  0.68939881  0.29970656  0.04467938  1.0
  O  O134  1  0.31060201  0.70029594  0.95532071  1.0
  O  O135  1  0.59711214  0.23922009  0.82691192  1.0
  O  O136  1  0.40288965  0.76077954  0.17308849  1.0
  O  O137  1  0.48405059  0.99986477  0.84215996  1.0
  O  O138  1  0.51594950  0.00013559  0.15784094  1.0
  O  O139  1  0.94463372  0.73399111  0.58349738  1.0
  O  O140  1  0.05536541  0.26600925  0.41650215  1.0
