# generated using pymatgen
data_ZnH2C10(N2F3)2
_symmetry_space_group_name_H-M   'P 1'
_cell_length_a   16.19297721
_cell_length_b   16.28550137
_cell_length_c   19.13348386
_cell_angle_alpha   89.75363033
_cell_angle_beta   89.86920528
_cell_angle_gamma   89.95277405
_symmetry_Int_Tables_number   1
_chemical_formula_structural   ZnH2C10(N2F3)2
_chemical_formula_sum   'Zn8 H16 C80 N32 F48'
_cell_volume   5045.64396043
_cell_formula_units_Z   8
loop_
 _symmetry_equiv_pos_site_id
 _symmetry_equiv_pos_as_xyz
  1  'x, y, z'
loop_
 _atom_site_type_symbol
 _atom_site_label
 _atom_site_symmetry_multiplicity
 _atom_site_fract_x
 _atom_site_fract_y
 _atom_site_fract_z
 _atom_site_occupancy
  Zn  Zn0  1  0.50263073  0.35285682  0.00267559  1.0
  Zn  Zn1  1  0.35596329  0.49903064  0.99867327  1.0
  Zn  Zn2  1  0.50109463  0.64586183  0.99387368  1.0
  Zn  Zn3  1  0.64894971  0.50049606  0.00249991  1.0
  Zn  Zn4  1  0.99671459  0.85306468  0.49820483  1.0
  Zn  Zn5  1  0.85189428  0.00126450  0.50687786  1.0
  Zn  Zn6  1  0.99764021  0.14918634  0.50373047  1.0
  Zn  Zn7  1  0.14176886  0.00077763  0.49988326  1.0
  H  H8  1  0.12526811  0.70778521  0.13184923  1.0
  H  H9  1  0.03994160  0.19787567  0.80080105  1.0
  H  H10  1  0.37446710  0.78898676  0.62957773  1.0
  H  H11  1  0.95939795  0.77551835  0.77870254  1.0
  H  H12  1  0.62074094  0.80321322  0.36375720  1.0
  H  H13  1  0.03916015  0.79782133  0.20300983  1.0
  H  H14  1  0.37443149  0.21009054  0.36605334  1.0
  H  H15  1  0.96330280  0.20007300  0.20970002  1.0
  H  H16  1  0.53327997  0.71290793  0.29224682  1.0
  H  H17  1  0.87790601  0.29022568  0.13842359  1.0
  H  H18  1  0.46189566  0.30019051  0.29621813  1.0
  H  H19  1  0.12514672  0.28743771  0.87246833  1.0
  H  H20  1  0.53122565  0.30658866  0.70329595  1.0
  H  H21  1  0.89956534  0.72744664  0.89159548  1.0
  H  H22  1  0.46035366  0.69850022  0.70018589  1.0
  H  H23  1  0.61661291  0.21314203  0.63322201  1.0
  C  C24  1  0.35100494  0.25110734  0.95902498  1.0
  C  C25  1  0.86757460  0.03467681  0.35218580  1.0
  C  C26  1  0.14996500  0.24860395  0.45513038  1.0
  C  C27  1  0.13122339  0.96205932  0.34673662  1.0
  C  C28  1  0.84426675  0.24866857  0.54758660  1.0
  C  C29  1  0.88495390  0.97161076  0.66073391  1.0
  C  C30  1  0.15031683  0.75223673  0.54073091  1.0
  C  C31  1  0.13226051  0.03695562  0.65447752  1.0
  C  C32  1  0.46311584  0.62510332  0.83919053  1.0
  C  C33  1  0.74807953  0.64898968  0.94352563  1.0
  C  C34  1  0.53492621  0.37350736  0.84738222  1.0
  C  C35  1  0.36673142  0.53344548  0.84385708  1.0
  C  C36  1  0.25780580  0.34576996  0.95185400  1.0
  C  C37  1  0.46635247  0.37406098  0.15658718  1.0
  C  C38  1  0.74719580  0.34876351  0.05568975  1.0
  C  C39  1  0.53689379  0.63828021  0.15047726  1.0
  C  C40  1  0.25659413  0.65082074  0.04926479  1.0
  C  C41  1  0.96348500  0.12692976  0.34915896  1.0
  C  C42  1  0.24148666  0.15239832  0.44740108  1.0
  C  C43  1  0.03516397  0.87007371  0.34350380  1.0
  C  C44  1  0.74914947  0.85283895  0.45575186  1.0
  C  C45  1  0.97405137  0.87285653  0.65556676  1.0
  C  C46  1  0.65059529  0.73915244  0.93481823  1.0
  C  C47  1  0.24183441  0.84809239  0.54955384  1.0
  C  C48  1  0.03915244  0.13212527  0.65817512  1.0
  C  C49  1  0.75221794  0.15311816  0.55586557  1.0
  C  C50  1  0.26868630  0.26186678  0.93731927  1.0
  C  C51  1  0.40014941  0.59190703  0.79730881  1.0
  C  C52  1  0.73384118  0.72784748  0.91588116  1.0
  C  C53  1  0.59680993  0.40623757  0.80367302  1.0
  C  C54  1  0.26732381  0.73457311  0.06436325  1.0
  C  C55  1  0.40377308  0.40774984  0.19886553  1.0
  C  C56  1  0.73705890  0.26456130  0.06991200  1.0
  C  C57  1  0.63230775  0.46420908  0.84896027  1.0
  C  C58  1  0.59684834  0.60583128  0.19611328  1.0
  C  C59  1  0.75895504  0.77057519  0.43547005  1.0
  C  C60  1  0.90206865  0.09299954  0.30606713  1.0
  C  C61  1  0.23205531  0.23665874  0.43299680  1.0
  C  C62  1  0.09904913  0.90212161  0.30149123  1.0
  C  C63  1  0.76169204  0.23752932  0.56874487  1.0
  C  C64  1  0.92180604  0.91188070  0.70404554  1.0
  C  C65  1  0.23239946  0.76356608  0.56269307  1.0
  C  C66  1  0.10101344  0.09691334  0.70033789  1.0
  C  C67  1  0.14680276  0.77058455  0.13975579  1.0
  C  C68  1  0.34898154  0.74601929  0.04087441  1.0
  C  C69  1  0.59608083  0.69350300  0.30463707  1.0
  C  C70  1  0.85724409  0.22679834  0.14476683  1.0
  C  C71  1  0.39911763  0.32043178  0.30771793  1.0
  C  C72  1  0.14732724  0.22492327  0.86390804  1.0
  C  C73  1  0.59534953  0.32306261  0.69275970  1.0
  C  C74  1  0.86719414  0.77351392  0.86041615  1.0
  C  C75  1  0.39773621  0.67855708  0.68812867  1.0
  C  C76  1  0.63886682  0.27577648  0.64069426  1.0
  C  C77  1  0.10342812  0.17923167  0.81133468  1.0
  C  C78  1  0.35362269  0.72566155  0.63624238  1.0
  C  C79  1  0.37135862  0.46726692  0.15283140  1.0
  C  C80  1  0.91156683  0.81250564  0.80375049  1.0
  C  C81  1  0.63961343  0.73922618  0.35756258  1.0
  C  C82  1  0.10253216  0.81664931  0.19209811  1.0
  C  C83  1  0.35391666  0.27351279  0.35923297  1.0
  C  C84  1  0.90100042  0.17975198  0.19691424  1.0
  C  C85  1  0.21487663  0.79089154  0.10232463  1.0
  C  C86  1  0.62972541  0.63765605  0.26082824  1.0
  C  C87  1  0.78998995  0.20720411  0.10645034  1.0
  C  C88  1  0.36812075  0.37768738  0.26347349  1.0
  C  C89  1  0.21603824  0.20503460  0.90041600  1.0
  C  C90  1  0.65509571  0.25337303  0.04762163  1.0
  C  C91  1  0.63001410  0.37599144  0.73841556  1.0
  C  C92  1  0.78481898  0.77871340  0.87136099  1.0
  C  C93  1  0.36564942  0.62173071  0.73231135  1.0
  C  C94  1  0.70788514  0.29489345  0.60409533  1.0
  C  C95  1  0.13614777  0.12528183  0.76532563  1.0
  C  C96  1  0.28583749  0.70614273  0.59856977  1.0
  C  C97  1  0.89647632  0.88620222  0.77341643  1.0
  C  C98  1  0.70486552  0.71634533  0.39713794  1.0
  C  C99  1  0.13473009  0.87171719  0.23722919  1.0
  C  C100  1  0.28581570  0.29349707  0.39664787  1.0
  C  C101  1  0.63024812  0.54333844  0.15397455  1.0
  C  C102  1  0.86865480  0.12255444  0.24059384  1.0
  C  C103  1  0.84215432  0.75772098  0.45356368  1.0
  N  N104  1  0.38477425  0.32006144  0.98306969  1.0
  N  N105  1  0.90338302  0.03498163  0.41497366  1.0
  N  N106  1  0.11514327  0.18002854  0.47936225  1.0
  N  N107  1  0.09180838  0.96460134  0.40808437  1.0
  N  N108  1  0.87933159  0.17950563  0.52513370  1.0
  N  N109  1  0.91127715  0.96733784  0.59455121  1.0
  N  N110  1  0.11544474  0.82134186  0.51768331  1.0
  N  N111  1  0.09411060  0.03719279  0.59261907  1.0
  N  N112  1  0.46617164  0.59147333  0.90287142  1.0
  N  N113  1  0.68208101  0.61700335  0.97497659  1.0
  N  N114  1  0.53436771  0.40699169  0.91092423  1.0
  N  N115  1  0.40462877  0.53293817  0.90577508  1.0
  N  N116  1  0.32466733  0.38082096  0.97873234  1.0
  N  N117  1  0.47001951  0.40837395  0.09321198  1.0
  N  N118  1  0.68025755  0.38355131  0.02826385  1.0
  N  N119  1  0.53540597  0.60041842  0.08873948  1.0
  N  N120  1  0.32290987  0.61650290  0.02048356  1.0
  N  N121  1  0.96463964  0.09381196  0.41305221  1.0
  N  N122  1  0.17407756  0.11823094  0.47467715  1.0
  N  N123  1  0.03040947  0.90583270  0.40601546  1.0
  N  N124  1  0.81741412  0.88521980  0.48271137  1.0
  N  N125  1  0.96854595  0.90480604  0.59146942  1.0
  N  N126  1  0.61933096  0.67514501  0.96934108  1.0
  N  N127  1  0.17439381  0.88294395  0.52313035  1.0
  N  N128  1  0.03462889  0.09792392  0.59510043  1.0
  N  N129  1  0.81995468  0.11821263  0.53009804  1.0
  N  N130  1  0.59656382  0.46492037  0.91190814  1.0
  N  N131  1  0.38251859  0.67760328  0.01531818  1.0
  N  N132  1  0.40927093  0.46788623  0.09070680  1.0
  N  N133  1  0.62090775  0.32226911  0.02335171  1.0
  N  N134  1  0.59503724  0.53983862  0.09105437  1.0
  N  N135  1  0.87737953  0.82413738  0.48087258  1.0
  F  F136  1  0.39730490  0.18325888  0.95675900  1.0
  F  F137  1  0.80526991  0.98289819  0.33979791  1.0
  F  F138  1  0.10477652  0.31723248  0.45301737  1.0
  F  F139  1  0.19440350  0.01314425  0.33480907  1.0
  F  F140  1  0.88971396  0.31703381  0.54913177  1.0
  F  F141  1  0.82774138  0.02724500  0.67806429  1.0
  F  F142  1  0.10507269  0.68368540  0.54221832  1.0
  F  F143  1  0.19346420  0.98353181  0.66633079  1.0
  F  F144  1  0.51558413  0.68548835  0.82180640  1.0
  F  F145  1  0.81777925  0.60479751  0.94010357  1.0
  F  F146  1  0.48144459  0.31355471  0.83189590  1.0
  F  F147  1  0.30375865  0.48202194  0.83276195  1.0
  F  F148  1  0.18986866  0.39144693  0.94193005  1.0
  F  F149  1  0.51795332  0.31257071  0.17310884  1.0
  F  F150  1  0.81455134  0.39481674  0.06636089  1.0
  F  F151  1  0.48584054  0.70143756  0.16271916  1.0
  F  F152  1  0.18922213  0.60470764  0.06038339  1.0
  F  F153  1  0.01599655  0.18765385  0.33273307  1.0
  F  F154  1  0.30867837  0.10577520  0.43708426  1.0
  F  F155  1  0.98316364  0.80894959  0.32754330  1.0
  F  F156  1  0.68103182  0.89934327  0.45075462  1.0
  F  F157  1  0.02488373  0.80932743  0.66773316  1.0
  F  F158  1  0.60222203  0.80407524  0.92258825  1.0
  F  F159  1  0.30904225  0.89439126  0.56025488  1.0
  F  F160  1  0.98880933  0.19455552  0.67457597  1.0
  F  F161  1  0.68490193  0.10679750  0.56658427  1.0
  F  F162  1  0.24398940  0.86930994  0.10018918  1.0
  F  F163  1  0.70979167  0.61319264  0.27000581  1.0
  F  F164  1  0.76193148  0.12855166  0.10210996  1.0
  F  F165  1  0.28855739  0.40422924  0.27115318  1.0
  F  F166  1  0.24603244  0.12689134  0.90199835  1.0
  F  F167  1  0.71140671  0.39680218  0.73136638  1.0
  F  F168  1  0.73790575  0.83082453  0.83178038  1.0
  F  F169  1  0.69536623  0.51491074  0.83558531  1.0
  F  F170  1  0.28611561  0.59557044  0.72404861  1.0
  F  F171  1  0.73717909  0.37320275  0.60101131  1.0
  F  F172  1  0.21653002  0.10076220  0.77190904  1.0
  F  F173  1  0.25765021  0.62751733  0.59464342  1.0
  F  F174  1  0.84614323  0.94225422  0.80482802  1.0
  F  F175  1  0.72996468  0.63657629  0.40102099  1.0
  F  F176  1  0.21509648  0.89609406  0.23030412  1.0
  F  F177  1  0.25787386  0.37228181  0.40027565  1.0
  F  F178  1  0.78949879  0.09582584  0.23125800  1.0
  F  F179  1  0.39487135  0.81409827  0.04272756  1.0
  F  F180  1  0.30899276  0.51934391  0.16463451  1.0
  F  F181  1  0.60934449  0.18518749  0.04978299  1.0
  F  F182  1  0.69110417  0.49092653  0.16983627  1.0
  F  F183  1  0.88789379  0.69016556  0.44523816  1.0
