# generated using pymatgen
data_ZnH16C20SN3O10
_symmetry_space_group_name_H-M   'P 1'
_cell_length_a   14.64102223
_cell_length_b   15.99140097
_cell_length_c   19.13230917
_cell_angle_alpha   90.25471384
_cell_angle_beta   89.96908394
_cell_angle_gamma   89.96704502
_symmetry_Int_Tables_number   1
_chemical_formula_structural   ZnH16C20SN3O10
_chemical_formula_sum   'Zn2 H32 C40 S2 N6 O20'
_cell_volume   4479.41062753
_cell_formula_units_Z   2
loop_
 _symmetry_equiv_pos_site_id
 _symmetry_equiv_pos_as_xyz
  1  'x, y, z'
loop_
 _atom_site_type_symbol
 _atom_site_label
 _atom_site_symmetry_multiplicity
 _atom_site_fract_x
 _atom_site_fract_y
 _atom_site_fract_z
 _atom_site_occupancy
  Zn  Zn0  1  0.40486979  0.50629961  0.50346152  1.0
  Zn  Zn1  1  0.59603336  0.49523723  0.50530588  1.0
  H  H2  1  0.35657427  0.51143853  0.28283773  1.0
  H  H3  1  0.06674210  0.56120780  0.40069088  1.0
  H  H4  1  0.92170288  0.63306881  0.49506947  1.0
  H  H5  1  0.07867758  0.63691052  0.46794069  1.0
  H  H6  1  0.35364705  0.48333414  0.15356283  1.0
  H  H7  1  0.64439493  0.44301745  0.15637583  1.0
  H  H8  1  0.35084144  0.44274006  0.85167675  1.0
  H  H9  1  0.64402903  0.46106765  0.85585642  1.0
  H  H10  1  0.35301343  0.46488604  0.72176891  1.0
  H  H11  1  0.64491439  0.48465216  0.72616121  1.0
  H  H12  1  0.63725385  0.09072116  0.49572192  1.0
  H  H13  1  0.64579850  0.46913467  0.28582737  1.0
  H  H14  1  0.34900620  0.04746019  0.48639713  1.0
  H  H15  1  0.65311852  0.95064259  0.47863502  1.0
  H  H16  1  0.36575653  0.90888269  0.51925471  1.0
  H  H17  1  0.43178511  0.07023382  0.38194753  1.0
  H  H18  1  0.55143912  0.07502737  0.38340497  1.0
  H  H19  1  0.27215450  0.93730985  0.40694594  1.0
  H  H20  1  0.54687375  0.80223515  0.34249792  1.0
  H  H21  1  0.97792584  0.39689972  0.36686036  1.0
  H  H22  1  0.15991725  0.37400286  0.41937814  1.0
  H  H23  1  0.45457002  0.87255366  0.61146684  1.0
  H  H24  1  0.07536967  0.37349294  0.51684992  1.0
  H  H25  1  0.59498434  0.95190350  0.61682741  1.0
  H  H26  1  0.40762132  0.04907440  0.62395094  1.0
  H  H27  1  0.55834770  0.13727871  0.59833891  1.0
  H  H28  1  0.92330617  0.36339409  0.48859152  1.0
  H  H29  1  0.90984061  0.54711302  0.60846998  1.0
  H  H30  1  0.06452351  0.58289439  0.59603482  1.0
  H  H31  1  0.93300894  0.43890624  0.60290947  1.0
  H  H32  1  0.08717280  0.47664358  0.61418908  1.0
  H  H33  1  0.90969093  0.58247170  0.41299055  1.0
  C  C34  1  0.48480644  0.33846311  0.49559363  1.0
  C  C35  1  0.58157834  0.05750243  0.52287088  1.0
  C  C36  1  0.59875393  0.96150082  0.51662466  1.0
  C  C37  1  0.42575841  0.94609824  0.53301444  1.0
  C  C38  1  0.51212377  0.75305097  0.50086528  1.0
  C  C39  1  0.49030778  0.08176259  0.48656709  1.0
  C  C40  1  0.50877927  0.91800599  0.48562183  1.0
  C  C41  1  0.50197051  0.50158387  0.36939400  1.0
  C  C42  1  0.49725354  0.95181628  0.40920137  1.0
  C  C43  1  0.49211305  0.04847809  0.41059658  1.0
  C  C44  1  0.51472045  0.82790029  0.49067328  1.0
  C  C45  1  0.49738375  0.44279568  0.07219080  1.0
  C  C46  1  0.48185587  0.17211794  0.48692437  1.0
  C  C47  1  0.48148287  0.24799861  0.49039761  1.0
  C  C48  1  0.95252049  0.42012247  0.46448374  1.0
  C  C49  1  0.05829860  0.41959963  0.47627251  1.0
  C  C50  1  0.94737631  0.49958657  0.57849927  1.0
  C  C51  1  0.05082191  0.51866787  0.57847421  1.0
  C  C52  1  0.91224149  0.49828464  0.50212356  1.0
  C  C53  1  0.08807786  0.50793872  0.50314592  1.0
  C  C54  1  0.04804595  0.57620335  0.45485438  1.0
  C  C55  1  0.94339100  0.57870407  0.46394351  1.0
  C  C56  1  0.41490925  0.45207552  0.82379466  1.0
  C  C57  1  0.18667702  0.51189962  0.50344305  1.0
  C  C58  1  0.81344653  0.49303563  0.50219045  1.0
  C  C59  1  0.50874985  0.66270738  0.50702836  1.0
  C  C60  1  0.50020093  0.48816104  0.63902375  1.0
  C  C61  1  0.41892148  0.49625424  0.25435445  1.0
  C  C62  1  0.58258051  0.47277966  0.25600607  1.0
  C  C63  1  0.41743455  0.48096244  0.18278740  1.0
  C  C64  1  0.58172277  0.45818388  0.18440284  1.0
  C  C65  1  0.49882554  0.46097381  0.14729773  1.0
  C  C66  1  0.50117505  0.49116947  0.29158044  1.0
  C  C67  1  0.58055874  0.46242353  0.82617630  1.0
  C  C68  1  0.49674043  0.43749297  0.93732141  1.0
  C  C69  1  0.41609218  0.46440911  0.75194975  1.0
  C  C70  1  0.58113541  0.47527180  0.75438548  1.0
  C  C71  1  0.49905415  0.47603633  0.71664993  1.0
  C  C72  1  0.49733398  0.45054442  0.86155035  1.0
  C  C73  1  0.40634715  0.04046404  0.52332257  1.0
  S  S74  1  0.39771427  0.90605229  0.35825793  1.0
  S  S75  1  0.59439825  0.92618977  0.34626483  1.0
  N  N76  1  0.57746383  0.42722168  0.03909644  1.0
  N  N77  1  0.41570477  0.43367994  0.03963379  1.0
  N  N78  1  0.57722639  0.42382794  0.97041371  1.0
  N  N79  1  0.41555910  0.43172556  0.97086599  1.0
  N  N80  1  0.26578812  0.51299932  0.50340703  1.0
  N  N81  1  0.73453480  0.48948364  0.50417722  1.0
  O  O82  1  0.41084759  0.37795095  0.48399481  1.0
  O  O83  1  0.42347180  0.82239555  0.33755286  1.0
  O  O84  1  0.31646537  0.89231248  0.41463630  1.0
  O  O85  1  0.56054445  0.94833308  0.27834275  1.0
  O  O86  1  0.67748846  0.96310461  0.37156795  1.0
  O  O87  1  0.60712659  0.82826440  0.35338246  1.0
  O  O88  1  0.92891430  0.42436046  0.39312594  1.0
  O  O89  1  0.09919066  0.39697948  0.41155279  1.0
  O  O90  1  0.44626676  0.93259813  0.60507937  1.0
  O  O91  1  0.62945096  0.92522684  0.57903912  1.0
  O  O92  1  0.37846003  0.07980751  0.58588862  1.0
  O  O93  1  0.56218869  0.36901343  0.51163889  1.0
  O  O94  1  0.58074404  0.07985273  0.59504462  1.0
  O  O95  1  0.42739206  0.52298020  0.39897603  1.0
  O  O96  1  0.57719715  0.48644769  0.40023657  1.0
  O  O97  1  0.43064915  0.63164413  0.52046263  1.0
  O  O98  1  0.58349038  0.62401728  0.49749753  1.0
  O  O99  1  0.42391403  0.48253948  0.60721522  1.0
  O  O100  1  0.57734459  0.50251264  0.61070286  1.0
  O  O101  1  0.36414258  0.96653901  0.30924688  1.0
