# generated using pymatgen
data_MnH2C4O3
_symmetry_space_group_name_H-M   'P 1'
_cell_length_a   7.11050222
_cell_length_b   15.00201774
_cell_length_c   15.00285855
_cell_angle_alpha   117.53161797
_cell_angle_beta   99.09982811
_cell_angle_gamma   99.09103585
_symmetry_Int_Tables_number   1
_chemical_formula_structural   MnH2C4O3
_chemical_formula_sum   'Mn6 H12 C24 O18'
_cell_volume   1351.59536448
_cell_formula_units_Z   6
loop_
 _symmetry_equiv_pos_site_id
 _symmetry_equiv_pos_as_xyz
  1  'x, y, z'
loop_
 _atom_site_type_symbol
 _atom_site_label
 _atom_site_symmetry_multiplicity
 _atom_site_fract_x
 _atom_site_fract_y
 _atom_site_fract_z
 _atom_site_occupancy
  Mn  Mn0  1  0.97132933  0.26107405  0.58520457  1.0
  Mn  Mn1  1  0.38624268  0.41484274  0.67594968  1.0
  Mn  Mn2  1  0.71026833  0.32403315  0.73893058  1.0
  Mn  Mn3  1  0.02867582  0.73892595  0.41479768  1.0
  Mn  Mn4  1  0.61375749  0.58515881  0.32404694  1.0
  Mn  Mn5  1  0.28972176  0.67596529  0.26106586  1.0
  H  H6  1  0.64518997  0.47334025  0.25799199  1.0
  H  H7  1  0.38723251  0.74205514  0.21530749  1.0
  H  H8  1  0.17202623  0.78465504  0.52661367  1.0
  H  H9  1  0.35481917  0.52666209  0.74200897  1.0
  H  H10  1  0.61277236  0.25794720  0.78469316  1.0
  H  H11  1  0.82799004  0.21533872  0.47338583  1.0
  H  H12  1  0.30588115  0.44628893  0.46987406  1.0
  H  H13  1  0.83602090  0.53004395  0.97642968  1.0
  H  H14  1  0.85953875  0.02339508  0.55378354  1.0
  H  H15  1  0.69411799  0.55370483  0.53012020  1.0
  H  H16  1  0.16398408  0.46996150  0.02356975  1.0
  H  H17  1  0.14044976  0.97660569  0.44622320  1.0
  C  C18  1  0.76642116  0.43904494  0.61430837  1.0
  C  C19  1  0.15205834  0.38574059  0.82473211  1.0
  C  C20  1  0.32761718  0.17532134  0.56107415  1.0
  C  C21  1  0.23358397  0.56095505  0.38569188  1.0
  C  C22  1  0.84794470  0.61426096  0.17526671  1.0
  C  C23  1  0.67238048  0.82467787  0.43892920  1.0
  C  C24  1  0.88902692  0.46666998  0.55475360  1.0
  C  C25  1  0.33422235  0.44531466  0.91192064  1.0
  C  C26  1  0.42246660  0.08810966  0.53342651  1.0
  C  C27  1  0.11097742  0.53332846  0.44524520  1.0
  C  C28  1  0.66577733  0.55468300  0.08807746  1.0
  C  C29  1  0.57753004  0.91189034  0.46657845  1.0
  C  C30  1  0.06454971  0.43549213  0.53681727  1.0
  C  C31  1  0.52773872  0.46318637  0.89870183  1.0
  C  C32  1  0.62917689  0.10125532  0.56461374  1.0
  C  C33  1  0.93545359  0.56450709  0.46318048  1.0
  C  C34  1  0.47225914  0.53681908  0.10129776  1.0
  C  C35  1  0.37082012  0.89874545  0.43539028  1.0
  C  C36  1  0.17108996  0.46996718  0.48312011  1.0
  C  C37  1  0.68797944  0.51682585  0.98686687  1.0
  C  C38  1  0.70113669  0.01305216  0.53008339  1.0
  C  C39  1  0.82891619  0.53003204  0.51687852  1.0
  C  C40  1  0.31201234  0.48317882  0.01313192  1.0
  C  C41  1  0.29885531  0.98694705  0.46992287  1.0
  O  O42  1  0.60402207  0.46353633  0.61866641  1.0
  O  O43  1  0.98528489  0.38132882  0.84483744  1.0
  O  O44  1  0.14074237  0.15521554  0.53659869  1.0
  O  O45  1  0.39598291  0.53646055  0.38133038  1.0
  O  O46  1  0.01471463  0.61867429  0.15515852  1.0
  O  O47  1  0.85925469  0.84478523  0.46340933  1.0
  O  O48  1  0.83235846  0.39169726  0.66116686  1.0
  O  O49  1  0.17120637  0.33885174  0.73057782  1.0
  O  O50  1  0.44088024  0.26948334  0.60836684  1.0
  O  O51  1  0.16764849  0.60830352  0.33883455  1.0
  O  O52  1  0.82880263  0.66114747  0.26942169  1.0
  O  O53  1  0.55911066  0.73051666  0.39163371  1.0
  O  O54  1  0.13454770  0.37228693  0.56796956  1.0
  O  O55  1  0.56663512  0.43199631  0.80436745  1.0
  O  O56  1  0.76245567  0.19557591  0.62781921  1.0
  O  O57  1  0.86545000  0.62770683  0.43202327  1.0
  O  O58  1  0.43335755  0.56800446  0.19562892  1.0
  O  O59  1  0.23754273  0.80442487  0.37218158  1.0
