# generated using pymatgen
data_Al2H17C24(NO4)3
_symmetry_space_group_name_H-M   'P 1'
_cell_length_a   6.79938130
_cell_length_b   11.08260744
_cell_length_c   16.77371833
_cell_angle_alpha   104.54619154
_cell_angle_beta   95.81929014
_cell_angle_gamma   106.76874971
_symmetry_Int_Tables_number   1
_chemical_formula_structural   Al2H17C24(NO4)3
_chemical_formula_sum   'Al2 H17 C24 N3 O12'
_cell_volume   1150.64415565
_cell_formula_units_Z   1
loop_
 _symmetry_equiv_pos_site_id
 _symmetry_equiv_pos_as_xyz
  1  'x, y, z'
loop_
 _atom_site_type_symbol
 _atom_site_label
 _atom_site_symmetry_multiplicity
 _atom_site_fract_x
 _atom_site_fract_y
 _atom_site_fract_z
 _atom_site_occupancy
  Al  Al0  1  0.99989759  0.49644997  0.50091944  1.0
  Al  Al1  1  0.50020248  0.49390404  0.50125364  1.0
  H  H2  1  0.16954350  0.38233144  0.40051242  1.0
  H  H3  1  0.84505324  0.65880328  0.56611937  1.0
  H  H4  1  0.65385475  0.58725006  0.75091151  1.0
  H  H5  1  0.72260175  0.58168259  0.89949320  1.0
  H  H6  1  0.05985010  0.43756022  0.88971802  1.0
  H  H7  1  0.94301639  0.57432456  0.11597594  1.0
  H  H8  1  0.28022837  0.41745682  0.10159012  1.0
  H  H9  1  0.34648070  0.40455037  0.24834149  1.0
  H  H10  1  0.24972205  0.11155218  0.47828558  1.0
  H  H11  1  0.88484224  0.11242000  0.51227062  1.0
  H  H12  1  0.12764014  0.87377388  0.47960190  1.0
  H  H13  1  0.81698626  0.39651078  0.77215980  1.0
  H  H14  1  0.89261831  0.34137447  0.67445805  1.0
  H  H15  1  0.88502048  0.50232000  0.70738158  1.0
  H  H16  1  0.12463635  0.50540670  0.29288541  1.0
  H  H17  1  0.10012706  0.66125056  0.33265877  1.0
  H  H18  1  0.18295232  0.62101816  0.23459138  1.0
  C  C19  1  0.64564312  0.26718112  0.49621514  1.0
  C  C20  1  0.70013737  0.47540406  0.35300092  1.0
  C  C21  1  0.35681288  0.72406638  0.50496871  1.0
  C  C22  1  0.29892583  0.51503382  0.64749204  1.0
  C  C23  1  0.32019034  0.51443310  0.73675018  1.0
  C  C24  1  0.52522909  0.55455784  0.78247254  1.0
  C  C25  1  0.56410236  0.55161284  0.86435694  1.0
  C  C26  1  0.39302229  0.50694573  0.90224319  1.0
  C  C27  1  0.18850494  0.47042411  0.85788059  1.0
  C  C28  1  0.14659872  0.47238005  0.77485705  1.0
  C  C29  1  0.81375806  0.53716296  0.14647336  1.0
  C  C30  1  0.60987156  0.49845898  0.10109249  1.0
  C  C31  1  0.43828052  0.44883049  0.13741286  1.0
  C  C32  1  0.47613243  0.44196651  0.21843021  1.0
  C  C33  1  0.68039291  0.48309108  0.26513451  1.0
  C  C34  1  0.85445978  0.53180346  0.22877612  1.0
  C  C35  1  0.43308970  0.86260988  0.49999724  1.0
  C  C36  1  0.57374018  0.12670729  0.49723069  1.0
  C  C37  1  0.64515198  0.93102876  0.50690352  1.0
  C  C38  1  0.35991018  0.05951886  0.48724199  1.0
  C  C39  1  0.71873446  0.06134339  0.50654226  1.0
  C  C40  1  0.29202086  0.92943831  0.48871891  1.0
  C  C41  1  0.92315576  0.42597070  0.73032801  1.0
  C  C42  1  0.07760672  0.58253836  0.27433181  1.0
  N  N43  1  0.40968440  0.49475612  0.98428546  1.0
  N  N44  1  0.59400318  0.51227495  0.01943597  1.0
  N  N45  1  0.79731347  0.86056466  0.50826976  1.0
  O  O46  1  0.84044653  0.32190383  0.50145504  1.0
  O  O47  1  0.54222032  0.47839151  0.38800979  1.0
  O  O48  1  0.49626404  0.67061279  0.51476763  1.0
  O  O49  1  0.13281143  0.52708806  0.61279388  1.0
  O  O50  1  0.16175826  0.67258086  0.50023544  1.0
  O  O51  1  0.45294873  0.50428639  0.61193829  1.0
  O  O52  1  0.50349150  0.31937217  0.48962613  1.0
  O  O53  1  0.86864808  0.46443833  0.38682436  1.0
  O  O54  1  0.20779546  0.42972576  0.45980604  1.0
  O  O55  1  0.79248790  0.56362332  0.54063363  1.0
  O  O56  1  0.81798708  0.79951711  0.43863858  1.0
  O  O57  1  0.89821961  0.87069871  0.57674887  1.0
