# generated using pymatgen
data_Cu3H9C15N16
_symmetry_space_group_name_H-M   'P 1'
_cell_length_a   26.04362090
_cell_length_b   26.40852958
_cell_length_c   27.62519425
_cell_angle_alpha   91.59332281
_cell_angle_beta   93.23364817
_cell_angle_gamma   90.42073413
_symmetry_Int_Tables_number   1
_chemical_formula_structural   Cu3H9C15N16
_chemical_formula_sum   'Cu12 H36 C60 N64'
_cell_volume   18961.54120807
_cell_formula_units_Z   4
loop_
 _symmetry_equiv_pos_site_id
 _symmetry_equiv_pos_as_xyz
  1  'x, y, z'
loop_
 _atom_site_type_symbol
 _atom_site_label
 _atom_site_symmetry_multiplicity
 _atom_site_fract_x
 _atom_site_fract_y
 _atom_site_fract_z
 _atom_site_occupancy
  Cu  Cu0  1  0.08392470  0.12901712  0.17596876  1.0
  Cu  Cu1  1  0.13491207  0.17190320  0.08379454  1.0
  Cu  Cu2  1  0.17746468  0.07058957  0.13510092  1.0
  Cu  Cu3  1  0.41804710  0.86215879  0.69326510  1.0
  Cu  Cu4  1  0.37027456  0.82574843  0.58986575  1.0
  Cu  Cu5  1  0.33202981  0.92854929  0.64036856  1.0
  Cu  Cu6  1  0.90888612  0.63250410  0.32711272  1.0
  Cu  Cu7  1  0.85459929  0.68178737  0.41628286  1.0
  Cu  Cu8  1  0.80519195  0.58355122  0.36425538  1.0
  Cu  Cu9  1  0.58089970  0.36482283  0.81134979  1.0
  Cu  Cu10  1  0.62958948  0.35002423  0.91776174  1.0
  Cu  Cu11  1  0.69671619  0.39623283  0.83803228  1.0
  H  H12  1  0.00544809  0.21606333  0.19825861  1.0
  H  H13  1  0.06563291  0.27108806  0.06590429  1.0
  H  H14  1  0.18649175  0.97795633  0.20845278  1.0
  H  H15  1  0.05009451  0.05347164  0.25642541  1.0
  H  H16  1  0.21071216  0.17816047  0.99786793  1.0
  H  H17  1  0.26462905  0.04007314  0.06465254  1.0
  H  H18  1  0.49510965  0.77166844  0.71650098  1.0
  H  H19  1  0.43944431  0.72855689  0.56996467  1.0
  H  H20  1  0.32732116  0.02226386  0.71608951  1.0
  H  H21  1  0.44990743  0.93420031  0.78448339  1.0
  H  H22  1  0.29697186  0.82218117  0.49378102  1.0
  H  H23  1  0.24993827  0.96453699  0.55900595  1.0
  H  H24  1  0.00814164  0.70526866  0.32452459  1.0
  H  H25  1  0.93455323  0.76895754  0.44913525  1.0
  H  H26  1  0.78342752  0.49728721  0.28318181  1.0
  H  H27  1  0.92679987  0.55931879  0.23680665  1.0
  H  H28  1  0.77291126  0.70503519  0.49522641  1.0
  H  H29  1  0.71197180  0.56293887  0.43263317  1.0
  H  H30  1  0.48647030  0.28609195  0.81104559  1.0
  H  H31  1  0.54316570  0.28213127  0.96165927  1.0
  H  H32  1  0.72154535  0.46099150  0.74727230  1.0
  H  H33  1  0.55775301  0.43474431  0.71907064  1.0
  H  H34  1  0.70862445  0.35971982  0.01051915  1.0
  H  H35  1  0.80731212  0.39998848  0.89582428  1.0
  H  H36  1  0.95368299  0.31052130  0.06525852  1.0
  H  H37  1  0.55521327  0.70062163  0.57910797  1.0
  H  H38  1  0.03348337  0.82336424  0.33071028  1.0
  H  H39  1  0.47064995  0.17406897  0.84844098  1.0
  H  H40  1  0.17372376  0.96696311  0.32982682  1.0
  H  H41  1  0.57932608  0.54807926  0.69726141  1.0
  H  H42  1  0.32845805  0.04156100  0.83367073  1.0
  H  H43  1  0.93198183  0.45689641  0.19928368  1.0
  H  H44  1  0.32121383  0.17436145  0.97295517  1.0
  H  H45  1  0.69414356  0.56357963  0.54586316  1.0
  H  H46  1  0.78509004  0.40770257  0.06732844  1.0
  H  H47  1  0.17998520  0.83473256  0.46535749  1.0
  C  C48  1  0.02588730  0.22194051  0.16572716  1.0
  C  C49  1  0.02172695  0.26133925  0.13309036  1.0
  C  C50  1  0.05658555  0.25028351  0.09768469  1.0
  C  C51  1  0.15461643  0.00315570  0.21440832  1.0
  C  C52  1  0.11554386  0.99986862  0.24687589  1.0
  C  C53  1  0.08448662  0.04200404  0.23881938  1.0
  C  C54  1  0.21773754  0.14576346  0.02054125  1.0
  C  C55  1  0.25323000  0.10663608  0.01638467  1.0
  C  C56  1  0.24520611  0.07481084  0.05487415  1.0
  C  C57  1  0.47559396  0.76847298  0.68081853  1.0
  C  C58  1  0.48141719  0.73253304  0.64352679  1.0
  C  C59  1  0.44718755  0.74640349  0.60549955  1.0
  C  C60  1  0.35558198  0.99401595  0.72651805  1.0
  C  C61  1  0.39166237  0.99398695  0.76595985  1.0
  C  C62  1  0.41866083  0.94875770  0.76141515  1.0
  C  C63  1  0.29145099  0.85543376  0.51678384  1.0
  C  C64  1  0.25864593  0.89651398  0.50959396  1.0
  C  C65  1  0.26755333  0.92860215  0.55029549  1.0
  C  C66  1  0.98302210  0.71461666  0.35341073  1.0
  C  C67  1  0.98839986  0.75203877  0.39017254  1.0
  C  C68  1  0.94526387  0.74714362  0.41751533  1.0
  C  C69  1  0.81861683  0.51846589  0.27894504  1.0
  C  C70  1  0.85477522  0.51305140  0.24374472  1.0
  C  C71  1  0.89231608  0.55019327  0.25513748  1.0
  C  C72  1  0.76516997  0.67036081  0.47406192  1.0
  C  C73  1  0.72638768  0.63421584  0.47822864  1.0
  C  C74  1  0.73381354  0.59724755  0.44219321  1.0
  C  C75  1  0.50710955  0.29115707  0.84606975  1.0
  C  C76  1  0.49818985  0.26953229  0.89049164  1.0
  C  C77  1  0.53626722  0.28941363  0.92341708  1.0
  C  C78  1  0.68172672  0.44872661  0.74731003  1.0
  C  C79  1  0.63965833  0.46216949  0.71690681  1.0
  C  C80  1  0.59757284  0.43546345  0.73291102  1.0
  C  C81  1  0.72504633  0.36954247  0.97676885  1.0
  C  C82  1  0.77590501  0.38116171  0.96734894  1.0
  C  C83  1  0.77571292  0.38995538  0.91770315  1.0
  C  C84  1  0.93219139  0.36161469  0.12793825  1.0
  C  C85  1  0.95698671  0.32376651  0.10265412  1.0
  C  C86  1  0.57296385  0.63552877  0.62889690  1.0
  C  C87  1  0.54894617  0.67825336  0.61034169  1.0
  C  C88  1  0.08677391  0.84565546  0.39547334  1.0
  C  C89  1  0.04892433  0.81937988  0.36745918  1.0
  C  C90  1  0.41008820  0.16875990  0.90380554  1.0
  C  C91  1  0.44893047  0.18905698  0.87766801  1.0
  C  C92  1  0.10859934  0.91194956  0.34094520  1.0
  C  C93  1  0.13752447  0.94849863  0.31933720  1.0
  C  C94  1  0.62780456  0.56126601  0.63325200  1.0
  C  C95  1  0.60893772  0.53785552  0.67312823  1.0
  C  C96  1  0.39809876  0.08889620  0.85948324  1.0
  C  C97  1  0.36791693  0.05403198  0.83208808  1.0
  C  C98  1  0.86948511  0.42572010  0.14617075  1.0
  C  C99  1  0.89281846  0.45414071  0.18430440  1.0
  C  C100  1  0.34657036  0.10730341  0.92784445  1.0
  C  C101  1  0.31925309  0.13510553  0.96097321  1.0
  C  C102  1  0.63876805  0.62321574  0.57103961  1.0
  C  C103  1  0.67552787  0.59985381  0.54367322  1.0
  C  C104  1  0.86884384  0.38662917  0.06570230  1.0
  C  C105  1  0.81832009  0.39437259  0.04922772  1.0
  C  C106  1  0.16173982  0.89883583  0.41449313  1.0
  C  C107  1  0.18693578  0.87142669  0.45063271  1.0
  N  N108  1  0.61213674  0.60574624  0.61022179  1.0
  N  N109  1  0.89194981  0.39329507  0.11245839  1.0
  N  N110  1  0.38434925  0.12226967  0.89690422  1.0
  N  N111  1  0.11973342  0.88476655  0.38297033  1.0
  N  N112  1  0.08035377  0.20644013  0.10872711  1.0
  N  N113  1  0.06142494  0.18917132  0.15068165  1.0
  N  N114  1  0.10393426  0.06905637  0.20343215  1.0
  N  N115  1  0.14720439  0.04522202  0.18836189  1.0
  N  N116  1  0.20692838  0.09390974  0.08059569  1.0
  N  N117  1  0.19003412  0.13773313  0.05954509  1.0
  N  N118  1  0.42228293  0.78851797  0.61937098  1.0
  N  N119  1  0.43974566  0.80205043  0.66581782  1.0
  N  N120  1  0.39967066  0.92309203  0.72143010  1.0
  N  N121  1  0.36073200  0.95091294  0.69990821  1.0
  N  N122  1  0.30370131  0.90775571  0.58023118  1.0
  N  N123  1  0.31837425  0.86255927  0.55964596  1.0
  N  N124  1  0.91574307  0.70879367  0.39815366  1.0
  N  N125  1  0.93887087  0.68876396  0.35855972  1.0
  N  N126  1  0.87936862  0.57631985  0.29525250  1.0
  N  N127  1  0.83390772  0.55683905  0.30978543  1.0
  N  N128  1  0.77518225  0.61057698  0.41795367  1.0
  N  N129  1  0.79437246  0.65567593  0.43756901  1.0
  N  N130  1  0.56630658  0.32125037  0.89995284  1.0
  N  N131  1  0.54842782  0.32228489  0.85220968  1.0
  N  N132  1  0.61367119  0.40782452  0.77116042  1.0
  N  N133  1  0.66560178  0.41597991  0.77993871  1.0
  N  N134  1  0.72717628  0.38387424  0.89850949  1.0
  N  N135  1  0.69591459  0.37149755  0.93489219  1.0
  N  N136  1  0.98576947  0.32735026  0.18102269  1.0
  N  N137  1  0.95105246  0.36284261  0.17512560  1.0
  N  N138  1  0.98943956  0.30331241  0.13729710  1.0
  N  N139  1  0.51707658  0.65872712  0.68151567  1.0
  N  N140  1  0.55238077  0.62512841  0.67206811  1.0
  N  N141  1  0.51490935  0.69112645  0.64420714  1.0
  N  N142  1  0.05310192  0.79204466  0.44396620  1.0
  N  N143  1  0.08800705  0.82786507  0.44153206  1.0
  N  N144  1  0.02900875  0.78685785  0.39913638  1.0
  N  N145  1  0.42937728  0.24247091  0.93859783  1.0
  N  N146  1  0.39927220  0.20235972  0.94029667  1.0
  N  N147  1  0.45953925  0.23463425  0.90064938  1.0
  N  N148  1  0.06191210  0.93536115  0.27724024  1.0
  N  N149  1  0.06316957  0.90510791  0.31419582  1.0
  N  N150  1  0.10691502  0.96185400  0.28012840  1.0
  N  N151  1  0.67601172  0.49462734  0.64571111  1.0
  N  N152  1  0.66834517  0.53362903  0.61776991  1.0
  N  N153  1  0.64006547  0.49691334  0.67933091  1.0
  N  N154  1  0.44938709  0.05281179  0.80918352  1.0
  N  N155  1  0.44718001  0.08672785  0.84456728  1.0
  N  N156  1  0.40129130  0.03228842  0.80168822  1.0
  N  N157  1  0.80734377  0.46618008  0.18016502  1.0
  N  N158  1  0.81762871  0.43374023  0.14522180  1.0
  N  N159  1  0.85290325  0.47834986  0.20440101  1.0
  N  N160  1  0.29628160  0.05275305  0.96055001  1.0
  N  N161  1  0.33149631  0.05763016  0.92883060  1.0
  N  N162  1  0.28880135  0.09955006  0.98055556  1.0
  N  N163  1  0.66107016  0.67913717  0.51878623  1.0
  N  N164  1  0.63118425  0.67111383  0.55449550  1.0
  N  N165  1  0.68820937  0.63611789  0.51207344  1.0
  N  N166  1  0.86557471  0.36737681  0.98806849  1.0
  N  N167  1  0.89628365  0.37046138  0.02745874  1.0
  N  N168  1  0.81830021  0.38241899  0.00090385  1.0
  N  N169  1  0.22198447  0.94922430  0.44715566  1.0
  N  N170  1  0.18420922  0.94572171  0.41362110  1.0
  N  N171  1  0.22364088  0.90428401  0.47002363  1.0
