# generated using pymatgen
data_AlH3C24(OF2)6
_symmetry_space_group_name_H-M   'P 1'
_cell_length_a   3.95698456
_cell_length_b   28.79336294
_cell_length_c   28.79326645
_cell_angle_alpha   120.00005819
_cell_angle_beta   89.99999768
_cell_angle_gamma   89.99984143
_symmetry_Int_Tables_number   1
_chemical_formula_structural   AlH3C24(OF2)6
_chemical_formula_sum   'Al2 H6 C48 O12 F24'
_cell_volume   2841.04465839
_cell_formula_units_Z   2
loop_
 _symmetry_equiv_pos_site_id
 _symmetry_equiv_pos_as_xyz
  1  'x, y, z'
loop_
 _atom_site_type_symbol
 _atom_site_label
 _atom_site_symmetry_multiplicity
 _atom_site_fract_x
 _atom_site_fract_y
 _atom_site_fract_z
 _atom_site_occupancy
  Al  Al0  1  0.99964794  0.49999909  0.99999799  1.0
  Al  Al1  1  0.99964733  0.83333344  0.66666584  1.0
  H  H2  1  0.50002045  0.72285190  0.33924998  1.0
  H  H3  1  0.50001644  0.61045997  0.32740477  1.0
  H  H4  1  0.50001135  0.61639857  0.77714504  1.0
  H  H5  1  0.50000788  0.71694468  0.88953774  1.0
  H  H6  1  0.50002067  0.16074815  0.88360036  1.0
  H  H7  1  0.50001298  0.17259437  0.78305367  1.0
  C  C8  1  0.49988431  0.41804015  0.95490448  1.0
  C  C9  1  0.49987814  0.53686234  0.08195611  1.0
  C  C10  1  0.49987807  0.54509365  0.96313399  1.0
  C  C11  1  0.49987318  0.79645764  0.58470305  1.0
  C  C12  1  0.49987325  0.78824651  0.70354122  1.0
  C  C13  1  0.49987206  0.91529590  0.71175348  1.0
  C  C14  1  0.50032327  0.76918568  0.52483424  1.0
  C  C15  1  0.49359392  0.71323616  0.49353013  1.0
  C  C16  1  0.49746580  0.68754773  0.43780918  1.0
  C  C17  1  0.49988404  0.71611256  0.40982476  1.0
  C  C18  1  0.50252694  0.77256564  0.44235964  1.0
  C  C19  1  0.50681279  0.79847045  0.49807577  1.0
  C  C20  1  0.49972757  0.69315654  0.35201965  1.0
  C  C21  1  0.49971543  0.64015449  0.31463550  1.0
  C  C22  1  0.50252640  0.56074956  0.22429551  1.0
  C  C23  1  0.49989002  0.61720016  0.25683239  1.0
  C  C24  1  0.49746114  0.64576852  0.22884878  1.0
  C  C25  1  0.49358975  0.62008193  0.17312663  1.0
  C  C26  1  0.50033531  0.56412973  0.14182412  1.0
  C  C27  1  0.50681021  0.53484335  0.16857937  1.0
  C  C28  1  0.50032592  0.75564891  0.73081179  1.0
  C  C29  1  0.49359584  0.78029460  0.78676169  1.0
  C  C30  1  0.49746523  0.75026209  0.81244979  1.0
  C  C31  1  0.49988426  0.69371239  0.78388513  1.0
  C  C32  1  0.50252286  0.66979452  0.72743070  1.0
  C  C33  1  0.50681626  0.69960582  0.70152523  1.0
  C  C34  1  0.49972032  0.65886327  0.80684021  1.0
  C  C35  1  0.49970754  0.67448171  0.85984257  1.0
  C  C36  1  0.50253050  0.66354617  0.93924767  1.0
  C  C37  1  0.49989235  0.63963205  0.88279725  1.0
  C  C38  1  0.49746426  0.58308104  0.85422858  1.0
  C  C39  1  0.49359544  0.55304340  0.87991267  1.0
  C  C40  1  0.50033771  0.57769335  0.93586622  1.0
  C  C41  1  0.50682445  0.63373383  0.96515313  1.0
  C  C42  1  0.50033144  0.97516416  0.74435050  1.0
  C  C43  1  0.49360308  0.00646828  0.71970437  1.0
  C  C44  1  0.49747925  0.06218886  0.74973721  1.0
  C  C45  1  0.49989750  0.09017377  0.80628708  1.0
  C  C46  1  0.50253870  0.05763826  0.83020464  1.0
  C  C47  1  0.50682026  0.00192085  0.80039277  1.0
  C  C48  1  0.49973016  0.14797826  0.84113512  1.0
  C  C49  1  0.49971212  0.18536222  0.82551691  1.0
  C  C50  1  0.50252908  0.27570280  0.83645341  1.0
  C  C51  1  0.49989101  0.24316582  0.86036734  1.0
  C  C52  1  0.49745960  0.27114802  0.91691803  1.0
  C  C53  1  0.49359502  0.32687066  0.94695568  1.0
  C  C54  1  0.50033724  0.35817282  0.92230585  1.0
  C  C55  1  0.50681717  0.33141752  0.86626407  1.0
  O  O56  1  0.73592137  0.55377575  0.99638670  1.0
  O  O57  1  0.73591988  0.44261038  0.94622129  1.0
  O  O58  1  0.73592436  0.50360980  0.05738647  1.0
  O  O59  1  0.26333210  0.51110837  0.95080392  1.0
  O  O60  1  0.26332922  0.54919237  0.06030122  1.0
  O  O61  1  0.26333024  0.43969609  0.98888914  1.0
  O  O62  1  0.73592578  0.89072708  0.72043899  1.0
  O  O63  1  0.73592635  0.82971168  0.60927102  1.0
  O  O64  1  0.73592682  0.77956074  0.67028762  1.0
  O  O65  1  0.26332598  0.89363621  0.67776808  1.0
  O  O66  1  0.26333423  0.82223160  0.71586654  1.0
  O  O67  1  0.26332953  0.78413278  0.60636322  1.0
  F  F68  1  0.50618049  0.85250368  0.52615159  1.0
  F  F69  1  0.49998684  0.80320508  0.41889606  1.0
  F  F70  1  0.49447366  0.68305561  0.51727524  1.0
  F  F71  1  0.50004656  0.63324900  0.41081175  1.0
  F  F72  1  0.50003582  0.70006685  0.25584540  1.0
  F  F73  1  0.49450430  0.65025796  0.14938152  1.0
  F  F74  1  0.49996666  0.53010878  0.24775989  1.0
  F  F75  1  0.50618650  0.48081197  0.14050517  1.0
  F  F76  1  0.50618721  0.67364874  0.64749387  1.0
  F  F77  1  0.49998103  0.61569154  0.69679189  1.0
  F  F78  1  0.49447982  0.83421981  0.81694215  1.0
  F  F79  1  0.50004269  0.77756274  0.86674829  1.0
  F  F80  1  0.50003466  0.55578074  0.79993009  1.0
  F  F81  1  0.49449814  0.49912444  0.84973706  1.0
  F  F82  1  0.49997754  0.71765021  0.96988928  1.0
  F  F83  1  0.50619494  0.65969238  0.01918534  1.0
  F  F84  1  0.50619198  0.97384608  0.82634988  1.0
  F  F85  1  0.49999361  0.08110205  0.88430823  1.0
  F  F86  1  0.49447085  0.98272334  0.66577915  1.0
  F  F87  1  0.50004914  0.08918659  0.72243615  1.0
  F  F88  1  0.50002999  0.24415063  0.94421909  1.0
  F  F89  1  0.49450459  0.35061438  0.00087520  1.0
  F  F90  1  0.49996927  0.25223939  0.78234781  1.0
  F  F91  1  0.50618512  0.35949353  0.84030687  1.0
