# generated using pymatgen
data_ZnH12C15(NO2)2
_symmetry_space_group_name_H-M   'P 1'
_cell_length_a   12.27047766
_cell_length_b   20.01469974
_cell_length_c   20.01474706
_cell_angle_alpha   103.08318817
_cell_angle_beta   93.82773263
_cell_angle_gamma   93.82740274
_symmetry_Int_Tables_number   1
_chemical_formula_structural   ZnH12C15(NO2)2
_chemical_formula_sum   'Zn8 H96 C120 N16 O32'
_cell_volume   4760.17036248
_cell_formula_units_Z   8
loop_
 _symmetry_equiv_pos_site_id
 _symmetry_equiv_pos_as_xyz
  1  'x, y, z'
loop_
 _atom_site_type_symbol
 _atom_site_label
 _atom_site_symmetry_multiplicity
 _atom_site_fract_x
 _atom_site_fract_y
 _atom_site_fract_z
 _atom_site_occupancy
  Zn  Zn0  1  0.80770231  0.60845179  0.11548508  1.0
  Zn  Zn1  1  0.61656509  0.66531374  0.15461600  1.0
  Zn  Zn2  1  0.92162434  0.19933415  0.92939498  1.0
  Zn  Zn3  1  0.01483715  0.35203093  0.08715998  1.0
  Zn  Zn4  1  0.30770421  0.11548463  0.60845263  1.0
  Zn  Zn5  1  0.11656248  0.15461444  0.66531227  1.0
  Zn  Zn6  1  0.42162771  0.92939644  0.19933402  1.0
  Zn  Zn7  1  0.51483860  0.08715974  0.35202975  1.0
  H  H8  1  0.51252706  0.72866733  0.28607987  1.0
  H  H9  1  0.42944054  0.65141962  0.24637632  1.0
  H  H10  1  0.29163228  0.84116141  0.28187183  1.0
  H  H11  1  0.43322391  0.83722270  0.30683231  1.0
  H  H12  1  0.32348656  0.79989265  0.09719943  1.0
  H  H13  1  0.22750215  0.81891259  0.16142222  1.0
  H  H14  1  0.18074779  0.73772012  0.22757730  1.0
  H  H15  1  0.23954911  0.65629060  0.21215849  1.0
  H  H16  1  0.36399444  0.62956492  0.12631221  1.0
  H  H17  1  0.40134030  0.69002324  0.07645270  1.0
  H  H18  1  0.51352980  0.79525605  0.13018394  1.0
  H  H19  1  0.56204264  0.81079662  0.21881481  1.0
  H  H20  1  0.04732013  0.60049729  0.17671571  1.0
  H  H21  1  0.05952757  0.64960872  0.11282642  1.0
  H  H22  1  0.86317597  0.46241642  0.06807666  1.0
  H  H23  1  0.93538436  0.49300465  0.15082315  1.0
  H  H24  1  0.96106200  0.60802671  0.00042961  1.0
  H  H25  1  0.87865189  0.52804084  0.98141225  1.0
  H  H26  1  0.20709213  0.46367942  0.09015556  1.0
  H  H27  1  0.13450818  0.49331308  0.16370616  1.0
  H  H28  1  0.15642063  0.61009230  0.01501371  1.0
  H  H29  1  0.22107394  0.53132402  0.00423105  1.0
  H  H30  1  0.96383534  0.42205045  0.96811689  1.0
  H  H31  1  0.10983101  0.42254718  0.97858165  1.0
  H  H32  1  0.64757693  0.83900709  0.05916424  1.0
  H  H33  1  0.62307530  0.95549188  0.04485425  1.0
  H  H34  1  0.69099346  0.05890791  0.00383173  1.0
  H  H35  1  0.96039954  0.95235905  0.91779472  1.0
  H  H36  1  0.98926862  0.83520470  0.93659510  1.0
  H  H37  1  0.92900897  0.73650341  0.98606514  1.0
  H  H38  1  0.80446661  0.45116502  0.22091053  1.0
  H  H39  1  0.45064197  0.41501474  0.32163963  1.0
  H  H40  1  0.48856764  0.51746459  0.27309381  1.0
  H  H41  1  0.86095049  0.34094835  0.24157035  1.0
  H  H42  1  0.82475097  0.23877891  0.29167564  1.0
  H  H43  1  0.50918349  0.30508980  0.34519679  1.0
  H  H44  1  0.75361364  0.83257630  0.33002944  1.0
  H  H45  1  0.76979009  0.93715442  0.42489991  1.0
  H  H46  1  0.17424623  0.92502687  0.45374086  1.0
  H  H47  1  0.15653991  0.81498409  0.36318890  1.0
  H  H48  1  0.03879041  0.72798925  0.27368113  1.0
  H  H49  1  0.88709334  0.02551416  0.51461271  1.0
  H  H50  1  0.68517737  0.38769809  0.11166528  1.0
  H  H51  1  0.48322333  0.38677864  0.11679655  1.0
  H  H52  1  0.29677909  0.33883700  0.06770675  1.0
  H  H53  1  0.64309101  0.22411346  0.92839239  1.0
  H  H54  1  0.45440611  0.17204079  0.88156990  1.0
  H  H55  1  0.25304522  0.17130898  0.88737448  1.0
  H  H56  1  0.01252647  0.28607907  0.72866947  1.0
  H  H57  1  0.92944146  0.24637605  0.65142058  1.0
  H  H58  1  0.79162865  0.28187121  0.84116070  1.0
  H  H59  1  0.93321835  0.30683082  0.83722235  1.0
  H  H60  1  0.82348480  0.09719857  0.79989156  1.0
  H  H61  1  0.72749917  0.16142029  0.81891147  1.0
  H  H62  1  0.68074521  0.22757677  0.73771863  1.0
  H  H63  1  0.73954824  0.21215745  0.65629012  1.0
  H  H64  1  0.86399413  0.12631148  0.62956547  1.0
  H  H65  1  0.90133943  0.07645148  0.69002409  1.0
  H  H66  1  0.01352806  0.13018280  0.79525711  1.0
  H  H67  1  0.06203998  0.21881442  0.81079764  1.0
  H  H68  1  0.54731688  0.17671667  0.60049695  1.0
  H  H69  1  0.55952637  0.11282832  0.64960867  1.0
  H  H70  1  0.36317574  0.06807568  0.46241635  1.0
  H  H71  1  0.43538207  0.15082237  0.49300319  1.0
  H  H72  1  0.46106240  0.00043031  0.60802594  1.0
  H  H73  1  0.37865428  0.98141316  0.52803996  1.0
  H  H74  1  0.70709105  0.09015662  0.46368056  1.0
  H  H75  1  0.63450545  0.16370722  0.49331231  1.0
  H  H76  1  0.65642192  0.01501643  0.61009380  1.0
  H  H77  1  0.72107488  0.00423451  0.53132557  1.0
  H  H78  1  0.46383872  0.96811657  0.42205077  1.0
  H  H79  1  0.60983369  0.97858280  0.42254864  1.0
  H  H80  1  0.14758150  0.05916489  0.83900572  1.0
  H  H81  1  0.12307685  0.04485411  0.95549072  1.0
  H  H82  1  0.19099043  0.00382938  0.05890627  1.0
  H  H83  1  0.46039972  0.91779295  0.95236005  1.0
  H  H84  1  0.48927134  0.93659320  0.83520574  1.0
  H  H85  1  0.42901442  0.98606259  0.73650288  1.0
  H  H86  1  0.30446388  0.22090930  0.45116608  1.0
  H  H87  1  0.95064046  0.32164110  0.41501487  1.0
  H  H88  1  0.98856508  0.27309497  0.51746406  1.0
  H  H89  1  0.36095062  0.24157046  0.34095042  1.0
  H  H90  1  0.32475180  0.29167616  0.23878031  1.0
  H  H91  1  0.00918257  0.34519918  0.30509046  1.0
  H  H92  1  0.25360884  0.33003412  0.83258031  1.0
  H  H93  1  0.26978884  0.42490323  0.93715757  1.0
  H  H94  1  0.67424139  0.45374077  0.92502746  1.0
  H  H95  1  0.65653362  0.36318691  0.81498406  1.0
  H  H96  1  0.53877969  0.27367982  0.72799050  1.0
  H  H97  1  0.38709219  0.51461673  0.02551745  1.0
  H  H98  1  0.18517863  0.11166466  0.38770074  1.0
  H  H99  1  0.98322368  0.11679654  0.38677958  1.0
  H  H100  1  0.79677983  0.06770720  0.33883505  1.0
  H  H101  1  0.14309214  0.92839458  0.22411301  1.0
  H  H102  1  0.95440745  0.88157067  0.17204216  1.0
  H  H103  1  0.75304770  0.88737484  0.17130933  1.0
  C  C104  1  0.44302741  0.70656724  0.24830332  1.0
  C  C105  1  0.36481798  0.81411866  0.26849919  1.0
  C  C106  1  0.30092662  0.79220130  0.14725442  1.0
  C  C107  1  0.25464529  0.71141181  0.21398401  1.0
  C  C108  1  0.37879146  0.68441712  0.12717707  1.0
  C  C109  1  0.49295608  0.78863894  0.18084875  1.0
  C  C110  1  0.05254801  0.59735014  0.12152996  1.0
  C  C111  1  0.93916195  0.48996231  0.09559400  1.0
  C  C112  1  0.95513716  0.55554040  0.00841240  1.0
  C  C113  1  0.13714338  0.49183327  0.10866852  1.0
  C  C114  1  0.14956122  0.55750347  0.02307262  1.0
  C  C115  1  0.03925666  0.45058253  0.99590677  1.0
  C  C116  1  0.75343162  0.72461038  0.05895350  1.0
  C  C117  1  0.78465986  0.78222521  0.02600215  1.0
  C  C118  1  0.72247934  0.83826503  0.03271947  1.0
  C  C119  1  0.75588270  0.89578747  0.00680131  1.0
  C  C120  1  0.69685393  0.95549245  0.01725186  1.0
  C  C121  1  0.73373732  0.01211880  0.99434302  1.0
  C  C122  1  0.88712649  0.95248842  0.94582917  1.0
  C  C123  1  0.91474724  0.83577389  0.96355945  1.0
  C  C124  1  0.88162220  0.78120921  0.99071365  1.0
  C  C125  1  0.82933396  0.01056096  0.95778097  1.0
  C  C126  1  0.87108559  0.07220751  0.93393926  1.0
  C  C127  1  0.85373869  0.89459384  0.97114817  1.0
  C  C128  1  0.67114033  0.54956205  0.21166256  1.0
  C  C129  1  0.64989478  0.49041904  0.24442403  1.0
  C  C130  1  0.72764062  0.44315987  0.24342027  1.0
  C  C131  1  0.70846925  0.38411026  0.26977035  1.0
  C  C132  1  0.60681938  0.37399269  0.29910510  1.0
  C  C133  1  0.52847959  0.42343522  0.30015623  1.0
  C  C134  1  0.54910842  0.48008728  0.27326706  1.0
  C  C135  1  0.78606827  0.33413877  0.26674012  1.0
  C  C136  1  0.76564688  0.27730335  0.29334234  1.0
  C  C137  1  0.58699599  0.31403310  0.32414099  1.0
  C  C138  1  0.66472860  0.26662226  0.32181520  1.0
  C  C139  1  0.64254370  0.20217175  0.34657633  1.0
  C  C140  1  0.82334606  0.72599863  0.23838532  1.0
  C  C141  1  0.88969703  0.77638313  0.29590877  1.0
  C  C142  1  0.84168410  0.82914554  0.33769938  1.0
  C  C143  1  0.90544942  0.87929085  0.38915453  1.0
  C  C144  1  0.85812705  0.93426348  0.43222750  1.0
  C  C145  1  0.08558740  0.92685796  0.44764987  1.0
  C  C146  1  0.02173511  0.87523127  0.39766125  1.0
  C  C147  1  0.06860500  0.81939429  0.35541830  1.0
  C  C148  1  0.00420407  0.77134259  0.30601915  1.0
  C  C149  1  0.03714972  0.97961837  0.48921607  1.0
  C  C150  1  0.10467092  0.03377044  0.54263719  1.0
  C  C151  1  0.92198932  0.98283301  0.48131587  1.0
  C  C152  1  0.67508976  0.30628338  0.01873259  1.0
  C  C153  1  0.79610875  0.30715799  0.01691875  1.0
  C  C154  1  0.63008497  0.35211255  0.07285751  1.0
  C  C155  1  0.51850515  0.35145051  0.07563015  1.0
  C  C156  1  0.33204173  0.30355382  0.02651344  1.0
  C  C157  1  0.14316236  0.25887963  0.97948559  1.0
  C  C158  1  0.44696394  0.30440296  0.02516982  1.0
  C  C159  1  0.49212852  0.25697279  0.97111119  1.0
  C  C160  1  0.60717336  0.25983582  0.96886778  1.0
  C  C161  1  0.41994641  0.20877280  0.92199932  1.0
  C  C162  1  0.26373201  0.25684850  0.97708114  1.0
  C  C163  1  0.30825675  0.20823618  0.92498166  1.0
  C  C164  1  0.94302846  0.24830188  0.70656692  1.0
  C  C165  1  0.86481446  0.26849859  0.81411839  1.0
  C  C166  1  0.80092385  0.14725315  0.79220027  1.0
  C  C167  1  0.75464338  0.21398285  0.71141182  1.0
  C  C168  1  0.87879006  0.12717604  0.68441761  1.0
  C  C169  1  0.99295411  0.18084767  0.78863953  1.0
  C  C170  1  0.55254619  0.12153165  0.59734970  1.0
  C  C171  1  0.43916204  0.09559415  0.48996136  1.0
  C  C172  1  0.45513894  0.00841380  0.55554057  1.0
  C  C173  1  0.63714131  0.10866977  0.49183390  1.0
  C  C174  1  0.64956220  0.02307593  0.55750523  1.0
  C  C175  1  0.53925801  0.99590786  0.45058343  1.0
  C  C176  1  0.25343805  0.05895293  0.72460900  1.0
  C  C177  1  0.28466436  0.02600123  0.78222308  1.0
  C  C178  1  0.22248265  0.03272032  0.83826425  1.0
  C  C179  1  0.25588743  0.00680054  0.89578668  1.0
  C  C180  1  0.19685599  0.01725156  0.95549095  1.0
  C  C181  1  0.23373764  0.99434060  0.01211746  1.0
  C  C182  1  0.38712841  0.94582815  0.95248894  1.0
  C  C183  1  0.41475080  0.96355932  0.83577426  1.0
  C  C184  1  0.38162431  0.99071372  0.78121164  1.0
  C  C185  1  0.32933539  0.95778001  0.01056140  1.0
  C  C186  1  0.37108826  0.93393833  0.07220691  1.0
  C  C187  1  0.35374149  0.97114810  0.89459583  1.0
  C  C188  1  0.17113699  0.21166426  0.54956475  1.0
  C  C189  1  0.14989340  0.24442336  0.49041945  1.0
  C  C190  1  0.22763719  0.24342105  0.44316111  1.0
  C  C191  1  0.20846731  0.26977223  0.38411137  1.0
  C  C192  1  0.10681816  0.29910596  0.37399381  1.0
  C  C193  1  0.02847798  0.30015764  0.42343573  1.0
  C  C194  1  0.04910591  0.27326710  0.48008735  1.0
  C  C195  1  0.28606823  0.26674219  0.33414093  1.0
  C  C196  1  0.26564554  0.29334382  0.27730538  1.0
  C  C197  1  0.08699553  0.32414250  0.31403333  1.0
  C  C198  1  0.16472866  0.32181496  0.26662184  1.0
  C  C199  1  0.14253860  0.34657370  0.20217406  1.0
  C  C200  1  0.32333453  0.23838814  0.72600181  1.0
  C  C201  1  0.38968736  0.29590991  0.77638634  1.0
  C  C202  1  0.34167405  0.33770073  0.82914577  1.0
  C  C203  1  0.40544314  0.38915521  0.87929064  1.0
  C  C204  1  0.35812402  0.43222894  0.93426477  1.0
  C  C205  1  0.58558261  0.44764963  0.92685805  1.0
  C  C206  1  0.52172696  0.39766170  0.87523453  1.0
  C  C207  1  0.56859723  0.35541930  0.81939696  1.0
  C  C208  1  0.50419464  0.30602014  0.77134583  1.0
  C  C209  1  0.53714755  0.48921592  0.97962127  1.0
  C  C210  1  0.60467384  0.54263589  0.03377162  1.0
  C  C211  1  0.42198783  0.48131644  0.98283441  1.0
  C  C212  1  0.17509358  0.01873347  0.30628355  1.0
  C  C213  1  0.29611424  0.01691990  0.30715801  1.0
  C  C214  1  0.13008424  0.07285744  0.35211382  1.0
  C  C215  1  0.01850458  0.07563028  0.35145030  1.0
  C  C216  1  0.83204387  0.02651467  0.30355307  1.0
  C  C217  1  0.64316651  0.97948823  0.25887739  1.0
  C  C218  1  0.94696374  0.02517084  0.30440154  1.0
  C  C219  1  0.99212686  0.97111268  0.25697176  1.0
  C  C220  1  0.10717546  0.96886924  0.25983525  1.0
  C  C221  1  0.91994622  0.92199938  0.20877187  1.0
  C  C222  1  0.76373391  0.97708297  0.25684688  1.0
  C  C223  1  0.80825690  0.92498248  0.20823617  1.0
  N  N224  1  0.47395419  0.71411670  0.17884140  1.0
  N  N225  1  0.34477566  0.74122604  0.26689887  1.0
  N  N226  1  0.28023495  0.71918310  0.14505720  1.0
  N  N227  1  0.39395349  0.82509314  0.19986252  1.0
  N  N228  1  0.94823435  0.56055778  0.08414366  1.0
  N  N229  1  0.03426553  0.45207070  0.07110546  1.0
  N  N230  1  0.14762568  0.56149977  0.09756182  1.0
  N  N231  1  0.04951295  0.51972518  0.98390167  1.0
  N  N232  1  0.97395490  0.17884055  0.71411738  1.0
  N  N233  1  0.84477295  0.26689732  0.74122588  1.0
  N  N234  1  0.78023320  0.14505694  0.71918339  1.0
  N  N235  1  0.89394942  0.19986157  0.82509156  1.0
  N  N236  1  0.44823623  0.08414504  0.56055714  1.0
  N  N237  1  0.53426569  0.07110536  0.45207146  1.0
  N  N238  1  0.64762501  0.09756462  0.56150048  1.0
  N  N239  1  0.54951473  0.98390216  0.51972652  1.0
  O  O240  1  0.81552557  0.67517121  0.05233470  1.0
  O  O241  1  0.66898228  0.72912431  0.09309215  1.0
  O  O242  1  0.83486867  0.13059280  0.96356031  1.0
  O  O243  1  0.93832259  0.06776475  0.88867058  1.0
  O  O244  1  0.76288115  0.55398674  0.18551296  1.0
  O  O245  1  0.59647973  0.59077230  0.21035575  1.0
  O  O246  1  0.71872366  0.17205851  0.36783310  1.0
  O  O247  1  0.53841206  0.18044675  0.34248148  1.0
  O  O248  1  0.87729181  0.68660357  0.19573073  1.0
  O  O249  1  0.71930247  0.72675132  0.23523391  1.0
  O  O250  1  0.05368514  0.06927788  0.58990440  1.0
  O  O251  1  0.20741777  0.04069463  0.53700541  1.0
  O  O252  1  0.10799469  0.31312371  0.01517555  1.0
  O  O253  1  0.08195927  0.20716466  0.94392437  1.0
  O  O254  1  0.85371970  0.33597821  0.07283227  1.0
  O  O255  1  0.83588685  0.28099382  0.96037561  1.0
  O  O256  1  0.31553584  0.05233216  0.67516819  1.0
  O  O257  1  0.16899205  0.09308912  0.72911934  1.0
  O  O258  1  0.33487163  0.96356241  0.13059342  1.0
  O  O259  1  0.43831892  0.88866786  0.06776222  1.0
  O  O260  1  0.26288362  0.18551408  0.55398917  1.0
  O  O261  1  0.09648100  0.21035628  0.59077267  1.0
  O  O262  1  0.21872955  0.36783187  0.17205432  1.0
  O  O263  1  0.03841815  0.34248046  0.18044708  1.0
  O  O264  1  0.37728822  0.19573054  0.68660653  1.0
  O  O265  1  0.21929652  0.23523509  0.72675396  1.0
  O  O266  1  0.55368399  0.58990507  0.06928093  1.0
  O  O267  1  0.70741416  0.53700558  0.04069657  1.0
  O  O268  1  0.60799663  0.01517679  0.31312215  1.0
  O  O269  1  0.58196271  0.94392923  0.20716147  1.0
  O  O270  1  0.35372441  0.07283458  0.33597884  1.0
  O  O271  1  0.33589323  0.96037706  0.28099476  1.0
