# generated using pymatgen
data_AlH7C16N4Cl2O5
_symmetry_space_group_name_H-M   'P 1'
_cell_length_a   6.69403471
_cell_length_b   24.99600125
_cell_length_c   28.50131757
_cell_angle_alpha   89.94669901
_cell_angle_beta   90.27315855
_cell_angle_gamma   89.62658632
_symmetry_Int_Tables_number   1
_chemical_formula_structural   AlH7C16N4Cl2O5
_chemical_formula_sum   'Al4 H28 C64 N16 Cl8 O20'
_cell_volume   4768.79962997
_cell_formula_units_Z   4
loop_
 _symmetry_equiv_pos_site_id
 _symmetry_equiv_pos_as_xyz
  1  'x, y, z'
loop_
 _atom_site_type_symbol
 _atom_site_label
 _atom_site_symmetry_multiplicity
 _atom_site_fract_x
 _atom_site_fract_y
 _atom_site_fract_z
 _atom_site_occupancy
  Al  Al0  1  0.20852537  0.75149421  0.24990416  1.0
  Al  Al1  1  0.79246386  0.24857114  0.75020574  1.0
  Al  Al2  1  0.70858016  0.74927059  0.25065971  1.0
  Al  Al3  1  0.29216294  0.25146600  0.75005639  1.0
  H  H4  1  0.27482433  0.62277741  0.33692683  1.0
  H  H5  1  0.72920194  0.37667736  0.66336072  1.0
  H  H6  1  0.73236571  0.32799545  0.87341703  1.0
  H  H7  1  0.26554066  0.67248757  0.12676827  1.0
  H  H8  1  0.76087252  0.88135519  0.16607123  1.0
  H  H9  1  0.24013772  0.17440668  0.87664542  1.0
  H  H10  1  0.23256556  0.17220620  0.62799139  1.0
  H  H11  1  0.76744516  0.82783127  0.37373794  1.0
  H  H12  1  0.69369546  0.59474695  0.44156076  1.0
  H  H13  1  0.30797450  0.40514511  0.55818432  1.0
  H  H14  1  0.29356998  0.45044567  0.90802074  1.0
  H  H15  1  0.70495292  0.54974144  0.09236149  1.0
  H  H16  1  0.19033218  0.90281928  0.05585485  1.0
  H  H17  1  0.81049637  0.05186152  0.90892075  1.0
  H  H18  1  0.79590730  0.04944279  0.59179488  1.0
  H  H19  1  0.20271575  0.95080573  0.40796951  1.0
  H  H20  1  0.66973055  0.66064324  0.37555570  1.0
  H  H21  1  0.33291011  0.33876485  0.62378486  1.0
  H  H22  1  0.32376774  0.38402901  0.84297456  1.0
  H  H23  1  0.67305155  0.61683405  0.15683177  1.0
  H  H24  1  0.16355883  0.84004079  0.12404914  1.0
  H  H25  1  0.83550787  0.12035930  0.84507853  1.0
  H  H26  1  0.83039078  0.11636341  0.65634087  1.0
  H  H27  1  0.17126455  0.88352819  0.34356876  1.0
  H  H28  1  0.45507148  0.67977089  0.24665644  1.0
  H  H29  1  0.54733548  0.32087400  0.75186980  1.0
  H  H30  1  0.95164513  0.82109839  0.24942548  1.0
  H  H31  1  0.05117499  0.17913826  0.75287327  1.0
  C  C32  1  0.46067156  0.81373282  0.31443833  1.0
  C  C33  1  0.54337781  0.18576949  0.68678811  1.0
  C  C34  1  0.53889631  0.18738942  0.81492480  1.0
  C  C35  1  0.45758408  0.81618550  0.18763367  1.0
  C  C36  1  0.96050622  0.68667733  0.18614657  1.0
  C  C37  1  0.03553245  0.31439975  0.81353574  1.0
  C  C38  1  0.04087835  0.31386835  0.68636212  1.0
  C  C39  1  0.96386353  0.68547279  0.31339570  1.0
  C  C40  1  0.14804702  0.61662415  0.36005979  1.0
  C  C41  1  0.85535727  0.38286567  0.64007900  1.0
  C  C42  1  0.85706396  0.35411055  0.88177320  1.0
  C  C43  1  0.14078890  0.64636891  0.11843347  1.0
  C  C44  1  0.63531500  0.88628786  0.14200424  1.0
  C  C45  1  0.36526079  0.14752082  0.88382260  1.0
  C  C46  1  0.35796182  0.14615458  0.61925252  1.0
  C  C47  1  0.64192993  0.85399320  0.38209251  1.0
  C  C48  1  0.15846262  0.57856495  0.39571829  1.0
  C  C49  1  0.84405135  0.42103605  0.60454033  1.0
  C  C50  1  0.84443190  0.38925683  0.91955103  1.0
  C  C51  1  0.15392728  0.61099724  0.08081986  1.0
  C  C52  1  0.64594524  0.92336228  0.10558385  1.0
  C  C53  1  0.35524687  0.11124965  0.92089624  1.0
  C  C54  1  0.34388170  0.11116338  0.58135369  1.0
  C  C55  1  0.65498328  0.88946000  0.41962674  1.0
  C  C56  1  0.99556833  0.57123040  0.42616139  1.0
  C  C57  1  0.00633251  0.42854486  0.57394807  1.0
  C  C58  1  0.00231697  0.42476631  0.92936930  1.0
  C  C59  1  0.99619878  0.57541520  0.07103679  1.0
  C  C60  1  0.48736575  0.92828666  0.07286424  1.0
  C  C61  1  0.51335897  0.07454452  0.92906488  1.0
  C  C62  1  0.50215683  0.07551661  0.57112834  1.0
  C  C63  1  0.49598429  0.92507048  0.42932509  1.0
  C  C64  1  0.82029517  0.60125004  0.41840053  1.0
  C  C65  1  0.18169992  0.39848167  0.58139988  1.0
  C  C66  1  0.17251056  0.42277371  0.90060609  1.0
  C  C67  1  0.82564183  0.57756462  0.09965835  1.0
  C  C68  1  0.31357925  0.89799641  0.08064266  1.0
  C  C69  1  0.68712829  0.07931112  0.90162353  1.0
  C  C70  1  0.67480530  0.07735049  0.59941308  1.0
  C  C71  1  0.32432606  0.92294620  0.40071435  1.0
  C  C72  1  0.80675854  0.63795273  0.38182738  1.0
  C  C73  1  0.19585118  0.36151328  0.61775173  1.0
  C  C74  1  0.18904383  0.38621498  0.86414702  1.0
  C  C75  1  0.80821654  0.61449718  0.13580942  1.0
  C  C76  1  0.29909946  0.86296410  0.11827900  1.0
  C  C77  1  0.70058240  0.11699865  0.86602922  1.0
  C  C78  1  0.69358108  0.11410165  0.63563572  1.0
  C  C79  1  0.30706962  0.88593912  0.36463892  1.0
  C  C80  1  0.97230024  0.64619019  0.35289496  1.0
  C  C81  1  0.03107780  0.35319219  0.64691335  1.0
  C  C82  1  0.02926828  0.35215484  0.85416469  1.0
  C  C83  1  0.96775602  0.64863997  0.14573790  1.0
  C  C84  1  0.46305431  0.85584682  0.14843620  1.0
  C  C85  1  0.53624007  0.15008986  0.85589170  1.0
  C  C86  1  0.53307835  0.14811006  0.64616873  1.0
  C  C87  1  0.46784650  0.85175290  0.35481383  1.0
  C  C88  1  0.00097059  0.46710034  0.53481458  1.0
  C  C89  1  0.00038094  0.53292306  0.46547872  1.0
  C  C90  1  0.00067769  0.53548260  0.03306538  1.0
  C  C91  1  0.99816447  0.46458694  0.96742830  1.0
  C  C92  1  0.50432055  0.03050740  0.96314306  1.0
  C  C93  1  0.49580703  0.96175812  0.03052673  1.0
  C  C94  1  0.49985764  0.96490662  0.46734831  1.0
  C  C95  1  0.49676236  0.03568589  0.53307871  1.0
  N  N96  1  0.83807622  0.50158232  0.47087137  1.0
  N  N97  1  0.16288504  0.49862012  0.52955949  1.0
  N  N98  1  0.08206781  0.51252657  0.95791545  1.0
  N  N99  1  0.91684466  0.48754250  0.04258703  1.0
  N  N100  1  0.32145889  0.97492057  0.00921149  1.0
  N  N101  1  0.67840133  0.00730968  0.97658870  1.0
  N  N102  1  0.58194022  0.98756461  0.54263047  1.0
  N  N103  1  0.41352921  0.01288049  0.45788970  1.0
  N  N104  1  0.83839660  0.46770674  0.50645919  1.0
  N  N105  1  0.16255716  0.53249971  0.49397342  1.0
  N  N106  1  0.08306135  0.54886572  0.99144669  1.0
  N  N107  1  0.91588260  0.45119452  0.00905582  1.0
  N  N108  1  0.32533331  0.00863679  0.97373269  1.0
  N  N109  1  0.67445720  0.97085050  0.00989758  1.0
  N  N110  1  0.58319993  0.95127941  0.50906249  1.0
  N  N111  1  0.41222172  0.04918053  0.49147554  1.0
  Cl  Cl112  1  0.36947301  0.53860586  0.39947967  1.0
  Cl  Cl113  1  0.63285665  0.46097554  0.60111919  1.0
  Cl  Cl114  1  0.62497163  0.38948750  0.95126224  1.0
  Cl  Cl115  1  0.37365944  0.61061504  0.04922429  1.0
  Cl  Cl116  1  0.85415944  0.96383235  0.10402021  1.0
  Cl  Cl117  1  0.14805284  0.11495246  0.95669524  1.0
  Cl  Cl118  1  0.12257250  0.11130336  0.54987792  1.0
  Cl  Cl119  1  0.87593919  0.88990638  0.45124310  1.0
  O  O120  1  0.62571740  0.80086029  0.20415775  1.0
  O  O121  1  0.37048387  0.20589719  0.80137935  1.0
  O  O122  1  0.37717962  0.19949384  0.70479587  1.0
  O  O123  1  0.62871736  0.79703198  0.29957662  1.0
  O  O124  1  0.13060007  0.70087766  0.29699803  1.0
  O  O125  1  0.87550637  0.30067158  0.70488221  1.0
  O  O126  1  0.86834817  0.29534027  0.80051822  1.0
  O  O127  1  0.12851866  0.70300939  0.20127902  1.0
  O  O128  1  0.29010873  0.80166669  0.29762097  1.0
  O  O129  1  0.71567412  0.20052790  0.70059474  1.0
  O  O130  1  0.70742627  0.19698273  0.79613990  1.0
  O  O131  1  0.28648677  0.80111672  0.20164275  1.0
  O  O132  1  0.78973895  0.69915681  0.20262628  1.0
  O  O133  1  0.20446071  0.30479354  0.79472895  1.0
  O  O134  1  0.21318213  0.29722734  0.69897510  1.0
  O  O135  1  0.79166687  0.69981790  0.29872461  1.0
  O  O136  1  0.45795652  0.71829150  0.24978334  1.0
  O  O137  1  0.54333799  0.28227190  0.74980230  1.0
  O  O138  1  0.95649134  0.78243226  0.25044740  1.0
  O  O139  1  0.04497460  0.21772941  0.75060477  1.0
