# generated using pymatgen
data_CuH2C8N3
_symmetry_space_group_name_H-M   'P 1'
_cell_length_a   35.37462387
_cell_length_b   35.77641967
_cell_length_c   35.76737340
_cell_angle_alpha   89.99842021
_cell_angle_beta   89.99324540
_cell_angle_gamma   89.99180617
_symmetry_Int_Tables_number   1
_chemical_formula_structural   CuH2C8N3
_chemical_formula_sum   'Cu12 H24 C96 N36'
_cell_volume   45266.37825297
_cell_formula_units_Z   12
loop_
 _symmetry_equiv_pos_site_id
 _symmetry_equiv_pos_as_xyz
  1  'x, y, z'
loop_
 _atom_site_type_symbol
 _atom_site_label
 _atom_site_symmetry_multiplicity
 _atom_site_fract_x
 _atom_site_fract_y
 _atom_site_fract_z
 _atom_site_occupancy
  Cu  Cu0  1  0.37505297  0.59069598  0.65976547  1.0
  Cu  Cu1  1  0.33830186  0.62636117  0.58730313  1.0
  Cu  Cu2  1  0.41182340  0.66332962  0.62414093  1.0
  Cu  Cu3  1  0.62475017  0.91005542  0.15940512  1.0
  Cu  Cu4  1  0.66143647  0.87435130  0.08693025  1.0
  Cu  Cu5  1  0.58787059  0.83771160  0.12362113  1.0
  Cu  Cu6  1  0.87477335  0.40938335  0.84017458  1.0
  Cu  Cu7  1  0.83777673  0.37357801  0.91260032  1.0
  Cu  Cu8  1  0.91147562  0.33672992  0.87585652  1.0
  Cu  Cu9  1  0.12501869  0.08989285  0.34047226  1.0
  Cu  Cu10  1  0.16197918  0.12569993  0.41301218  1.0
  Cu  Cu11  1  0.08824431  0.16228129  0.37624569  1.0
  H  H12  1  0.31987085  0.52193056  0.67347681  1.0
  H  H13  1  0.26929863  0.57007946  0.57407765  1.0
  H  H14  1  0.48070271  0.67661624  0.68020937  1.0
  H  H15  1  0.43037335  0.57711671  0.72836060  1.0
  H  H16  1  0.32520715  0.68193117  0.51908719  1.0
  H  H17  1  0.42498734  0.73158306  0.56892413  1.0
  H  H18  1  0.68009453  0.97842547  0.17325261  1.0
  H  H19  1  0.73051194  0.93023701  0.07375217  1.0
  H  H20  1  0.51882587  0.82463848  0.17975875  1.0
  H  H21  1  0.56958863  0.92384600  0.22803825  1.0
  H  H22  1  0.67463248  0.81915322  0.01863151  1.0
  H  H23  1  0.57461032  0.76957414  0.06814782  1.0
  H  H24  1  0.81947509  0.47809860  0.82650515  1.0
  H  H25  1  0.76873786  0.42976836  0.92573488  1.0
  H  H26  1  0.98060846  0.32353187  0.81986807  1.0
  H  H27  1  0.93035952  0.42304614  0.77166923  1.0
  H  H28  1  0.82451816  0.31802041  0.98072145  1.0
  H  H29  1  0.92448520  0.26842240  0.93114955  1.0
  H  H30  1  0.18044296  0.02146849  0.32671784  1.0
  H  H31  1  0.23100401  0.06975322  0.42604863  1.0
  H  H32  1  0.01897770  0.17525157  0.32014558  1.0
  H  H33  1  0.06967469  0.07597021  0.27191991  1.0
  H  H34  1  0.17524487  0.18100886  0.48118687  1.0
  H  H35  1  0.07516923  0.23055613  0.43177013  1.0
  C  C36  1  0.31234977  0.53859397  0.64926791  1.0
  C  C37  1  0.28223293  0.53355849  0.62389416  1.0
  C  C38  1  0.28648820  0.56323119  0.59822582  1.0
  C  C39  1  0.46354448  0.65245900  0.68707089  1.0
  C  C40  1  0.46783564  0.62679916  0.71671123  1.0
  C  C41  1  0.43779912  0.60136015  0.71171433  1.0
  C  C42  1  0.34945850  0.68914872  0.53615892  1.0
  C  C43  1  0.37508609  0.71902725  0.53179366  1.0
  C  C44  1  0.40071798  0.71455163  0.56164972  1.0
  C  C45  1  0.68757950  0.96177767  0.14902291  1.0
  C  C46  1  0.71767466  0.96669815  0.12362720  1.0
  C  C47  1  0.71333738  0.93712527  0.09790083  1.0
  C  C48  1  0.53610298  0.84871655  0.18660367  1.0
  C  C49  1  0.53192678  0.87437199  0.21625798  1.0
  C  C50  1  0.56206465  0.89968089  0.21131966  1.0
  C  C51  1  0.65029500  0.81194517  0.03559969  1.0
  C  C52  1  0.62460582  0.78214463  0.03110179  1.0
  C  C53  1  0.59892205  0.78656809  0.06094287  1.0
  C  C54  1  0.81192326  0.46138921  0.85067525  1.0
  C  C55  1  0.78175371  0.46634981  0.87600982  1.0
  C  C56  1  0.78599638  0.43665344  0.90164329  1.0
  C  C57  1  0.96344350  0.34768783  0.81299450  1.0
  C  C58  1  0.96782747  0.37336764  0.78337254  1.0
  C  C59  1  0.93775396  0.39880028  0.78833176  1.0
  C  C60  1  0.84883829  0.31080219  0.96373579  1.0
  C  C61  1  0.87449032  0.28094359  0.96820522  1.0
  C  C62  1  0.90019745  0.28544529  0.93839579  1.0
  C  C63  1  0.18792129  0.03817146  0.35090658  1.0
  C  C64  1  0.21806428  0.03328113  0.37624332  1.0
  C  C65  1  0.21377420  0.06287401  0.40194294  1.0
  C  C66  1  0.03623131  0.15116112  0.31327902  1.0
  C  C67  1  0.03196982  0.12545444  0.28365347  1.0
  C  C68  1  0.06216504  0.10018074  0.28858741  1.0
  C  C69  1  0.15088300  0.18821450  0.46424577  1.0
  C  C70  1  0.12520907  0.21804095  0.46874651  1.0
  C  C71  1  0.09948364  0.21355004  0.43894739  1.0
  C  C72  1  0.84903686  0.09836397  0.12506958  1.0
  C  C73  1  0.87504408  0.15025121  0.09933525  1.0
  C  C74  1  0.90100075  0.12454278  0.15132847  1.0
  C  C75  1  0.15127724  0.40113895  0.62516003  1.0
  C  C76  1  0.12538170  0.34908465  0.59954486  1.0
  C  C77  1  0.09931212  0.37484875  0.65146472  1.0
  C  C78  1  0.34938152  0.90152596  0.37503633  1.0
  C  C79  1  0.37544188  0.84966073  0.40074622  1.0
  C  C80  1  0.40131139  0.87531314  0.34873316  1.0
  C  C81  1  0.65092282  0.59888548  0.87500628  1.0
  C  C82  1  0.59904031  0.62523989  0.84867823  1.0
  C  C83  1  0.62504340  0.65095360  0.90059128  1.0
  C  C84  1  0.74542061  0.99454068  0.12390015  1.0
  C  C85  1  0.76967647  0.01905183  0.12417830  1.0
  C  C86  1  0.79640363  0.04583987  0.12450274  1.0
  C  C87  1  0.82079006  0.07014933  0.12484639  1.0
  C  C88  1  0.25457141  0.50553744  0.62414664  1.0
  C  C89  1  0.23041612  0.48089494  0.62437971  1.0
  C  C90  1  0.20376170  0.45395496  0.62468666  1.0
  C  C91  1  0.17948566  0.42949299  0.62490843  1.0
  C  C92  1  0.24584347  0.00547240  0.37594472  1.0
  C  C93  1  0.27010823  0.98097062  0.37571149  1.0
  C  C94  1  0.29682304  0.95414838  0.37544160  1.0
  C  C95  1  0.32116157  0.92978518  0.37522103  1.0
  C  C96  1  0.75406903  0.49434883  0.87578842  1.0
  C  C97  1  0.72988575  0.51896662  0.87549490  1.0
  C  C98  1  0.70327530  0.54595651  0.87531526  1.0
  C  C99  1  0.67907266  0.57049215  0.87522360  1.0
  C  C100  1  0.00424062  0.12506729  0.25573520  1.0
  C  C101  1  0.97995808  0.12473660  0.23121636  1.0
  C  C102  1  0.95332848  0.12464580  0.20426365  1.0
  C  C103  1  0.92914803  0.12467208  0.17971203  1.0
  C  C104  1  0.49551359  0.62654342  0.74464524  1.0
  C  C105  1  0.51981008  0.62624910  0.76913325  1.0
  C  C106  1  0.54651794  0.62589100  0.79597846  1.0
  C  C107  1  0.57085073  0.62551336  0.82036529  1.0
  C  C108  1  0.99561551  0.37363901  0.75549839  1.0
  C  C109  1  0.01997801  0.37395254  0.73105114  1.0
  C  C110  1  0.04673900  0.37431222  0.70421071  1.0
  C  C111  1  0.07106827  0.37462013  0.67979119  1.0
  C  C112  1  0.50428802  0.87468568  0.24420901  1.0
  C  C113  1  0.48009665  0.87498911  0.26878900  1.0
  C  C114  1  0.45354908  0.87514073  0.29577654  1.0
  C  C115  1  0.42942734  0.87515431  0.32036166  1.0
  C  C116  1  0.87448469  0.25323581  0.99583467  1.0
  C  C117  1  0.87458329  0.22897103  0.02010045  1.0
  C  C118  1  0.87475755  0.20241697  0.04682730  1.0
  C  C119  1  0.87498611  0.17834183  0.07120775  1.0
  C  C120  1  0.37515476  0.74670849  0.50417014  1.0
  C  C121  1  0.37528193  0.77097238  0.47992047  1.0
  C  C122  1  0.37540733  0.79749239  0.45318824  1.0
  C  C123  1  0.37546962  0.82159217  0.42884658  1.0
  C  C124  1  0.62464385  0.75450534  0.00344313  1.0
  C  C125  1  0.62471872  0.73021471  0.97922191  1.0
  C  C126  1  0.62483749  0.70348543  0.95269183  1.0
  C  C127  1  0.62501989  0.67914750  0.92858563  1.0
  C  C128  1  0.12528919  0.24571967  0.49640161  1.0
  C  C129  1  0.12536733  0.26999674  0.52065059  1.0
  C  C130  1  0.12539719  0.29666401  0.54727417  1.0
  C  C131  1  0.12542476  0.32090919  0.57149069  1.0
  N  N132  1  0.31661259  0.58405392  0.60776241  1.0
  N  N133  1  0.33265468  0.56873958  0.63931053  1.0
  N  N134  1  0.41743838  0.61129387  0.68159899  1.0
  N  N135  1  0.43342131  0.64285670  0.66630357  1.0
  N  N136  1  0.39091557  0.68449055  0.58198507  1.0
  N  N137  1  0.35923153  0.66869389  0.56616700  1.0
  N  N138  1  0.68313424  0.91644695  0.10743323  1.0
  N  N139  1  0.66716010  0.93176308  0.13898541  1.0
  N  N140  1  0.58236185  0.88968014  0.18119233  1.0
  N  N141  1  0.56627250  0.85820417  0.16583933  1.0
  N  N142  1  0.60875483  0.81653186  0.08139893  1.0
  N  N143  1  0.64049806  0.83227496  0.06566483  1.0
  N  N144  1  0.81617140  0.41588463  0.89212494  1.0
  N  N145  1  0.83226529  0.43125662  0.86062562  1.0
  N  N146  1  0.91729650  0.38884623  0.81838996  1.0
  N  N147  1  0.93324465  0.35725548  0.83370554  1.0
  N  N148  1  0.89042684  0.31548950  0.91800365  1.0
  N  N149  1  0.85867196  0.33125236  0.93374314  1.0
  N  N150  1  0.18355517  0.08355849  0.39244674  1.0
  N  N151  1  0.16751028  0.06821745  0.36093277  1.0
  N  N152  1  0.08253346  0.11021994  0.31866133  1.0
  N  N153  1  0.06645736  0.14172715  0.33401442  1.0
  N  N154  1  0.10926040  0.18353269  0.41850649  1.0
  N  N155  1  0.14104125  0.16781977  0.43423453  1.0
  N  N156  1  0.84747094  0.12420826  0.09758420  1.0
  N  N157  1  0.90259231  0.15198753  0.12543249  1.0
  N  N158  1  0.87499074  0.09694874  0.15271938  1.0
  N  N159  1  0.15289870  0.37520837  0.59774596  1.0
  N  N160  1  0.09782178  0.34733721  0.62563709  1.0
  N  N161  1  0.12526132  0.40252537  0.65278852  1.0
  N  N162  1  0.34787289  0.87571439  0.40254778  1.0
  N  N163  1  0.40295464  0.84788265  0.37462134  1.0
  N  N164  1  0.37529427  0.90290138  0.34734379  1.0
  N  N165  1  0.62494496  0.59753045  0.84736284  1.0
  N  N166  1  0.59751862  0.65275480  0.87448753  1.0
  N  N167  1  0.65253335  0.62480322  0.90242065  1.0
