# generated using pymatgen
data_InH24C40(NO4)2
_symmetry_space_group_name_H-M   'P 1'
_cell_length_a   20.68437667
_cell_length_b   20.68403714
_cell_length_c   22.75726602
_cell_angle_alpha   105.17499207
_cell_angle_beta   103.15472967
_cell_angle_gamma   117.49510565
_symmetry_Int_Tables_number   1
_chemical_formula_structural   InH24C40(NO4)2
_chemical_formula_sum   'In4 H96 C160 N8 O32'
_cell_volume   7613.92552745
_cell_formula_units_Z   4
loop_
 _symmetry_equiv_pos_site_id
 _symmetry_equiv_pos_as_xyz
  1  'x, y, z'
loop_
 _atom_site_type_symbol
 _atom_site_label
 _atom_site_symmetry_multiplicity
 _atom_site_fract_x
 _atom_site_fract_y
 _atom_site_fract_z
 _atom_site_occupancy
  In  In0  1  0.93823186  0.99730769  0.18658826  1.0
  In  In1  1  0.81067042  0.25157032  0.31341871  1.0
  In  In2  1  0.06172112  0.00267184  0.81336797  1.0
  In  In3  1  0.18936121  0.74841918  0.68665205  1.0
  H  H4  1  0.20324808  0.52676558  0.58882437  1.0
  H  H5  1  0.93808778  0.11450631  0.91121111  1.0
  H  H6  1  0.79675911  0.47326334  0.41123496  1.0
  H  H7  1  0.06186237  0.88543501  0.08874872  1.0
  H  H8  1  0.03104248  0.27296661  0.31658865  1.0
  H  H9  1  0.95644088  0.21456747  0.18345000  1.0
  H  H10  1  0.96892789  0.72702306  0.68340696  1.0
  H  H11  1  0.04351604  0.78537019  0.81652886  1.0
  H  H12  1  0.29928910  0.71142025  0.52136480  1.0
  H  H13  1  0.19018016  0.27816395  0.97862329  1.0
  H  H14  1  0.70072522  0.28858450  0.47867998  1.0
  H  H15  1  0.80979185  0.72180001  0.02134489  1.0
  H  H16  1  0.97075082  0.86553930  0.31205376  1.0
  H  H17  1  0.55346193  0.15875796  0.18788268  1.0
  H  H18  1  0.02931407  0.13454911  0.68798104  1.0
  H  H19  1  0.44660730  0.84129145  0.81209295  1.0
  H  H20  1  0.57042950  0.62786512  0.32759996  1.0
  H  H21  1  0.30005426  0.74284840  0.17244237  1.0
  H  H22  1  0.42959473  0.37216646  0.67242274  1.0
  H  H23  1  0.69994658  0.25714213  0.82755658  1.0
  H  H24  1  0.23226813  0.44302435  0.51045150  1.0
  H  H25  1  0.93270591  0.22182715  0.98966501  1.0
  H  H26  1  0.76770453  0.55697339  0.48961120  1.0
  H  H27  1  0.06723769  0.77809544  0.01028325  1.0
  H  H28  1  0.13769500  0.41821213  0.38479306  1.0
  H  H29  1  0.03355997  0.25309851  0.11531635  1.0
  H  H30  1  0.86226778  0.58174604  0.61523251  1.0
  H  H31  1  0.96637884  0.74683678  0.88464817  1.0
  H  H32  1  0.98691624  0.89166881  0.52835373  1.0
  H  H33  1  0.36335202  0.95857452  0.97157786  1.0
  H  H34  1  0.01317741  0.10838170  0.47166720  1.0
  H  H35  1  0.63666589  0.04146459  0.02837601  1.0
  H  H36  1  0.70592438  0.70368614  0.33333333  1.0
  H  H37  1  0.37027223  0.87258765  0.16669306  1.0
  H  H38  1  0.29410359  0.29634117  0.66671581  1.0
  H  H39  1  0.62976059  0.12739500  0.83328263  1.0
  H  H40  1  0.93287687  0.62265468  0.50392274  1.0
  H  H41  1  0.11876648  0.92889314  0.99607162  1.0
  H  H42  1  0.06718963  0.37738743  0.49609152  1.0
  H  H43  1  0.88122930  0.07112890  0.00390510  1.0
  H  H44  1  0.31583631  0.36632606  0.37346285  1.0
  H  H45  1  0.99258857  0.44224746  0.12632167  1.0
  H  H46  1  0.68412368  0.63361972  0.62655273  1.0
  H  H47  1  0.00732675  0.55768938  0.87364671  1.0
  H  H48  1  0.32798663  0.62849771  0.44224103  1.0
  H  H49  1  0.18636760  0.38591836  0.05783541  1.0
  H  H50  1  0.67197923  0.37147424  0.55778994  1.0
  H  H51  1  0.81361265  0.61403807  0.94213839  1.0
  H  H52  1  0.20684741  0.22126589  0.30254762  1.0
  H  H53  1  0.91844191  0.40416283  0.19727046  1.0
  H  H54  1  0.79310294  0.77869817  0.69745339  1.0
  H  H55  1  0.08147614  0.59576365  0.80268878  1.0
  H  H56  1  0.94082310  0.78503405  0.37910828  1.0
  H  H57  1  0.40590021  0.06164542  0.12077016  1.0
  H  H58  1  0.05922549  0.21501341  0.62090053  1.0
  H  H59  1  0.59416895  0.93839354  0.87921414  1.0
  H  H60  1  0.66707634  0.65282160  0.52790051  1.0
  H  H61  1  0.12476992  0.63920501  0.97210015  1.0
  H  H62  1  0.33294805  0.34721641  0.47212919  1.0
  H  H63  1  0.87517057  0.36077037  0.02787635  1.0
  H  H64  1  0.09073054  0.88019123  0.59867234  1.0
  H  H65  1  0.28153717  0.99210455  0.90132593  1.0
  H  H66  1  0.90934989  0.11986251  0.40135773  1.0
  H  H67  1  0.71848143  0.00794125  0.09863700  1.0
  H  H68  1  0.82844367  0.63275207  0.43240531  1.0
  H  H69  1  0.20038802  0.89596237  0.06752603  1.0
  H  H70  1  0.17162596  0.36729973  0.56761743  1.0
  H  H71  1  0.79960567  0.10405790  0.93244356  1.0
  H  H72  1  0.43179590  0.58594597  0.53222993  1.0
  H  H73  1  0.05363098  0.39954592  0.96778146  1.0
  H  H74  1  0.56821196  0.41409066  0.46780730  1.0
  H  H75  1  0.94630300  0.60042726  0.03217494  1.0
  H  H76  1  0.56625818  0.65046728  0.53373612  1.0
  H  H77  1  0.11654961  0.53252067  0.96626760  1.0
  H  H78  1  0.43373597  0.34956057  0.46628097  1.0
  H  H79  1  0.88340518  0.46747077  0.03371185  1.0
  H  H80  1  0.81431936  0.93599053  0.35124676  1.0
  H  H81  1  0.58488951  0.96322274  0.14901388  1.0
  H  H82  1  0.18575052  0.06410670  0.64882369  1.0
  H  H83  1  0.41518734  0.03679393  0.85092493  1.0
  H  H84  1  0.78702978  0.85996086  0.42196792  1.0
  H  H85  1  0.43817468  0.86514984  0.07821040  1.0
  H  H86  1  0.21301693  0.14007798  0.57805911  1.0
  H  H87  1  0.56190516  0.13486149  0.92174098  1.0
  H  H88  1  0.80191892  0.72897908  0.53395061  1.0
  H  H89  1  0.19500817  0.76797125  0.96602810  1.0
  H  H90  1  0.19810128  0.27103205  0.46607194  1.0
  H  H91  1  0.80496187  0.23200536  0.03393541  1.0
  H  H92  1  0.32997951  0.46174745  0.31776827  1.0
  H  H93  1  0.14403925  0.51217281  0.18226238  1.0
  H  H94  1  0.67001455  0.53825676  0.68226636  1.0
  H  H95  1  0.85591221  0.48778357  0.81773155  1.0
  H  H96  1  0.46428236  0.52676482  0.31880908  1.0
  H  H97  1  0.20794284  0.64545631  0.18122478  1.0
  H  H98  1  0.53570761  0.47324907  0.68122209  1.0
  H  H99  1  0.79204023  0.35451663  0.81877326  1.0
  C  C100  1  0.11314242  0.23891081  0.30581965  1.0
  C  C101  1  0.93293432  0.30726578  0.19407484  1.0
  C  C102  1  0.88682504  0.76107160  0.69418780  1.0
  C  C103  1  0.06698755  0.69265628  0.80589310  1.0
  C  C104  1  0.05004133  0.15182512  0.26426047  1.0
  C  C105  1  0.88747854  0.28570218  0.23568964  1.0
  C  C106  1  0.94991605  0.84817556  0.73570733  1.0
  C  C107  1  0.11249257  0.71424879  0.76432639  1.0
  C  C108  1  0.24963151  0.62333007  0.55909528  1.0
  C  C109  1  0.06437185  0.19070056  0.94089872  1.0
  C  C110  1  0.75039371  0.37669118  0.44096242  1.0
  C  C111  1  0.93559378  0.80927502  0.05905599  1.0
  C  C112  1  0.37142984  0.51910276  0.42497906  1.0
  C  C113  1  0.09409766  0.44646510  0.07503622  1.0
  C  C114  1  0.62855264  0.48088654  0.57505736  1.0
  C  C115  1  0.90583014  0.55349155  0.92493526  1.0
  C  C116  1  0.22997764  0.67118038  0.60440436  1.0
  C  C117  1  0.06691261  0.12575520  0.89555126  1.0
  C  C118  1  0.77007744  0.32885648  0.39566960  1.0
  C  C119  1  0.93305642  0.87423075  0.10440368  1.0
  C  C120  1  0.23068503  0.54783622  0.55636206  1.0
  C  C121  1  0.99160934  0.17441901  0.94367298  1.0
  C  C122  1  0.76931870  0.45217904  0.44369198  1.0
  C  C123  1  0.00834550  0.82552928  0.05627831  1.0
  C  C124  1  0.09365139  0.29434415  0.32920019  1.0
  C  C125  1  0.96510580  0.26449331  0.17077017  1.0
  C  C126  1  0.90631852  0.70563531  0.67081206  1.0
  C  C127  1  0.03481962  0.73542941  0.82919129  1.0
  C  C128  1  0.23420786  0.40207917  0.38405723  1.0
  C  C129  1  0.01790472  0.35014640  0.11587763  1.0
  C  C130  1  0.76576979  0.59789004  0.61598476  1.0
  C  C131  1  0.98199998  0.64977059  0.88406553  1.0
  C  C132  1  0.28136953  0.53109878  0.47194822  1.0
  C  C133  1  0.05925210  0.30950058  0.02812809  1.0
  C  C134  1  0.71860278  0.46887733  0.52808873  1.0
  C  C135  1  0.94070152  0.69045166  0.97183252  1.0
  C  C136  1  0.28562495  0.65283668  0.51860405  1.0
  C  C137  1  0.13435275  0.26721146  0.98140469  1.0
  C  C138  1  0.71438406  0.34716697  0.48144260  1.0
  C  C139  1  0.86561578  0.73275955  0.01855681  1.0
  C  C140  1  0.07800692  0.74495958  0.59850196  1.0
  C  C141  1  0.14641399  0.97949051  0.90154499  1.0
  C  C142  1  0.92206172  0.25508215  0.40157154  1.0
  C  C143  1  0.85353970  0.02046187  0.09838237  1.0
  C  C144  1  0.93078512  0.86353507  0.33658794  1.0
  C  C145  1  0.52696903  0.09426114  0.16340204  1.0
  C  C146  1  0.06927027  0.13653940  0.66344187  1.0
  C  C147  1  0.47310406  0.90577837  0.83657566  1.0
  C  C148  1  0.90156804  0.76268954  0.47730713  1.0
  C  C149  1  0.28546415  0.92424620  0.02265156  1.0
  C  C150  1  0.09849482  0.23735815  0.52271685  1.0
  C  C151  1  0.71454868  0.07576608  0.97731368  1.0
  C  C152  1  0.62068061  0.64952737  0.37302196  1.0
  C  C153  1  0.27631905  0.74767155  0.12700665  1.0
  C  C154  1  0.37933895  0.35050319  0.62700625  1.0
  C  C155  1  0.72367089  0.25231593  0.87298385  1.0
  C  C156  1  0.52680053  0.59403669  0.42640787  1.0
  C  C157  1  0.16748147  0.60038439  0.07361031  1.0
  C  C158  1  0.47319833  0.40598761  0.57361882  1.0
  C  C159  1  0.83245641  0.39958783  0.92638032  1.0
  C  C160  1  0.24665317  0.50179466  0.51320169  1.0
  C  C161  1  0.98871927  0.23350672  0.98687100  1.0
  C  C162  1  0.75333029  0.49820077  0.48684860  1.0
  C  C163  1  0.01123396  0.76643756  0.01308404  1.0
  C  C164  1  0.01713766  0.75091806  0.55490290  1.0
  C  C165  1  0.19604063  0.96224873  0.94511288  1.0
  C  C166  1  0.98294246  0.24913119  0.44514714  1.0
  C  C167  1  0.80394147  0.03774099  0.05483273  1.0
  C  C168  1  0.60701293  0.63504222  0.42776993  1.0
  C  C169  1  0.20708319  0.67925230  0.07225304  1.0
  C  C170  1  0.39299501  0.36498546  0.57225717  1.0
  C  C171  1  0.79288025  0.32073218  0.92773797  1.0
  C  C172  1  0.15343207  0.37544500  0.36744538  1.0
  C  C173  1  0.00800280  0.28607162  0.13256899  1.0
  C  C174  1  0.84654389  0.62452492  0.63258838  1.0
  C  C175  1  0.99190874  0.71384538  0.86737838  1.0
  C  C176  1  0.89369136  0.90444611  0.32745214  1.0
  C  C177  1  0.57707493  0.06638357  0.17264371  1.0
  C  C178  1  0.10636796  0.09563838  0.67258412  1.0
  C  C179  1  0.42299694  0.93364495  0.82732123  1.0
  C  C180  1  0.97578688  0.83302129  0.52278498  1.0
  C  C181  1  0.31027508  0.95300122  0.97716552  1.0
  C  C182  1  0.02429041  0.16702276  0.47723662  1.0
  C  C183  1  0.68973836  0.04702983  0.02279878  1.0
  C  C184  1  0.69702655  0.69288986  0.37603644  1.0
  C  C185  1  0.31675332  0.82097916  0.12396484  1.0
  C  C186  1  0.30299960  0.30713587  0.62399472  1.0
  C  C187  1  0.68325761  0.17900774  0.87601144  1.0
  C  C188  1  0.94335811  0.68085129  0.50863714  1.0
  C  C189  1  0.17227654  0.93471240  0.99137400  1.0
  C  C190  1  0.05671743  0.31920120  0.49139942  1.0
  C  C191  1  0.82771319  0.06529050  0.00858479  1.0
  C  C192  1  0.25354156  0.34612739  0.36041705  1.0
  C  C193  1  0.98544989  0.39301718  0.13939857  1.0
  C  C194  1  0.74642646  0.65383548  0.63961560  1.0
  C  C195  1  0.01445791  0.60690357  0.86055373  1.0
  C  C196  1  0.76394661  0.72315773  0.43433439  1.0
  C  C197  1  0.28881691  0.82959372  0.06564043  1.0
  C  C198  1  0.23609035  0.27687245  0.56569290  1.0
  C  C199  1  0.71119148  0.17039835  0.93433027  1.0
  C  C200  1  0.86068411  0.81617676  0.40328787  1.0
  C  C201  1  0.41298131  0.95740657  0.09672478  1.0
  C  C202  1  0.13935985  0.18386632  0.59673086  1.0
  C  C203  1  0.58706872  0.04260596  0.90323248  1.0
  C  C204  1  0.30152032  0.60703240  0.47504586  1.0
  C  C205  1  0.13210289  0.32663387  0.02501018  1.0
  C  C206  1  0.69845572  0.39294474  0.52498913  1.0
  C  C207  1  0.86786202  0.67333131  0.97495740  1.0
  C  C208  1  0.19338386  0.26563865  0.32136312  1.0
  C  C209  1  0.94401746  0.37190055  0.17845982  1.0
  C  C210  1  0.80657926  0.73433075  0.67865338  1.0
  C  C211  1  0.05589492  0.62801686  0.82149809  1.0
  C  C212  1  0.91430491  0.81920046  0.37383450  1.0
  C  C213  1  0.44539637  0.04047162  0.12612978  1.0
  C  C214  1  0.08574744  0.18085677  0.62618644  1.0
  C  C215  1  0.55466850  0.95955531  0.87383951  1.0
  C  C216  1  0.67458396  0.66410828  0.48503467  1.0
  C  C217  1  0.17892639  0.68956916  0.01497726  1.0
  C  C218  1  0.32543355  0.33592712  0.51499181  1.0
  C  C219  1  0.82103415  0.31041180  0.98500129  1.0
  C  C220  1  0.03329055  0.82682537  0.56151404  1.0
  C  C221  1  0.26533161  0.97179364  0.93847117  1.0
  C  C222  1  0.96678842  0.17322072  0.43851792  1.0
  C  C223  1  0.73466901  0.02822556  0.06148245  1.0
  C  C224  1  0.88565976  0.68648939  0.46963545  1.0
  C  C225  1  0.21693696  0.91600322  0.03033655  1.0
  C  C226  1  0.11441181  0.31356119  0.53039561  1.0
  C  C227  1  0.78306428  0.08400546  0.96962625  1.0
  C  C228  1  0.43940753  0.57300031  0.48563773  1.0
  C  C229  1  0.08728498  0.45376431  0.01436944  1.0
  C  C230  1  0.56058365  0.42701176  0.51439282  1.0
  C  C231  1  0.91264303  0.54620257  0.98559973  1.0
  C  C232  1  0.51499271  0.60865972  0.48607784  1.0
  C  C233  1  0.12244514  0.52890880  0.01392874  1.0
  C  C234  1  0.48499740  0.39136316  0.51394440  1.0
  C  C235  1  0.87748418  0.47106618  0.98604791  1.0
  C  C236  1  0.84203937  0.90322773  0.35851738  1.0
  C  C237  1  0.54486027  0.98366914  0.14166587  1.0
  C  C238  1  0.15803157  0.09686246  0.64153473  1.0
  C  C239  1  0.45521173  0.01635291  0.85828248  1.0
  C  C240  1  0.82616288  0.86023318  0.39689723  1.0
  C  C241  1  0.46349022  0.92935344  0.10323964  1.0
  C  C242  1  0.17389437  0.13982680  0.60313482  1.0
  C  C243  1  0.53657246  0.07066169  0.89670655  1.0
  C  C244  1  0.75121636  0.70667845  0.48865156  1.0
  C  C245  1  0.21797025  0.76256437  0.01133565  1.0
  C  C246  1  0.24880693  0.29334705  0.51137221  1.0
  C  C247  1  0.78201035  0.23742004  0.98863627  1.0
  C  C248  1  0.38204222  0.50297482  0.36497769  1.0
  C  C249  1  0.13797744  0.51705331  0.13505336  1.0
  C  C250  1  0.61794792  0.49702943  0.63505937  1.0
  C  C251  1  0.86195522  0.48290089  0.86493357  1.0
  C  C252  1  0.45799406  0.54024757  0.36600030  1.0
  C  C253  1  0.17417868  0.59197920  0.13402515  1.0
  C  C254  1  0.54199730  0.45976748  0.63403143  1.0
  C  C255  1  0.82576617  0.40798475  0.86596798  1.0
  C  C256  1  0.90497215  0.94412613  0.28093659  1.0
  C  C257  1  0.66324788  0.12432012  0.21915838  1.0
  C  C258  1  0.09505455  0.05593225  0.71907112  1.0
  C  C259  1  0.33681971  0.87568623  0.78084584  1.0
  N  N260  1  0.29534531  0.48342518  0.42562758  1.0
  N  N261  1  0.05779619  0.36974213  0.07439203  1.0
  N  N262  1  0.70463369  0.51654795  0.57441475  1.0
  N  N263  1  0.94212942  0.63019749  0.92556306  1.0
  N  N264  1  0.84136598  0.76801818  0.43858572  1.0
  N  N265  1  0.32951355  0.90274162  0.06135857  1.0
  N  N266  1  0.15867903  0.23201876  0.56143642  1.0
  N  N267  1  0.67051147  0.09726364  0.93860805  1.0
  O  O268  1  0.07021205  0.10564212  0.23804391  1.0
  O  O269  1  0.86741090  0.33200683  0.26186454  1.0
  O  O270  1  0.92974086  0.89435374  0.76192443  1.0
  O  O271  1  0.13258739  0.66795676  0.73818263  1.0
  O  O272  1  0.19059677  0.63841629  0.63558585  1.0
  O  O273  1  0.00296465  0.05516867  0.86437118  1.0
  O  O274  1  0.80945310  0.36160515  0.36448106  1.0
  O  O275  1  0.99699889  0.94482260  0.13558725  1.0
  O  O276  1  0.05774640  0.67891890  0.60328864  1.0
  O  O277  1  0.07563509  0.95455058  0.89685479  1.0
  O  O278  1  0.94229911  0.32111347  0.39677605  1.0
  O  O279  1  0.92431255  0.04538274  0.10306486  1.0
  O  O280  1  0.25192858  0.74198893  0.61057830  1.0
  O  O281  1  0.13153640  0.14153684  0.88937561  1.0
  O  O282  1  0.74814009  0.25805701  0.38951967  1.0
  O  O283  1  0.86842906  0.85844170  0.11057491  1.0
  O  O284  1  0.97776284  0.12559024  0.25565308  1.0
  O  O285  1  0.87001893  0.22211148  0.24438248  1.0
  O  O286  1  0.02219290  0.87443555  0.74428791  1.0
  O  O287  1  0.12997711  0.77785188  0.75564837  1.0
  O  O288  1  0.14907783  0.80757380  0.63116910  1.0
  O  O289  1  0.17628753  0.01778517  0.86878392  1.0
  O  O290  1  0.85099695  0.19245287  0.36892635  1.0
  O  O291  1  0.82365377  0.98215985  0.13113486  1.0
  O  O292  1  0.96490527  0.95779744  0.26518181  1.0
  O  O293  1  0.69256572  0.19997816  0.23490977  1.0
  O  O294  1  0.03507566  0.04219941  0.73477033  1.0
  O  O295  1  0.30750650  0.80004289  0.76516754  1.0
  O  O296  1  0.85578125  0.95962540  0.25712169  1.0
  O  O297  1  0.70270799  0.09907923  0.24301427  1.0
  O  O298  1  0.14425688  0.04045508  0.74290215  1.0
  O  O299  1  0.29733538  0.90089244  0.75696182  1.0
