# generated using pymatgen
data_Zn4H58C67N20O3
_symmetry_space_group_name_H-M   'P 1'
_cell_length_a   13.20372598
_cell_length_b   15.20877184
_cell_length_c   16.92722518
_cell_angle_alpha   108.28521087
_cell_angle_beta   104.19750314
_cell_angle_gamma   109.53008558
_symmetry_Int_Tables_number   1
_chemical_formula_structural   Zn4H58C67N20O3
_chemical_formula_sum   'Zn4 H58 C67 N20 O3'
_cell_volume   2799.33781481
_cell_formula_units_Z   1
loop_
 _symmetry_equiv_pos_site_id
 _symmetry_equiv_pos_as_xyz
  1  'x, y, z'
loop_
 _atom_site_type_symbol
 _atom_site_label
 _atom_site_symmetry_multiplicity
 _atom_site_fract_x
 _atom_site_fract_y
 _atom_site_fract_z
 _atom_site_occupancy
  Zn  Zn0  1  0.37518101  0.02187826  0.92783738  1.0
  Zn  Zn1  1  0.61938369  0.00284953  0.14892020  1.0
  Zn  Zn2  1  0.32945320  0.88742401  0.04429958  1.0
  Zn  Zn3  1  0.67029585  0.10466701  0.98822872  1.0
  H  H4  1  0.11463763  0.98986161  0.83406135  1.0
  H  H5  1  0.86236755  0.12958556  0.31983830  1.0
  H  H6  1  0.64764643  0.64341429  0.95529723  1.0
  H  H7  1  0.54870895  0.40619095  0.86739796  1.0
  H  H8  1  0.22403978  0.70428845  0.61468582  1.0
  H  H9  1  0.24226056  0.51619241  0.75757841  1.0
  H  H10  1  0.12176876  0.62125092  0.44862388  1.0
  H  H11  1  0.12693907  0.35816113  0.61417752  1.0
  H  H12  1  0.99272680  0.46398344  0.30705763  1.0
  H  H13  1  0.01028414  0.27438600  0.44883160  1.0
  H  H14  1  0.27555755  0.04521247  0.17800409  1.0
  H  H15  1  0.26507651  0.66067603  0.88851634  1.0
  H  H16  1  0.25352934  0.07890221  0.30980595  1.0
  H  H17  1  0.71193527  0.30605021  0.62451589  1.0
  H  H18  1  0.22896226  0.06642999  0.44636304  1.0
  H  H19  1  0.32313430  0.07035443  0.59326241  1.0
  H  H20  1  0.90418429  0.66848140  0.79946216  1.0
  H  H21  1  0.67568421  0.57663535  0.72175681  1.0
  H  H22  1  0.76463234  0.83706690  0.58477133  1.0
  H  H23  1  0.70657654  0.90873941  0.64964982  1.0
  H  H24  1  0.95099258  0.92275551  0.71981766  1.0
  H  H25  1  0.90495109  0.01655005  0.76997567  1.0
  H  H26  1  0.80922684  0.06982021  0.85936025  1.0
  H  H27  1  0.64944796  0.18375376  0.32791884  1.0
  H  H28  1  0.37997025  0.22075338  0.05718450  1.0
  H  H29  1  0.86953905  0.32034933  0.17574851  1.0
  H  H30  1  0.33050000  0.10804274  0.76000855  1.0
  H  H31  1  0.69464358  0.86780663  0.05856994  1.0
  H  H32  1  0.74026093  0.74238845  0.15540525  1.0
  H  H33  1  0.78998608  0.87805764  0.21790777  1.0
  H  H34  1  0.84253771  0.83282891  0.13356938  1.0
  H  H35  1  0.38943108  0.52478957  0.21384390  1.0
  H  H36  1  0.43809885  0.69252903  0.31251562  1.0
  H  H37  1  0.76059284  0.80880186  0.92367067  1.0
  H  H38  1  0.50500304  0.74376043  0.24767783  1.0
  H  H39  1  0.57254693  0.69042168  0.31158657  1.0
  H  H40  1  0.79408481  0.58949266  0.08505261  1.0
  H  H41  1  0.81017914  0.65393622  0.01321094  1.0
  H  H42  1  0.89152281  0.58301681  0.02803443  1.0
  H  H43  1  0.70620425  0.33748820  0.52944795  1.0
  H  H44  1  0.74191873  0.42930852  0.45010478  1.0
  H  H45  1  0.59671779  0.41175823  0.43692946  1.0
  H  H46  1  0.62161167  0.33077253  0.34949066  1.0
  H  H47  1  0.82089908  0.39726216  0.77613683  1.0
  H  H48  1  0.37001973  0.85271098  0.75260972  1.0
  H  H49  1  0.84806857  0.29231062  0.71642829  1.0
  H  H50  1  0.88271865  0.33635366  0.83552564  1.0
  H  H51  1  0.72328322  0.40697213  0.00298644  1.0
  H  H52  1  0.87088173  0.36660467  0.98893892  1.0
  H  H53  1  0.74540041  0.24522880  0.92035853  1.0
  H  H54  1  0.83592748  0.27566299  0.03354870  1.0
  H  H55  1  0.94338008  0.85978149  0.03953921  1.0
  H  H56  1  0.09273739  0.90802948  0.11281390  1.0
  H  H57  1  0.98729127  0.78279693  0.08961042  1.0
  H  H58  1  0.65161225  0.08197879  0.78241067  1.0
  H  H59  1  0.30687176  0.67061569  0.09106013  1.0
  H  H60  1  0.46182400  0.42135628  0.16135157  1.0
  H  H61  1  0.50112187  0.55434702  0.88088900  1.0
  C  C62  1  0.11632601  0.95095021  0.87791227  1.0
  C  C63  1  0.34949703  0.81975648  0.79824434  1.0
  C  C64  1  0.57223060  0.08289411  0.78888552  1.0
  C  C65  1  0.85241233  0.16239068  0.27158704  1.0
  C  C66  1  0.38913208  0.71996359  0.09214027  1.0
  C  C67  1  0.49654581  0.11380194  0.74305436  1.0
  C  C68  1  0.48211174  0.69662108  0.08485881  1.0
  C  C69  1  0.29684407  0.71558814  0.78301088  1.0
  C  C70  1  0.80651103  0.92243954  0.86393611  1.0
  C  C71  1  0.56278379  0.47532071  0.01011635  1.0
  C  C72  1  0.53095912  0.41785826  0.05822231  1.0
  C  C73  1  0.90637986  0.26484755  0.28389330  1.0
  C  C74  1  0.48344705  0.45897761  0.11826004  1.0
  C  C75  1  0.46664808  0.54821681  0.12957218  1.0
  C  C76  1  0.49605524  0.60329618  0.07751224  1.0
  C  C77  1  0.36915283  0.07054361  0.20260273  1.0
  C  C78  1  0.54301843  0.56179856  0.01861222  1.0
  C  C79  1  0.57457548  0.57082690  0.94007774  1.0
  C  C80  1  0.60159329  0.47559278  0.93212535  1.0
  C  C81  1  0.24037859  0.62278577  0.69695587  1.0
  C  C82  1  0.99023050  0.35673221  0.36762460  1.0
  C  C83  1  0.09708556  0.54519857  0.44867336  1.0
  C  C84  1  0.45706141  0.14049509  0.28934419  1.0
  C  C85  1  0.02516864  0.45706097  0.36950067  1.0
  C  C86  1  0.03387955  0.35002292  0.44800008  1.0
  C  C87  1  0.10678987  0.43915588  0.53073452  1.0
  C  C88  1  0.13855338  0.53965766  0.53194469  1.0
  C  C89  1  0.62893745  0.29482271  0.03068265  1.0
  C  C90  1  0.20493577  0.62892886  0.61524042  1.0
  C  C91  1  0.21222860  0.52255634  0.69443872  1.0
  C  C92  1  0.14795578  0.43406614  0.61431177  1.0
  C  C93  1  0.44125284  0.17306029  0.37478871  1.0
  C  C94  1  0.50578898  0.15296521  0.67533780  1.0
  C  C95  1  0.54081704  0.32261559  0.04770233  1.0
  C  C96  1  0.62561929  0.25468074  0.61611800  1.0
  C  C97  1  0.61636143  0.22175616  0.68262750  1.0
  C  C98  1  0.40823637  0.12362839  0.60063310  1.0
  C  C99  1  0.41490971  0.15219803  0.52961113  1.0
  C  C100  1  0.52669495  0.21723021  0.53594731  1.0
  C  C101  1  0.55995754  0.14158859  0.27850767  1.0
  C  C102  1  0.53711125  0.23387229  0.45872003  1.0
  C  C103  1  0.32906638  0.11975653  0.37390819  1.0
  C  C104  1  0.31500767  0.11109349  0.44923290  1.0
  C  C105  1  0.83430718  0.86954085  0.78781771  1.0
  C  C106  1  0.40751356  0.09496190  0.77611241  1.0
  C  C107  1  0.90260460  0.81168274  0.81319339  1.0
  C  C108  1  0.85324857  0.70595147  0.77661235  1.0
  C  C109  1  0.72919969  0.64647677  0.71800611  1.0
  C  C110  1  0.68776882  0.69488236  0.67397964  1.0
  C  C111  1  0.73040935  0.79426495  0.69324564  1.0
  C  C112  1  0.76099320  0.86749988  0.65161662  1.0
  C  C113  1  0.46227421  0.23478188  0.04906413  1.0
  C  C114  1  0.87911738  0.93351068  0.73550591  1.0
  C  C115  1  0.85461305  0.25859562  0.19728356  1.0
  C  C116  1  0.08099276  0.85299613  0.94916905  1.0
  C  C117  1  0.56382535  0.78659777  0.08697633  1.0
  C  C118  1  0.02351085  0.87207371  0.87904871  1.0
  C  C119  1  0.76543983  0.81647606  0.15061986  1.0
  C  C120  1  0.48785241  0.68197420  0.27003451  1.0
  C  C121  1  0.80788961  0.58507969  0.02247023  1.0
  C  C122  1  0.65060849  0.37157337  0.42309525  1.0
  C  C123  1  0.82119952  0.32342576  0.77150819  1.0
  C  C124  1  0.79732288  0.30668704  0.99016733  1.0
  C  C125  1  0.01344898  0.83817093  0.06131760  1.0
  C  C126  1  0.29755317  0.72192033  0.86803708  1.0
  C  C127  1  0.79149456  0.01240062  0.88589223  1.0
  C  C128  1  0.76697331  0.88073364  0.92061149  1.0
  N  N129  1  0.21934987  0.97420870  0.93999305  1.0
  N  N130  1  0.41573548  0.03041049  0.14678158  1.0
  N  N131  1  0.60172700  0.19838032  0.02336963  1.0
  N  N132  1  0.53298173  0.07445418  0.19372100  1.0
  N  N133  1  0.49720395  0.15919341  0.03324919  1.0
  N  N134  1  0.77710158  0.16094472  0.13835386  1.0
  N  N135  1  0.19645945  0.91335889  0.98480149  1.0
  N  N136  1  0.43061050  0.05729786  0.83694398  1.0
  N  N137  1  0.67074594  0.81006609  0.07963729  1.0
  N  N138  1  0.41786764  0.58021208  0.19213807  1.0
  N  N139  1  0.64463540  0.30073146  0.46563870  1.0
  N  N140  1  0.52200286  0.85799472  0.09915529  1.0
  N  N141  1  0.73105375  0.35493444  0.02760724  1.0
  N  N142  1  0.34463949  0.82190176  0.92747754  1.0
  N  N143  1  0.74720680  0.02186245  0.95072878  1.0
  N  N144  1  0.73177349  0.94053964  0.97293057  1.0
  N  N145  1  0.37712794  0.88234374  0.88501940  1.0
  N  N146  1  0.53263238  0.04932865  0.84510399  1.0
  N  N147  1  0.41230726  0.81632147  0.10056507  1.0
  N  N148  1  0.77664040  0.10098792  0.18425124  1.0
  O  O149  1  0.72000537  0.49217916  0.94555029  1.0
  O  O150  1  0.71014713  0.25116228  0.75893782  1.0
  O  O151  1  0.03632721  0.78732473  0.98475970  1.0
