# generated using pymatgen
data_Cu2H32C45(IN2)2
_symmetry_space_group_name_H-M   'P 1'
_cell_length_a   7.01661503
_cell_length_b   19.75730833
_cell_length_c   19.76617221
_cell_angle_alpha   88.21459515
_cell_angle_beta   79.78676578
_cell_angle_gamma   79.78743021
_symmetry_Int_Tables_number   1
_chemical_formula_structural   Cu2H32C45(IN2)2
_chemical_formula_sum   'Cu4 H64 C90 I4 N8'
_cell_volume   2654.02869086
_cell_formula_units_Z   2
loop_
 _symmetry_equiv_pos_site_id
 _symmetry_equiv_pos_as_xyz
  1  'x, y, z'
loop_
 _atom_site_type_symbol
 _atom_site_label
 _atom_site_symmetry_multiplicity
 _atom_site_fract_x
 _atom_site_fract_y
 _atom_site_fract_z
 _atom_site_occupancy
  Cu  Cu0  1  0.32073284  0.55398812  0.05404643  1.0
  Cu  Cu1  1  0.92893911  0.44591050  0.94600350  1.0
  Cu  Cu2  1  0.62467094  0.05404431  0.44603152  1.0
  Cu  Cu3  1  0.12489001  0.94596359  0.55398539  1.0
  H  H4  1  0.31067218  0.57014182  0.20585676  1.0
  H  H5  1  0.07454355  0.55914723  0.31326665  1.0
  H  H6  1  0.68273012  0.50295614  0.18609220  1.0
  H  H7  1  0.93334860  0.51586480  0.08549911  1.0
  H  H8  1  0.60499451  0.43807840  0.27698198  1.0
  H  H9  1  0.35081647  0.42408519  0.37598656  1.0
  H  H10  1  0.51917952  0.58531444  0.48187470  1.0
  H  H11  1  0.76889540  0.60112987  0.38228141  1.0
  H  H12  1  0.08704438  0.42971959  0.79416503  1.0
  H  H13  1  0.94740355  0.44067245  0.68669576  1.0
  H  H14  1  0.37232389  0.49708884  0.81387954  1.0
  H  H15  1  0.53533214  0.48409805  0.91445119  1.0
  H  H16  1  0.32076084  0.56190525  0.72308995  1.0
  H  H17  1  0.15132074  0.57601586  0.62414760  1.0
  H  H18  1  0.58639479  0.41497704  0.51801104  1.0
  H  H19  1  0.75247417  0.39897413  0.61756883  1.0
  H  H20  1  0.48336543  0.20597704  0.42986089  1.0
  H  H21  1  0.61244313  0.31338251  0.44096361  1.0
  H  H22  1  0.13089586  0.18595744  0.49720679  1.0
  H  H23  1  0.98050124  0.08542704  0.48418187  1.0
  H  H24  1  0.11785857  0.27702945  0.56214586  1.0
  H  H25  1  0.27317124  0.37610162  0.57610939  1.0
  H  H26  1  0.99926589  0.48191471  0.41489084  1.0
  H  H27  1  0.84910087  0.38225090  0.39908136  1.0
  H  H28  1  0.11879715  0.79406073  0.57028676  1.0
  H  H29  1  0.36594749  0.68660351  0.55932283  1.0
  H  H30  1  0.81363040  0.81387610  0.50269710  1.0
  H  H31  1  0.54998790  0.91445504  0.51566657  1.0
  H  H32  1  0.95604186  0.72302777  0.43799613  1.0
  H  H33  1  0.22479200  0.62416768  0.42406322  1.0
  H  H34  1  0.89627235  0.51814863  0.58528397  1.0
  H  H35  1  0.63031063  0.61761913  0.60107850  1.0
  H  H36  1  0.16306459  0.70594326  0.07036441  1.0
  H  H37  1  0.30295694  0.81338138  0.05917773  1.0
  H  H38  1  0.87769936  0.68602362  0.00258905  1.0
  H  H39  1  0.71446553  0.58545971  0.01577864  1.0
  H  H40  1  0.92960719  0.77695071  0.93779479  1.0
  H  H41  1  0.09918869  0.87591885  0.92387414  1.0
  H  H42  1  0.66426199  0.98196562  0.08493845  1.0
  H  H43  1  0.49794401  0.88241805  0.10079766  1.0
  H  H44  1  0.93927037  0.29397053  0.92975893  1.0
  H  H45  1  0.17538782  0.18657385  0.94090912  1.0
  H  H46  1  0.56637543  0.31398050  0.99739723  1.0
  H  H47  1  0.31576563  0.41451471  0.98425860  1.0
  H  H48  1  0.64467983  0.22303756  0.06216072  1.0
  H  H49  1  0.89939160  0.12410614  0.07594053  1.0
  H  H50  1  0.73122800  0.01815570  0.91476664  1.0
  H  H51  1  0.48096540  0.11766306  0.89913821  1.0
  H  H52  1  0.13117950  0.92957412  0.70580385  1.0
  H  H53  1  0.88407888  0.94065500  0.81321773  1.0
  H  H54  1  0.43640486  0.99730912  0.68604990  1.0
  H  H55  1  0.69992018  0.98424209  0.58549829  1.0
  H  H56  1  0.29352988  0.06192571  0.77683709  1.0
  H  H57  1  0.02510629  0.07589751  0.87576372  1.0
  H  H58  1  0.35460524  0.91492129  0.98181259  1.0
  H  H59  1  0.62030286  0.89904389  0.88227742  1.0
  H  H60  1  0.76602739  0.07024082  0.29427587  1.0
  H  H61  1  0.63728223  0.05922237  0.18683168  1.0
  H  H62  1  0.11871240  0.00286337  0.31399318  1.0
  H  H63  1  0.26874400  0.01583774  0.41455293  1.0
  H  H64  1  0.13185393  0.93795561  0.22294217  1.0
  H  H65  1  0.97696706  0.92394896  0.12381712  1.0
  H  H66  1  0.25145472  0.08515345  0.01814215  1.0
  H  H67  1  0.40120449  0.10103903  0.11783050  1.0
  C  C68  1  0.16857345  0.55567152  0.20396528  1.0
  C  C69  1  0.03485686  0.54971045  0.26390402  1.0
  C  C70  1  0.85411115  0.52981127  0.26016235  1.0
  C  C71  1  0.81935862  0.51783832  0.19418169  1.0
  C  C72  1  0.95949444  0.52528452  0.13689805  1.0
  C  C73  1  0.70580544  0.52114972  0.32116430  1.0
  C  C74  1  0.58459567  0.47162543  0.32143002  1.0
  C  C75  1  0.44005438  0.46357686  0.37796828  1.0
  C  C76  1  0.41049131  0.50492881  0.43640817  1.0
  C  C77  1  0.53475371  0.55342868  0.43661198  1.0
  C  C78  1  0.67870590  0.56179501  0.38039582  1.0
  C  C79  1  0.92863389  0.44420547  0.79601292  1.0
  C  C80  1  0.84891452  0.45016751  0.73605191  1.0
  C  C81  1  0.64454382  0.47012653  0.73981308  1.0
  C  C82  1  0.53187205  0.48214685  0.80578181  1.0
  C  C83  1  0.62217095  0.47468836  0.86305898  1.0
  C  C84  1  0.54850109  0.47886883  0.67881254  1.0
  C  C85  1  0.37818098  0.52842304  0.67859581  1.0
  C  C86  1  0.28200674  0.53654335  0.62207631  1.0
  C  C87  1  0.35199339  0.49525817  0.56359300  1.0
  C  C88  1  0.52496121  0.44678448  0.56332035  1.0
  C  C89  1  0.62113717  0.43830860  0.61951721  1.0
  C  C90  1  0.62732387  0.20403514  0.44436707  1.0
  C  C91  1  0.70125777  0.26397007  0.45041531  1.0
  C  C92  1  0.88570639  0.26016188  0.47034822  1.0
  C  C93  1  0.98623797  0.19413254  0.48230370  1.0
  C  C94  1  0.90318454  0.13686796  0.47479308  1.0
  C  C95  1  0.97320469  0.32114993  0.47903475  1.0
  C  C96  1  0.09398736  0.32145926  0.52857844  1.0
  C  C97  1  0.18207756  0.37802489  0.53659906  1.0
  C  C98  1  0.15338289  0.43644706  0.49524201  1.0
  C  C99  1  0.02886463  0.43664892  0.44677577  1.0
  C  C100  1  0.94116685  0.38038694  0.43839124  1.0
  C  C101  1  0.27530746  0.79593592  0.55572004  1.0
  C  C102  1  0.41501318  0.73597824  0.54975578  1.0
  C  C103  1  0.61559330  0.73975173  0.52976711  1.0
  C  C104  1  0.66221069  0.80575548  0.51770224  1.0
  C  C105  1  0.51459944  0.86303891  0.52514890  1.0
  C  C106  1  0.77278576  0.67878686  0.52110799  1.0
  C  C107  1  0.94335596  0.67859678  0.47159065  1.0
  C  C108  1  0.09621575  0.62211409  0.46355464  1.0
  C  C109  1  0.08484135  0.56365747  0.50488779  1.0
  C  C110  1  0.91221263  0.56340121  0.55337943  1.0
  C  C111  1  0.75967503  0.61954835  0.56175518  1.0
  C  C112  1  0.32147192  0.70403167  0.05574213  1.0
  C  C113  1  0.40133814  0.76399618  0.04964107  1.0
  C  C114  1  0.60569375  0.76018783  0.02961582  1.0
  C  C115  1  0.71819373  0.69416205  0.01761146  1.0
  C  C116  1  0.62774344  0.63689170  0.02519263  1.0
  C  C117  1  0.70187092  0.82117573  0.02088033  1.0
  C  C118  1  0.87226887  0.82139590  0.97137187  1.0
  C  C119  1  0.96851016  0.87793181  0.96333582  1.0
  C  C120  1  0.89856228  0.93641382  0.00464781  1.0
  C  C121  1  0.72553726  0.93667023  0.05307526  1.0
  C  C122  1  0.62927767  0.88047142  0.06147738  1.0
  C  C123  1  0.08115531  0.29589896  0.94436026  1.0
  C  C124  1  0.21487931  0.23596515  0.95043119  1.0
  C  C125  1  0.39543799  0.23978067  0.97042870  1.0
  C  C126  1  0.42998685  0.30581345  0.98240901  1.0
  C  C127  1  0.28984699  0.36307355  0.97485744  1.0
  C  C128  1  0.54399446  0.17883236  0.97908314  1.0
  C  C129  1  0.66525084  0.17860538  0.02856190  1.0
  C  C130  1  0.81008382  0.12209860  0.03649466  1.0
  C  C131  1  0.83986615  0.06365175  0.99512484  1.0
  C  C132  1  0.71549881  0.06341950  0.94667961  1.0
  C  C133  1  0.57131961  0.11960127  0.93839159  1.0
  C  C134  1  0.97468116  0.94419773  0.70392972  1.0
  C  C135  1  0.83497305  0.95023355  0.76387585  1.0
  C  C136  1  0.63439718  0.97022466  0.76012969  1.0
  C  C137  1  0.58779017  0.98227018  0.69415972  1.0
  C  C138  1  0.73534289  0.97478281  0.63688985  1.0
  C  C139  1  0.47732735  0.97892115  0.82109561  1.0
  C  C140  1  0.30661675  0.02841208  0.82130161  1.0
  C  C141  1  0.15391212  0.03647210  0.87781521  1.0
  C  C142  1  0.16556992  0.99520726  0.93629252  1.0
  C  C143  1  0.33837569  0.94675516  0.93653907  1.0
  C  C144  1  0.49078264  0.93834293  0.88035492  1.0
  C  C145  1  0.62208853  0.05573093  0.29614885  1.0
  C  C146  1  0.54831692  0.04974666  0.23619124  1.0
  C  C147  1  0.36392702  0.02978631  0.23991270  1.0
  C  C148  1  0.26330968  0.01778948  0.30588257  1.0
  C  C149  1  0.34616249  0.02526467  0.36316961  1.0
  C  C150  1  0.27675316  0.02108463  0.17887519  1.0
  C  C151  1  0.15592568  0.97152803  0.17853078  1.0
  C  C152  1  0.06812588  0.96345123  0.12192616  1.0
  C  C153  1  0.09710519  0.00480492  0.06351546  1.0
  C  C154  1  0.22162095  0.05328655  0.06338077  1.0
  C  C155  1  0.30912182  0.06170572  0.11965437  1.0
  C  C156  1  0.25020966  0.50008388  0.50003056  1.0
  C  C157  1  0.00033422  0.00001640  0.99988334  1.0
  I  I158  1  0.12498832  0.55028097  0.94966572  1.0
  I  I159  1  0.62482255  0.44967555  0.05029619  1.0
  I  I160  1  0.92492025  0.94965400  0.44968097  1.0
  I  I161  1  0.32458855  0.05030523  0.55038696  1.0
  N  N162  1  0.13350008  0.54385867  0.14060073  1.0
  N  N163  1  0.81841566  0.45606322  0.85935893  1.0
  N  N164  1  0.72557375  0.14062108  0.45613989  1.0
  N  N165  1  0.32208822  0.85931783  0.54381257  1.0
  N  N166  1  0.43151326  0.64062502  0.04393243  1.0
  N  N167  1  0.11602679  0.35931156  0.95617360  1.0
  N  N168  1  0.92784535  0.95606849  0.64057272  1.0
  N  N169  1  0.52377133  0.04389367  0.35949965  1.0
