# generated using pymatgen
data_AlH22C22N2O5
_symmetry_space_group_name_H-M   'P 1'
_cell_length_a   6.77503323
_cell_length_b   22.52702001
_cell_length_c   26.46108259
_cell_angle_alpha   78.94266819
_cell_angle_beta   90.00082813
_cell_angle_gamma   90.00015343
_symmetry_Int_Tables_number   1
_chemical_formula_structural   AlH22C22N2O5
_chemical_formula_sum   'Al4 H88 C88 N8 O20'
_cell_volume   3963.55292954
_cell_formula_units_Z   4
loop_
 _symmetry_equiv_pos_site_id
 _symmetry_equiv_pos_as_xyz
  1  'x, y, z'
loop_
 _atom_site_type_symbol
 _atom_site_label
 _atom_site_symmetry_multiplicity
 _atom_site_fract_x
 _atom_site_fract_y
 _atom_site_fract_z
 _atom_site_occupancy
  Al  Al0  1  0.20404052  0.75035503  0.25095051  1.0
  Al  Al1  1  0.79203689  0.24986998  0.74815184  1.0
  Al  Al2  1  0.70403947  0.74964239  0.24904608  1.0
  Al  Al3  1  0.29203503  0.25013180  0.75184804  1.0
  H  H4  1  0.71010673  0.55900332  0.51057478  1.0
  H  H5  1  0.30421564  0.44251467  0.48882458  1.0
  H  H6  1  0.21013360  0.94099534  0.98941351  1.0
  H  H7  1  0.80422418  0.05748905  0.01117520  1.0
  H  H8  1  0.04392731  0.54769327  0.57530492  1.0
  H  H9  1  0.96629619  0.45290337  0.42479187  1.0
  H  H10  1  0.54396631  0.95230456  0.92469777  1.0
  H  H11  1  0.46629259  0.04709961  0.07520658  1.0
  H  H12  1  0.74257599  0.45533248  0.89873477  1.0
  H  H13  1  0.24103440  0.61869968  0.04485266  1.0
  H  H14  1  0.24258424  0.04466797  0.60126531  1.0
  H  H15  1  0.74105703  0.88130805  0.45514136  1.0
  H  H16  1  0.31790704  0.32818364  0.87883532  1.0
  H  H17  1  0.67224174  0.62357435  0.15898030  1.0
  H  H18  1  0.81791961  0.17180822  0.62116312  1.0
  H  H19  1  0.17226660  0.87642411  0.34101579  1.0
  H  H20  1  0.39373298  0.33153709  0.55433670  1.0
  H  H21  1  0.62212806  0.30913683  0.58538832  1.0
  H  H22  1  0.42726107  0.33533012  0.62012047  1.0
  H  H23  1  0.68394952  0.41524465  0.59656221  1.0
  H  H24  1  0.46146292  0.43964663  0.56528715  1.0
  H  H25  1  0.58312157  0.42465658  0.48228982  1.0
  H  H26  1  0.76043745  0.37212478  0.51126888  1.0
  H  H27  1  0.59148293  0.67054991  0.50664400  1.0
  H  H28  1  0.55118306  0.68020439  0.43930396  1.0
  H  H29  1  0.44956470  0.73267602  0.47437982  1.0
  H  H30  1  0.18670831  0.66205934  0.45486025  1.0
  H  H31  1  0.22605318  0.65044334  0.52203259  1.0
  H  H32  1  0.44278284  0.56205507  0.51787394  1.0
  H  H33  1  0.41709252  0.57452641  0.45013093  1.0
  H  H34  1  0.89374017  0.16846261  0.94566009  1.0
  H  H35  1  0.12212413  0.19086602  0.91460746  1.0
  H  H36  1  0.92726562  0.16466785  0.87987799  1.0
  H  H37  1  0.18397291  0.08476052  0.90343688  1.0
  H  H38  1  0.96149148  0.06035244  0.93471220  1.0
  H  H39  1  0.08315510  0.07534470  0.01770992  1.0
  H  H40  1  0.26047317  0.12787519  0.98873127  1.0
  H  H41  1  0.09148919  0.82944088  0.99336618  1.0
  H  H42  1  0.05118773  0.81978852  0.06070554  1.0
  H  H43  1  0.94955052  0.76732087  0.02562807  1.0
  H  H44  1  0.68671059  0.83794251  0.04514243  1.0
  H  H45  1  0.72607335  0.84955694  0.97797230  1.0
  H  H46  1  0.94279543  0.93794232  0.98213098  1.0
  H  H47  1  0.91711379  0.92547539  0.04987298  1.0
  H  H48  1  0.57530950  0.42812926  0.83382889  1.0
  H  H49  1  0.71306195  0.40674058  0.78276930  1.0
  H  H50  1  0.60031182  0.35065442  0.82861085  1.0
  H  H51  1  0.40486584  0.69280469  0.07569110  1.0
  H  H52  1  0.26722831  0.74349826  0.10609224  1.0
  H  H53  1  0.39107746  0.68278628  0.14423259  1.0
  H  H54  1  0.07531510  0.07187366  0.66616480  1.0
  H  H55  1  0.21307570  0.09326176  0.71722836  1.0
  H  H56  1  0.10032435  0.14935113  0.67138485  1.0
  H  H57  1  0.90488007  0.80719588  0.42431046  1.0
  H  H58  1  0.76722892  0.75650122  0.39390881  1.0
  H  H59  1  0.89109516  0.81721207  0.35576700  1.0
  H  H60  1  0.64691850  0.32519947  0.02677075  1.0
  H  H61  1  0.58270636  0.39303958  0.04696902  1.0
  H  H62  1  0.49773713  0.32247895  0.08254726  1.0
  H  H63  1  0.22280915  0.37492709  0.02836277  1.0
  H  H64  1  0.28737846  0.30799408  0.00724845  1.0
  H  H65  1  0.50130630  0.36841909  0.93798386  1.0
  H  H66  1  0.42979383  0.43539657  0.95842333  1.0
  H  H67  1  0.26821912  0.48746311  0.14120489  1.0
  H  H68  1  0.34501225  0.45403147  0.08892811  1.0
  H  H69  1  0.37622530  0.41409976  0.15312544  1.0
  H  H70  1  0.69928742  0.45912729  0.11587414  1.0
  H  H71  1  0.62715406  0.49104736  0.16911609  1.0
  H  H72  1  0.47708778  0.57839056  0.10938817  1.0
  H  H73  1  0.55364622  0.54745520  0.05586517  1.0
  H  H74  1  0.14693098  0.17480528  0.47323306  1.0
  H  H75  1  0.08271717  0.10696498  0.45302994  1.0
  H  H76  1  0.99773990  0.17753014  0.41745553  1.0
  H  H77  1  0.72281818  0.12508097  0.47163785  1.0
  H  H78  1  0.78740690  0.19200592  0.49276013  1.0
  H  H79  1  0.00132198  0.13157196  0.56201958  1.0
  H  H80  1  0.92980590  0.06459793  0.54157476  1.0
  H  H81  1  0.76822104  0.01253862  0.35880399  1.0
  H  H82  1  0.84504487  0.04597214  0.41107798  1.0
  H  H83  1  0.87622414  0.08590405  0.34687961  1.0
  H  H84  1  0.19930250  0.04087474  0.38412371  1.0
  H  H85  1  0.12714432  0.00895914  0.33087995  1.0
  H  H86  1  0.97710023  0.92161144  0.39060865  1.0
  H  H87  1  0.05368542  0.95254454  0.44413163  1.0
  H  H88  1  0.45364771  0.67229964  0.27270101  1.0
  H  H89  1  0.54069256  0.32863239  0.73004692  1.0
  H  H90  1  0.95364754  0.82769876  0.22729612  1.0
  H  H91  1  0.04070139  0.17137122  0.76994779  1.0
  C  C92  1  0.45786941  0.80994083  0.31641299  1.0
  C  C93  1  0.53838517  0.18534855  0.68690037  1.0
  C  C94  1  0.95786269  0.69005404  0.18358801  1.0
  C  C95  1  0.03837411  0.31464926  0.81310243  1.0
  C  C96  1  0.45174587  0.83013235  0.17534384  1.0
  C  C97  1  0.54478471  0.16999655  0.82492344  1.0
  C  C98  1  0.95177376  0.66986564  0.32465713  1.0
  C  C99  1  0.04478632  0.33000417  0.67507823  1.0
  C  C100  1  0.02632164  0.52706701  0.54134352  1.0
  C  C101  1  0.98575868  0.47350801  0.45870096  1.0
  C  C102  1  0.52634411  0.97292899  0.95865949  1.0
  C  C103  1  0.48576866  0.02649015  0.04129911  1.0
  C  C104  1  0.84033436  0.53214066  0.50621617  1.0
  C  C105  1  0.17163525  0.46826817  0.49379124  1.0
  C  C106  1  0.34034602  0.96785988  0.99378106  1.0
  C  C107  1  0.67164867  0.03173173  0.00621229  1.0
  C  C108  1  0.95017602  0.62484201  0.37105050  1.0
  C  C109  1  0.05162243  0.37554932  0.62904930  1.0
  C  C110  1  0.45013919  0.87515482  0.12894969  1.0
  C  C111  1  0.55161644  0.12445068  0.87095162  1.0
  C  C112  1  0.16543404  0.53793710  0.49326788  1.0
  C  C113  1  0.84726177  0.46218509  0.50677079  1.0
  C  C114  1  0.66546552  0.96206532  0.00673433  1.0
  C  C115  1  0.34727604  0.03781255  0.99322352  1.0
  C  C116  1  0.97645486  0.54408446  0.45682388  1.0
  C  C117  1  0.03595756  0.45654561  0.54329018  1.0
  C  C118  1  0.47645345  0.95591461  0.04317409  1.0
  C  C119  1  0.53596633  0.04345278  0.95670607  1.0
  C  C120  1  0.95469330  0.58770010  0.41117027  1.0
  C  C121  1  0.05415456  0.41287373  0.58904664  1.0
  C  C122  1  0.45465802  0.91229926  0.08882454  1.0
  C  C123  1  0.55413372  0.08712884  0.91094273  1.0
  C  C124  1  0.85984112  0.39081222  0.85670501  1.0
  C  C125  1  0.12780493  0.65695494  0.10710518  1.0
  C  C126  1  0.35985228  0.10918816  0.64329089  1.0
  C  C127  1  0.62780791  0.84304484  0.39289112  1.0
  C  C128  1  0.86907520  0.42693153  0.89403455  1.0
  C  C129  1  0.11667272  0.61977370  0.07072313  1.0
  C  C130  1  0.36908306  0.07306258  0.60596755  1.0
  C  C131  1  0.61669226  0.88023042  0.42926967  1.0
  C  C132  1  0.03458729  0.42923461  0.92545419  1.0
  C  C133  1  0.95406276  0.58217655  0.06570359  1.0
  C  C134  1  0.53458384  0.07076108  0.57454822  1.0
  C  C135  1  0.45407824  0.91782625  0.43428776  1.0
  C  C136  1  0.20187733  0.39320476  0.92078690  1.0
  C  C137  1  0.78498266  0.58436501  0.09707845  1.0
  C  C138  1  0.70188551  0.10678627  0.57921574  1.0
  C  C139  1  0.28499469  0.91563739  0.40291343  1.0
  C  C140  1  0.19225802  0.35681423  0.88366027  1.0
  C  C141  1  0.79800564  0.62142688  0.13369705  1.0
  C  C142  1  0.69226949  0.14317920  0.61633964  1.0
  C  C143  1  0.29801586  0.87857188  0.36629912  1.0
  C  C144  1  0.02783421  0.35491388  0.85179663  1.0
  C  C145  1  0.96365127  0.65607156  0.14034801  1.0
  C  C146  1  0.52785064  0.14508295  0.64820267  1.0
  C  C147  1  0.46365273  0.84392540  0.35964954  1.0
  C  C148  1  0.97414951  0.54199165  0.02801892  1.0
  C  C149  1  0.01916325  0.46963367  0.96302650  1.0
  C  C150  1  0.47416104  0.95801051  0.47197520  1.0
  C  C151  1  0.51917556  0.03036495  0.53697276  1.0
  C  C152  1  0.68845180  0.41524311  0.51468609  1.0
  C  C153  1  0.58126117  0.40633798  0.56676983  1.0
  C  C154  1  0.50094527  0.34212361  0.58259666  1.0
  C  C155  1  0.34013907  0.57900002  0.48601658  1.0
  C  C156  1  0.29530331  0.64578453  0.48528385  1.0
  C  C157  1  0.48168937  0.68456665  0.47599506  1.0
  C  C158  1  0.18848314  0.08475752  0.98531341  1.0
  C  C159  1  0.08128515  0.09366417  0.93322927  1.0
  C  C160  1  0.00095091  0.15787611  0.91740176  1.0
  C  C161  1  0.84015951  0.92099953  0.01398782  1.0
  C  C162  1  0.79531305  0.85421636  0.01472270  1.0
  C  C163  1  0.98169121  0.81542921  0.02401333  1.0
  C  C164  1  0.67708682  0.39421112  0.82395082  1.0
  C  C165  1  0.30768064  0.69586016  0.10827526  1.0
  C  C166  1  0.17710284  0.10579278  0.67604401  1.0
  C  C167  1  0.80768984  0.80414012  0.39172402  1.0
  C  C168  1  0.37963541  0.38979535  0.95546839  1.0
  C  C169  1  0.34222172  0.35333847  0.01003137  1.0
  C  C170  1  0.52728597  0.34815682  0.04359334  1.0
  C  C171  1  0.59241187  0.55120010  0.09537279  1.0
  C  C172  1  0.58695078  0.48777578  0.12936327  1.0
  C  C173  1  0.38290264  0.45913372  0.12827916  1.0
  C  C174  1  0.87964599  0.11019889  0.54453105  1.0
  C  C175  1  0.84223248  0.14666282  0.48997317  1.0
  C  C176  1  0.02728645  0.15184752  0.45641080  1.0
  C  C177  1  0.09242789  0.94880010  0.40462377  1.0
  C  C178  1  0.08695685  0.01222664  0.37063533  1.0
  C  C179  1  0.88291353  0.04086964  0.37172591  1.0
  N  N180  1  0.17090492  0.50698891  0.96897900  1.0
  N  N181  1  0.82429860  0.50415765  0.02205950  1.0
  N  N182  1  0.67091957  0.99301000  0.53102030  1.0
  N  N183  1  0.32431600  0.99584929  0.47793174  1.0
  N  N184  1  0.14682437  0.54403021  0.00136714  1.0
  N  N185  1  0.84577989  0.46828202  0.98854741  1.0
  N  N186  1  0.64684585  0.95597015  0.49862846  1.0
  N  N187  1  0.34579262  0.03172167  0.51144766  1.0
  O  O188  1  0.62085527  0.81157854  0.19284447  1.0
  O  O189  1  0.37406059  0.18866554  0.80877484  1.0
  O  O190  1  0.12087276  0.68841547  0.30714989  1.0
  O  O191  1  0.87406219  0.31134012  0.69122918  1.0
  O  O192  1  0.28792567  0.79762807  0.30023955  1.0
  O  O193  1  0.70968384  0.20112385  0.69973513  1.0
  O  O194  1  0.78791586  0.70236630  0.19976043  1.0
  O  O195  1  0.20966269  0.29888010  0.80026136  1.0
  O  O196  1  0.28444962  0.81275709  0.19484891  1.0
  O  O197  1  0.71008979  0.18760470  0.80430094  1.0
  O  O198  1  0.78448124  0.68724208  0.30515144  1.0
  O  O199  1  0.21011135  0.31239774  0.69569632  1.0
  O  O200  1  0.12296568  0.70248025  0.20203660  1.0
  O  O201  1  0.87517663  0.29940284  0.79541404  1.0
  O  O202  1  0.62296159  0.79751899  0.29795815  1.0
  O  O203  1  0.37519559  0.20058757  0.70459463  1.0
  O  O204  1  0.45349860  0.71311567  0.25259151  1.0
  O  O205  1  0.54249322  0.28657411  0.74723652  1.0
  O  O206  1  0.95349112  0.78688211  0.24740446  1.0
  O  O207  1  0.04249333  0.21343023  0.75276090  1.0
