# generated using pymatgen
data_MnH17C19SN3O7
_symmetry_space_group_name_H-M   'P 1'
_cell_length_a   8.51462246
_cell_length_b   11.59682805
_cell_length_c   27.27517520
_cell_angle_alpha   78.97212090
_cell_angle_beta   89.99981052
_cell_angle_gamma   89.99958972
_symmetry_Int_Tables_number   1
_chemical_formula_structural   MnH17C19SN3O7
_chemical_formula_sum   'Mn4 H68 C76 S4 N12 O28'
_cell_volume   2643.48961982
_cell_formula_units_Z   4
loop_
 _symmetry_equiv_pos_site_id
 _symmetry_equiv_pos_as_xyz
  1  'x, y, z'
loop_
 _atom_site_type_symbol
 _atom_site_label
 _atom_site_symmetry_multiplicity
 _atom_site_fract_x
 _atom_site_fract_y
 _atom_site_fract_z
 _atom_site_occupancy
  Mn  Mn0  1  0.63371187  0.74490315  0.19718093  1.0
  Mn  Mn1  1  0.13370436  0.75509788  0.30282102  1.0
  Mn  Mn2  1  0.36628643  0.25509619  0.80281825  1.0
  Mn  Mn3  1  0.86629041  0.24490501  0.69718080  1.0
  H  H4  1  0.88940869  0.75635746  0.14505697  1.0
  H  H5  1  0.38940309  0.74364577  0.35494013  1.0
  H  H6  1  0.11058961  0.24364367  0.85494390  1.0
  H  H7  1  0.61059051  0.25636139  0.64505070  1.0
  H  H8  1  0.96628199  0.76754190  0.19815611  1.0
  H  H9  1  0.46627471  0.73246277  0.30184592  1.0
  H  H10  1  0.03371278  0.23246010  0.80184395  1.0
  H  H11  1  0.53370244  0.26754453  0.69815700  1.0
  H  H12  1  0.03797180  0.89299234  0.09862905  1.0
  H  H13  1  0.53797264  0.60700566  0.40137325  1.0
  H  H14  1  0.96202297  0.10700174  0.90137093  1.0
  H  H15  1  0.46202566  0.39299460  0.59862843  1.0
  H  H16  1  0.23819849  0.75917931  0.11960337  1.0
  H  H17  1  0.73819589  0.74082034  0.38039968  1.0
  H  H18  1  0.76179394  0.24081303  0.88039859  1.0
  H  H19  1  0.26179771  0.25918605  0.61960038  1.0
  H  H20  1  0.36970697  0.87222583  0.12450371  1.0
  H  H21  1  0.86970788  0.62777576  0.37549538  1.0
  H  H22  1  0.63028898  0.12776824  0.87549554  1.0
  H  H23  1  0.13029277  0.37223151  0.62450461  1.0
  H  H24  1  0.11225184  0.12050158  0.00445334  1.0
  H  H25  1  0.61225489  0.37949457  0.49554587  1.0
  H  H26  1  0.88774764  0.87949339  0.99554730  1.0
  H  H27  1  0.38774576  0.62050215  0.50445500  1.0
  H  H28  1  0.58543015  0.18897875  0.95292499  1.0
  H  H29  1  0.08543770  0.31102734  0.54707175  1.0
  H  H30  1  0.41456580  0.81102150  0.04707595  1.0
  H  H31  1  0.91456177  0.68897024  0.45292648  1.0
  H  H32  1  0.68343129  0.14410253  0.04112072  1.0
  H  H33  1  0.18343759  0.35590203  0.45887625  1.0
  H  H34  1  0.31656819  0.85589420  0.95888051  1.0
  H  H35  1  0.81656423  0.64409731  0.54112294  1.0
  H  H36  1  0.49146847  0.09086363  0.11107964  1.0
  H  H37  1  0.99147118  0.40913502  0.38891787  1.0
  H  H38  1  0.50852983  0.90912695  0.88892211  1.0
  H  H39  1  0.00852712  0.59086695  0.61108073  1.0
  H  H40  1  0.44900610  0.92396882  0.25178248  1.0
  H  H41  1  0.94901120  0.57603503  0.24821781  1.0
  H  H42  1  0.55099807  0.07602963  0.74821568  1.0
  H  H43  1  0.05100002  0.42397401  0.75178350  1.0
  H  H44  1  0.43586081  0.13720088  0.25153268  1.0
  H  H45  1  0.93586662  0.36280597  0.24846603  1.0
  H  H46  1  0.56413866  0.86279670  0.74846665  1.0
  H  H47  1  0.06413872  0.63720043  0.75153476  1.0
  H  H48  1  0.83024034  0.18098407  0.14891570  1.0
  H  H49  1  0.33024696  0.31901363  0.35108169  1.0
  H  H50  1  0.16975914  0.81901880  0.85108356  1.0
  H  H51  1  0.66976660  0.68098661  0.64891852  1.0
  H  H52  1  0.82002814  0.96864005  0.15122901  1.0
  H  H53  1  0.32003996  0.53135649  0.34876798  1.0
  H  H54  1  0.17997720  0.03136105  0.84876929  1.0
  H  H55  1  0.67997713  0.46864465  0.65123399  1.0
  H  H56  1  0.53542275  0.29810422  0.27371392  1.0
  H  H57  1  0.03542009  0.20189847  0.22628593  1.0
  H  H58  1  0.46457555  0.70189690  0.72628695  1.0
  H  H59  1  0.96458056  0.79810703  0.77371274  1.0
  H  H60  1  0.52639607  0.51455016  0.26640020  1.0
  H  H61  1  0.02639174  0.98545400  0.23359866  1.0
  H  H62  1  0.47360340  0.48545181  0.73359839  1.0
  H  H63  1  0.97360656  0.01455147  0.76639781  1.0
  H  H64  1  0.71582949  0.57113857  0.12419816  1.0
  H  H65  1  0.21583713  0.92886288  0.37579854  1.0
  H  H66  1  0.28416998  0.42885902  0.87580117  1.0
  H  H67  1  0.78416117  0.07113557  0.62419925  1.0
  H  H68  1  0.72587209  0.35680260  0.12377636  1.0
  H  H69  1  0.22588135  0.14319737  0.37622132  1.0
  H  H70  1  0.27412386  0.64319412  0.87622378  1.0
  H  H71  1  0.77411577  0.85680287  0.62377889  1.0
  C  C72  1  0.26154601  0.79161176  0.19340377  1.0
  C  C73  1  0.76150692  0.70838600  0.30659795  1.0
  C  C74  1  0.73845464  0.20838938  0.80659820  1.0
  C  C75  1  0.23846436  0.29161071  0.69340182  1.0
  C  C76  1  0.25329557  0.83688156  0.13683128  1.0
  C  C77  1  0.75329157  0.66312326  0.36316876  1.0
  C  C78  1  0.74670155  0.16311605  0.86316952  1.0
  C  C79  1  0.24670790  0.33688311  0.63682910  1.0
  C  C80  1  0.29221146  0.09996976  0.06160107  1.0
  C  C81  1  0.79221139  0.40002726  0.43839824  1.0
  C  C82  1  0.70778331  0.90002520  0.93839921  1.0
  C  C83  1  0.20777986  0.59997122  0.56160211  1.0
  C  C84  1  0.23714751  0.12409793  0.01254121  1.0
  C  C85  1  0.73715185  0.37590023  0.48745734  1.0
  C  C86  1  0.76284844  0.87589878  0.98745856  1.0
  C  C87  1  0.26284762  0.62409737  0.51254346  1.0
  C  C88  1  0.34366493  0.15667175  0.97337980  1.0
  C  C89  1  0.84367092  0.34332693  0.52661949  1.0
  C  C90  1  0.65633454  0.84332673  0.02662056  1.0
  C  C91  1  0.15633325  0.65666717  0.47338233  1.0
  C  C92  1  0.50432375  0.16321452  0.98391107  1.0
  C  C93  1  0.00432668  0.33678760  0.51608792  1.0
  C  C94  1  0.49567102  0.83678484  0.01608884  1.0
  C  C95  1  0.99567044  0.66320826  0.48391339  1.0
  C  C96  1  0.55839821  0.13859051  0.03307148  1.0
  C  C97  1  0.05840203  0.36141029  0.46692666  1.0
  C  C98  1  0.44160126  0.86140533  0.96692873  1.0
  C  C99  1  0.94159744  0.63858469  0.53307582  1.0
  C  C100  1  0.45210220  0.10739053  0.07239797  1.0
  C  C101  1  0.95210466  0.39260834  0.42760103  1.0
  C  C102  1  0.54789258  0.89260356  0.92760239  1.0
  C  C103  1  0.04789129  0.60739102  0.57239925  1.0
  C  C104  1  0.28372347  0.18750800  0.92058080  1.0
  C  C105  1  0.78372685  0.31249361  0.57941757  1.0
  C  C106  1  0.71627366  0.81249137  0.07941985  1.0
  C  C107  1  0.21627732  0.68750750  0.42058256  1.0
  C  C108  1  0.53087919  0.98420785  0.22923584  1.0
  C  C109  1  0.03088494  0.51579894  0.27076353  1.0
  C  C110  1  0.46912263  0.01578974  0.77076349  1.0
  C  C111  1  0.96912628  0.48420747  0.72923763  1.0
  C  C112  1  0.52633956  0.10378633  0.22970285  1.0
  C  C113  1  0.02634628  0.39621639  0.27029554  1.0
  C  C114  1  0.47365992  0.89621039  0.77029692  1.0
  C  C115  1  0.97367199  0.60378211  0.72970702  1.0
  C  C116  1  0.63310038  0.17965547  0.20050943  1.0
  C  C117  1  0.13310519  0.32034673  0.29948926  1.0
  C  C118  1  0.36690026  0.82034300  0.79949019  1.0
  C  C119  1  0.86690837  0.67964912  0.70051168  1.0
  C  C120  1  0.74176679  0.12913685  0.17216552  1.0
  C  C121  1  0.24177197  0.37086303  0.32783105  1.0
  C  C122  1  0.25823386  0.87086689  0.82783366  1.0
  C  C123  1  0.75823455  0.62913279  0.67216697  1.0
  C  C124  1  0.73764152  0.00885825  0.17350145  1.0
  C  C125  1  0.23765259  0.49114256  0.32649761  1.0
  C  C126  1  0.26235912  0.99114110  0.82649847  1.0
  C  C127  1  0.76236332  0.50885946  0.67350428  1.0
  C  C128  1  0.62946367  0.30752086  0.19884019  1.0
  C  C129  1  0.12946501  0.19248310  0.30115799  1.0
  C  C130  1  0.37053345  0.69248025  0.80115995  1.0
  C  C131  1  0.87053563  0.80752854  0.69883980  1.0
  C  C132  1  0.57269030  0.35457187  0.23909284  1.0
  C  C133  1  0.07268549  0.14543061  0.26090478  1.0
  C  C134  1  0.42731034  0.64542835  0.76090627  1.0
  C  C135  1  0.92731868  0.85458193  0.73909440  1.0
  C  C136  1  0.56831021  0.47568947  0.23553228  1.0
  C  C137  1  0.06830771  0.02431480  0.26446593  1.0
  C  C138  1  0.43168809  0.52431250  0.76446558  1.0
  C  C139  1  0.93168941  0.97569068  0.73553128  1.0
  C  C140  1  0.67531580  0.50716656  0.15636034  1.0
  C  C141  1  0.17532080  0.99283335  0.34363800  1.0
  C  C142  1  0.32468132  0.49283191  0.84363892  1.0
  C  C143  1  0.82467632  0.00716687  0.65636111  1.0
  C  C144  1  0.68222098  0.38736896  0.15662079  1.0
  C  C145  1  0.18222266  0.11263297  0.34337566  1.0
  C  C146  1  0.31777850  0.61263038  0.84337766  1.0
  C  C147  1  0.81777211  0.88737688  0.65661971  1.0
  S  S148  1  0.15488646  0.06067733  0.11109849  1.0
  S  S149  1  0.65488770  0.43932652  0.38890077  1.0
  S  S150  1  0.84511301  0.93932027  0.88890157  1.0
  S  S151  1  0.34512000  0.56067809  0.61109798  1.0
  N  N152  1  0.12800844  0.91931337  0.11913230  1.0
  N  N153  1  0.62800975  0.58068417  0.38086848  1.0
  N  N154  1  0.87198868  0.08068247  0.88086754  1.0
  N  N155  1  0.37198972  0.41931345  0.61913341  1.0
  N  N156  1  0.63392466  0.93664336  0.20130905  1.0
  N  N157  1  0.13392964  0.56335587  0.29868938  1.0
  N  N158  1  0.36607834  0.06335510  0.79869021  1.0
  N  N159  1  0.86608627  0.43664878  0.70131229  1.0
  N  N160  1  0.61843676  0.55145391  0.19493344  1.0
  N  N161  1  0.11843673  0.94855066  0.30506346  1.0
  N  N162  1  0.38156154  0.44854631  0.80506457  1.0
  N  N163  1  0.88155922  0.05145041  0.69493301  1.0
  O  O164  1  0.38585939  0.73893289  0.21010166  1.0
  O  O165  1  0.88586576  0.76109148  0.28989735  1.0
  O  O166  1  0.61414126  0.26107439  0.78989943  1.0
  O  O167  1  0.11413958  0.23891753  0.71010103  1.0
  O  O168  1  0.14365684  0.80569339  0.22050787  1.0
  O  O169  1  0.64366750  0.69430937  0.27949613  1.0
  O  O170  1  0.85633911  0.19430685  0.77949307  1.0
  O  O171  1  0.35633197  0.30569089  0.72050628  1.0
  O  O172  1  0.22870617  0.08619079  0.15557529  1.0
  O  O173  1  0.72871282  0.41381094  0.34442370  1.0
  O  O174  1  0.77128743  0.91380328  0.84442433  1.0
  O  O175  1  0.27128313  0.58619284  0.65557841  1.0
  O  O176  1  0.00511571  0.11274213  0.09398615  1.0
  O  O177  1  0.50511845  0.38725719  0.40601365  1.0
  O  O178  1  0.99488259  0.88725282  0.90601340  1.0
  O  O179  1  0.49487750  0.61274570  0.59398817  1.0
  O  O180  1  0.13515317  0.19390025  0.91418244  1.0
  O  O181  1  0.63516125  0.30610035  0.58581691  1.0
  O  O182  1  0.86484748  0.80609999  0.08581777  1.0
  O  O183  1  0.36484175  0.69389991  0.41418476  1.0
  O  O184  1  0.38534755  0.20798105  0.88566598  1.0
  O  O185  1  0.88535782  0.29202183  0.61433365  1.0
  O  O186  1  0.61465075  0.79201919  0.11433387  1.0
  O  O187  1  0.11464518  0.70797930  0.38566758  1.0
  O  O188  1  0.88097020  0.72875478  0.18239274  1.0
  O  O189  1  0.38097295  0.77123541  0.31761388  1.0
  O  O190  1  0.11903162  0.27124809  0.81760725  1.0
  O  O191  1  0.61905001  0.22874384  0.68239614  1.0
