# generated using pymatgen
data_ZnH17C28NO7
_symmetry_space_group_name_H-M   'P 1'
_cell_length_a   16.90680760
_cell_length_b   18.33141685
_cell_length_c   19.45910723
_cell_angle_alpha   90.02604600
_cell_angle_beta   90.28562449
_cell_angle_gamma   94.95483254
_symmetry_Int_Tables_number   1
_chemical_formula_structural   ZnH17C28NO7
_chemical_formula_sum   'Zn2 H34 C56 N2 O14'
_cell_volume   6008.26431800
_cell_formula_units_Z   2
loop_
 _symmetry_equiv_pos_site_id
 _symmetry_equiv_pos_as_xyz
  1  'x, y, z'
loop_
 _atom_site_type_symbol
 _atom_site_label
 _atom_site_symmetry_multiplicity
 _atom_site_fract_x
 _atom_site_fract_y
 _atom_site_fract_z
 _atom_site_occupancy
  Zn  Zn0  1  0.49474245  0.42017300  0.49109193  1.0
  Zn  Zn1  1  0.49857202  0.57701346  0.48588747  1.0
  H  H2  1  0.26202804  0.59888253  0.50299796  1.0
  H  H3  1  0.72936828  0.40301989  0.58883536  1.0
  H  H4  1  0.36921523  0.46263238  0.93812479  1.0
  H  H5  1  0.63579748  0.53028811  0.03922683  1.0
  H  H6  1  0.38798743  0.45930099  0.06377152  1.0
  H  H7  1  0.61740201  0.53257365  0.91349416  1.0
  H  H8  1  0.58090532  0.31214864  0.56819724  1.0
  H  H9  1  0.42253798  0.68861284  0.40272747  1.0
  H  H10  1  0.58676872  0.17599238  0.57154446  1.0
  H  H11  1  0.41785477  0.82445132  0.40249527  1.0
  H  H12  1  0.40113063  0.15945637  0.41729220  1.0
  H  H13  1  0.58568777  0.83410019  0.57153592  1.0
  H  H14  1  0.40308013  0.29613172  0.42116020  1.0
  H  H15  1  0.58078975  0.69761072  0.56583980  1.0
  H  H16  1  0.48221728  0.06691193  0.38216236  1.0
  H  H17  1  0.51549066  0.93082713  0.59958407  1.0
  H  H18  1  0.48619745  0.93293107  0.37929364  1.0
  H  H19  1  0.51264253  0.06494339  0.60226615  1.0
  H  H20  1  0.74424494  0.63152227  0.53710911  1.0
  H  H21  1  0.24740833  0.36458009  0.51877360  1.0
  H  H22  1  0.00850771  0.58901162  0.59595825  1.0
  H  H23  1  0.99536599  0.42283987  0.58239856  1.0
  H  H24  1  0.54727544  0.59924906  0.69999663  1.0
  H  H25  1  0.45990798  0.39524822  0.27828717  1.0
  H  H26  1  0.56380439  0.59628915  0.82693437  1.0
  H  H27  1  0.44875839  0.39291859  0.15069694  1.0
  H  H28  1  0.39198604  0.40779238  0.83508565  1.0
  H  H29  1  0.60211891  0.59361091  0.14171445  1.0
  H  H30  1  0.06256555  0.34811668  0.62123067  1.0
  H  H31  1  0.95730591  0.67255326  0.58110231  1.0
  H  H32  1  0.83819445  0.36298442  0.63553896  1.0
  H  H33  1  0.15975123  0.65314299  0.54062100  1.0
  H  H34  1  0.33849365  0.41022956  0.65015254  1.0
  H  H35  1  0.64731996  0.60273343  0.32808190  1.0
  C  C36  1  0.52915751  0.49912137  0.35834396  1.0
  C  C37  1  0.46414460  0.50520977  0.61953199  1.0
  C  C38  1  0.51384656  0.55750702  0.73057549  1.0
  C  C39  1  0.49057983  0.43845388  0.24748949  1.0
  C  C40  1  0.52337817  0.55510804  0.80148723  1.0
  C  C41  1  0.48405313  0.43776813  0.17620875  1.0
  C  C42  1  0.48056296  0.50097305  0.84104352  1.0
  C  C43  1  0.52313218  0.49377076  0.13633548  1.0
  C  C44  1  0.42702844  0.45057047  0.80686607  1.0
  C  C45  1  0.57020225  0.54925362  0.17039335  1.0
  C  C46  1  0.41752483  0.45175576  0.73538705  1.0
  C  C47  1  0.57616699  0.55138250  0.24216152  1.0
  C  C48  1  0.46242753  0.50531132  0.69652086  1.0
  C  C49  1  0.53484135  0.49580531  0.28144483  1.0
  C  C50  1  0.42819422  0.47624204  0.95994054  1.0
  C  C51  1  0.57695625  0.51612487  0.01726643  1.0
  C  C52  1  0.43881840  0.47433783  0.03080916  1.0
  C  C53  1  0.56643742  0.51762406  0.94633209  1.0
  C  C54  1  0.51328085  0.49447385  0.06093624  1.0
  C  C55  1  0.49178766  0.49808048  0.91621739  1.0
  C  C56  1  0.54211687  0.27556909  0.53612620  1.0
  C  C57  1  0.45733325  0.72342749  0.43926679  1.0
  C  C58  1  0.34459441  0.48436136  0.47655403  1.0
  C  C59  1  0.64435202  0.50682402  0.53172489  1.0
  C  C60  1  0.54462506  0.20010395  0.53766217  1.0
  C  C61  1  0.45573455  0.79898301  0.43923094  1.0
  C  C62  1  0.49470214  0.15585284  0.49383724  1.0
  C  C63  1  0.50141010  0.84152618  0.48751025  1.0
  C  C64  1  0.44281352  0.19104415  0.45098536  1.0
  C  C65  1  0.54740476  0.80428078  0.53396255  1.0
  C  C66  1  0.44326169  0.26678049  0.45279852  1.0
  C  C67  1  0.54566730  0.72851376  0.53095091  1.0
  C  C68  1  0.48831376  0.03706573  0.43008966  1.0
  C  C69  1  0.50945618  0.96053126  0.55155275  1.0
  C  C70  1  0.49041682  0.96148156  0.42850816  1.0
  C  C71  1  0.50782517  0.03620806  0.55313561  1.0
  C  C72  1  0.50064653  0.92182931  0.48922528  1.0
  C  C73  1  0.49687093  0.07568226  0.49244954  1.0
  C  C74  1  0.26208789  0.48196164  0.50484921  1.0
  C  C75  1  0.72807790  0.51566440  0.55809556  1.0
  C  C76  1  0.22826911  0.54766309  0.51729829  1.0
  C  C77  1  0.76446527  0.45569108  0.58434971  1.0
  C  C78  1  0.15405731  0.54850057  0.54758376  1.0
  C  C79  1  0.84439868  0.46210361  0.60267629  1.0
  C  C80  1  0.10870865  0.48240933  0.56578600  1.0
  C  C81  1  0.89290828  0.52864932  0.59268542  1.0
  C  C82  1  0.14652313  0.41631845  0.55601010  1.0
  C  C83  1  0.85256995  0.59073554  0.57245278  1.0
  C  C84  1  0.22100576  0.41628822  0.52516321  1.0
  C  C85  1  0.77185954  0.58346029  0.55509413  1.0
  C  C86  1  0.02527451  0.47776437  0.58413229  1.0
  C  C87  1  0.97913828  0.53411312  0.59456175  1.0
  C  C88  1  0.10992295  0.34507146  0.58191811  1.0
  C  C89  1  0.89333278  0.66558567  0.56693015  1.0
  C  C90  1  0.35703191  0.39797805  0.70348139  1.0
  C  C91  1  0.62897691  0.61149408  0.27403058  1.0
  N  N92  1  0.49258802  0.30846587  0.49421697  1.0
  N  N93  1  0.50128837  0.68867068  0.48453048  1.0
  O  O94  1  0.52553104  0.43859098  0.39070693  1.0
  O  O95  1  0.47271457  0.56714293  0.58991370  1.0
  O  O96  1  0.52504051  0.56239885  0.38446672  1.0
  O  O97  1  0.46058652  0.44268257  0.59040805  1.0
  O  O98  1  0.37454102  0.42379349  0.46715632  1.0
  O  O99  1  0.61385892  0.56530533  0.51461790  1.0
  O  O100  1  0.37998821  0.54793275  0.46690536  1.0
  O  O101  1  0.61078356  0.44197198  0.52744349  1.0
  O  O102  1  0.13075256  0.28534810  0.56455834  1.0
  O  O103  1  0.85989098  0.71941194  0.54906374  1.0
  O  O104  1  0.87911499  0.40323370  0.62959851  1.0
  O  O105  1  0.12267177  0.61417564  0.55853955  1.0
  O  O106  1  0.32694652  0.34398166  0.73388163  1.0
  O  O107  1  0.65324905  0.66710970  0.24290831  1.0
