# generated using pymatgen
data_ZnSiH12C24Br4(N2F3)2
_symmetry_space_group_name_H-M   'P 1'
_cell_length_a   7.79940295
_cell_length_b   13.99818759
_cell_length_c   13.99790124
_cell_angle_alpha   89.94307169
_cell_angle_beta   88.67219921
_cell_angle_gamma   88.67348280
_symmetry_Int_Tables_number   1
_chemical_formula_structural   ZnSiH12C24Br4(N2F3)2
_chemical_formula_sum   'Zn1 Si1 H12 C24 Br4 N4 F6'
_cell_volume   1527.43595978
_cell_formula_units_Z   1
loop_
 _symmetry_equiv_pos_site_id
 _symmetry_equiv_pos_as_xyz
  1  'x, y, z'
loop_
 _atom_site_type_symbol
 _atom_site_label
 _atom_site_symmetry_multiplicity
 _atom_site_fract_x
 _atom_site_fract_y
 _atom_site_fract_z
 _atom_site_occupancy
  Zn  Zn0  1  0.50002412  0.50000108  0.50000277  1.0
  Si  Si1  1  0.00001027  0.49998931  0.49999758  1.0
  H  H2  1  0.23833325  0.34009934  0.50013996  1.0
  H  H3  1  0.23023416  0.16297029  0.50011186  1.0
  H  H4  1  0.77302443  0.33554042  0.49998915  1.0
  H  H5  1  0.22700161  0.66446189  0.50003510  1.0
  H  H6  1  0.76170258  0.65991864  0.49982992  1.0
  H  H7  1  0.76978853  0.83705209  0.49980666  1.0
  H  H8  1  0.23832790  0.50012031  0.34010149  1.0
  H  H9  1  0.23022041  0.50010936  0.16297817  1.0
  H  H10  1  0.77300548  0.49995924  0.33553291  1.0
  H  H11  1  0.22704123  0.50002224  0.66444334  1.0
  H  H12  1  0.76172286  0.49992970  0.65991972  1.0
  H  H13  1  0.76977347  0.49995101  0.83705483  1.0
  C  C14  1  0.35675674  0.29745792  0.50010380  1.0
  C  C15  1  0.35273698  0.19857939  0.50008863  1.0
  C  C16  1  0.50686411  0.14410416  0.50004442  1.0
  C  C17  1  0.66040792  0.19556852  0.50002560  1.0
  C  C18  1  0.65524154  0.29512710  0.50001972  1.0
  C  C19  1  0.50439100  0.04341533  0.49998075  1.0
  C  C20  1  0.49561965  0.95659284  0.49991428  1.0
  C  C21  1  0.49316527  0.85590602  0.49987336  1.0
  C  C22  1  0.33960669  0.80443818  0.49992727  1.0
  C  C23  1  0.34478110  0.70488310  0.49997525  1.0
  C  C24  1  0.64327248  0.70256153  0.49987399  1.0
  C  C25  1  0.64729580  0.80143363  0.49984770  1.0
  C  C26  1  0.35675233  0.50007985  0.29746062  1.0
  C  C27  1  0.35270845  0.50007982  0.19859094  1.0
  C  C28  1  0.50684629  0.50007291  0.14411001  1.0
  C  C29  1  0.66039567  0.50005070  0.19556803  1.0
  C  C30  1  0.65522946  0.49999691  0.29513014  1.0
  C  C31  1  0.50437194  0.50004782  0.04341768  1.0
  C  C32  1  0.49560342  0.50000697  0.95658616  1.0
  C  C33  1  0.49314335  0.49997036  0.85589731  1.0
  C  C34  1  0.33961267  0.49997531  0.80442060  1.0
  C  C35  1  0.34480113  0.50000109  0.70486479  1.0
  C  C36  1  0.64328746  0.49994594  0.70255710  1.0
  C  C37  1  0.64728747  0.49995769  0.80142849  1.0
  Br  Br38  1  0.87498114  0.12978584  0.50006071  1.0
  Br  Br39  1  0.12504152  0.87023796  0.49985782  1.0
  Br  Br40  1  0.87497343  0.50018280  0.12978121  1.0
  Br  Br41  1  0.12503347  0.49991395  0.87020597  1.0
  N  N42  1  0.50547939  0.34499330  0.50004847  1.0
  N  N43  1  0.49453300  0.65501482  0.49994800  1.0
  N  N44  1  0.50545756  0.50001768  0.34499262  1.0
  N  N45  1  0.49458555  0.49998310  0.65501366  1.0
  F  F46  1  0.22712310  0.50091785  0.50093549  1.0
  F  F47  1  0.77290227  0.49906732  0.49907663  1.0
  F  F48  1  0.99999437  0.41424587  0.58575228  1.0
  F  F49  1  0.00001061  0.58574158  0.41425140  1.0
  F  F50  1  0.00837711  0.41426823  0.41427611  1.0
  F  F51  1  0.99166928  0.58571038  0.58571801  1.0
