# generated using pymatgen
data_Al3H19(C21O10)2
_symmetry_space_group_name_H-M   'P 1'
_cell_length_a   14.01253680
_cell_length_b   14.05565627
_cell_length_c   28.11404265
_cell_angle_alpha   89.89658560
_cell_angle_beta   89.86830242
_cell_angle_gamma   60.10362627
_symmetry_Int_Tables_number   1
_chemical_formula_structural   Al3H19(C21O10)2
_chemical_formula_sum   'Al6 H38 C84 O40'
_cell_volume   4800.35216339
_cell_formula_units_Z   2
loop_
 _symmetry_equiv_pos_site_id
 _symmetry_equiv_pos_as_xyz
  1  'x, y, z'
loop_
 _atom_site_type_symbol
 _atom_site_label
 _atom_site_symmetry_multiplicity
 _atom_site_fract_x
 _atom_site_fract_y
 _atom_site_fract_z
 _atom_site_occupancy
  Al  Al0  1  0.77029837  0.74199016  0.50141992  1.0
  Al  Al1  1  0.74076358  0.52975532  0.50204800  1.0
  Al  Al2  1  0.53696743  0.75094108  0.50129080  1.0
  Al  Al3  1  0.51102990  0.25615580  0.99905898  1.0
  Al  Al4  1  0.27013351  0.46945800  0.00212887  1.0
  Al  Al5  1  0.28603449  0.24873148  0.00129439  1.0
  H  H6  1  0.37928109  0.69979739  0.21447521  1.0
  H  H7  1  0.70639313  0.90081136  0.20899144  1.0
  H  H8  1  0.91008034  0.38168868  0.20354264  1.0
  H  H9  1  0.07873883  0.29940217  0.71526640  1.0
  H  H10  1  0.60068154  0.10193256  0.70968361  1.0
  H  H11  1  0.29397555  0.61618340  0.70346859  1.0
  H  H12  1  0.30368011  0.62155696  0.29131924  1.0
  H  H13  1  0.62711494  0.06580376  0.28111856  1.0
  H  H14  1  0.06465340  0.29712880  0.27981599  1.0
  H  H15  1  0.92372967  0.38049441  0.79157497  1.0
  H  H16  1  0.68721237  0.93643042  0.78167173  1.0
  H  H17  1  0.36226861  0.70054130  0.78039055  1.0
  H  H18  1  0.58143605  0.62694337  0.26326515  1.0
  H  H19  1  0.62513361  0.78427599  0.26295332  1.0
  H  H20  1  0.78519937  0.57963646  0.25529827  1.0
  H  H21  1  0.20837750  0.37213415  0.76396165  1.0
  H  H22  1  0.40199264  0.21534550  0.76296965  1.0
  H  H23  1  0.36750545  0.41740673  0.75474530  1.0
  H  H24  1  0.74557181  0.37694442  0.23311396  1.0
  H  H25  1  0.37680930  0.86919749  0.23050451  1.0
  H  H26  1  0.87617734  0.74179398  0.22876257  1.0
  H  H27  1  0.12321980  0.62249746  0.73224529  1.0
  H  H28  1  0.24159550  0.12984075  0.72924423  1.0
  H  H29  1  0.62392230  0.25705989  0.72875677  1.0
  H  H30  1  0.59297569  0.34147008  0.29300427  1.0
  H  H31  1  0.34142400  0.06560225  0.28466789  1.0
  H  H32  1  0.06354909  0.58208906  0.28713515  1.0
  H  H33  1  0.93513992  0.65954080  0.79179135  1.0
  H  H34  1  0.40395801  0.93128342  0.78352382  1.0
  H  H35  1  0.64697889  0.41624334  0.78783492  1.0
  H  H36  1  0.42013762  0.33101948  0.24080991  1.0
  H  H37  1  0.33807605  0.23686704  0.22910979  1.0
  H  H38  1  0.24377624  0.41470665  0.23844284  1.0
  H  H39  1  0.75164684  0.66973157  0.73958202  1.0
  H  H40  1  0.57423547  0.76210776  0.72903029  1.0
  H  H41  1  0.65907025  0.58548905  0.73949867  1.0
  H  H42  1  0.85320249  0.83891628  0.47201816  1.0
  H  H43  1  0.69246510  0.17088279  0.02622792  1.0
  C  C44  1  0.58044258  0.86760309  0.43290450  1.0
  C  C45  1  0.86864830  0.54823768  0.43203809  1.0
  C  C46  1  0.56301814  0.58277354  0.43708561  1.0
  C  C47  1  0.44454472  0.13259853  0.93238817  1.0
  C  C48  1  0.41619712  0.45184654  0.93242463  1.0
  C  C49  1  0.14499496  0.41625457  0.93697655  1.0
  C  C50  1  0.49767961  0.53563930  0.30154795  1.0
  C  C51  1  0.53541324  0.96453315  0.29513706  1.0
  C  C52  1  0.96077746  0.48968450  0.29310931  1.0
  C  C53  1  0.03268671  0.46555500  0.80146062  1.0
  C  C54  1  0.49396747  0.03481738  0.79492532  1.0
  C  C55  1  0.45182991  0.50775079  0.79334274  1.0
  C  C56  1  0.58683955  0.46538544  0.23342361  1.0
  C  C57  1  0.46747489  0.93708667  0.22840033  1.0
  C  C58  1  0.94344860  0.58385944  0.22668620  1.0
  C  C59  1  0.05348061  0.53354073  0.73303943  1.0
  C  C60  1  0.40016235  0.06167302  0.72776484  1.0
  C  C61  1  0.52976983  0.41465917  0.72686147  1.0
  C  C62  1  0.53879473  0.58024351  0.25868550  1.0
  C  C63  1  0.58078470  0.87230963  0.25529471  1.0
  C  C64  1  0.87460304  0.53586364  0.25069127  1.0
  C  C65  1  0.11917820  0.41923336  0.75895224  1.0
  C  C66  1  0.44677318  0.12740988  0.75520150  1.0
  C  C67  1  0.41270255  0.46173271  0.75055064  1.0
  C  C68  1  0.46032099  0.49081445  0.15731986  1.0
  C  C69  1  0.49886121  0.02742264  0.14983567  1.0
  C  C70  1  0.04436896  0.46211801  0.14943988  1.0
  C  C71  1  0.95335271  0.50691756  0.65699429  1.0
  C  C72  1  0.52398976  0.97297016  0.64959924  1.0
  C  C73  1  0.50867724  0.53789998  0.64993648  1.0
  C  C74  1  0.51359660  0.55025617  0.35006521  1.0
  C  C75  1  0.54695526  0.94099048  0.34431761  1.0
  C  C76  1  0.93323484  0.50185277  0.34205967  1.0
  C  C77  1  0.06272824  0.45134927  0.85002017  1.0
  C  C78  1  0.48127422  0.05809114  0.84410643  1.0
  C  C79  1  0.43611640  0.49548382  0.84223654  1.0
  C  C80  1  0.57568184  0.87652608  0.56554056  1.0
  C  C81  1  0.87278402  0.55212028  0.56938854  1.0
  C  C82  1  0.56303255  0.58214555  0.56605925  1.0
  C  C83  1  0.45056064  0.12213058  0.06525989  1.0
  C  C84  1  0.42582405  0.44374728  0.06983327  1.0
  C  C85  1  0.14294934  0.41985971  0.06567316  1.0
  C  C86  1  0.38458708  0.57792934  0.27433749  1.0
  C  C87  1  0.58243469  0.02820652  0.26555211  1.0
  C  C88  1  0.02915573  0.37903180  0.26415051  1.0
  C  C89  1  0.96178525  0.42320991  0.77440480  1.0
  C  C90  1  0.60538038  0.97289685  0.76571712  1.0
  C  C91  1  0.40925645  0.61884983  0.76462691  1.0
  C  C92  1  0.42674969  0.62107257  0.23264924  1.0
  C  C93  1  0.62634550  0.93652956  0.22666420  1.0
  C  C94  1  0.94333433  0.42610877  0.22284026  1.0
  C  C95  1  0.04781140  0.37846279  0.73305014  1.0
  C  C96  1  0.55714001  0.06487214  0.72692907  1.0
  C  C97  1  0.37143486  0.57192067  0.72295668  1.0
  C  C98  1  0.44474642  0.47371257  0.11634140  1.0
  C  C99  1  0.48031088  0.06289594  0.10931952  1.0
  C  C100  1  0.08269015  0.44597757  0.10934582  1.0
  C  C101  1  0.92155258  0.52315202  0.61588237  1.0
  C  C102  1  0.54308984  0.93694627  0.60920302  1.0
  C  C103  1  0.53027996  0.55508752  0.60987712  1.0
  C  C104  1  0.53159809  0.56157279  0.39149200  1.0
  C  C105  1  0.55686777  0.91597278  0.38625037  1.0
  C  C106  1  0.90942104  0.51717686  0.38415648  1.0
  C  C107  1  0.09202707  0.43948947  0.89145700  1.0
  C  C108  1  0.46667110  0.08329980  0.88599994  1.0
  C  C109  1  0.42738557  0.48090610  0.88440616  1.0
  C  C110  1  0.43270792  0.46403899  0.24984840  1.0
  C  C111  1  0.46988712  0.09207598  0.23951671  1.0
  C  C112  1  0.09703480  0.42725491  0.24109311  1.0
  C  C113  1  0.89708200  0.53653262  0.74928364  1.0
  C  C114  1  0.55874042  0.90788225  0.73915480  1.0
  C  C115  1  0.52551439  0.57156778  0.74192891  1.0
  C  C116  1  0.47475175  0.50771709  0.20557763  1.0
  C  C117  1  0.51452238  0.99943595  0.19831859  1.0
  C  C118  1  0.01032853  0.47455308  0.19719233  1.0
  C  C119  1  0.98367889  0.49114287  0.70535022  1.0
  C  C120  1  0.51012500  0.00094364  0.69806335  1.0
  C  C121  1  0.48710035  0.52446696  0.69758962  1.0
  C  C122  1  0.54570640  0.42116525  0.27541552  1.0
  C  C123  1  0.42238324  0.02892005  0.26761786  1.0
  C  C124  1  0.02934042  0.53775058  0.26832321  1.0
  C  C125  1  0.96738140  0.57938317  0.77470842  1.0
  C  C126  1  0.44741954  0.96932895  0.76688122  1.0
  C  C127  1  0.56861796  0.46058849  0.76885986  1.0
  O  O128  1  0.85200491  0.64008022  0.44652296  1.0
  O  O129  1  0.65603453  0.50989849  0.45360020  1.0
  O  O130  1  0.50649251  0.84967256  0.45126644  1.0
  O  O131  1  0.49260936  0.36248990  0.94852447  1.0
  O  O132  1  0.16254153  0.48940381  0.95513766  1.0
  O  O133  1  0.35780804  0.14434138  0.95387520  1.0
  O  O134  1  0.67242217  0.84294377  0.45089989  1.0
  O  O135  1  0.84919757  0.48038647  0.45545884  1.0
  O  O136  1  0.49789338  0.67513504  0.45657615  1.0
  O  O137  1  0.50927348  0.16390313  0.94721211  1.0
  O  O138  1  0.32620150  0.51891054  0.95436470  1.0
  O  O139  1  0.17517356  0.32152325  0.95479789  1.0
  O  O140  1  0.85904500  0.64033277  0.55129105  1.0
  O  O141  1  0.65281855  0.50845951  0.54696964  1.0
  O  O142  1  0.50185687  0.86140599  0.54485161  1.0
  O  O143  1  0.49852701  0.35268586  0.05320680  1.0
  O  O144  1  0.16317536  0.49244252  0.04838128  1.0
  O  O145  1  0.35686544  0.14329265  0.04763343  1.0
  O  O146  1  0.67364264  0.83988244  0.55176270  1.0
  O  O147  1  0.84403560  0.48635003  0.55056966  1.0
  O  O148  1  0.50232472  0.67959516  0.55002102  1.0
  O  O149  1  0.51494613  0.15214325  0.04833213  1.0
  O  O150  1  0.33402899  0.51164503  0.04948692  1.0
  O  O151  1  0.17597443  0.32444287  0.04815636  1.0
  O  O152  1  0.68182561  0.67362647  0.50094853  1.0
  O  O153  1  0.35417172  0.32552722  0.00073434  1.0
  O  O154  1  0.68630978  0.40792339  0.20977563  1.0
  O  O155  1  0.40937891  0.89395696  0.20624920  1.0
  O  O156  1  0.90378026  0.68452038  0.20456800  1.0
  O  O157  1  0.09651690  0.58968109  0.70910104  1.0
  O  O158  1  0.29942831  0.10401262  0.70520077  1.0
  O  O159  1  0.59145418  0.31439116  0.70462877  1.0
  O  O160  1  0.37338163  0.41041370  0.24740146  1.0
  O  O161  1  0.41876320  0.20349695  0.23194209  1.0
  O  O162  1  0.20952972  0.36791236  0.23696004  1.0
  O  O163  1  0.78420586  0.59046072  0.74642643  1.0
  O  O164  1  0.62052471  0.79670883  0.73136143  1.0
  O  O165  1  0.57789147  0.63175930  0.73854207  1.0
  O  O166  1  0.85567960  0.79970003  0.50067860  1.0
  O  O167  1  0.65431086  0.19581240  0.99622931  1.0
