# generated using pymatgen
data_AlH9C11NO5
_symmetry_space_group_name_H-M   'P 1'
_cell_length_a   6.66704560
_cell_length_b   8.78386841
_cell_length_c   17.73290932
_cell_angle_alpha   97.33887667
_cell_angle_beta   100.43197694
_cell_angle_gamma   104.98367599
_symmetry_Int_Tables_number   1
_chemical_formula_structural   AlH9C11NO5
_chemical_formula_sum   'Al2 H18 C22 N2 O10'
_cell_volume   969.79641016
_cell_formula_units_Z   2
loop_
 _symmetry_equiv_pos_site_id
 _symmetry_equiv_pos_as_xyz
  1  'x, y, z'
loop_
 _atom_site_type_symbol
 _atom_site_label
 _atom_site_symmetry_multiplicity
 _atom_site_fract_x
 _atom_site_fract_y
 _atom_site_fract_z
 _atom_site_occupancy
  Al  Al0  1  0.01018641  0.51135943  0.49902534  1.0
  Al  Al1  1  0.51271211  0.51520977  0.50081867  1.0
  H  H2  1  0.17236951  0.32752386  0.43754009  1.0
  H  H3  1  0.84859188  0.61753159  0.59634467  1.0
  H  H4  1  0.01321638  0.40247686  0.71675143  1.0
  H  H5  1  0.06396084  0.37658010  0.85737678  1.0
  H  H6  1  0.69210587  0.53479707  0.73954105  1.0
  H  H7  1  0.35635141  0.57922980  0.27468100  1.0
  H  H8  1  0.91951619  0.43366229  0.26262083  1.0
  H  H9  1  0.82837377  0.40145882  0.11705264  1.0
  H  H10  1  0.80312975  0.54300142  0.94969693  1.0
  H  H11  1  0.91380506  0.58601266  0.87191299  1.0
  H  H12  1  0.22160267  0.57824939  0.06502620  1.0
  H  H13  1  0.15806116  0.62602963  0.15276004  1.0
  H  H14  1  0.81387658  0.02851485  0.41136325  1.0
  H  H15  1  0.62819945  0.84058730  0.41123606  1.0
  H  H16  1  0.84175399  0.92831728  0.49161908  1.0
  H  H17  1  0.17062013  0.09114893  0.50585462  1.0
  H  H18  1  0.38410885  0.17995726  0.58675753  1.0
  H  H19  1  0.19859041  0.99097796  0.58550980  1.0
  C  C20  1  0.65783594  0.22199690  0.48590159  1.0
  C  C21  1  0.68940970  0.51886227  0.36250348  1.0
  C  C22  1  0.35903238  0.80002714  0.51164950  1.0
  C  C23  1  0.32477355  0.49529908  0.63800946  1.0
  C  C24  1  0.35118598  0.47363668  0.72095978  1.0
  C  C25  1  0.17213698  0.42813314  0.75347550  1.0
  C  C26  1  0.20101639  0.41434995  0.83152569  1.0
  C  C27  1  0.40702715  0.45016980  0.87938782  1.0
  C  C28  1  0.58830135  0.49288504  0.84577202  1.0
  C  C29  1  0.55586018  0.50173689  0.76631664  1.0
  C  C30  1  0.44139746  0.45080686  0.96040718  1.0
  C  C31  1  0.49323708  0.46139603  0.03130606  1.0
  C  C32  1  0.54353403  0.47629767  0.11327113  1.0
  C  C33  1  0.40768820  0.52854442  0.15787432  1.0
  C  C34  1  0.45928080  0.54221796  0.23922451  1.0
  C  C35  1  0.64225586  0.50867056  0.27621709  1.0
  C  C36  1  0.77832339  0.45991983  0.23250148  1.0
  C  C37  1  0.72710774  0.44248314  0.15193403  1.0
  C  C38  1  0.59138204  0.04496264  0.48352288  1.0
  C  C39  1  0.42326437  0.97717409  0.51389582  1.0
  C  C40  1  0.72546681  0.95584747  0.44716060  1.0
  C  C41  1  0.28796758  0.06484084  0.55038842  1.0
  N  N42  1  0.78996088  0.52173455  0.89111008  1.0
  N  N43  1  0.22588917  0.55886874  0.12043928  1.0
  O  O44  1  0.85689496  0.28828059  0.49370227  1.0
  O  O45  1  0.54801113  0.54336369  0.39822041  1.0
  O  O46  1  0.50456054  0.73030346  0.52108727  1.0
  O  O47  1  0.14955683  0.51719072  0.60601143  1.0
  O  O48  1  0.16049944  0.73081174  0.50194532  1.0
  O  O49  1  0.48055417  0.49232346  0.60580559  1.0
  O  O50  1  0.51454626  0.29471894  0.47864261  1.0
  O  O51  1  0.86592815  0.49911655  0.39419299  1.0
  O  O52  1  0.21919623  0.43976965  0.46187430  1.0
  O  O53  1  0.80548872  0.58160965  0.54034850  1.0
