# generated using pymatgen
data_Zn8H51C60N9O26
_symmetry_space_group_name_H-M   'P 1'
_cell_length_a   18.38000366
_cell_length_b   18.39767825
_cell_length_c   18.40470402
_cell_angle_alpha   60.29257026
_cell_angle_beta   89.76934968
_cell_angle_gamma   119.90605654
_symmetry_Int_Tables_number   1
_chemical_formula_structural   Zn8H51C60N9O26
_chemical_formula_sum   'Zn8 H51 C60 N9 O26'
_cell_volume   4417.49527665
_cell_formula_units_Z   1
loop_
 _symmetry_equiv_pos_site_id
 _symmetry_equiv_pos_as_xyz
  1  'x, y, z'
loop_
 _atom_site_type_symbol
 _atom_site_label
 _atom_site_symmetry_multiplicity
 _atom_site_fract_x
 _atom_site_fract_y
 _atom_site_fract_z
 _atom_site_occupancy
  Zn  Zn0  1  0.13261777  0.08709756  0.45569601  1.0
  Zn  Zn1  1  0.95871631  0.08899524  0.45942523  1.0
  Zn  Zn2  1  0.95767091  0.91430519  0.62789688  1.0
  Zn  Zn3  1  0.95993414  0.91550160  0.45427369  1.0
  Zn  Zn4  1  0.36653954  0.91151929  0.04922514  1.0
  Zn  Zn5  1  0.54177641  0.08664750  0.87341309  1.0
  Zn  Zn6  1  0.54277558  0.91494268  0.04580075  1.0
  Zn  Zn7  1  0.54297348  0.08956489  0.04441063  1.0
  H  H8  1  0.40027859  0.15994441  0.15176752  1.0
  H  H9  1  0.75088634  0.39257277  0.63560407  1.0
  H  H10  1  0.65947643  0.40226540  0.62584693  1.0
  H  H11  1  0.85742354  0.58623928  0.53564597  1.0
  H  H12  1  0.76520156  0.59507073  0.52585599  1.0
  H  H13  1  0.71393480  0.12954124  0.19506834  1.0
  H  H14  1  0.74446237  0.87004174  0.16631054  1.0
  H  H15  1  0.72926554  0.77167260  0.36274166  1.0
  H  H16  1  0.29358772  0.87892339  0.32453596  1.0
  H  H17  1  0.83002620  0.85691833  0.27153823  1.0
  H  H18  1  0.82329003  0.23777188  0.67009600  1.0
  H  H19  1  0.27572215  0.09829790  0.09554386  1.0
  H  H20  1  0.82153602  0.19288396  0.52965037  1.0
  H  H21  1  0.91027465  0.23111716  0.57257164  1.0
  H  H22  1  0.41792043  0.59790043  0.19974760  1.0
  H  H23  1  0.20583212  0.83651716  0.28355976  1.0
  H  H24  1  0.12729289  0.59328811  0.16884505  1.0
  H  H25  1  0.03912473  0.40047679  0.35924952  1.0
  H  H26  1  0.10508428  0.94527949  0.24317582  1.0
  H  H27  1  0.30823322  0.16026535  0.23934784  1.0
  H  H28  1  0.31606795  0.07499614  0.33457916  1.0
  H  H29  1  0.07477148  0.79556886  0.34916897  1.0
  H  H30  1  0.08555827  0.89824749  0.81795784  1.0
  H  H31  1  0.05769596  0.80045208  0.43360371  1.0
  H  H32  1  0.11755985  0.09234236  0.20474148  1.0
  H  H33  1  0.22453184  0.16817550  0.14659673  1.0
  H  H34  1  0.52066160  0.10182030  0.67408093  1.0
  H  H35  1  0.44927799  0.02315027  0.65167424  1.0
  H  H36  1  0.35707810  0.02187889  0.55921288  1.0
  H  H37  1  0.32505722  0.08985183  0.49022442  1.0
  H  H38  1  0.80714416  0.12592789  0.29297372  1.0
  H  H39  1  0.58634477  0.76341279  0.22503235  1.0
  H  H40  1  0.58668366  0.72841892  0.32604192  1.0
  H  H41  1  0.17929097  0.89274263  0.91512962  1.0
  H  H42  1  0.77246478  0.80959451  0.79078530  1.0
  H  H43  1  0.69182002  0.75260107  0.88826422  1.0
  H  H44  1  0.64102002  0.83873175  0.90619243  1.0
  H  H45  1  0.67997711  0.17706629  0.59544436  1.0
  H  H46  1  0.75715211  0.29433529  0.56411481  1.0
  H  H47  1  0.32438830  0.40788599  0.28626316  1.0
  H  H48  1  0.07688822  0.60824939  0.27585384  1.0
  H  H49  1  0.13705060  0.57864604  0.33508668  1.0
  H  H50  1  0.04159897  0.41477500  0.19230487  1.0
  H  H51  1  0.95836242  0.38492254  0.26174973  1.0
  H  H52  1  0.46897106  0.20276594  0.62749514  1.0
  H  H53  1  0.20114593  0.96675124  0.14071396  1.0
  H  H54  1  0.40708145  0.07321013  0.24772192  1.0
  H  H55  1  0.37906685  0.20431533  0.53164071  1.0
  H  H56  1  0.80114641  0.60085981  0.81211512  1.0
  H  H57  1  0.21634418  0.89281521  0.41009436  1.0
  H  H58  1  0.69814651  0.41073858  0.91019152  1.0
  C  C59  1  0.86046491  0.99937494  0.36638651  1.0
  C  C60  1  0.21003958  0.93950928  0.84333024  1.0
  C  C61  1  0.30346982  0.99671142  0.80775020  1.0
  C  C62  1  0.13894263  0.00670383  0.63817155  1.0
  C  C63  1  0.34023462  0.05446521  0.71559468  1.0
  C  C64  1  0.42755291  0.12779457  0.63775105  1.0
  C  C65  1  0.36671580  0.12862627  0.57540696  1.0
  C  C66  1  0.78415299  0.55240122  0.65644491  1.0
  C  C67  1  0.81291283  0.61124711  0.69037700  1.0
  C  C68  1  0.78000886  0.55698949  0.78358468  1.0
  C  C69  1  0.72228001  0.45060963  0.83849050  1.0
  C  C70  1  0.29912328  0.08592322  0.27451519  1.0
  C  C71  1  0.69350174  0.39162960  0.80355548  1.0
  C  C72  1  0.72585393  0.44559774  0.71157193  1.0
  C  C73  1  0.72459105  0.43491878  0.63501271  1.0
  C  C74  1  0.14377478  0.27646734  0.35721339  1.0
  C  C75  1  0.79073820  0.55575825  0.57252641  1.0
  C  C76  1  0.77111630  0.93232627  0.28406626  1.0
  C  C77  1  0.80449405  0.00064631  0.30832669  1.0
  C  C78  1  0.78232463  0.07185345  0.27479022  1.0
  C  C79  1  0.73027243  0.07396632  0.21989342  1.0
  C  C80  1  0.69789771  0.00544058  0.19462970  1.0
  C  C81  1  0.20064975  0.00090383  0.30193504  1.0
  C  C82  1  0.71989643  0.93530595  0.22830244  1.0
  C  C83  1  0.70923294  0.84570443  0.23088736  1.0
  C  C84  1  0.76619655  0.84246728  0.29523362  1.0
  C  C85  1  0.79155572  0.07173126  0.66804478  1.0
  C  C86  1  0.87304771  0.72496243  0.63350774  1.0
  C  C87  1  0.79359269  0.98642665  0.69863164  1.0
  C  C88  1  0.73536338  0.89885559  0.78719692  1.0
  C  C89  1  0.68353286  0.90495013  0.83829447  1.0
  C  C90  1  0.68475563  0.99217518  0.80624033  1.0
  C  C91  1  0.73939261  0.07615229  0.71839486  1.0
  C  C92  1  0.30280794  0.00146270  0.20251684  1.0
  C  C93  1  0.78038183  0.18948145  0.64873054  1.0
  C  C94  1  0.83748566  0.18207097  0.59020208  1.0
  C  C95  1  0.16202330  0.44565701  0.27968217  1.0
  C  C96  1  0.19933042  0.39050727  0.30078949  1.0
  C  C97  1  0.29306009  0.44845753  0.27054481  1.0
  C  C98  1  0.85382696  0.99027467  0.64183583  1.0
  C  C99  1  0.34556819  0.55515221  0.22232686  1.0
  C  C100  1  0.30743375  0.61019391  0.20140259  1.0
  C  C101  1  0.21452030  0.55216704  0.23149385  1.0
  C  C102  1  0.13566576  0.55936096  0.23422796  1.0
  C  C103  1  0.23762252  0.02120185  0.15810959  1.0
  C  C104  1  0.07432342  0.43519031  0.29028850  1.0
  C  C105  1  0.63353100  0.27797349  0.86248939  1.0
  C  C106  1  0.36430962  0.72430047  0.14602947  1.0
  C  C107  1  0.35931426  0.99594407  0.86603874  1.0
  C  C108  1  0.64303441  0.00804361  0.13547820  1.0
  C  C109  1  0.63122876  0.99404214  0.86548246  1.0
  C  C110  1  0.14165841  0.99930713  0.36126854  1.0
  C  C111  1  0.35993998  0.99927630  0.14428427  1.0
  C  C112  1  0.18989299  0.89511483  0.35590391  1.0
  C  C113  1  0.24849999  0.89674252  0.29343417  1.0
  C  C114  1  0.35989473  0.08577125  0.21665942  1.0
  C  C115  1  0.17243992  0.01419203  0.21887279  1.0
  C  C116  1  0.28767353  0.05717594  0.66114297  1.0
  C  C117  1  0.19542366  0.00297264  0.69567376  1.0
  C  C118  1  0.15755731  0.94265239  0.78890247  1.0
  N  N119  1  0.10025394  0.80139412  0.39671816  1.0
  N  N120  1  0.16583334  0.10060923  0.16727692  1.0
  N  N121  1  0.48536054  0.09750410  0.63186613  1.0
  N  N122  1  0.37167902  0.09393815  0.52108327  1.0
  N  N123  1  0.62169423  0.75124647  0.26694426  1.0
  N  N124  1  0.72691604  0.80880715  0.82318891  1.0
  N  N125  1  0.72131723  0.21917716  0.61662694  1.0
  N  N126  1  0.13360884  0.61087430  0.27252478  1.0
  N  N127  1  0.01237969  0.38259812  0.25720924  1.0
  O  O128  1  0.00235428  0.00172959  0.49842458  1.0
  O  O129  1  0.62430647  0.94896201  0.11038327  1.0
  O  O130  1  0.62171785  0.06692170  0.82768352  1.0
  O  O131  1  0.88027356  0.93535719  0.38901204  1.0
  O  O132  1  0.44405418  0.06140733  0.11993678  1.0
  O  O133  1  0.59980476  0.92347140  0.94870465  1.0
  O  O134  1  0.31878591  0.93509670  0.12466206  1.0
  O  O135  1  0.31964025  0.93988376  0.94956658  1.0
  O  O136  1  0.61916678  0.06813212  0.11485651  1.0
  O  O137  1  0.60779133  0.23260747  0.82367573  1.0
  O  O138  1  0.44761951  0.76899107  0.13470214  1.0
  O  O139  1  0.18328378  0.23265571  0.36810922  1.0
  O  O140  1  0.17997229  0.06733767  0.55440796  1.0
  O  O141  1  0.06112470  0.23238027  0.39135900  1.0
  O  O142  1  0.89588195  0.76953855  0.67305426  1.0
  O  O143  1  0.89309558  0.06721680  0.56062637  1.0
  O  O144  1  0.05871460  0.95182873  0.37008111  1.0
  O  O145  1  0.86430252  0.91694178  0.67693154  1.0
  O  O146  1  0.17749926  0.04297291  0.39991884  1.0
  O  O147  1  0.89661475  0.76882361  0.54949330  1.0
  O  O148  1  0.88381420  0.06154905  0.38846062  1.0
  O  O149  1  0.05471307  0.94955937  0.67664305  1.0
  O  O150  1  0.49772314  0.99998916  0.00364012  1.0
  O  O151  1  0.61341277  0.23538694  0.94613811  1.0
  O  O152  1  0.32489225  0.76754803  0.11331781  1.0
  O  O153  1  0.44335272  0.05285870  0.82631144  1.0
