# generated using pymatgen
data_AlH3C27(OF2)6
_symmetry_space_group_name_H-M   'P 1'
_cell_length_a   4.05902608
_cell_length_b   16.08650022
_cell_length_c   16.09116237
_cell_angle_alpha   119.84116884
_cell_angle_beta   91.21632757
_cell_angle_gamma   91.20144260
_symmetry_Int_Tables_number   1
_chemical_formula_structural   AlH3C27(OF2)6
_chemical_formula_sum   'Al1 H3 C27 O6 F12'
_cell_volume   910.56134919
_cell_formula_units_Z   1
loop_
 _symmetry_equiv_pos_site_id
 _symmetry_equiv_pos_as_xyz
  1  'x, y, z'
loop_
 _atom_site_type_symbol
 _atom_site_label
 _atom_site_symmetry_multiplicity
 _atom_site_fract_x
 _atom_site_fract_y
 _atom_site_fract_z
 _atom_site_occupancy
  Al  Al0  1  0.00018285  0.50005266  0.49993435  1.0
  H  H1  1  0.49987280  0.07723202  0.92289204  1.0
  H  H2  1  0.42571078  0.34217705  0.92030366  1.0
  H  H3  1  0.57384727  0.07987714  0.65806955  1.0
  C  C4  1  0.48397966  0.42771013  0.35328383  1.0
  C  C5  1  0.50011634  0.42695725  0.57302077  1.0
  C  C6  1  0.51635166  0.64674038  0.57238285  1.0
  C  C7  1  0.47547209  0.21619505  0.93403793  1.0
  C  C8  1  0.49983246  0.11622081  0.88393772  1.0
  C  C9  1  0.52422324  0.06609974  0.78399153  1.0
  C  C10  1  0.53565069  0.11739543  0.73465498  1.0
  C  C11  1  0.49972202  0.21681598  0.78339376  1.0
  C  C12  1  0.46388244  0.26555373  0.88277238  1.0
  C  C13  1  0.68314695  0.80716665  0.71608268  1.0
  C  C14  1  0.68909753  0.90705113  0.76612259  1.0
  C  C15  1  0.52968035  0.96015644  0.73043957  1.0
  C  C16  1  0.36538846  0.90577702  0.64049230  1.0
  C  C17  1  0.36485669  0.80598248  0.58941759  1.0
  C  C18  1  0.52323311  0.75483614  0.62645632  1.0
  C  C19  1  0.31095888  0.23402426  0.09301993  1.0
  C  C20  1  0.31704021  0.28403119  0.19288011  1.0
  C  C21  1  0.47692367  0.37368406  0.24521009  1.0
  C  C22  1  0.63520301  0.41073864  0.19407587  1.0
  C  C23  1  0.63456767  0.35969144  0.09431700  1.0
  C  C24  1  0.47028549  0.26972929  0.03994089  1.0
  C  C25  1  0.66475477  0.35926527  0.76585924  1.0
  C  C26  1  0.66691331  0.40950198  0.71606461  1.0
  C  C27  1  0.50013002  0.37337539  0.62661976  1.0
  C  C28  1  0.33306231  0.28397097  0.59059094  1.0
  C  C29  1  0.33485764  0.23424259  0.64089969  1.0
  C  C30  1  0.49972613  0.26985976  0.73032317  1.0
  O  O31  1  0.27836483  0.60553584  0.58908208  1.0
  O  O32  1  0.25363517  0.48462279  0.39338697  1.0
  O  O33  1  0.25828797  0.41060928  0.51463508  1.0
  O  O34  1  0.74670191  0.60666547  0.51548307  1.0
  O  O35  1  0.74216860  0.48522953  0.58927950  1.0
  O  O36  1  0.72202895  0.41096195  0.39443481  1.0
  F  F37  1  0.20322357  0.75861412  0.50317867  1.0
  F  F38  1  0.83858014  0.76066858  0.75522313  1.0
  F  F39  1  0.18998048  0.94954106  0.60139017  1.0
  F  F40  1  0.86208284  0.95244327  0.85105581  1.0
  F  F41  1  0.16156819  0.24486690  0.23934401  1.0
  F  F42  1  0.13789463  0.14907233  0.04764551  1.0
  F  F43  1  0.79678690  0.49700945  0.24146159  1.0
  F  F44  1  0.80986014  0.39881519  0.05058920  1.0
  F  F45  1  0.83876368  0.39881845  0.85051050  1.0
  F  F46  1  0.83244014  0.49484912  0.75774977  1.0
  F  F47  1  0.16074365  0.14959997  0.60145056  1.0
  F  F48  1  0.16774186  0.24218276  0.50521627  1.0
