# generated using pymatgen
data_AlH11C16NO6
_symmetry_space_group_name_H-M   'P 1'
_cell_length_a   6.86093868
_cell_length_b   16.98959128
_cell_length_c   17.53001131
_cell_angle_alpha   81.95238407
_cell_angle_beta   82.82816684
_cell_angle_gamma   82.02406339
_symmetry_Int_Tables_number   1
_chemical_formula_structural   AlH11C16NO6
_chemical_formula_sum   'Al2 H22 C32 N2 O12'
_cell_volume   1992.06961526
_cell_formula_units_Z   2
loop_
 _symmetry_equiv_pos_site_id
 _symmetry_equiv_pos_as_xyz
  1  'x, y, z'
loop_
 _atom_site_type_symbol
 _atom_site_label
 _atom_site_symmetry_multiplicity
 _atom_site_fract_x
 _atom_site_fract_y
 _atom_site_fract_z
 _atom_site_occupancy
  Al  Al0  1  0.49996569  0.50007403  0.49998826  1.0
  Al  Al1  1  0.99998401  0.50009472  0.50000730  1.0
  H  H2  1  0.75825143  0.56438289  0.41200299  1.0
  H  H3  1  0.24176258  0.43564482  0.58793992  1.0
  H  H4  1  0.14698565  0.26108206  0.49660760  1.0
  H  H5  1  0.20776272  0.11310150  0.49652440  1.0
  H  H6  1  0.58120834  0.10680604  0.49838491  1.0
  H  H7  1  0.41882021  0.89333656  0.50160447  1.0
  H  H8  1  0.79234100  0.88704418  0.50336412  1.0
  H  H9  1  0.85307473  0.73905488  0.50333235  1.0
  H  H10  1  0.64897812  0.49590714  0.28035379  1.0
  H  H11  1  0.72804881  0.49592203  0.13810727  1.0
  H  H12  1  0.03364633  0.49664325  0.25628387  1.0
  H  H13  1  0.96553796  0.50555512  0.74343304  1.0
  H  H14  1  0.35186691  0.50105244  0.72006808  1.0
  H  H15  1  0.27327827  0.49981427  0.86245510  1.0
  H  H16  1  0.48626494  0.31842707  0.49671393  1.0
  H  H17  1  0.51381464  0.68169801  0.50329107  1.0
  H  H18  1  0.99323836  0.44275842  0.11483028  1.0
  H  H19  1  0.13159949  0.49657270  0.03759227  1.0
  H  H20  1  0.95948559  0.54974129  0.10204942  1.0
  H  H21  1  0.03608219  0.45090805  0.90080715  1.0
  H  H22  1  0.86664036  0.50925778  0.96160855  1.0
  H  H23  1  0.01068422  0.55769102  0.88227812  1.0
  C  C24  1  0.29306478  0.49978818  0.36192066  1.0
  C  C25  1  0.19902467  0.64452681  0.50070505  1.0
  C  C26  1  0.70688119  0.50023301  0.63808756  1.0
  C  C27  1  0.80100337  0.35560247  0.49929927  1.0
  C  C28  1  0.83073607  0.26842562  0.49753533  1.0
  C  C29  1  0.02395147  0.22692829  0.49699580  1.0
  C  C30  1  0.05890833  0.14500939  0.49702517  1.0
  C  C31  1  0.89677054  0.10183121  0.49796590  1.0
  C  C32  1  0.70413571  0.14125928  0.49788075  1.0
  C  C33  1  0.66865082  0.22458409  0.49742973  1.0
  C  C34  1  0.29588844  0.85890168  0.50208895  1.0
  C  C35  1  0.10327726  0.89832614  0.50197126  1.0
  C  C36  1  0.94116659  0.85515077  0.50289294  1.0
  C  C37  1  0.97607985  0.77322788  0.50295219  1.0
  C  C38  1  0.16930458  0.73172470  0.50243261  1.0
  C  C39  1  0.33138961  0.77557551  0.50255397  1.0
  C  C40  1  0.33553430  0.49742853  0.27683462  1.0
  C  C41  1  0.53256792  0.49656231  0.24331425  1.0
  C  C42  1  0.57679507  0.49635588  0.16432515  1.0
  C  C43  1  0.42712890  0.49703842  0.11603610  1.0
  C  C44  1  0.22820534  0.49667061  0.14936059  1.0
  C  C45  1  0.18593203  0.49684705  0.22945072  1.0
  C  C46  1  0.47776018  0.49838884  0.03504963  1.0
  C  C47  1  0.52280658  0.50021919  0.96516151  1.0
  C  C48  1  0.57320994  0.50180421  0.88413402  1.0
  C  C49  1  0.77149032  0.50404117  0.85056110  1.0
  C  C50  1  0.81370192  0.50406655  0.77044166  1.0
  C  C51  1  0.66450240  0.50220767  0.72322911  1.0
  C  C52  1  0.46802090  0.50135847  0.75696501  1.0
  C  C53  1  0.42400554  0.50096121  0.83603172  1.0
  C  C54  1  0.06934215  0.49641822  0.09821035  1.0
  C  C55  1  0.92993165  0.50569231  0.90152219  1.0
  N  N56  1  0.91263071  0.01774992  0.49899179  1.0
  N  N57  1  0.08745191  0.98238548  0.50094351  1.0
  O  O58  1  0.44314686  0.50357212  0.39713494  1.0
  O  O59  1  0.05016607  0.60877212  0.49684013  1.0
  O  O60  1  0.88468151  0.50142400  0.60655297  1.0
  O  O61  1  0.62061478  0.39084302  0.49780310  1.0
  O  O62  1  0.55681766  0.49652234  0.60284096  1.0
  O  O63  1  0.94978624  0.39138294  0.50320535  1.0
  O  O64  1  0.11521840  0.49877295  0.39344504  1.0
  O  O65  1  0.37944390  0.60929679  0.50218298  1.0
  O  O66  1  0.74841812  0.53754052  0.46467069  1.0
  O  O67  1  0.25153882  0.46259351  0.53531182  1.0
  O  O68  1  0.47980702  0.25975894  0.49728455  1.0
  O  O69  1  0.52023762  0.74037488  0.50272407  1.0
