# generated using pymatgen
data_Zn2H24C38N2O8F3
_symmetry_space_group_name_H-M   'P 1'
_cell_length_a   10.96374408
_cell_length_b   14.01980176
_cell_length_c   26.37878400
_cell_angle_alpha   87.39535461
_cell_angle_beta   89.63263165
_cell_angle_gamma   89.35653277
_symmetry_Int_Tables_number   1
_chemical_formula_structural   Zn2H24C38N2O8F3
_chemical_formula_sum   'Zn4 H48 C76 N4 O16 F6'
_cell_volume   4050.15514509
_cell_formula_units_Z   2
loop_
 _symmetry_equiv_pos_site_id
 _symmetry_equiv_pos_as_xyz
  1  'x, y, z'
loop_
 _atom_site_type_symbol
 _atom_site_label
 _atom_site_symmetry_multiplicity
 _atom_site_fract_x
 _atom_site_fract_y
 _atom_site_fract_z
 _atom_site_occupancy
  Zn  Zn0  1  0.49825126  0.38200380  0.50221947  1.0
  Zn  Zn1  1  0.49656294  0.58001652  0.49341896  1.0
  Zn  Zn2  1  0.50263371  0.61332540  0.90946634  1.0
  Zn  Zn3  1  0.50629662  0.41477126  0.91943078  1.0
  H  H4  1  0.33701473  0.04201824  0.54794352  1.0
  H  H5  1  0.57078802  0.92539556  0.41890175  1.0
  H  H6  1  0.43018041  0.72310451  0.56460460  1.0
  H  H7  1  0.42718687  0.90051469  0.57266026  1.0
  H  H8  1  0.64855386  0.23544936  0.45759309  1.0
  H  H9  1  0.65845087  0.05771826  0.45100630  1.0
  H  H10  1  0.33623382  0.40633741  0.80884821  1.0
  H  H11  1  0.31997658  0.38537867  0.62177472  1.0
  H  H12  1  0.65893715  0.58932401  0.65145969  1.0
  H  H13  1  0.66777073  0.59866053  0.74590086  1.0
  H  H14  1  0.48180741  0.33884170  0.23914297  1.0
  H  H15  1  0.47294390  0.66005394  0.17238666  1.0
  H  H16  1  0.48203322  0.37058139  0.07219334  1.0
  H  H17  1  0.48757425  0.35180342  0.16534246  1.0
  H  H18  1  0.48351264  0.62774172  0.33970301  1.0
  H  H19  1  0.48557837  0.64711289  0.24646863  1.0
  H  H20  1  0.23117843  0.60809865  0.42474063  1.0
  H  H21  1  0.78131059  0.59325929  0.40769592  1.0
  H  H22  1  0.87914802  0.37315452  0.54693185  1.0
  H  H23  1  0.10710898  0.37723269  0.55301357  1.0
  H  H24  1  0.35159827  0.95695181  0.86020805  1.0
  H  H25  1  0.56065191  0.06814450  0.99510583  1.0
  H  H26  1  0.45780083  0.27317444  0.84461437  1.0
  H  H27  1  0.45149711  0.09595447  0.83712593  1.0
  H  H28  1  0.64171921  0.75593409  0.96001852  1.0
  H  H29  1  0.65342408  0.93350140  0.96598774  1.0
  H  H30  1  0.24217808  0.37939913  0.98469753  1.0
  H  H31  1  0.79274379  0.39685196  0.00635087  1.0
  H  H32  1  0.88201787  0.61772667  0.86691116  1.0
  H  H33  1  0.11005576  0.61366378  0.85871762  1.0
  H  H34  1  0.14221288  0.22600014  0.77499316  1.0
  H  H35  1  0.16352103  0.31495680  0.82033839  1.0
  H  H36  1  0.05400590  0.33197562  0.77125852  1.0
  H  H37  1  0.04522077  0.32467025  0.67623597  1.0
  H  H38  1  0.14741202  0.29174681  0.62721281  1.0
  H  H39  1  0.13028462  0.21729491  0.68313457  1.0
  H  H40  1  0.12151323  0.79529786  0.34658678  1.0
  H  H41  1  0.24735223  0.71500580  0.35606007  1.0
  H  H42  1  0.14059289  0.69801725  0.30691653  1.0
  H  H43  1  0.91771591  0.68740639  0.29755132  1.0
  H  H44  1  0.78403098  0.69473518  0.33584639  1.0
  H  H45  1  0.89666916  0.78526731  0.33655843  1.0
  H  H46  1  0.13665607  0.19184087  0.06365536  1.0
  H  H47  1  0.26199957  0.26981490  0.05192239  1.0
  H  H48  1  0.15873710  0.28908663  0.10276465  1.0
  H  H49  1  0.93515956  0.30083324  0.11490456  1.0
  H  H50  1  0.79961932  0.29551416  0.07846082  1.0
  H  H51  1  0.91273595  0.20359695  0.07596917  1.0
  C  C52  1  0.48259797  0.47135240  0.39935351  1.0
  C  C53  1  0.73348740  0.47665915  0.48843616  1.0
  C  C54  1  0.51007522  0.48985619  0.59639312  1.0
  C  C55  1  0.26140809  0.48763622  0.50022244  1.0
  C  C56  1  0.47809688  0.52646910  0.01236443  1.0
  C  C57  1  0.74012780  0.51397248  0.92627987  1.0
  C  C58  1  0.52465932  0.51100443  0.81595315  1.0
  C  C59  1  0.26848675  0.50277406  0.90982196  1.0
  C  C60  1  0.41517755  0.17887523  0.52921937  1.0
  C  C61  1  0.40980172  0.08012710  0.52775092  1.0
  C  C62  1  0.53755029  0.78601590  0.45294368  1.0
  C  C63  1  0.53969199  0.88508569  0.45267342  1.0
  C  C64  1  0.45892458  0.77191870  0.53358240  1.0
  C  C65  1  0.45744935  0.87016802  0.53740163  1.0
  C  C66  1  0.58262603  0.18852949  0.47680388  1.0
  C  C67  1  0.58620103  0.09021819  0.47309546  1.0
  C  C68  1  0.49813606  0.03393151  0.49891063  1.0
  C  C69  1  0.49830623  0.92896878  0.49626417  1.0
  C  C70  1  0.51775011  0.50413134  0.75948650  1.0
  C  C71  1  0.42541530  0.44805573  0.73774254  1.0
  C  C72  1  0.59923714  0.55478333  0.72868004  1.0
  C  C73  1  0.33428567  0.40092031  0.76776097  1.0
  C  C74  1  0.24132443  0.35042589  0.74666399  1.0
  C  C75  1  0.50822812  0.49389364  0.65303691  1.0
  C  C76  1  0.59424946  0.54967506  0.67560556  1.0
  C  C77  1  0.42038622  0.44257954  0.68357873  1.0
  C  C78  1  0.32414766  0.39000797  0.66280968  1.0
  C  C79  1  0.23621191  0.34492734  0.69270350  1.0
  C  C80  1  0.48325041  0.47557505  0.34246227  1.0
  C  C81  1  0.47653513  0.52273526  0.06921366  1.0
  C  C82  1  0.48379435  0.39627747  0.31204029  1.0
  C  C83  1  0.48308295  0.40470117  0.25941611  1.0
  C  C84  1  0.47424356  0.60225115  0.09951305  1.0
  C  C85  1  0.47603121  0.59415471  0.15214494  1.0
  C  C86  1  0.48052345  0.43310142  0.09523761  1.0
  C  C87  1  0.48339573  0.42344722  0.14774039  1.0
  C  C88  1  0.48369203  0.56536551  0.31654225  1.0
  C  C89  1  0.48438429  0.57536319  0.26401440  1.0
  C  C90  1  0.48315732  0.49487687  0.23389976  1.0
  C  C91  1  0.48116247  0.50407719  0.17775216  1.0
  C  C92  1  0.12565645  0.48669053  0.49441478  1.0
  C  C93  1  0.06613401  0.54589954  0.45651665  1.0
  C  C94  1  0.05929271  0.42389098  0.52539751  1.0
  C  C95  1  0.13225631  0.60538997  0.42137948  1.0
  C  C96  1  0.07570415  0.65834062  0.38269782  1.0
  C  C97  1  0.86970397  0.47961740  0.48661952  1.0
  C  C98  1  0.93177039  0.42096230  0.52172864  1.0
  C  C99  1  0.93578244  0.54174813  0.45200468  1.0
  C  C100  1  0.87992248  0.59647418  0.41169951  1.0
  C  C101  1  0.94619365  0.65306873  0.37749371  1.0
  C  C102  1  0.42332425  0.81797710  0.88180243  1.0
  C  C103  1  0.41965305  0.91701725  0.88253646  1.0
  C  C104  1  0.53919148  0.20814110  0.95965305  1.0
  C  C105  1  0.53827176  0.10908766  0.96031714  1.0
  C  C106  1  0.47865029  0.22396416  0.87668622  1.0
  C  C107  1  0.47506704  0.12570764  0.87314021  1.0
  C  C108  1  0.58057519  0.80443260  0.93869994  1.0
  C  C109  1  0.58510210  0.90269712  0.94204023  1.0
  C  C110  1  0.50329241  0.96108116  0.91346729  1.0
  C  C111  1  0.50525763  0.06609428  0.91565016  1.0
  C  C112  1  0.13277707  0.50345309  0.91674777  1.0
  C  C113  1  0.07544863  0.44345820  0.95487526  1.0
  C  C114  1  0.06399861  0.56668507  0.88659156  1.0
  C  C115  1  0.14335981  0.38273291  0.98902902  1.0
  C  C116  1  0.08884093  0.32945738  0.02802432  1.0
  C  C117  1  0.87659500  0.51075510  0.92699589  1.0
  C  C118  1  0.93648666  0.56961115  0.89147897  1.0
  C  C119  1  0.94506535  0.44799786  0.96070519  1.0
  C  C120  1  0.89132043  0.39302934  0.00135438  1.0
  C  C121  1  0.95947843  0.33563604  0.03472755  1.0
  C  C122  1  0.14576836  0.30347766  0.78018676  1.0
  C  C123  1  0.13488524  0.29199711  0.66849604  1.0
  C  C124  1  0.15025802  0.71976789  0.34628009  1.0
  C  C125  1  0.88254709  0.70780024  0.33479414  1.0
  C  C126  1  0.16559264  0.26686240  0.06331648  1.0
  C  C127  1  0.89825175  0.28121404  0.07810443  1.0
  N  N128  1  0.49726881  0.23273018  0.50483238  1.0
  N  N129  1  0.49871641  0.72986207  0.49133041  1.0
  N  N130  1  0.50007508  0.76229155  0.90853468  1.0
  N  N131  1  0.51040353  0.26512015  0.91998348  1.0
  O  O132  1  0.50828658  0.39277495  0.42284046  1.0
  O  O133  1  0.45670636  0.55005904  0.41969599  1.0
  O  O134  1  0.67572829  0.55507931  0.47937260  1.0
  O  O135  1  0.68464248  0.39655674  0.50054406  1.0
  O  O136  1  0.52685094  0.56826712  0.57089937  1.0
  O  O137  1  0.49607145  0.40851783  0.57773760  1.0
  O  O138  1  0.31510774  0.40712381  0.49702297  1.0
  O  O139  1  0.31235920  0.56687805  0.50786190  1.0
  O  O140  1  0.50082352  0.60522165  0.98879921  1.0
  O  O141  1  0.45805336  0.44720131  0.99203668  1.0
  O  O142  1  0.68436179  0.43542428  0.93515910  1.0
  O  O143  1  0.68919271  0.59434865  0.91504898  1.0
  O  O144  1  0.53920750  0.43331692  0.84241880  1.0
  O  O145  1  0.51450063  0.59408899  0.83306296  1.0
  O  O146  1  0.32024461  0.58341253  0.91117720  1.0
  O  O147  1  0.32184289  0.42292083  0.90317967  1.0
  F  F148  1  0.33215230  0.22447872  0.55712553  1.0
  F  F149  1  0.57697369  0.74228547  0.41146881  1.0
  F  F150  1  0.48297527  0.30590404  0.33319432  1.0
  F  F151  1  0.46858958  0.69247430  0.07822180  1.0
  F  F152  1  0.34430568  0.77398253  0.85238640  1.0
  F  F153  1  0.57090915  0.25110534  0.00213659  1.0
