# generated using pymatgen
data_ZnH18C28O5
_symmetry_space_group_name_H-M   'P 1'
_cell_length_a   9.10215922
_cell_length_b   12.81833489
_cell_length_c   15.00805506
_cell_angle_alpha   72.88471501
_cell_angle_beta   88.38154110
_cell_angle_gamma   69.28612799
_symmetry_Int_Tables_number   1
_chemical_formula_structural   ZnH18C28O5
_chemical_formula_sum   'Zn2 H36 C56 O10'
_cell_volume   1559.68810742
_cell_formula_units_Z   2
loop_
 _symmetry_equiv_pos_site_id
 _symmetry_equiv_pos_as_xyz
  1  'x, y, z'
loop_
 _atom_site_type_symbol
 _atom_site_label
 _atom_site_symmetry_multiplicity
 _atom_site_fract_x
 _atom_site_fract_y
 _atom_site_fract_z
 _atom_site_occupancy
  Zn  Zn0  1  0.15434249  0.95129357  0.03058836  1.0
  Zn  Zn1  1  0.84565817  0.04870418  0.96941139  1.0
  H  H2  1  0.38313626  0.76405123  0.05321583  1.0
  H  H3  1  0.61686485  0.23594563  0.94678480  1.0
  H  H4  1  0.44478306  0.86161258  0.99990953  1.0
  H  H5  1  0.55521424  0.13838779  0.00009166  1.0
  H  H6  1  0.13803703  0.65747502  0.25490248  1.0
  H  H7  1  0.86195883  0.34252621  0.74510054  1.0
  H  H8  1  0.09796155  0.48241200  0.36397592  1.0
  H  H9  1  0.90203279  0.51759270  0.63602960  1.0
  H  H10  1  0.64253194  0.58760627  0.22009535  1.0
  H  H11  1  0.35747116  0.41238882  0.77990700  1.0
  H  H12  1  0.67799194  0.76790818  0.11697443  1.0
  H  H13  1  0.32200277  0.23209049  0.88302461  1.0
  H  H14  1  0.77286919  0.65067438  0.39711807  1.0
  H  H15  1  0.22713183  0.34932508  0.60288323  1.0
  H  H16  1  0.65082039  0.77667472  0.49561563  1.0
  H  H17  1  0.34917712  0.22332740  0.50438378  1.0
  H  H18  1  0.54153977  0.70075621  0.64283391  1.0
  H  H19  1  0.45845511  0.29924680  0.35716535  1.0
  H  H20  1  0.55281981  0.49346872  0.69425292  1.0
  H  H21  1  0.44717814  0.50653252  0.30574737  1.0
  H  H22  1  0.60904791  0.27327921  0.72259552  1.0
  H  H23  1  0.39094869  0.72672029  0.27740592  1.0
  H  H24  1  0.69079445  0.06846069  0.71961095  1.0
  H  H25  1  0.30920766  0.93153877  0.28039033  1.0
  H  H26  1  0.82266004  0.01141048  0.58497359  1.0
  H  H27  1  0.17734556  0.98858634  0.41502891  1.0
  H  H28  1  0.87686628  0.15745280  0.45202213  1.0
  H  H29  1  0.12313280  0.84254843  0.54797879  1.0
  H  H30  1  0.13749544  0.28243657  0.31739358  1.0
  H  H31  1  0.86250646  0.71756114  0.68260948  1.0
  H  H32  1  0.18716556  0.14876724  0.21847839  1.0
  H  H33  1  0.81283871  0.85123660  0.78151771  1.0
  H  H34  1  0.69160102  0.21835407  0.18675926  1.0
  H  H35  1  0.30840019  0.78164896  0.81323314  1.0
  H  H36  1  0.64195216  0.34669907  0.29008127  1.0
  H  H37  1  0.35805035  0.65329693  0.70991687  1.0
  C  C38  1  0.93636395  0.82649855  0.11318962  1.0
  C  C39  1  0.06362641  0.17350452  0.88680711  1.0
  C  C40  1  0.91173242  0.72212344  0.17837158  1.0
  C  C41  1  0.08826776  0.27787778  0.82162931  1.0
  C  C42  1  0.02988455  0.64144095  0.24799561  1.0
  C  C43  1  0.97011050  0.35856203  0.75200766  1.0
  C  C44  1  0.00769192  0.54354004  0.30837969  1.0
  C  C45  1  0.99230432  0.45646290  0.69162555  1.0
  C  C46  1  0.86868036  0.52292173  0.29844519  1.0
  C  C47  1  0.13131895  0.47707686  0.70155839  1.0
  C  C48  1  0.75096204  0.60340278  0.22795942  1.0
  C  C49  1  0.24903933  0.39659144  0.77204453  1.0
  C  C50  1  0.77092666  0.70333356  0.16970083  1.0
  C  C51  1  0.22906890  0.29666593  0.83030197  1.0
  C  C52  1  0.84885204  0.41429502  0.35883734  1.0
  C  C53  1  0.15114558  0.58570011  0.64116584  1.0
  C  C54  1  0.79318995  0.40447101  0.44471038  1.0
  C  C55  1  0.20681306  0.59552669  0.55529265  1.0
  C  C56  1  0.73267420  0.49901324  0.48919266  1.0
  C  C57  1  0.26732724  0.50098535  0.51080886  1.0
  C  C58  1  0.72565928  0.61486467  0.46132940  1.0
  C  C59  1  0.27434293  0.38513218  0.53867120  1.0
  C  C60  1  0.65694909  0.68616071  0.51752423  1.0
  C  C61  1  0.34305076  0.31383878  0.48247577  1.0
  C  C62  1  0.59490600  0.64308183  0.60059917  1.0
  C  C63  1  0.40509266  0.35692027  0.39940155  1.0
  C  C64  1  0.60084715  0.52736900  0.62928538  1.0
  C  C65  1  0.39915080  0.47263224  0.37071491  1.0
  C  C66  1  0.67023000  0.45545724  0.57406375  1.0
  C  C67  1  0.32976947  0.54454311  0.42593671  1.0
  C  C68  1  0.69708501  0.33194644  0.58830104  1.0
  C  C69  1  0.30291231  0.66805392  0.41170082  1.0
  C  C70  1  0.66594118  0.24947183  0.66275611  1.0
  C  C71  1  0.33405575  0.75052940  0.33724621  1.0
  C  C72  1  0.71084689  0.13415775  0.66065327  1.0
  C  C73  1  0.28915413  0.86584172  0.33934803  1.0
  C  C74  1  0.78600843  0.10214861  0.58493214  1.0
  C  C75  1  0.21399009  0.89784913  0.41506902  1.0
  C  C76  1  0.81723447  0.18445144  0.50984345  1.0
  C  C77  1  0.18276574  0.81554977  0.49015811  1.0
  C  C78  1  0.77236279  0.30019541  0.51095802  1.0
  C  C79  1  0.22763847  0.69980581  0.48904217  1.0
  C  C80  1  0.88557024  0.32355458  0.31013976  1.0
  C  C81  1  0.11442976  0.67644926  0.68985980  1.0
  C  C82  1  0.03982011  0.26706179  0.28995945  1.0
  C  C83  1  0.96017972  0.73293770  0.71003988  1.0
  C  C84  1  0.06789052  0.19294340  0.23452121  1.0
  C  C85  1  0.93210818  0.80706049  0.76547372  1.0
  C  C86  1  0.94245308  0.17637010  0.19595396  1.0
  C  C87  1  0.05755382  0.82363725  0.80403851  1.0
  C  C88  1  0.78869941  0.23179458  0.21666491  1.0
  C  C89  1  0.21130290  0.76820844  0.78332746  1.0
  C  C90  1  0.76110195  0.30346968  0.27381086  1.0
  C  C91  1  0.23890455  0.69652717  0.72618694  1.0
  C  C92  1  0.97053390  0.10489311  0.13013821  1.0
  C  C93  1  0.02946204  0.89511171  0.86985324  1.0
  O  O94  1  0.07719892  0.82590035  0.11111645  1.0
  O  O95  1  0.92280729  0.17409217  0.88887845  1.0
  O  O96  1  0.81573646  0.90830042  0.06356217  1.0
  O  O97  1  0.18427027  0.09169638  0.93644097  1.0
  O  O98  1  0.85064444  0.11556620  0.08118458  1.0
  O  O99  1  0.14936112  0.88443940  0.91880903  1.0
  O  O100  1  0.11248294  0.03985039  0.12622841  1.0
  O  O101  1  0.88752666  0.96014468  0.87377108  1.0
  O  O102  1  0.39440896  0.83598083  0.05617983  1.0
  O  O103  1  0.60558804  0.16401780  0.94382114  1.0
