# generated using pymatgen
data_ZnH9C14NO5
_symmetry_space_group_name_H-M   'P 1'
_cell_length_a   9.71025711
_cell_length_b   11.05509661
_cell_length_c   11.06388228
_cell_angle_alpha   94.24190090
_cell_angle_beta   92.71183360
_cell_angle_gamma   91.00677212
_symmetry_Int_Tables_number   1
_chemical_formula_structural   ZnH9C14NO5
_chemical_formula_sum   'Zn2 H18 C28 N2 O10'
_cell_volume   1182.83917620
_cell_formula_units_Z   2
loop_
 _symmetry_equiv_pos_site_id
 _symmetry_equiv_pos_as_xyz
  1  'x, y, z'
loop_
 _atom_site_type_symbol
 _atom_site_label
 _atom_site_symmetry_multiplicity
 _atom_site_fract_x
 _atom_site_fract_y
 _atom_site_fract_z
 _atom_site_occupancy
  Zn  Zn0  1  0.63629889  0.50250483  0.50904953  1.0
  Zn  Zn1  1  0.35131312  0.49703320  0.49639138  1.0
  H  H2  1  0.28721114  0.56278370  0.88195078  1.0
  H  H3  1  0.31111807  0.12606779  0.59166147  1.0
  H  H4  1  0.13670338  0.32819056  0.71665094  1.0
  H  H5  1  0.11541331  0.22694078  0.58303303  1.0
  H  H6  1  0.83213643  0.52756456  0.13422709  1.0
  H  H7  1  0.72174836  0.85173829  0.31507444  1.0
  H  H8  1  0.77856573  0.37248438  0.13424410  1.0
  H  H9  1  0.82036989  0.87890154  0.45581048  1.0
  H  H10  1  0.83661522  0.50787139  0.90792886  1.0
  H  H11  1  0.72201209  0.07617565  0.29015958  1.0
  H  H12  1  0.77764451  0.35327986  0.90671503  1.0
  H  H13  1  0.82462199  0.10189119  0.42748076  1.0
  H  H14  1  0.11953009  0.64451705  0.39159316  1.0
  H  H15  1  0.86106430  0.65000633  0.39925191  1.0
  H  H16  1  0.87701787  0.33828406  0.72755584  1.0
  H  H17  1  0.85638392  0.23681608  0.59426902  1.0
  H  H18  1  0.26256653  0.63845203  0.20931854  1.0
  H  H19  1  0.28783169  0.80519382  0.66379008  1.0
  C  C20  1  0.49799261  0.26484821  0.48855752  1.0
  C  C21  1  0.49707784  0.50072025  0.73779067  1.0
  C  C22  1  0.76372514  0.44606893  0.94668348  1.0
  C  C23  1  0.73487665  0.05122624  0.38429473  1.0
  C  C24  1  0.06642183  0.41745814  0.55358159  1.0
  C  C25  1  0.06312758  0.57874626  0.43996514  1.0
  C  C26  1  0.92008081  0.58244420  0.44499806  1.0
  C  C27  1  0.92337169  0.42198432  0.55944797  1.0
  C  C28  1  0.91481650  0.31575452  0.63696085  1.0
  C  C29  1  0.07785501  0.30990757  0.62993275  1.0
  C  C30  1  0.49229250  0.73659249  0.52070525  1.0
  C  C31  1  0.49348121  0.51515407  0.26894298  1.0
  C  C32  1  0.61492802  0.48544437  0.94643581  1.0
  C  C33  1  0.60418409  0.05591410  0.45426237  1.0
  C  C34  1  0.49867809  0.50803592  0.87320155  1.0
  C  C35  1  0.50000745  0.13075906  0.49717584  1.0
  C  C36  1  0.37974414  0.54057348  0.93472139  1.0
  C  C37  1  0.39388286  0.07226491  0.55381477  1.0
  C  C38  1  0.37596779  0.54810849  0.06164473  1.0
  C  C39  1  0.38975333  0.94683030  0.56597266  1.0
  C  C40  1  0.49483208  0.52236159  0.13484784  1.0
  C  C41  1  0.49612845  0.87187478  0.52092113  1.0
  C  C42  1  0.61278262  0.49384807  0.07318796  1.0
  C  C43  1  0.60204098  0.93092414  0.46695693  1.0
  C  C44  1  0.76190515  0.45708976  0.08985966  1.0
  C  C45  1  0.73336783  0.91011869  0.39994919  1.0
  C  C46  1  0.24789622  0.59230607  0.11670502  1.0
  C  C47  1  0.27373401  0.89710875  0.63111692  1.0
  N  N48  1  0.13983811  0.49500406  0.49518042  1.0
  N  N49  1  0.84698305  0.50316047  0.50646472  1.0
  O  O50  1  0.61012554  0.31762154  0.46443758  1.0
  O  O51  1  0.60973597  0.47368959  0.68818295  1.0
  O  O52  1  0.38396473  0.31648509  0.50802001  1.0
  O  O53  1  0.38341277  0.52232340  0.68198300  1.0
  O  O54  1  0.60529888  0.68605536  0.54681863  1.0
  O  O55  1  0.60765554  0.53695089  0.32865178  1.0
  O  O56  1  0.37698634  0.68332118  0.49013059  1.0
  O  O57  1  0.37995338  0.48435447  0.31264497  1.0
  O  O58  1  0.13306378  0.58461621  0.06477657  1.0
  O  O59  1  0.16766944  0.95282974  0.65096303  1.0
