# generated using pymatgen
data_AlH18C24(NO)6
_symmetry_space_group_name_H-M   'P 1'
_cell_length_a   3.94094107
_cell_length_b   28.98126932
_cell_length_c   28.98341663
_cell_angle_alpha   59.99765546
_cell_angle_beta   89.99973487
_cell_angle_gamma   89.99906869
_symmetry_Int_Tables_number   1
_chemical_formula_structural   AlH18C24(NO)6
_chemical_formula_sum   'Al2 H36 C48 N12 O12'
_cell_volume   2866.73331961
_cell_formula_units_Z   2
loop_
 _symmetry_equiv_pos_site_id
 _symmetry_equiv_pos_as_xyz
  1  'x, y, z'
loop_
 _atom_site_type_symbol
 _atom_site_label
 _atom_site_symmetry_multiplicity
 _atom_site_fract_x
 _atom_site_fract_y
 _atom_site_fract_z
 _atom_site_occupancy
  Al  Al0  1  0.99993735  0.99998569  0.50000861  1.0
  Al  Al1  1  0.99995817  0.66668908  0.16665538  1.0
  H  H2  1  0.22722654  0.52058095  0.30396313  1.0
  H  H3  1  0.77253826  0.52059717  0.17545349  1.0
  H  H4  1  0.77229844  0.14609579  0.49121323  1.0
  H  H5  1  0.22741370  0.14607171  0.36269568  1.0
  H  H6  1  0.22721352  0.80399326  0.17545337  1.0
  H  H7  1  0.77247848  0.67546160  0.30395226  1.0
  H  H8  1  0.77240643  0.99121422  0.36269749  1.0
  H  H9  1  0.22744194  0.86267972  0.49122737  1.0
  H  H10  1  0.22723435  0.67546485  0.02056905  1.0
  H  H11  1  0.77254106  0.80397240  0.02057339  1.0
  H  H12  1  0.77225758  0.86266398  0.64610920  1.0
  H  H13  1  0.22742619  0.99122645  0.64607458  1.0
  H  H14  1  0.82208126  0.37541017  0.24366056  1.0
  H  H15  1  0.95608530  0.43279160  0.19028713  1.0
  H  H16  1  0.17756715  0.37539171  0.38089840  1.0
  H  H17  1  0.04357826  0.43276401  0.37690852  1.0
  H  H18  1  0.17775670  0.29125592  0.28571326  1.0
  H  H19  1  0.04389079  0.23386965  0.28971881  1.0
  H  H20  1  0.82164552  0.29128464  0.42299279  1.0
  H  H21  1  0.95562315  0.23390721  0.47637900  1.0
  H  H22  1  0.82204003  0.74366247  0.38092832  1.0
  H  H23  1  0.95603903  0.69028851  0.37691871  1.0
  H  H24  1  0.17745333  0.88091770  0.24370621  1.0
  H  H25  1  0.04350451  0.87693304  0.19032552  1.0
  H  H26  1  0.17791139  0.78570837  0.42302336  1.0
  H  H27  1  0.04402571  0.78970058  0.47640482  1.0
  H  H28  1  0.82182911  0.92300560  0.28572753  1.0
  H  H29  1  0.95580672  0.97638795  0.28972323  1.0
  H  H30  1  0.82215320  0.88094018  0.87539779  1.0
  H  H31  1  0.95610999  0.87693772  0.93277410  1.0
  H  H32  1  0.17758136  0.74370616  0.87539145  1.0
  H  H33  1  0.04359730  0.69032547  0.93276312  1.0
  H  H34  1  0.17776857  0.92302299  0.79124909  1.0
  H  H35  1  0.04388767  0.97640406  0.73386832  1.0
  H  H36  1  0.82159457  0.78569709  0.79128910  1.0
  H  H37  1  0.95556871  0.78968203  0.73391908  1.0
  C  C38  1  0.49994556  0.95889980  0.58218618  1.0
  C  C39  1  0.49992872  0.08217050  0.45890913  1.0
  C  C40  1  0.49995593  0.95889329  0.45892274  1.0
  C  C41  1  0.49995438  0.58450251  0.20776320  1.0
  C  C42  1  0.49993732  0.70779486  0.20773063  1.0
  C  C43  1  0.49994262  0.70776444  0.08447535  1.0
  C  C44  1  0.49992913  0.52521434  0.23739895  1.0
  C  C45  1  0.34887424  0.49803306  0.28771302  1.0
  C  C46  1  0.35408613  0.44236630  0.31645066  1.0
  C  C47  1  0.49990621  0.41398600  0.29299716  1.0
  C  C48  1  0.64561971  0.44237695  0.24115877  1.0
  C  C49  1  0.65091034  0.49804411  0.21425025  1.0
  C  C50  1  0.49989605  0.35781881  0.32107726  1.0
  C  C51  1  0.49988809  0.30885779  0.34555221  1.0
  C  C52  1  0.49987793  0.25268142  0.37364070  1.0
  C  C53  1  0.64541974  0.22431118  0.42548592  1.0
  C  C54  1  0.65074586  0.16864122  0.45241033  1.0
  C  C55  1  0.49990322  0.14145628  0.42926525  1.0
  C  C56  1  0.34894142  0.16862723  0.37894469  1.0
  C  C57  1  0.35422194  0.22429558  0.35018658  1.0
  C  C58  1  0.49990708  0.73742126  0.23738564  1.0
  C  C59  1  0.34885990  0.78773795  0.21425284  1.0
  C  C60  1  0.35406203  0.81646985  0.24117983  1.0
  C  C61  1  0.49988775  0.79301635  0.29301395  1.0
  C  C62  1  0.64559645  0.74117041  0.31646026  1.0
  C  C63  1  0.65085116  0.71426693  0.28770646  1.0
  C  C64  1  0.49990839  0.82109004  0.32109397  1.0
  C  C65  1  0.49991915  0.84556819  0.34558074  1.0
  C  C66  1  0.49993217  0.87365024  0.37367073  1.0
  C  C67  1  0.64551685  0.92549457  0.35019998  1.0
  C  C68  1  0.65082053  0.95241078  0.37894879  1.0
  C  C69  1  0.49994303  0.92925813  0.42927694  1.0
  C  C70  1  0.34899155  0.87893584  0.45242382  1.0
  C  C71  1  0.35429706  0.85018161  0.42550937  1.0
  C  C72  1  0.49994482  0.73740349  0.02519525  1.0
  C  C73  1  0.34889467  0.71426295  0.99801953  1.0
  C  C74  1  0.35410382  0.74118863  0.94235706  1.0
  C  C75  1  0.49990937  0.79302538  0.91397384  1.0
  C  C76  1  0.64563657  0.81647895  0.94235894  1.0
  C  C77  1  0.65091993  0.78772601  0.99802072  1.0
  C  C78  1  0.49991412  0.82110296  0.85781512  1.0
  C  C79  1  0.49987832  0.84558184  0.80885298  1.0
  C  C80  1  0.49987293  0.87366420  0.75268256  1.0
  C  C81  1  0.64538835  0.85018073  0.72431889  1.0
  C  C82  1  0.65072428  0.87892489  0.66865322  1.0
  C  C83  1  0.49990529  0.92926233  0.64146687  1.0
  C  C84  1  0.34895213  0.95241829  0.66863144  1.0
  C  C85  1  0.35421509  0.92550814  0.72429718  1.0
  N  N86  1  0.76851886  0.41429115  0.21745728  1.0
  N  N87  1  0.23115398  0.41426697  0.36823570  1.0
  N  N88  1  0.23139300  0.25237612  0.29839615  1.0
  N  N89  1  0.76810660  0.25240022  0.44919264  1.0
  N  N90  1  0.76847083  0.71746234  0.36825053  1.0
  N  N91  1  0.23106111  0.86825957  0.21749596  1.0
  N  N92  1  0.23152673  0.79838587  0.44922080  1.0
  N  N93  1  0.76824625  0.94920747  0.29840930  1.0
  N  N94  1  0.76854402  0.86826633  0.91427298  1.0
  N  N95  1  0.23117068  0.71749556  0.91426352  1.0
  N  N96  1  0.23140998  0.94922107  0.75237325  1.0
  N  N97  1  0.76805422  0.79837985  0.75240776  1.0
  O  O98  1  0.73496665  0.99311612  0.44834642  1.0
  O  O99  1  0.73496923  0.94831450  0.55854947  1.0
  O  O100  1  0.73495436  0.05852879  0.49313169  1.0
  O  O101  1  0.26494844  0.94830673  0.49314847  1.0
  O  O102  1  0.26492296  0.05852303  0.44833147  1.0
  O  O103  1  0.26493431  0.99312726  0.55853741  1.0
  O  O104  1  0.73495897  0.71835107  0.10811302  1.0
  O  O105  1  0.73499159  0.60814395  0.17354136  1.0
  O  O106  1  0.73498185  0.67357056  0.21831000  1.0
  O  O107  1  0.26494176  0.67353605  0.10812675  1.0
  O  O108  1  0.26492256  0.71837651  0.17350332  1.0
  O  O109  1  0.26494296  0.60815184  0.21833934  1.0
