# generated using pymatgen
data_Gd2Ni3H36(C2O3)12
_symmetry_space_group_name_H-M   'P 1'
_cell_length_a   14.41535193
_cell_length_b   14.41534393
_cell_length_c   15.85544466
_cell_angle_alpha   90.00012324
_cell_angle_beta   90.00015093
_cell_angle_gamma   60.00003576
_symmetry_Int_Tables_number   1
_chemical_formula_structural   Gd2Ni3H36(C2O3)12
_chemical_formula_sum   'Gd4 Ni6 H72 C48 O72'
_cell_volume   2853.37907631
_cell_formula_units_Z   2
loop_
 _symmetry_equiv_pos_site_id
 _symmetry_equiv_pos_as_xyz
  1  'x, y, z'
loop_
 _atom_site_type_symbol
 _atom_site_label
 _atom_site_symmetry_multiplicity
 _atom_site_fract_x
 _atom_site_fract_y
 _atom_site_fract_z
 _atom_site_occupancy
  Gd  Gd0  1  0.33333333  0.33333333  0.25000038  1.0
  Gd  Gd1  1  0.66666667  0.66666667  0.24999949  1.0
  Gd  Gd2  1  0.66666667  0.66666667  0.74999998  1.0
  Gd  Gd3  1  0.33333333  0.33333333  0.74999897  1.0
  Ni  Ni4  1  0.50000044  0.50000053  0.00000047  1.0
  Ni  Ni5  1  0.00000090  0.49999904  0.00000021  1.0
  Ni  Ni6  1  0.50000040  0.99999992  0.00000032  1.0
  Ni  Ni7  1  0.50000027  0.00000023  0.50000018  1.0
  Ni  Ni8  1  0.99999988  0.49999950  0.49999966  1.0
  Ni  Ni9  1  0.50000003  0.50000002  0.50000032  1.0
  H  H10  1  0.36112592  0.45869538  0.05074532  1.0
  H  H11  1  0.18018077  0.36112682  0.05074501  1.0
  H  H12  1  0.45869303  0.18018176  0.05074453  1.0
  H  H13  1  0.63887339  0.54130772  0.05074539  1.0
  H  H14  1  0.81982263  0.63887227  0.05074381  1.0
  H  H15  1  0.54130828  0.81981733  0.05074365  1.0
  H  H16  1  0.63887355  0.81981603  0.44925608  1.0
  H  H17  1  0.81981919  0.54130646  0.44925477  1.0
  H  H18  1  0.54130609  0.63887396  0.44925768  1.0
  H  H19  1  0.36112560  0.18018275  0.44925673  1.0
  H  H20  1  0.18017996  0.45869232  0.44925616  1.0
  H  H21  1  0.45868949  0.36112642  0.44925324  1.0
  H  H22  1  0.63887313  0.54130667  0.94925630  1.0
  H  H23  1  0.81981839  0.63887363  0.94925472  1.0
  H  H24  1  0.54130722  0.81981789  0.94925582  1.0
  H  H25  1  0.36112566  0.45869433  0.94925497  1.0
  H  H26  1  0.18018091  0.36112497  0.94925592  1.0
  H  H27  1  0.45869197  0.18018232  0.94925670  1.0
  H  H28  1  0.36112641  0.18018282  0.55074427  1.0
  H  H29  1  0.18018187  0.45869158  0.55074496  1.0
  H  H30  1  0.45869585  0.36112648  0.55074204  1.0
  H  H31  1  0.63887396  0.81981689  0.55074362  1.0
  H  H32  1  0.81981901  0.54130573  0.55074420  1.0
  H  H33  1  0.54130909  0.63887242  0.55074648  1.0
  H  H34  1  0.64174113  0.18417742  0.15059563  1.0
  H  H35  1  0.17407617  0.64174483  0.15059363  1.0
  H  H36  1  0.18417623  0.17408109  0.15059696  1.0
  H  H37  1  0.35825625  0.81582180  0.15059493  1.0
  H  H38  1  0.82592329  0.35825439  0.15059441  1.0
  H  H39  1  0.81582590  0.82591972  0.15059801  1.0
  H  H40  1  0.35825504  0.82591960  0.34940299  1.0
  H  H41  1  0.82592046  0.81582457  0.34940543  1.0
  H  H42  1  0.81582336  0.35825691  0.34940371  1.0
  H  H43  1  0.64174199  0.17408146  0.34940241  1.0
  H  H44  1  0.17408033  0.18417729  0.34940438  1.0
  H  H45  1  0.18417713  0.64174416  0.34940736  1.0
  H  H46  1  0.35825844  0.81582222  0.84940472  1.0
  H  H47  1  0.82592121  0.35825641  0.84940736  1.0
  H  H48  1  0.81582403  0.82591855  0.84940276  1.0
  H  H49  1  0.64174371  0.18417705  0.84940669  1.0
  H  H50  1  0.17408174  0.64174126  0.84940405  1.0
  H  H51  1  0.18417574  0.17407992  0.84940297  1.0
  H  H52  1  0.64174521  0.17408005  0.65059800  1.0
  H  H53  1  0.17407830  0.18417667  0.65059429  1.0
  H  H54  1  0.18417886  0.64174435  0.65059412  1.0
  H  H55  1  0.35825786  0.82591899  0.65059732  1.0
  H  H56  1  0.82591784  0.81582236  0.65059534  1.0
  H  H57  1  0.81582035  0.35825548  0.65059236  1.0
  H  H58  1  0.65148520  0.27190858  0.22595975  1.0
  H  H59  1  0.07660122  0.65148685  0.22596069  1.0
  H  H60  1  0.27190984  0.07660725  0.22596036  1.0
  H  H61  1  0.34851534  0.72808752  0.22595822  1.0
  H  H62  1  0.92339783  0.34851085  0.22595980  1.0
  H  H63  1  0.72808918  0.92339606  0.22595887  1.0
  H  H64  1  0.34851494  0.92339429  0.27404032  1.0
  H  H65  1  0.92339599  0.72808947  0.27404271  1.0
  H  H66  1  0.72809066  0.34851398  0.27403832  1.0
  H  H67  1  0.65148261  0.07660669  0.27404020  1.0
  H  H68  1  0.07660564  0.27190750  0.27404033  1.0
  H  H69  1  0.27191145  0.65148619  0.27404031  1.0
  H  H70  1  0.34851436  0.72809106  0.77404061  1.0
  H  H71  1  0.92339794  0.34851359  0.77404030  1.0
  H  H72  1  0.72809180  0.92339240  0.77403873  1.0
  H  H73  1  0.65148572  0.27191052  0.77404277  1.0
  H  H74  1  0.07660553  0.65148398  0.77403866  1.0
  H  H75  1  0.27191068  0.07660438  0.77404086  1.0
  H  H76  1  0.65148571  0.07660456  0.72596004  1.0
  H  H77  1  0.07660455  0.27191098  0.72595891  1.0
  H  H78  1  0.27190978  0.65148807  0.72596015  1.0
  H  H79  1  0.34851556  0.92339296  0.72596142  1.0
  H  H80  1  0.92339373  0.72808975  0.72595813  1.0
  H  H81  1  0.72808741  0.34851346  0.72596005  1.0
  C  C82  1  0.52078972  0.34927194  0.13779689  1.0
  C  C83  1  0.12993429  0.52080012  0.13779974  1.0
  C  C84  1  0.34926941  0.12994248  0.13779710  1.0
  C  C85  1  0.47920792  0.65072807  0.13779426  1.0
  C  C86  1  0.87006106  0.47920308  0.13780024  1.0
  C  C87  1  0.65073404  0.87006394  0.13779153  1.0
  C  C88  1  0.47920592  0.87006157  0.36220572  1.0
  C  C89  1  0.87006269  0.65073162  0.36220597  1.0
  C  C90  1  0.65073633  0.47921110  0.36219923  1.0
  C  C91  1  0.52078706  0.12994350  0.36220476  1.0
  C  C92  1  0.12993842  0.34927106  0.36220325  1.0
  C  C93  1  0.34926345  0.52080118  0.36220305  1.0
  C  C94  1  0.47920904  0.65072931  0.86220346  1.0
  C  C95  1  0.87006476  0.47920193  0.86220187  1.0
  C  C96  1  0.65073073  0.87005878  0.86220136  1.0
  C  C97  1  0.52079591  0.34926998  0.86220420  1.0
  C  C98  1  0.12994806  0.52078855  0.86220074  1.0
  C  C99  1  0.34926709  0.12993811  0.86220567  1.0
  C  C100  1  0.52079613  0.12993726  0.63779337  1.0
  C  C101  1  0.12993468  0.34926963  0.63779753  1.0
  C  C102  1  0.34926649  0.52079174  0.63780112  1.0
  C  C103  1  0.47921239  0.87005775  0.63779685  1.0
  C  C104  1  0.87006045  0.65072858  0.63779396  1.0
  C  C105  1  0.65073294  0.47919926  0.63779731  1.0
  C  C106  1  0.59535799  0.25419313  0.19197260  1.0
  C  C107  1  0.15044628  0.59536008  0.19197240  1.0
  C  C108  1  0.25419108  0.15045101  0.19197272  1.0
  C  C109  1  0.40464077  0.74580773  0.19197250  1.0
  C  C110  1  0.84955447  0.40463679  0.19197270  1.0
  C  C111  1  0.74581016  0.84954905  0.19197301  1.0
  C  C112  1  0.40463968  0.84954974  0.30802737  1.0
  C  C113  1  0.84955038  0.74580965  0.30802844  1.0
  C  C114  1  0.74581027  0.40463840  0.30802609  1.0
  C  C115  1  0.59535835  0.15045047  0.30802664  1.0
  C  C116  1  0.15044824  0.25419216  0.30802683  1.0
  C  C117  1  0.25419283  0.59535861  0.30802855  1.0
  C  C118  1  0.40464118  0.74580731  0.80802776  1.0
  C  C119  1  0.84955219  0.40464036  0.80802796  1.0
  C  C120  1  0.74580947  0.84954943  0.80802638  1.0
  C  C121  1  0.59535909  0.25419270  0.80802974  1.0
  C  C122  1  0.15044986  0.59535886  0.80802639  1.0
  C  C123  1  0.25418970  0.15045139  0.80802608  1.0
  C  C124  1  0.59536018  0.15045070  0.69197487  1.0
  C  C125  1  0.15044908  0.25419159  0.69197192  1.0
  C  C126  1  0.25419196  0.59536284  0.69197301  1.0
  C  C127  1  0.40464121  0.84954917  0.69197435  1.0
  C  C128  1  0.84954964  0.74580669  0.69197163  1.0
  C  C129  1  0.74580574  0.40464024  0.69197180  1.0
  O  O130  1  0.35187781  0.50281001  0.00000064  1.0
  O  O131  1  0.14531692  0.35187479  0.99999932  1.0
  O  O132  1  0.50280843  0.14531889  0.00000110  1.0
  O  O133  1  0.64812139  0.49719302  0.00000064  1.0
  O  O134  1  0.85468333  0.64812486  0.00000167  1.0
  O  O135  1  0.49719182  0.85468076  0.99999862  1.0
  O  O136  1  0.64812613  0.85468054  0.50000084  1.0
  O  O137  1  0.85468552  0.49719104  0.49999948  1.0
  O  O138  1  0.49719181  0.64812577  0.49999857  1.0
  O  O139  1  0.35187343  0.14531911  0.50000014  1.0
  O  O140  1  0.14531553  0.50280701  0.50000024  1.0
  O  O141  1  0.50280805  0.35187467  0.50000053  1.0
  O  O142  1  0.56645313  0.38286599  0.08944198  1.0
  O  O143  1  0.05067587  0.56645108  0.08945100  1.0
  O  O144  1  0.38286333  0.05068536  0.08944396  1.0
  O  O145  1  0.43354973  0.61713716  0.08944233  1.0
  O  O146  1  0.94932071  0.43354245  0.08944340  1.0
  O  O147  1  0.61714157  0.94930817  0.08944477  1.0
  O  O148  1  0.43354971  0.94931067  0.41055380  1.0
  O  O149  1  0.94931260  0.61713764  0.41055914  1.0
  O  O150  1  0.61713631  0.43354407  0.41055730  1.0
  O  O151  1  0.56645045  0.05068726  0.41055721  1.0
  O  O152  1  0.05067920  0.38286591  0.41055755  1.0
  O  O153  1  0.38286684  0.56645066  0.41054993  1.0
  O  O154  1  0.43354453  0.61713606  0.91056027  1.0
  O  O155  1  0.94932111  0.43355096  0.91054683  1.0
  O  O156  1  0.61713503  0.94931669  0.91055577  1.0
  O  O157  1  0.56644980  0.38286809  0.91055613  1.0
  O  O158  1  0.05068462  0.56645399  0.91055758  1.0
  O  O159  1  0.38285989  0.05068906  0.91055495  1.0
  O  O160  1  0.56645124  0.05068897  0.58944655  1.0
  O  O161  1  0.05068466  0.38286521  0.58944247  1.0
  O  O162  1  0.38286413  0.56645798  0.58944242  1.0
  O  O163  1  0.43354681  0.94931559  0.58944377  1.0
  O  O164  1  0.94931569  0.61713614  0.58944091  1.0
  O  O165  1  0.61712886  0.43354978  0.58945232  1.0
  O  O166  1  0.41983980  0.38518490  0.14507254  1.0
  O  O167  1  0.19498246  0.41983378  0.14507041  1.0
  O  O168  1  0.38517949  0.19498066  0.14507105  1.0
  O  O169  1  0.58016111  0.61481832  0.14507008  1.0
  O  O170  1  0.80502683  0.58015823  0.14507221  1.0
  O  O171  1  0.61482076  0.80501695  0.14506779  1.0
  O  O172  1  0.58016063  0.80501866  0.35493004  1.0
  O  O173  1  0.80502018  0.61481857  0.35493013  1.0
  O  O174  1  0.61481978  0.58015905  0.35492860  1.0
  O  O175  1  0.41984039  0.19498000  0.35493023  1.0
  O  O176  1  0.19497468  0.38518410  0.35492636  1.0
  O  O177  1  0.38518276  0.41983240  0.35492915  1.0
  O  O178  1  0.58015907  0.61481474  0.85492719  1.0
  O  O179  1  0.80501531  0.58016667  0.85492805  1.0
  O  O180  1  0.61481778  0.80502219  0.85492804  1.0
  O  O181  1  0.41983685  0.38518453  0.85492964  1.0
  O  O182  1  0.19498057  0.41983822  0.85492814  1.0
  O  O183  1  0.38518000  0.19498029  0.85493067  1.0
  O  O184  1  0.41984032  0.19498098  0.64506779  1.0
  O  O185  1  0.19497957  0.38518348  0.64507149  1.0
  O  O186  1  0.38518522  0.41984220  0.64507175  1.0
  O  O187  1  0.58015837  0.80502124  0.64507075  1.0
  O  O188  1  0.80502131  0.61481714  0.64507084  1.0
  O  O189  1  0.61481651  0.58016644  0.64507121  1.0
  O  O190  1  0.53271427  0.23364452  0.24999989  1.0
  O  O191  1  0.23364022  0.53271866  0.25000045  1.0
  O  O192  1  0.23364014  0.23364436  0.25000016  1.0
  O  O193  1  0.46728352  0.76635722  0.24999935  1.0
  O  O194  1  0.76636195  0.46727988  0.24999879  1.0
  O  O195  1  0.76635864  0.76635818  0.25000097  1.0
  O  O196  1  0.46728489  0.76635592  0.75000047  1.0
  O  O197  1  0.76635934  0.46728099  0.74999927  1.0
  O  O198  1  0.76635833  0.76635608  0.74999956  1.0
  O  O199  1  0.53271743  0.23364242  0.75000163  1.0
  O  O200  1  0.23364327  0.53271816  0.74999841  1.0
  O  O201  1  0.23364122  0.23364226  0.74999875  1.0
