# generated using pymatgen
data_Zn3H16C30(NO8)2
_symmetry_space_group_name_H-M   'P 1'
_cell_length_a   18.41342182
_cell_length_b   18.43753845
_cell_length_c   18.49806072
_cell_angle_alpha   109.43928702
_cell_angle_beta   109.24417371
_cell_angle_gamma   109.51675756
_symmetry_Int_Tables_number   1
_chemical_formula_structural   Zn3H16C30(NO8)2
_chemical_formula_sum   'Zn6 H32 C60 N4 O32'
_cell_volume   4847.06173698
_cell_formula_units_Z   2
loop_
 _symmetry_equiv_pos_site_id
 _symmetry_equiv_pos_as_xyz
  1  'x, y, z'
loop_
 _atom_site_type_symbol
 _atom_site_label
 _atom_site_symmetry_multiplicity
 _atom_site_fract_x
 _atom_site_fract_y
 _atom_site_fract_z
 _atom_site_occupancy
  Zn  Zn0  1  0.56886760  0.50456028  0.07132157  1.0
  Zn  Zn1  1  0.44301182  0.50446590  0.94396123  1.0
  Zn  Zn2  1  0.99505113  0.93470895  0.92757944  1.0
  Zn  Zn3  1  0.99211031  0.06044887  0.05440306  1.0
  Zn  Zn4  1  0.43227413  0.93715184  0.49386729  1.0
  Zn  Zn5  1  0.55977515  0.06913410  0.49854105  1.0
  H  H6  1  0.23547993  0.35308488  0.01420971  1.0
  H  H7  1  0.67178342  0.77533020  0.01900926  1.0
  H  H8  1  0.24387280  0.28206092  0.13068847  1.0
  H  H9  1  0.86024160  0.88094051  0.13060264  1.0
  H  H10  1  0.40639795  0.29094966  0.14449806  1.0
  H  H11  1  0.86487721  0.73084873  0.14100511  1.0
  H  H12  1  0.30630492  0.11569218  0.99637273  1.0
  H  H13  1  0.88601709  0.68232373  0.98952508  1.0
  H  H14  1  0.29889963  0.18853279  0.88214715  1.0
  H  H15  1  0.69796925  0.57836977  0.87955515  1.0
  H  H16  1  0.37865421  0.79678227  0.18389599  1.0
  H  H17  1  0.49432920  0.80789051  0.11276640  1.0
  H  H18  1  0.37530029  0.64027345  0.18123276  1.0
  H  H19  1  0.64200911  0.91646664  0.28771024  1.0
  H  H20  1  0.52088512  0.74935698  0.35761308  1.0
  H  H21  1  0.63897734  0.76113956  0.28861284  1.0
  H  H22  1  0.40892464  0.23881600  0.58689343  1.0
  H  H23  1  0.34147076  0.20557772  0.69756084  1.0
  H  H24  1  0.54515684  0.40807950  0.73306467  1.0
  H  H25  1  0.44873082  0.12740422  0.73657013  1.0
  H  H26  1  0.65447198  0.33209533  0.77273816  1.0
  H  H27  1  0.58818565  0.29752307  0.88420732  1.0
  H  H28  1  0.67584935  0.09575058  0.81477278  1.0
  H  H29  1  0.67838942  0.96096200  0.85671323  1.0
  H  H30  1  0.85061839  0.14677563  0.84071706  1.0
  H  H31  1  0.60185630  0.84098518  0.67485517  1.0
  H  H32  1  0.77451037  0.02821854  0.65787639  1.0
  H  H33  1  0.77513900  0.89150850  0.69731977  1.0
  H  H34  1  0.27087093  0.09453196  0.41425231  1.0
  H  H35  1  0.29806411  0.15176919  0.29488078  1.0
  H  H36  1  0.09135410  0.96698441  0.27979568  1.0
  H  H37  1  0.17677147  0.89633862  0.10889681  1.0
  C  C38  1  0.49204329  0.63281163  0.09992102  1.0
  C  C39  1  0.41150631  0.38257393  0.02849522  1.0
  C  C40  1  0.65445963  0.61308066  0.02867544  1.0
  C  C41  1  0.48156668  0.38863511  0.86332142  1.0
  C  C42  1  0.25209920  0.30119967  0.01256659  1.0
  C  C43  1  0.72101605  0.75634942  0.01465035  1.0
  C  C44  1  0.20063929  0.20592054  0.93179373  1.0
  C  C45  1  0.73223387  0.72683400  0.93174904  1.0
  C  C46  1  0.20401869  0.16633837  0.99643233  1.0
  C  C47  1  0.83702085  0.78632446  0.99371424  1.0
  C  C48  1  0.25782930  0.26250134  0.07647876  1.0
  C  C49  1  0.82402364  0.81288602  0.07596137  1.0
  C  C50  1  0.34650697  0.26612569  0.08363928  1.0
  C  C51  1  0.82718114  0.73058807  0.08119889  1.0
  C  C52  1  0.29231818  0.16981120  0.00194650  1.0
  C  C53  1  0.83868377  0.70293812  0.99739544  1.0
  C  C54  1  0.28747082  0.20875346  0.93807710  1.0
  C  C55  1  0.73536388  0.64551956  0.93600792  1.0
  C  C56  1  0.34147403  0.30595225  0.02067581  1.0
  C  C57  1  0.72393464  0.67419163  0.02065257  1.0
  C  C58  1  0.50122197  0.79556647  0.16788162  1.0
  C  C59  1  0.43459794  0.70257659  0.20653833  1.0
  C  C60  1  0.43594476  0.78733005  0.20540165  1.0
  C  C61  1  0.51819403  0.84747587  0.30261313  1.0
  C  C62  1  0.58276917  0.85503376  0.26429730  1.0
  C  C63  1  0.51549249  0.76125565  0.30245588  1.0
  C  C64  1  0.58134292  0.76981963  0.26558044  1.0
  C  C65  1  0.50142120  0.71069430  0.16902864  1.0
  C  C66  1  0.41098429  0.23231261  0.71388884  1.0
  C  C67  1  0.52500936  0.34548987  0.73382612  1.0
  C  C68  1  0.44801851  0.25256201  0.65380524  1.0
  C  C69  1  0.50834008  0.21031357  0.67734436  1.0
  C  C70  1  0.47069715  0.19065424  0.73720572  1.0
  C  C71  1  0.58513121  0.30417766  0.75703144  1.0
  C  C72  1  0.54835377  0.28365322  0.81751796  1.0
  C  C73  1  0.48894777  0.32540395  0.79567155  1.0
  C  C74  1  0.86989090  0.01138469  0.89450386  1.0
  C  C75  1  0.12363174  0.09434973  0.98194356  1.0
  C  C76  1  0.89190654  0.85272375  0.97793372  1.0
  C  C77  1  0.10552204  0.02039019  0.13777929  1.0
  C  C78  1  0.34845274  0.97588121  0.37954016  1.0
  C  C79  1  0.52070607  0.91586285  0.37511965  1.0
  C  C80  1  0.58753108  0.97913457  0.61609078  1.0
  C  C81  1  0.51368714  0.14383587  0.61067749  1.0
  C  C82  1  0.69859325  0.97542924  0.81152491  1.0
  C  C83  1  0.79455633  0.07897154  0.80254056  1.0
  C  C84  1  0.69935918  0.05087898  0.79021889  1.0
  C  C85  1  0.65778413  0.98362166  0.68850303  1.0
  C  C86  1  0.65732889  0.90889185  0.71128959  1.0
  C  C87  1  0.75380011  0.01284613  0.70243858  1.0
  C  C88  1  0.75269371  0.93684921  0.72315881  1.0
  C  C89  1  0.79448469  0.00232473  0.82330519  1.0
  C  C90  1  0.26482810  0.08325802  0.28032611  1.0
  C  C91  1  0.14982641  0.98056250  0.27189076  1.0
  C  C92  1  0.24828546  0.05172695  0.34502925  1.0
  C  C93  1  0.27939065  0.98191139  0.31553556  1.0
  C  C94  1  0.29403646  0.01403903  0.25032155  1.0
  C  C95  1  0.18038928  0.91215389  0.24263453  1.0
  C  C96  1  0.19701571  0.94140762  0.17660589  1.0
  C  C97  1  0.16618835  0.00998373  0.20505052  1.0
  N  N98  1  0.11823285  0.16877514  0.85023917  1.0
  N  N99  1  0.68651990  0.72917922  0.85154419  1.0
  N  N100  1  0.37084491  0.02766032  0.23667560  1.0
  N  N101  1  0.13447066  0.81771763  0.21644829  1.0
  O  O102  1  0.53834687  0.59934486  0.12624592  1.0
  O  O103  1  0.43681848  0.60249327  0.01834061  1.0
  O  O104  1  0.49290749  0.41207224  0.08353923  1.0
  O  O105  1  0.67805125  0.58668860  0.08425716  1.0
  O  O106  1  0.38474086  0.41271074  0.97900200  1.0
  O  O107  1  0.57540686  0.59134285  0.97869621  1.0
  O  O108  1  0.52991579  0.41188444  0.94315798  1.0
  O  O109  1  0.42756328  0.41652780  0.83766567  1.0
  O  O110  1  0.90337083  0.96376744  0.87085027  1.0
  O  O111  1  0.89749904  0.06664972  0.97530504  1.0
  O  O112  1  0.09481622  0.01399926  0.92474699  1.0
  O  O113  1  0.91758004  0.82717917  0.92208102  1.0
  O  O114  1  0.08929554  0.11919947  0.02756802  1.0
  O  O115  1  0.90823116  0.93118428  0.02150476  1.0
  O  O116  1  0.08649451  0.97427204  0.05914764  1.0
  O  O117  1  0.07744590  0.07399150  0.16312489  1.0
  O  O118  1  0.32325556  0.92034303  0.40532131  1.0
  O  O119  1  0.42727104  0.03061489  0.40522640  1.0
  O  O120  1  0.46790764  0.88711301  0.40198460  1.0
  O  O121  1  0.57457931  0.99854774  0.40638558  1.0
  O  O122  1  0.50563886  0.92260777  0.58508539  1.0
  O  O123  1  0.61315696  0.03296017  0.58928366  1.0
  O  O124  1  0.46161436  0.06281479  0.58231661  1.0
  O  O125  1  0.56910063  0.17187516  0.58486129  1.0
  O  O126  1  0.11161469  0.12287522  0.77940410  1.0
  O  O127  1  0.06039561  0.18488113  0.85902212  1.0
  O  O128  1  0.66107546  0.66615055  0.77962205  1.0
  O  O129  1  0.67881458  0.79585379  0.86228032  1.0
  O  O130  1  0.42245290  0.10355991  0.25682771  1.0
  O  O131  1  0.37677614  0.96061385  0.20482026  1.0
  O  O132  1  0.05931829  0.78613853  0.20823281  1.0
  O  O133  1  0.17372618  0.77664089  0.20171846  1.0
