# generated using pymatgen
data_ZnH11C9N2ClO2
_symmetry_space_group_name_H-M   'P 1'
_cell_length_a   10.30886337
_cell_length_b   17.55746689
_cell_length_c   17.55739017
_cell_angle_alpha   59.99338116
_cell_angle_beta   89.99993989
_cell_angle_gamma   89.99996884
_symmetry_Int_Tables_number   1
_chemical_formula_structural   ZnH11C9N2ClO2
_chemical_formula_sum   'Zn6 H66 C54 N12 Cl6 O12'
_cell_volume   2751.91024054
_cell_formula_units_Z   6
loop_
 _symmetry_equiv_pos_site_id
 _symmetry_equiv_pos_as_xyz
  1  'x, y, z'
loop_
 _atom_site_type_symbol
 _atom_site_label
 _atom_site_symmetry_multiplicity
 _atom_site_fract_x
 _atom_site_fract_y
 _atom_site_fract_z
 _atom_site_occupancy
  Zn  Zn0  1  0.09083701  0.54287127  0.91982032  1.0
  Zn  Zn1  1  0.25764174  0.08018138  0.46269767  1.0
  Zn  Zn2  1  0.42422425  0.53726999  0.54288863  1.0
  Zn  Zn3  1  0.59083771  0.45712939  0.08017956  1.0
  Zn  Zn4  1  0.75764201  0.91981895  0.53730276  1.0
  Zn  Zn5  1  0.92422524  0.46273010  0.45711104  1.0
  H  H6  1  0.04409939  0.09941404  0.33295177  1.0
  H  H7  1  0.21104268  0.66710465  0.43220273  1.0
  H  H8  1  0.37762791  0.56770581  0.09946391  1.0
  H  H9  1  0.54409945  0.90058492  0.66704813  1.0
  H  H10  1  0.71104360  0.33289545  0.56779707  1.0
  H  H11  1  0.87762605  0.43229574  0.90053514  1.0
  H  H12  1  0.98778160  0.20710546  0.17606394  1.0
  H  H13  1  0.15459802  0.82390559  0.38309826  1.0
  H  H14  1  0.32132866  0.61684961  0.20714767  1.0
  H  H15  1  0.48777986  0.79289430  0.82393635  1.0
  H  H16  1  0.65459803  0.17609450  0.61690158  1.0
  H  H17  1  0.82132801  0.38315105  0.79285206  1.0
  H  H18  1  0.32854591  0.35482337  0.16712498  1.0
  H  H19  1  0.49512234  0.83278691  0.52206776  1.0
  H  H20  1  0.66204220  0.47797493  0.35487283  1.0
  H  H21  1  0.82854591  0.64517672  0.83287475  1.0
  H  H22  1  0.99512163  0.16721351  0.47793121  1.0
  H  H23  1  0.16204201  0.52202427  0.64512765  1.0
  H  H24  1  0.36966966  0.24166424  0.32340188  1.0
  H  H25  1  0.53629568  0.67653049  0.56518785  1.0
  H  H26  1  0.70315258  0.43490281  0.24169299  1.0
  H  H27  1  0.86966983  0.75833495  0.67659848  1.0
  H  H28  1  0.03629523  0.32346936  0.43481141  1.0
  H  H29  1  0.20315214  0.56509785  0.75830682  1.0
  H  H30  1  0.19821547  0.35988762  0.02048776  1.0
  H  H31  1  0.36481318  0.97947610  0.38035729  1.0
  H  H32  1  0.53158061  0.61968932  0.35991801  1.0
  H  H33  1  0.69821619  0.64011190  0.97951206  1.0
  H  H34  1  0.86481332  0.02052399  0.61964242  1.0
  H  H35  1  0.03158153  0.38031045  0.64008255  1.0
  H  H36  1  0.02936173  0.34599353  0.04457151  1.0
  H  H37  1  0.19597594  0.95536260  0.39060975  1.0
  H  H38  1  0.36276667  0.60939303  0.34599337  1.0
  H  H39  1  0.52936248  0.65400600  0.95542840  1.0
  H  H40  1  0.69597608  0.04463716  0.60939073  1.0
  H  H41  1  0.86276626  0.39060707  0.65400633  1.0
  H  H42  1  0.00788202  0.39977155  0.17032840  1.0
  H  H43  1  0.17467572  0.82965358  0.57012514  1.0
  H  H44  1  0.34143652  0.42989841  0.39978411  1.0
  H  H45  1  0.50788207  0.60022855  0.82967152  1.0
  H  H46  1  0.67467509  0.17034651  0.42987468  1.0
  H  H47  1  0.84143700  0.57010135  0.60021627  1.0
  H  H48  1  0.14970459  0.51808434  0.16149504  1.0
  H  H49  1  0.31645168  0.83842038  0.67961619  1.0
  H  H50  1  0.48311260  0.32037574  0.51813018  1.0
  H  H51  1  0.64970570  0.48191486  0.83850545  1.0
  H  H52  1  0.81645125  0.16157995  0.32038420  1.0
  H  H53  1  0.98311320  0.67962426  0.48187077  1.0
  H  H54  1  0.98404001  0.54294376  0.16482768  1.0
  H  H55  1  0.15079808  0.83507892  0.70781774  1.0
  H  H56  1  0.31742411  0.29222693  0.54293570  1.0
  H  H57  1  0.48404051  0.45705633  0.83517196  1.0
  H  H58  1  0.65079868  0.16492175  0.29218209  1.0
  H  H59  1  0.81742472  0.70777284  0.45706469  1.0
  H  H60  1  0.07028464  0.59736455  0.06252923  1.0
  H  H61  1  0.23702776  0.93736253  0.65997823  1.0
  H  H62  1  0.40366245  0.34005486  0.59739295  1.0
  H  H63  1  0.57028467  0.40263555  0.93747065  1.0
  H  H64  1  0.73702836  0.06263724  0.34002220  1.0
  H  H65  1  0.90366320  0.65994547  0.40260740  1.0
  H  H66  1  0.21094715  0.46590089  0.06288898  1.0
  H  H67  1  0.37764086  0.93715490  0.52875632  1.0
  H  H68  1  0.54439674  0.47121425  0.46596121  1.0
  H  H69  1  0.71094707  0.53409887  0.93711148  1.0
  H  H70  1  0.87764026  0.06284576  0.47124338  1.0
  H  H71  1  0.04439674  0.52878641  0.53403870  1.0
  C  C72  1  0.10390425  0.15714658  0.29311538  1.0
  C  C73  1  0.27081257  0.70690681  0.45015057  1.0
  C  C74  1  0.43750838  0.54981457  0.15716986  1.0
  C  C75  1  0.60390429  0.84285262  0.70688514  1.0
  C  C76  1  0.77081259  0.29309362  0.54984853  1.0
  C  C77  1  0.93750757  0.45018666  0.84282980  1.0
  C  C78  1  0.07381175  0.21735067  0.20600640  1.0
  C  C79  1  0.24063173  0.79398886  0.42328597  1.0
  C  C80  1  0.40739830  0.57669049  0.21738530  1.0
  C  C81  1  0.57380975  0.78264877  0.79399479  1.0
  C  C82  1  0.74063275  0.20601156  0.57671315  1.0
  C  C83  1  0.90739762  0.42331050  0.78261372  1.0
  C  C84  1  0.15309014  0.29094116  0.15853577  1.0
  C  C85  1  0.31976068  0.84142711  0.44951434  1.0
  C  C86  1  0.48664946  0.55053447  0.29099615  1.0
  C  C87  1  0.65308909  0.70905836  0.84146407  1.0
  C  C88  1  0.81976276  0.15857355  0.55048540  1.0
  C  C89  1  0.98664987  0.44946619  0.70900348  1.0
  C  C90  1  0.26125721  0.30021482  0.20136551  1.0
  C  C91  1  0.42786569  0.79856358  0.50166307  1.0
  C  C92  1  0.59477585  0.49840414  0.30024671  1.0
  C  C93  1  0.76125722  0.69978527  0.79863426  1.0
  C  C94  1  0.92786588  0.20143684  0.49833594  1.0
  C  C95  1  0.09477558  0.50159652  0.69975316  1.0
  C  C96  1  0.28521033  0.23769973  0.28834639  1.0
  C  C97  1  0.45187611  0.71159878  0.52611655  1.0
  C  C98  1  0.61870775  0.47393324  0.23774233  1.0
  C  C99  1  0.78520947  0.76230004  0.71165402  1.0
  C  C100  1  0.95187627  0.28840164  0.47388244  1.0
  C  C101  1  0.11870638  0.52606710  0.76225818  1.0
  C  C102  1  0.12296368  0.36009287  0.06488806  1.0
  C  C103  1  0.28959827  0.93507603  0.42500320  1.0
  C  C104  1  0.45642006  0.57503129  0.36013010  1.0
  C  C105  1  0.62296351  0.63990723  0.93511179  1.0
  C  C106  1  0.78959845  0.06492406  0.57499655  1.0
  C  C107  1  0.95641964  0.42496847  0.63987021  1.0
  C  C108  1  0.01975436  0.46109014  0.10683124  1.0
  C  C109  1  0.18648107  0.89314153  0.56796244  1.0
  C  C110  1  0.35322729  0.43206961  0.46110806  1.0
  C  C111  1  0.51975435  0.53890938  0.89316869  1.0
  C  C112  1  0.68648050  0.10685880  0.43203803  1.0
  C  C113  1  0.85322691  0.56793048  0.53889166  1.0
  C  C114  1  0.88765511  0.48017975  0.06001043  1.0
  C  C115  1  0.05430840  0.93985396  0.54023433  1.0
  C  C116  1  0.22107593  0.45983969  0.48007683  1.0
  C  C117  1  0.38765634  0.51982001  0.93998992  1.0
  C  C118  1  0.55430879  0.06014580  0.45976623  1.0
  C  C119  1  0.72107561  0.54016007  0.51992363  1.0
  C  C120  1  0.05808152  0.53493221  0.12453482  1.0
  C  C121  1  0.22484119  0.87538524  0.65951400  1.0
  C  C122  1  0.39149433  0.34050707  0.53495273  1.0
  C  C123  1  0.55808161  0.46506642  0.87546573  1.0
  C  C124  1  0.72484076  0.12461485  0.34048579  1.0
  C  C125  1  0.89149498  0.65949236  0.46504828  1.0
  N  N126  1  0.11873816  0.44978047  0.05254386  1.0
  N  N127  1  0.28540665  0.94747480  0.50231306  1.0
  N  N128  1  0.45218289  0.49768327  0.44982166  1.0
  N  N129  1  0.61873902  0.55021906  0.94745599  1.0
  N  N130  1  0.78540601  0.05252473  0.49768669  1.0
  N  N131  1  0.95218353  0.50231739  0.55017799  1.0
  N  N132  1  0.20754609  0.16722682  0.33400750  1.0
  N  N133  1  0.37434579  0.66597452  0.50121069  1.0
  N  N134  1  0.54107655  0.49878955  0.16725232  1.0
  N  N135  1  0.70754621  0.83277271  0.66599229  1.0
  N  N136  1  0.87434682  0.33402501  0.49878901  1.0
  N  N137  1  0.04107604  0.50121169  0.83274758  1.0
  Cl  Cl138  1  0.08445315  0.68591025  0.87339879  1.0
  Cl  Cl139  1  0.25098813  0.12657897  0.55931786  1.0
  Cl  Cl140  1  0.41776370  0.44067873  0.68593033  1.0
  Cl  Cl141  1  0.58445391  0.31408985  0.12660108  1.0
  Cl  Cl142  1  0.75098668  0.87342145  0.44068126  1.0
  Cl  Cl143  1  0.91776292  0.55932103  0.31407000  1.0
  O  O144  1  0.78960450  0.47065463  0.10726971  1.0
  O  O145  1  0.95630599  0.89249756  0.57793948  1.0
  O  O146  1  0.12305254  0.42208248  0.47055261  1.0
  O  O147  1  0.28960483  0.52934513  0.89273070  1.0
  O  O148  1  0.45630576  0.10750172  0.42205951  1.0
  O  O149  1  0.62305314  0.57791762  0.52944724  1.0
  O  O150  1  0.88580919  0.50487368  0.97822385  1.0
  O  O151  1  0.05229903  0.02164027  0.48316835  1.0
  O  O152  1  0.21912408  0.51699767  0.50467401  1.0
  O  O153  1  0.38580932  0.49512608  0.02177651  1.0
  O  O154  1  0.55229929  0.97836055  0.51683352  1.0
  O  O155  1  0.71912596  0.48300243  0.49532578  1.0
