# generated using pymatgen
data_Hf3H38C63N3O16
_symmetry_space_group_name_H-M   'P 1'
_cell_length_a   17.17578715
_cell_length_b   17.19493141
_cell_length_c   17.20438708
_cell_angle_alpha   91.88795050
_cell_angle_beta   91.89601761
_cell_angle_gamma   92.06316578
_symmetry_Int_Tables_number   1
_chemical_formula_structural   Hf3H38C63N3O16
_chemical_formula_sum   'Hf6 H76 C126 N6 O32'
_cell_volume   5072.04447985
_cell_formula_units_Z   2
loop_
 _symmetry_equiv_pos_site_id
 _symmetry_equiv_pos_as_xyz
  1  'x, y, z'
loop_
 _atom_site_type_symbol
 _atom_site_label
 _atom_site_symmetry_multiplicity
 _atom_site_fract_x
 _atom_site_fract_y
 _atom_site_fract_z
 _atom_site_occupancy
  Hf  Hf0  1  0.84527939  0.80847853  0.95279886  1.0
  Hf  Hf1  1  0.00628691  0.75565199  0.84528546  1.0
  Hf  Hf2  1  0.92633490  0.99727164  0.98004062  1.0
  Hf  Hf3  1  0.89813282  0.91578100  0.79150547  1.0
  Hf  Hf4  1  0.03463052  0.83781190  0.03321556  1.0
  Hf  Hf5  1  0.08685584  0.94504155  0.87258711  1.0
  H  H6  1  0.59071083  0.14785120  0.25665377  1.0
  H  H7  1  0.43814590  0.16121156  0.23455332  1.0
  H  H8  1  0.34137598  0.61129262  0.56700472  1.0
  H  H9  1  0.49358840  0.59881901  0.59230803  1.0
  H  H10  1  0.24010794  0.21955614  0.53364234  1.0
  H  H11  1  0.25427195  0.20105196  0.38087390  1.0
  H  H12  1  0.70276623  0.52646454  0.29021414  1.0
  H  H13  1  0.68919974  0.54917047  0.44258751  1.0
  H  H14  1  0.31046875  0.49856804  0.18591843  1.0
  H  H15  1  0.29105918  0.34566993  0.19996757  1.0
  H  H16  1  0.61521459  0.25366626  0.64810063  1.0
  H  H17  1  0.63835516  0.40617387  0.63435270  1.0
  H  H18  1  0.84873351  0.75838709  0.79546272  1.0
  H  H19  1  0.89886159  0.88613125  0.09522011  1.0
  H  H20  1  0.97508191  0.05912464  0.84434114  1.0
  H  H21  1  0.14936433  0.80976813  0.92163248  1.0
  H  H22  1  0.59101451  0.13130894  0.71622553  1.0
  H  H23  1  0.66912109  0.28471862  0.90935712  1.0
  H  H24  1  0.76953111  0.19106041  0.94586030  1.0
  H  H25  1  0.69839149  0.04272630  0.74927352  1.0
  H  H26  1  0.71329347  0.49733261  0.67481479  1.0
  H  H27  1  0.63036064  0.48231832  0.90887037  1.0
  H  H28  1  0.73574503  0.57559531  0.95423589  1.0
  H  H29  1  0.82325148  0.58197256  0.72345970  1.0
  H  H30  1  0.20651767  0.17100305  0.87921094  1.0
  H  H31  1  0.10816306  0.16936819  0.10524171  1.0
  H  H32  1  0.21499916  0.25663269  0.15687700  1.0
  H  H33  1  0.30899973  0.26639919  0.92691197  1.0
  H  H34  1  0.33222625  0.62072294  0.11775165  1.0
  H  H35  1  0.26168184  0.46500920  0.92400496  1.0
  H  H36  1  0.15923712  0.55565277  0.88504486  1.0
  H  H37  1  0.22328796  0.70635044  0.08225674  1.0
  H  H38  1  0.43071617  0.27161055  0.00642960  1.0
  H  H39  1  0.39653843  0.50055535  0.91914543  1.0
  H  H40  1  0.50250412  0.48249001  0.83042523  1.0
  H  H41  1  0.53621692  0.25333069  0.91748689  1.0
  H  H42  1  0.96459274  0.57995204  0.32134200  1.0
  H  H43  1  0.77145142  0.50150709  0.16778111  1.0
  H  H44  1  0.80481752  0.60879409  0.07896256  1.0
  H  H45  1  0.00124582  0.68064746  0.22775113  1.0
  H  H46  1  0.96491178  0.54468311  0.51465715  1.0
  H  H47  1  0.72817271  0.61782928  0.53883661  1.0
  H  H48  1  0.77582992  0.72830214  0.62286290  1.0
  H  H49  1  0.00971382  0.64987542  0.60810233  1.0
  H  H50  1  0.93301046  0.11718112  0.20614259  1.0
  H  H51  1  0.15971623  0.02040673  0.20345259  1.0
  H  H52  1  0.21151899  0.12702676  0.29056704  1.0
  H  H53  1  0.98078187  0.21924706  0.30173573  1.0
  H  H54  1  0.97785988  0.17148549  0.49954382  1.0
  H  H55  1  0.17140735  0.24162294  0.65608616  1.0
  H  H56  1  0.13485498  0.13285194  0.74171240  1.0
  H  H57  1  0.93816992  0.06878726  0.58992240  1.0
  H  H58  1  0.97481605  0.30723414  0.53636295  1.0
  H  H59  1  0.06017771  0.34124211  0.30661163  1.0
  H  H60  1  0.97160095  0.44686704  0.28902962  1.0
  H  H61  1  0.88655414  0.41352074  0.51907532  1.0
  H  H62  1  0.27843004  0.91285932  0.71119390  1.0
  H  H63  1  0.13145482  0.71255412  0.64755382  1.0
  H  H64  1  0.21953221  0.67734923  0.54041711  1.0
  H  H65  1  0.37125559  0.87495660  0.61039011  1.0
  H  H66  1  0.59679858  0.63677837  0.65133911  1.0
  H  H67  1  0.55949993  0.87449650  0.58817426  1.0
  H  H68  1  0.65338290  0.91967375  0.69287832  1.0
  H  H69  1  0.68032752  0.68406654  0.76225494  1.0
  H  H70  1  0.25295369  0.07265219  0.06221349  1.0
  H  H71  1  0.27049648  0.84004900  0.14266559  1.0
  H  H72  1  0.36689281  0.88597882  0.24468145  1.0
  H  H73  1  0.33952740  0.12176908  0.17027325  1.0
  H  H74  1  0.71249320  0.08104954  0.27839479  1.0
  H  H75  1  0.55803323  0.88417768  0.21321461  1.0
  H  H76  1  0.64723113  0.84572124  0.10923527  1.0
  H  H77  1  0.79691745  0.04545401  0.16855656  1.0
  H  H78  1  0.59513098  0.89067815  0.35276715  1.0
  H  H79  1  0.35687930  0.95908023  0.36861427  1.0
  H  H80  1  0.33767499  0.86967178  0.47312978  1.0
  H  H81  1  0.57619848  0.80167301  0.45804353  1.0
  C  C82  1  0.56096154  0.02669934  0.28411618  1.0
  C  C83  1  0.54651519  0.10419819  0.27052236  1.0
  C  C84  1  0.46533715  0.11064459  0.25806649  1.0
  C  C85  1  0.42940581  0.03730626  0.26415251  1.0
  C  C86  1  0.37122589  0.73248620  0.53980957  1.0
  C  C87  1  0.38567469  0.65512058  0.55386458  1.0
  C  C88  1  0.46667658  0.64906274  0.56780998  1.0
  C  C89  1  0.50258038  0.72244872  0.56205534  1.0
  C  C90  1  0.11861458  0.24611520  0.50437992  1.0
  C  C91  1  0.19636180  0.23361558  0.48978959  1.0
  C  C92  1  0.20319513  0.22293704  0.40856072  1.0
  C  C93  1  0.12986820  0.22896858  0.37276591  1.0
  C  C94  1  0.82502479  0.50326321  0.31969871  1.0
  C  C95  1  0.74707449  0.51449230  0.33428332  1.0
  C  C96  1  0.74047692  0.52720517  0.41533929  1.0
  C  C97  1  0.81413968  0.52352232  0.45099941  1.0
  C  C98  1  0.33647594  0.46938495  0.06441044  1.0
  C  C99  1  0.32413605  0.45470163  0.14209399  1.0
  C  C100  1  0.31294689  0.37341726  0.14888507  1.0
  C  C101  1  0.31845951  0.33775269  0.07556158  1.0
  C  C102  1  0.59233742  0.28313933  0.77023670  1.0
  C  C103  1  0.60355211  0.29779312  0.69239138  1.0
  C  C104  1  0.61660529  0.37888624  0.68573267  1.0
  C  C105  1  0.61329103  0.41452531  0.75931259  1.0
  C  C106  1  0.76827656  0.93402496  0.05779110  1.0
  C  C107  1  0.84943200  0.64135829  0.87224525  1.0
  C  C108  1  0.73058379  0.83470654  0.79674051  1.0
  C  C109  1  0.91226021  0.72504768  0.10579529  1.0
  C  C110  1  0.15887561  0.82249138  0.76060284  1.0
  C  C111  1  0.08832353  0.10804472  0.95694435  1.0
  C  C112  1  0.92556503  0.75912939  0.67811027  1.0
  C  C113  1  0.11159033  0.67911641  0.97137568  1.0
  C  C114  1  0.01129270  0.99979457  0.14283964  1.0
  C  C115  1  0.81393647  0.06896700  0.85730295  1.0
  C  C116  1  0.02399439  0.02102237  0.71388182  1.0
  C  C117  1  0.19818703  0.92265060  0.03400663  1.0
  C  C118  1  0.62998725  0.14454587  0.76661838  1.0
  C  C119  1  0.62477456  0.21629563  0.80809837  1.0
  C  C120  1  0.67227329  0.22979340  0.87634305  1.0
  C  C121  1  0.72979681  0.17862228  0.89593945  1.0
  C  C122  1  0.74235801  0.11371394  0.84723419  1.0
  C  C123  1  0.68946771  0.09507687  0.78479928  1.0
  C  C124  1  0.71720317  0.51366769  0.73655474  1.0
  C  C125  1  0.66248541  0.48165772  0.78766081  1.0
  C  C126  1  0.67072002  0.50524078  0.86701249  1.0
  C  C127  1  0.73128556  0.55616500  0.89329286  1.0
  C  C128  1  0.78839144  0.58265524  0.84289133  1.0
  C  C129  1  0.78028499  0.56088661  0.76375505  1.0
  C  C130  1  0.20817793  0.19175447  0.93976336  1.0
  C  C131  1  0.14907045  0.16587686  0.98817983  1.0
  C  C132  1  0.15306577  0.18987454  0.06681994  1.0
  C  C133  1  0.21433824  0.23846153  0.09563544  1.0
  C  C134  1  0.27129080  0.26955404  0.04635985  1.0
  C  C135  1  0.26704454  0.24397953  0.96745453  1.0
  C  C136  1  0.29440623  0.60633107  0.06675886  1.0
  C  C137  1  0.30238543  0.53482596  0.02564165  1.0
  C  C138  1  0.25630773  0.51983039  0.95667402  1.0
  C  C139  1  0.19766508  0.56932020  0.93571308  1.0
  C  C140  1  0.18263206  0.63402215  0.98380983  1.0
  C  C141  1  0.23394598  0.65406622  0.04727605  1.0
  C  C142  1  0.44533967  0.31799793  0.96719045  1.0
  C  C143  1  0.40317582  0.38650909  0.96918321  1.0
  C  C144  1  0.42625452  0.44577834  0.91953104  1.0
  C  C145  1  0.48763372  0.43594422  0.86942910  1.0
  C  C146  1  0.52927787  0.36712585  0.86694033  1.0
  C  C147  1  0.50652690  0.30810153  0.91697694  1.0
  C  C148  1  0.93161362  0.58317247  0.26639022  1.0
  C  C149  1  0.86317892  0.53566905  0.25291422  1.0
  C  C150  1  0.82183807  0.54067030  0.18106563  1.0
  C  C151  1  0.84014615  0.60012728  0.13150741  1.0
  C  C152  1  0.90254822  0.65323989  0.15029770  1.0
  C  C153  1  0.95131204  0.64079307  0.21523329  1.0
  C  C154  1  0.92236040  0.58287465  0.53965933  1.0
  C  C155  1  0.84247027  0.57213673  0.51837071  1.0
  C  C156  1  0.79043378  0.62408318  0.55289109  1.0
  C  C157  1  0.81702500  0.68735549  0.59996627  1.0
  C  C158  1  0.89663833  0.69809025  0.61937260  1.0
  C  C159  1  0.94821304  0.64339618  0.59067454  1.0
  C  C160  1  0.99377011  0.11917450  0.22662910  1.0
  C  C161  1  0.04236116  0.06053403  0.20054476  1.0
  C  C162  1  0.12120205  0.06492119  0.22421302  1.0
  C  C163  1  0.15007349  0.12604607  0.27274320  1.0
  C  C164  1  0.10061991  0.18235954  0.30433598  1.0
  C  C165  1  0.02148886  0.17779960  0.27897548  1.0
  C  C166  1  0.01032541  0.16594310  0.55447546  1.0
  C  C167  1  0.07949441  0.21193046  0.56970921  1.0
  C  C168  1  0.12027683  0.20388389  0.64141614  1.0
  C  C169  1  0.10020584  0.14348486  0.68918273  1.0
  C  C170  1  0.03666312  0.09214679  0.66882122  1.0
  C  C171  1  0.98891384  0.10722152  0.60384083  1.0
  C  C172  1  0.97485890  0.33698464  0.48156153  1.0
  C  C173  1  0.02378423  0.31367697  0.42185367  1.0
  C  C174  1  0.02139778  0.35585987  0.35335681  1.0
  C  C175  1  0.97140900  0.41721071  0.34384789  1.0
  C  C176  1  0.92191759  0.44005796  0.40326372  1.0
  C  C177  1  0.92499361  0.39850015  0.47216403  1.0
  C  C178  1  0.26611684  0.86168777  0.67311701  1.0
  C  C179  1  0.20211782  0.81225708  0.68812362  1.0
  C  C180  1  0.18338896  0.74838324  0.63701935  1.0
  C  C181  1  0.23255203  0.72907185  0.57763084  1.0
  C  C182  1  0.30404794  0.77104383  0.57073260  1.0
  C  C183  1  0.31688827  0.84112274  0.61550968  1.0
  C  C184  1  0.60762080  0.69933429  0.66001232  1.0
  C  C185  1  0.56969810  0.75156675  0.61070384  1.0
  C  C186  1  0.58746315  0.83183117  0.62411850  1.0
  C  C187  1  0.63860857  0.85774829  0.68450435  1.0
  C  C188  1  0.67081544  0.80562588  0.73661652  1.0
  C  C189  1  0.65467846  0.72571982  0.72340817  1.0
  C  C190  1  0.27715570  0.03220005  0.10310133  1.0
  C  C191  1  0.25732734  0.95265471  0.09403543  1.0
  C  C192  1  0.28778110  0.90161838  0.14826649  1.0
  C  C193  1  0.34044023  0.92813577  0.20707482  1.0
  C  C194  1  0.36141872  0.00812982  0.21677933  1.0
  C  C195  1  0.32568719  0.05948526  0.16494071  1.0
  C  C196  1  0.69800670  0.02947000  0.24142833  1.0
  C  C197  1  0.62677216  0.98778946  0.25073340  1.0
  C  C198  1  0.61220453  0.91779363  0.20619917  1.0
  C  C199  1  0.66090023  0.89700845  0.14679875  1.0
  C  C200  1  0.72463999  0.94602747  0.12983460  1.0
  C  C201  1  0.74507501  0.00998213  0.18037828  1.0
  C  C202  1  0.53807712  0.88673316  0.37823244  1.0
  C  C203  1  0.47687349  0.93143027  0.35016725  1.0
  C  C204  1  0.40533768  0.92406231  0.38699474  1.0
  C  C205  1  0.39476437  0.87348432  0.44776020  1.0
  C  C206  1  0.45588258  0.82862807  0.47570426  1.0
  C  C207  1  0.52760989  0.83636700  0.43928065  1.0
  N  N208  1  0.48787294  0.98716547  0.29105562  1.0
  N  N209  1  0.44433528  0.77240721  0.53434060  1.0
  N  N210  1  0.07919130  0.25408035  0.43164364  1.0
  N  N211  1  0.86514276  0.49829060  0.39251827  1.0
  N  N212  1  0.34382789  0.39661030  0.02490036  1.0
  N  N213  1  0.58766524  0.35605330  0.81029817  1.0
  O  O214  1  0.81187782  0.99070694  0.03747893  1.0
  O  O215  1  0.91655069  0.64636194  0.84344538  1.0
  O  O216  1  0.73610811  0.80604323  0.86371035  1.0
  O  O217  1  0.85489378  0.74287477  0.06196910  1.0
  O  O218  1  0.97653912  0.76555058  0.11612150  1.0
  O  O219  1  0.77732169  0.88706614  0.77074774  1.0
  O  O220  1  0.82448148  0.68793065  0.92508346  1.0
  O  O221  1  0.76046564  0.86744780  0.02121307  1.0
  O  O222  1  0.96145454  0.78229900  0.95106923  1.0
  O  O223  1  0.87142901  0.91435339  0.90739646  1.0
  O  O224  1  0.88235263  0.79223101  0.82909529  1.0
  O  O225  1  0.91552646  0.88374653  0.04191687  1.0
  O  O226  1  0.11551061  0.76508822  0.77978703  1.0
  O  O227  1  0.02144637  0.10247974  0.98595198  1.0
  O  O228  1  0.89637961  0.82591094  0.68300863  1.0
  O  O229  1  0.09249427  0.72374645  0.02749799  1.0
  O  O230  1  0.04065783  0.93321793  0.13741996  1.0
  O  O231  1  0.83185439  0.02466015  0.80039925  1.0
  O  O232  1  0.08038890  0.00188837  0.75822182  1.0
  O  O233  1  0.19207898  0.95205592  0.96751291  1.0
  O  O234  1  0.95736962  0.98420299  0.70644325  1.0
  O  O235  1  0.15448035  0.86652171  0.05826347  1.0
  O  O236  1  0.97841806  0.73437318  0.72481439  1.0
  O  O237  1  0.85415982  0.07961461  0.92154027  1.0
  O  O238  1  0.95454359  0.02304604  0.09953954  1.0
  O  O239  1  0.07468355  0.67127915  0.90499069  1.0
  O  O240  1  0.16966311  0.88697701  0.80036349  1.0
  O  O241  1  0.11187486  0.06483079  0.90032309  1.0
  O  O242  1  0.02981230  0.94071398  0.97573303  1.0
  O  O243  1  0.00432029  0.87147010  0.81806072  1.0
  O  O244  1  0.97278093  0.00587259  0.86123866  1.0
  O  O245  1  0.09603772  0.82649031  0.91958868  1.0
