# generated using pymatgen
data_AlH15C21(NO)6
_symmetry_space_group_name_H-M   'P 1'
_cell_length_a   3.95877103
_cell_length_b   27.90139785
_cell_length_c   27.90102375
_cell_angle_alpha   59.99991893
_cell_angle_beta   90.00036244
_cell_angle_gamma   89.99959119
_symmetry_Int_Tables_number   1
_chemical_formula_structural   AlH15C21(NO)6
_chemical_formula_sum   'Al2 H30 C42 N12 O12'
_cell_volume   2668.92740357
_cell_formula_units_Z   2
loop_
 _symmetry_equiv_pos_site_id
 _symmetry_equiv_pos_as_xyz
  1  'x, y, z'
loop_
 _atom_site_type_symbol
 _atom_site_label
 _atom_site_symmetry_multiplicity
 _atom_site_fract_x
 _atom_site_fract_y
 _atom_site_fract_z
 _atom_site_occupancy
  Al  Al0  1  0.04019188  0.50000124  0.99999770  1.0
  Al  Al1  1  0.04019520  0.16666270  0.66667055  1.0
  H  H2  1  0.84872721  0.29739565  0.51208293  1.0
  H  H3  1  0.85380091  0.34811239  0.40811352  1.0
  H  H4  1  0.29850068  0.21407067  0.41135633  1.0
  H  H5  1  0.29853411  0.45259929  0.25530868  1.0
  H  H6  1  0.85387149  0.31856125  0.25855375  1.0
  H  H7  1  0.84880063  0.36927431  0.15458311  1.0
  H  H8  1  0.84879449  0.19052144  0.79739850  1.0
  H  H9  1  0.85384379  0.24377742  0.84811280  1.0
  H  H10  1  0.29848583  0.37456935  0.71407150  1.0
  H  H11  1  0.29848322  0.29209119  0.95260393  1.0
  H  H12  1  0.85384370  0.42287981  0.81855950  1.0
  H  H13  1  0.84877125  0.47613770  0.86927126  1.0
  H  H14  1  0.84880661  0.01207990  0.69053291  1.0
  H  H15  1  0.85388040  0.90811283  0.74378724  1.0
  H  H16  1  0.29847861  0.91135285  0.87458047  1.0
  H  H17  1  0.29854125  0.75531240  0.79208784  1.0
  H  H18  1  0.85389074  0.75855110  0.92288831  1.0
  H  H19  1  0.84879701  0.65458284  0.97614470  1.0
  H  H20  1  0.15424895  0.14296845  0.55962810  1.0
  H  H21  1  0.05265025  0.14681323  0.49779405  1.0
  H  H22  1  0.15424680  0.52369727  0.10703995  1.0
  H  H23  1  0.05266880  0.51985125  0.16887381  1.0
  H  H24  1  0.15424699  0.29740169  0.64297038  1.0
  H  H25  1  0.05265343  0.35538908  0.64681570  1.0
  H  H26  1  0.15425381  0.36926586  0.02369975  1.0
  H  H27  1  0.05265293  0.31127403  0.01986010  1.0
  H  H28  1  0.15425392  0.05962034  0.79741310  1.0
  H  H29  1  0.05265225  0.99779132  0.85539704  1.0
  H  H30  1  0.15424940  0.60704623  0.86925827  1.0
  H  H31  1  0.05268472  0.66887912  0.81126999  1.0
  C  C32  1  0.54439310  0.58568243  0.95166494  1.0
  C  C33  1  0.54440175  0.46265344  0.08568052  1.0
  C  C34  1  0.54439164  0.45166627  0.96265070  1.0
  C  C35  1  0.54439172  0.20401172  0.58098785  1.0
  C  C36  1  0.54440182  0.21499884  0.70401849  1.0
  C  C37  1  0.54439279  0.08098313  0.71500550  1.0
  C  C38  1  0.54863091  0.22973074  0.52030119  1.0
  C  C39  1  0.72061412  0.28048202  0.48925067  1.0
  C  C40  1  0.72528781  0.30859454  0.43206980  1.0
  C  C41  1  0.57010077  0.28343066  0.40472189  1.0
  C  C42  1  0.41429174  0.23197516  0.43433509  1.0
  C  C43  1  0.38522411  0.20506203  0.49236436  1.0
  C  C44  1  0.41433765  0.43469350  0.23233013  1.0
  C  C45  1  0.57017080  0.38323860  0.26194611  1.0
  C  C46  1  0.72533512  0.35807432  0.23459725  1.0
  C  C47  1  0.72068773  0.38618971  0.17741926  1.0
  C  C48  1  0.54866520  0.43693703  0.14636553  1.0
  C  C49  1  0.38524834  0.46160847  0.17430082  1.0
  C  C50  1  0.54864781  0.24996659  0.72973281  1.0
  C  C51  1  0.72067500  0.23027240  0.78048507  1.0
  C  C52  1  0.72530514  0.25933573  0.80859725  1.0
  C  C53  1  0.57012631  0.31184568  0.78343644  1.0
  C  C54  1  0.41429845  0.33368507  0.73197657  1.0
  C  C55  1  0.38522393  0.30257061  0.70506288  1.0
  C  C56  1  0.41428793  0.33297191  0.93470072  1.0
  C  C57  1  0.57011741  0.35481136  0.88324113  1.0
  C  C58  1  0.72529752  0.40732236  0.85807648  1.0
  C  C59  1  0.72066721  0.43638945  0.88618616  1.0
  C  C60  1  0.54864830  0.41669671  0.93693640  1.0
  C  C61  1  0.38522572  0.36409261  0.96160772  1.0
  C  C62  1  0.54866158  0.02029706  0.74997785  1.0
  C  C63  1  0.72068521  0.98924260  0.73028160  1.0
  C  C64  1  0.72534279  0.93206888  0.75934244  1.0
  C  C65  1  0.57015257  0.90471771  0.81185321  1.0
  C  C66  1  0.41430851  0.93433399  0.83369572  1.0
  C  C67  1  0.38520893  0.99236391  0.80258131  1.0
  C  C68  1  0.41435395  0.73233174  0.83297570  1.0
  C  C69  1  0.57018742  0.76194864  0.85481808  1.0
  C  C70  1  0.72535110  0.73459568  0.90732997  1.0
  C  C71  1  0.72068760  0.67742078  0.93639246  1.0
  C  C72  1  0.54866484  0.64636529  0.91669756  1.0
  C  C73  1  0.38524606  0.67429976  0.86409214  1.0
  N  N74  1  0.56439758  0.30716130  0.34651173  1.0
  N  N75  1  0.56442599  0.35950823  0.32015502  1.0
  N  N76  1  0.56438178  0.34632331  0.80716341  1.0
  N  N77  1  0.56438110  0.32033318  0.85951168  1.0
  N  N78  1  0.56441565  0.84650655  0.84633432  1.0
  N  N79  1  0.56445108  0.82015576  0.82033862  1.0
  N  N80  1  0.22208950  0.15497824  0.52000471  1.0
  N  N81  1  0.22210240  0.51169100  0.14665975  1.0
  N  N82  1  0.22208581  0.32501443  0.65497736  1.0
  N  N83  1  0.22209346  0.34164995  0.01169537  1.0
  N  N84  1  0.22208215  0.02000167  0.82502515  1.0
  N  N85  1  0.22210723  0.64666524  0.84164469  1.0
  O  O86  1  0.30801877  0.44397853  0.99759696  1.0
  O  O87  1  0.30802227  0.55842817  0.94397391  1.0
  O  O88  1  0.30802639  0.49759855  0.05842338  1.0
  O  O89  1  0.77521711  0.48839465  0.94923794  1.0
  O  O90  1  0.77523077  0.44924137  0.06236273  1.0
  O  O91  1  0.77522878  0.56236419  0.98839364  1.0
  O  O92  1  0.30802600  0.10823975  0.72269732  1.0
  O  O93  1  0.30802693  0.16906415  0.60824537  1.0
  O  O94  1  0.30803455  0.22268730  0.66907055  1.0
  O  O95  1  0.77523069  0.10429784  0.67828053  1.0
  O  O96  1  0.77521963  0.17827239  0.71742836  1.0
  O  O97  1  0.77522113  0.21742172  0.60430358  1.0
