# generated using pymatgen
data_AlH6C13(BrO3)2
_symmetry_space_group_name_H-M   'P 1'
_cell_length_a   6.65103625
_cell_length_b   11.06860993
_cell_length_c   15.26183969
_cell_angle_alpha   88.29818752
_cell_angle_beta   77.87251541
_cell_angle_gamma   73.40209232
_symmetry_Int_Tables_number   1
_chemical_formula_structural   AlH6C13(BrO3)2
_chemical_formula_sum   'Al2 H12 C26 Br4 O12'
_cell_volume   1052.14639899
_cell_formula_units_Z   2
loop_
 _symmetry_equiv_pos_site_id
 _symmetry_equiv_pos_as_xyz
  1  'x, y, z'
loop_
 _atom_site_type_symbol
 _atom_site_label
 _atom_site_symmetry_multiplicity
 _atom_site_fract_x
 _atom_site_fract_y
 _atom_site_fract_z
 _atom_site_occupancy
  Al  Al0  1  0.99841590  0.49910651  0.49992462  1.0
  Al  Al1  1  0.50069970  0.49248239  0.49940145  1.0
  H  H2  1  0.33949367  0.34722306  0.44332141  1.0
  H  H3  1  0.64038235  0.64432403  0.55447746  1.0
  H  H4  1  0.65237224  0.49208798  0.05697353  1.0
  H  H5  1  0.36858655  0.44633172  0.94023234  1.0
  H  H6  1  0.78737364  0.57509157  0.76942874  1.0
  H  H7  1  0.69313573  0.58653726  0.93465985  1.0
  H  H8  1  0.18206612  0.52692421  0.23262023  1.0
  H  H9  1  0.27139829  0.53734319  0.06887286  1.0
  H  H10  1  0.56331997  0.22618171  0.62776064  1.0
  H  H11  1  0.81208413  0.75785710  0.61813910  1.0
  H  H12  1  0.50783595  0.49737182  0.29277363  1.0
  H  H13  1  0.51068461  0.44725733  0.70585136  1.0
  C  C14  1  0.86613927  0.27078896  0.50894457  1.0
  C  C15  1  0.82093768  0.50026264  0.33690549  1.0
  C  C16  1  0.14103422  0.72144778  0.49198862  1.0
  C  C17  1  0.17699989  0.50227129  0.66283728  1.0
  C  C18  1  0.86625225  0.50900576  0.23909141  1.0
  C  C19  1  0.12805567  0.50977507  0.76092764  1.0
  C  C20  1  0.71448346  0.50220143  0.18790725  1.0
  C  C21  1  0.76914455  0.50319234  0.09421742  1.0
  C  C22  1  0.29308190  0.47649538  0.81084772  1.0
  C  C23  1  0.23789469  0.47832008  0.90464103  1.0
  C  C24  1  0.91292946  0.54859325  0.80793570  1.0
  C  C25  1  0.86081598  0.55278112  0.90052234  1.0
  C  C26  1  0.06618107  0.52072305  0.19370144  1.0
  C  C27  1  0.11692875  0.52474921  0.10132486  1.0
  C  C28  1  0.96899243  0.51470852  0.04966400  1.0
  C  C29  1  0.02349886  0.51554812  0.95064186  1.0
  C  C30  1  0.93995214  0.12928172  0.50613836  1.0
  C  C31  1  0.81279825  0.06162782  0.56307978  1.0
  C  C32  1  0.12561589  0.06466299  0.44641496  1.0
  C  C33  1  0.61900498  0.12377438  0.62334824  1.0
  C  C34  1  0.49432289  0.05689422  0.67533927  1.0
  C  C35  1  0.07413073  0.86284408  0.49687431  1.0
  C  C36  1  0.19252053  0.93056813  0.44111472  1.0
  C  C37  1  0.88235111  0.92661886  0.55901952  1.0
  C  C38  1  0.75719927  0.86021577  0.61690823  1.0
  C  C39  1  0.56495641  0.92297578  0.67207684  1.0
  Br  Br40  1  0.43506686  0.84457484  0.35342506  1.0
  Br  Br41  1  0.28301436  0.15391292  0.36403654  1.0
  Br  Br42  1  0.23162678  0.14757790  0.74954177  1.0
  Br  Br43  1  0.39948493  0.82583250  0.74103401  1.0
  O  O44  1  0.99352771  0.32869823  0.52576758  1.0
  O  O45  1  0.62391902  0.50871287  0.37618054  1.0
  O  O46  1  0.32391670  0.66472193  0.50790373  1.0
  O  O47  1  0.02399843  0.52690802  0.62090424  1.0
  O  O48  1  0.00537684  0.66925750  0.47552449  1.0
  O  O49  1  0.37837178  0.47137626  0.62287762  1.0
  O  O50  1  0.67983875  0.32176699  0.49388027  1.0
  O  O51  1  0.97324655  0.48253627  0.37835485  1.0
  O  O52  1  0.29489886  0.43613973  0.46148682  1.0
  O  O53  1  0.70076461  0.55517765  0.53821277  1.0
  O  O54  1  0.51851865  0.49152632  0.22648259  1.0
  O  O55  1  0.50399135  0.44087228  0.77180558  1.0
