# generated using pymatgen
data_Zn2H27C41(NO4)2
_symmetry_space_group_name_H-M   'P 1'
_cell_length_a   11.05533932
_cell_length_b   13.86110140
_cell_length_c   26.34826131
_cell_angle_alpha   89.96167675
_cell_angle_beta   90.10714262
_cell_angle_gamma   89.83955271
_symmetry_Int_Tables_number   1
_chemical_formula_structural   Zn2H27C41(NO4)2
_chemical_formula_sum   'Zn4 H54 C82 N4 O16'
_cell_volume   4037.56213191
_cell_formula_units_Z   2
loop_
 _symmetry_equiv_pos_site_id
 _symmetry_equiv_pos_as_xyz
  1  'x, y, z'
loop_
 _atom_site_type_symbol
 _atom_site_label
 _atom_site_symmetry_multiplicity
 _atom_site_fract_x
 _atom_site_fract_y
 _atom_site_fract_z
 _atom_site_occupancy
  Zn  Zn0  1  0.50037713  0.39954020  0.50268863  1.0
  Zn  Zn1  1  0.49657533  0.60059024  0.50246895  1.0
  Zn  Zn2  1  0.49848765  0.60086614  0.08405807  1.0
  Zn  Zn3  1  0.50102433  0.40014112  0.08368204  1.0
  H  H4  1  0.61415636  0.24693219  0.43964334  1.0
  H  H5  1  0.38366567  0.24857961  0.56306911  1.0
  H  H6  1  0.34470022  0.75362603  0.54809334  1.0
  H  H7  1  0.64677119  0.75117100  0.45567916  1.0
  H  H8  1  0.57019945  0.03092044  0.39320071  1.0
  H  H9  1  0.70603232  0.09049041  0.40883681  1.0
  H  H10  1  0.42237461  0.03181090  0.60959337  1.0
  H  H11  1  0.28783853  0.09344242  0.59314264  1.0
  H  H12  1  0.23687045  0.97059807  0.52897801  1.0
  H  H13  1  0.26993920  0.90971668  0.58615885  1.0
  H  H14  1  0.75698992  0.96666937  0.47288698  1.0
  H  H15  1  0.72068116  0.90648909  0.41588399  1.0
  H  H16  1  0.67406480  0.37414145  0.19981466  1.0
  H  H17  1  0.81865376  0.27292264  0.24797879  1.0
  H  H18  1  0.67636423  0.38207261  0.38896104  1.0
  H  H19  1  0.82029305  0.27724920  0.34281707  1.0
  H  H20  1  0.37931947  0.61593304  0.33975052  1.0
  H  H21  1  0.38056774  0.61409300  0.24464310  1.0
  H  H22  1  0.47582200  0.34965293  0.66393790  1.0
  H  H23  1  0.52854987  0.65597873  0.66519311  1.0
  H  H24  1  0.47323474  0.65204868  0.92280406  1.0
  H  H25  1  0.53552047  0.34665090  0.92162695  1.0
  H  H26  1  0.36573874  0.31967698  0.77867274  1.0
  H  H27  1  0.48180955  0.25977906  0.74476148  1.0
  H  H28  1  0.63393794  0.68436582  0.78006651  1.0
  H  H29  1  0.51638301  0.74376855  0.74662337  1.0
  H  H30  1  0.36477419  0.68310037  0.80823765  1.0
  H  H31  1  0.48142071  0.74217737  0.84213659  1.0
  H  H32  1  0.63519495  0.31682815  0.80668642  1.0
  H  H33  1  0.51779130  0.25834270  0.84021569  1.0
  H  H34  1  0.77213523  0.62647176  0.57409897  1.0
  H  H35  1  0.88284433  0.72914453  0.63455030  1.0
  H  H36  1  0.22228014  0.61667258  0.58027664  1.0
  H  H37  1  0.10898877  0.72404997  0.63800517  1.0
  H  H38  1  0.11457910  0.38275345  0.45495524  1.0
  H  H39  1  0.88789380  0.38486200  0.45264524  1.0
  H  H40  1  0.61395221  0.75214501  0.14631293  1.0
  H  H41  1  0.38325080  0.75301816  0.02269522  1.0
  H  H42  1  0.34533862  0.24850236  0.03926543  1.0
  H  H43  1  0.65193708  0.24786218  0.12950586  1.0
  H  H44  1  0.57272020  0.96903698  0.19273896  1.0
  H  H45  1  0.70808990  0.90830278  0.17689487  1.0
  H  H46  1  0.42218270  0.97048143  0.97681179  1.0
  H  H47  1  0.28755840  0.90940698  0.99288784  1.0
  H  H48  1  0.23781238  0.03172042  0.05777473  1.0
  H  H49  1  0.26971788  0.09296200  0.00065239  1.0
  H  H50  1  0.75923234  0.03186848  0.11312215  1.0
  H  H51  1  0.72316390  0.09220745  0.17014605  1.0
  H  H52  1  0.76800729  0.37210406  0.01452650  1.0
  H  H53  1  0.87350880  0.26937582  0.95232140  1.0
  H  H54  1  0.21740171  0.38032375  0.00220620  1.0
  H  H55  1  0.09913638  0.27492121  0.94542064  1.0
  H  H56  1  0.11751306  0.61154364  0.13100130  1.0
  H  H57  1  0.89096826  0.61204653  0.13447266  1.0
  C  C58  1  0.50274618  0.50383015  0.60241669  1.0
  C  C59  1  0.26206353  0.49463833  0.50740053  1.0
  C  C60  1  0.50051073  0.50469343  0.40340402  1.0
  C  C61  1  0.73605599  0.49659406  0.50228203  1.0
  C  C62  1  0.50617454  0.49920825  0.98436087  1.0
  C  C63  1  0.26319425  0.50177022  0.07812211  1.0
  C  C64  1  0.50219014  0.50012559  0.18298473  1.0
  C  C65  1  0.73698345  0.49959681  0.08475629  1.0
  C  C66  1  0.63280703  0.04656808  0.42483335  1.0
  C  C67  1  0.36088711  0.04841349  0.57764670  1.0
  C  C68  1  0.31038773  0.95390323  0.55603352  1.0
  C  C69  1  0.68223093  0.95125020  0.44627878  1.0
  C  C70  1  0.56371852  0.20314586  0.46671421  1.0
  C  C71  1  0.56519080  0.10277484  0.46473186  1.0
  C  C72  1  0.43414029  0.20390471  0.53633139  1.0
  C  C73  1  0.43039468  0.10360149  0.53800880  1.0
  C  C74  1  0.41115097  0.79723510  0.52792325  1.0
  C  C75  1  0.40703260  0.89757735  0.52865615  1.0
  C  C76  1  0.58116565  0.79596564  0.47576471  1.0
  C  C77  1  0.58557260  0.89630024  0.47425098  1.0
  C  C78  1  0.49735850  0.05278052  0.50134992  1.0
  C  C79  1  0.49658960  0.94735165  0.50137460  1.0
  C  C80  1  0.51021163  0.49991614  0.23973981  1.0
  C  C81  1  0.58972754  0.43619287  0.26651151  1.0
  C  C82  1  0.43806243  0.56450349  0.26600102  1.0
  C  C83  1  0.67333814  0.37472989  0.24115488  1.0
  C  C84  1  0.75376427  0.31826965  0.26813653  1.0
  C  C85  1  0.50961367  0.50257581  0.34671915  1.0
  C  C86  1  0.43752431  0.56567851  0.31930292  1.0
  C  C87  1  0.58988216  0.43796336  0.32112669  1.0
  C  C88  1  0.67454818  0.37898490  0.34765299  1.0
  C  C89  1  0.75455734  0.32060254  0.32179692  1.0
  C  C90  1  0.46246142  0.32336584  0.76836009  1.0
  C  C91  1  0.53716396  0.67976772  0.76977051  1.0
  C  C92  1  0.46163544  0.67881536  0.81847205  1.0
  C  C93  1  0.53855531  0.32215803  0.81702795  1.0
  C  C94  1  0.48655544  0.41603232  0.68567255  1.0
  C  C95  1  0.48412294  0.41452247  0.73849245  1.0
  C  C96  1  0.51657855  0.58906254  0.68637319  1.0
  C  C97  1  0.51680310  0.58921209  0.73922426  1.0
  C  C98  1  0.48586932  0.58587968  0.90104935  1.0
  C  C99  1  0.48371752  0.58745909  0.84824959  1.0
  C  C100  1  0.52071821  0.41327601  0.90043496  1.0
  C  C101  1  0.51875215  0.41290827  0.84757665  1.0
  C  C102  1  0.50213227  0.50288380  0.65926535  1.0
  C  C103  1  0.50015313  0.50146563  0.76556472  1.0
  C  C104  1  0.50444376  0.49934062  0.92751737  1.0
  C  C105  1  0.50052049  0.50053290  0.82120566  1.0
  C  C106  1  0.87125689  0.49808695  0.50708065  1.0
  C  C107  1  0.93268067  0.56200429  0.54114932  1.0
  C  C108  1  0.93684130  0.43400540  0.47753659  1.0
  C  C109  1  0.87042964  0.62465516  0.57507938  1.0
  C  C110  1  0.93279689  0.68221185  0.60873429  1.0
  C  C111  1  0.12661663  0.49542704  0.51000370  1.0
  C  C112  1  0.06385364  0.43260055  0.47887812  1.0
  C  C113  1  0.06286773  0.56004866  0.54273394  1.0
  C  C114  1  0.12396983  0.61977964  0.57836031  1.0
  C  C115  1  0.06050719  0.67962451  0.61053817  1.0
  C  C116  1  0.63478522  0.95279595  0.16106043  1.0
  C  C117  1  0.36076144  0.95376970  0.00862472  1.0
  C  C118  1  0.31075327  0.04831478  0.03059245  1.0
  C  C119  1  0.68460358  0.04773753  0.13965645  1.0
  C  C120  1  0.56391676  0.79674357  0.11927667  1.0
  C  C121  1  0.56622083  0.89710149  0.12123656  1.0
  C  C122  1  0.43359374  0.79727288  0.04965856  1.0
  C  C123  1  0.43032712  0.89765400  0.04811465  1.0
  C  C124  1  0.41270045  0.20421206  0.05876107  1.0
  C  C125  1  0.40815574  0.10387996  0.05785684  1.0
  C  C126  1  0.58466380  0.20381285  0.11003213  1.0
  C  C127  1  0.58804516  0.10345390  0.11169896  1.0
  C  C128  1  0.49808685  0.94777894  0.08476819  1.0
  C  C129  1  0.49805390  0.05323242  0.08482470  1.0
  C  C130  1  0.87218508  0.49878501  0.08000848  1.0
  C  C131  1  0.93193049  0.43496381  0.04553218  1.0
  C  C132  1  0.93849610  0.56252870  0.10923795  1.0
  C  C133  1  0.86636147  0.37304887  0.01242662  1.0
  C  C134  1  0.92558391  0.31577357  0.97762472  1.0
  C  C135  1  0.12758791  0.50020113  0.07537352  1.0
  C  C136  1  0.06544854  0.56262757  0.10714360  1.0
  C  C137  1  0.06204585  0.43647853  0.04259965  1.0
  C  C138  1  0.11945826  0.37747402  0.00555379  1.0
  C  C139  1  0.05298644  0.31857696  0.97394604  1.0
  N  N140  1  0.49972468  0.25188268  0.50167530  1.0
  N  N141  1  0.49623985  0.74824904  0.50213611  1.0
  N  N142  1  0.49905416  0.74863144  0.08432680  1.0
  N  N143  1  0.49916993  0.25241919  0.08412017  1.0
  O  O144  1  0.51269030  0.42280971  0.57985306  1.0
  O  O145  1  0.49311203  0.58584031  0.58071107  1.0
  O  O146  1  0.31379195  0.57599846  0.50183649  1.0
  O  O147  1  0.31425295  0.41290428  0.50983647  1.0
  O  O148  1  0.50266321  0.58721084  0.42443535  1.0
  O  O149  1  0.48922867  0.42384197  0.42596632  1.0
  O  O150  1  0.68667301  0.41440085  0.49635319  1.0
  O  O151  1  0.68044604  0.57724497  0.50390625  1.0
  O  O152  1  0.48744581  0.57951138  0.00665175  1.0
  O  O153  1  0.52584182  0.41867812  0.00649407  1.0
  O  O154  1  0.31903645  0.42159987  0.07311805  1.0
  O  O155  1  0.31272357  0.58299904  0.08662032  1.0
  O  O156  1  0.48537681  0.41960108  0.16101226  1.0
  O  O157  1  0.51066730  0.58211490  0.16135537  1.0
  O  O158  1  0.68468150  0.58084723  0.07979763  1.0
  O  O159  1  0.68541872  0.41913263  0.09363776  1.0
