# generated using pymatgen
data_AlH6C24(BrO)6
_symmetry_space_group_name_H-M   'P 1'
_cell_length_a   3.99194411
_cell_length_b   29.03279521
_cell_length_c   29.03209694
_cell_angle_alpha   119.99654728
_cell_angle_beta   89.99887545
_cell_angle_gamma   89.99750516
_symmetry_Int_Tables_number   1
_chemical_formula_structural   AlH6C24(BrO)6
_chemical_formula_sum   'Al2 H12 C48 Br12 O12'
_cell_volume   2914.05301097
_cell_formula_units_Z   2
loop_
 _symmetry_equiv_pos_site_id
 _symmetry_equiv_pos_as_xyz
  1  'x, y, z'
loop_
 _atom_site_type_symbol
 _atom_site_label
 _atom_site_symmetry_multiplicity
 _atom_site_fract_x
 _atom_site_fract_y
 _atom_site_fract_z
 _atom_site_occupancy
  Al  Al0  1  0.00072319  0.49999121  0.99999477  1.0
  Al  Al1  1  0.00016751  0.83335557  0.66668118  1.0
  H  H2  1  0.27588118  0.69257453  0.52020792  1.0
  H  H3  1  0.72422645  0.82759304  0.52019499  1.0
  H  H4  1  0.72484835  0.50577093  0.14647357  1.0
  H  H5  1  0.27572114  0.64074844  0.14646720  1.0
  H  H6  1  0.27546453  0.82764900  0.80743809  1.0
  H  H7  1  0.72401541  0.69261071  0.67242983  1.0
  H  H8  1  0.72473876  0.64070018  0.99420498  1.0
  H  H9  1  0.27547394  0.50570906  0.85925687  1.0
  H  H10  1  0.27546849  0.97979792  0.67236008  1.0
  H  H11  1  0.72397945  0.97983907  0.80740851  1.0
  H  H12  1  0.72481980  0.35348494  0.85928957  1.0
  H  H13  1  0.27537731  0.35355214  0.99429350  1.0
  C  C14  1  0.50061843  0.41838981  0.95924739  1.0
  C  C15  1  0.50057826  0.54084402  0.08159940  1.0
  C  C16  1  0.50060560  0.54074666  0.95914686  1.0
  C  C17  1  0.50016612  0.79251779  0.58507639  1.0
  C  C18  1  0.50012375  0.79258254  0.70751266  1.0
  C  C19  1  0.50005580  0.91495148  0.70744037  1.0
  C  C20  1  0.50006841  0.76293332  0.52590336  1.0
  C  C21  1  0.37419016  0.71100402  0.49832682  1.0
  C  C22  1  0.38189202  0.68320891  0.44313811  1.0
  C  C23  1  0.50000649  0.70676592  0.41355488  1.0
  C  C24  1  0.61814352  0.75990078  0.44313078  1.0
  C  C25  1  0.62590288  0.78728595  0.49831945  1.0
  C  C26  1  0.49999050  0.67878435  0.35758745  1.0
  C  C27  1  0.49999485  0.65454366  0.30908481  1.0
  C  C28  1  0.50004649  0.62656642  0.25311777  1.0
  C  C29  1  0.61846588  0.57344466  0.22353824  1.0
  C  C30  1  0.62631797  0.54606590  0.16835075  1.0
  C  C31  1  0.50031774  0.57041339  0.14077047  1.0
  C  C32  1  0.37414587  0.62232677  0.16834906  1.0
  C  C33  1  0.38172228  0.65011461  0.22353778  1.0
  C  C34  1  0.49976006  0.76298422  0.73708713  1.0
  C  C35  1  0.37363582  0.78733211  0.78900428  1.0
  C  C36  1  0.38098260  0.75992824  0.81679525  1.0
  C  C37  1  0.49897993  0.70678507  0.79322807  1.0
  C  C38  1  0.61739355  0.68323184  0.74010751  1.0
  C  C39  1  0.62549522  0.71104374  0.71272860  1.0
  C  C40  1  0.49891435  0.67879696  0.82121398  1.0
  C  C41  1  0.49899163  0.65453980  0.84545058  1.0
  C  C42  1  0.49915652  0.62655244  0.87343730  1.0
  C  C43  1  0.61778780  0.65009570  0.92654669  1.0
  C  C44  1  0.62600400  0.62228074  0.95392163  1.0
  C  C45  1  0.50014514  0.57035018  0.92957795  1.0
  C  C46  1  0.37377567  0.54601578  0.87767782  1.0
  C  C47  1  0.38104081  0.57341679  0.84988327  1.0
  C  C48  1  0.49976820  0.97411879  0.73703140  1.0
  C  C49  1  0.37364032  0.00168253  0.71267567  1.0
  C  C50  1  0.38104439  0.05687357  0.74007900  1.0
  C  C51  1  0.49902573  0.08645131  0.79321983  1.0
  C  C52  1  0.61743746  0.05688787  0.81678191  1.0
  C  C53  1  0.62548960  0.00170179  0.78897014  1.0
  C  C54  1  0.49896952  0.14241911  0.82120929  1.0
  C  C55  1  0.49899812  0.19091398  0.84545702  1.0
  C  C56  1  0.49911726  0.24688282  0.87344649  1.0
  C  C57  1  0.61780805  0.27644295  0.84989751  1.0
  C  C58  1  0.62604121  0.33162839  0.87771565  1.0
  C  C59  1  0.50016204  0.35922082  0.92964682  1.0
  C  C60  1  0.37370257  0.33166051  0.95398589  1.0
  C  C61  1  0.38097556  0.27646843  0.92658056  1.0
  Br  Br62  1  0.77636060  0.79443841  0.40669965  1.0
  Br  Br63  1  0.22367398  0.61224470  0.40671028  1.0
  Br  Br64  1  0.22313479  0.72106084  0.25996528  1.0
  Br  Br65  1  0.77690655  0.53891531  0.25996613  1.0
  Br  Br66  1  0.77546212  0.61225540  0.70556342  1.0
  Br  Br67  1  0.22259031  0.79445885  0.88775128  1.0
  Br  Br68  1  0.22238959  0.53888910  0.77894320  1.0
  Br  Br69  1  0.77607386  0.72105554  0.96107844  1.0
  Br  Br70  1  0.77548460  0.09332296  0.88776026  1.0
  Br  Br71  1  0.22268566  0.09328905  0.70553774  1.0
  Br  Br72  1  0.22225320  0.24006519  0.96111308  1.0
  Br  Br73  1  0.77618317  0.24000870  0.77893544  1.0
  O  O74  1  0.73551248  0.55104111  0.99276494  1.0
  O  O75  1  0.73555432  0.44170488  0.94894474  1.0
  O  O76  1  0.73546230  0.50721969  0.05826679  1.0
  O  O77  1  0.26608164  0.50706886  0.94886251  1.0
  O  O78  1  0.26599613  0.55113026  0.05821469  1.0
  O  O79  1  0.26608241  0.44178678  0.99292449  1.0
  O  O80  1  0.73488100  0.89161883  0.71774460  1.0
  O  O81  1  0.73493293  0.82615757  0.60841806  1.0
  O  O82  1  0.73499049  0.78228921  0.67388537  1.0
  O  O83  1  0.26543445  0.89157459  0.67378042  1.0
  O  O84  1  0.26549535  0.82624890  0.71779869  1.0
  O  O85  1  0.26548567  0.78223318  0.60844762  1.0
