# generated using pymatgen
data_ZnH12C21N3O4
_symmetry_space_group_name_H-M   'P 1'
_cell_length_a   11.91369308
_cell_length_b   14.68696064
_cell_length_c   15.66096918
_cell_angle_alpha   80.58105090
_cell_angle_beta   89.74263736
_cell_angle_gamma   73.05666299
_symmetry_Int_Tables_number   1
_chemical_formula_structural   ZnH12C21N3O4
_chemical_formula_sum   'Zn2 H24 C42 N6 O8'
_cell_volume   2583.29428094
_cell_formula_units_Z   2
loop_
 _symmetry_equiv_pos_site_id
 _symmetry_equiv_pos_as_xyz
  1  'x, y, z'
loop_
 _atom_site_type_symbol
 _atom_site_label
 _atom_site_symmetry_multiplicity
 _atom_site_fract_x
 _atom_site_fract_y
 _atom_site_fract_z
 _atom_site_occupancy
  Zn  Zn0  1  0.46730170  0.59501323  0.51699766  1.0
  Zn  Zn1  1  0.53426862  0.40408005  0.48314620  1.0
  H  H2  1  0.53164084  0.75293283  0.94253612  1.0
  H  H3  1  0.61738825  0.36054135  0.15241794  1.0
  H  H4  1  0.68885736  0.97873678  0.31912589  1.0
  H  H5  1  0.30598144  0.02203986  0.67865350  1.0
  H  H6  1  0.53506495  0.76645707  0.46099610  1.0
  H  H7  1  0.45575353  0.23578966  0.53430666  1.0
  H  H8  1  0.32895872  0.68929760  0.65487267  1.0
  H  H9  1  0.67579735  0.30793182  0.34902569  1.0
  H  H10  1  0.44146073  0.87273811  0.12090045  1.0
  H  H11  1  0.45115219  0.84602975  0.02039729  1.0
  H  H12  1  0.63762667  0.12688703  0.87970816  1.0
  H  H13  1  0.65463385  0.23835464  0.06139259  1.0
  H  H14  1  0.62983740  0.15262319  0.98073604  1.0
  H  H15  1  0.78062586  0.19246060  0.26345298  1.0
  H  H16  1  0.77973600  0.07608499  0.27927610  1.0
  H  H17  1  0.22211787  0.80524704  0.73956527  1.0
  H  H18  1  0.21683331  0.92321468  0.72010777  1.0
  H  H19  1  0.60461027  0.86155483  0.39827611  1.0
  H  H20  1  0.38841241  0.13991124  0.59838862  1.0
  H  H21  1  0.52948497  0.54078691  0.77923274  1.0
  H  H22  1  0.54558450  0.45985939  0.22278869  1.0
  H  H23  1  0.60423099  0.24449520  0.75252389  1.0
  H  H24  1  0.46632686  0.75659477  0.24852243  1.0
  H  H25  1  0.55972896  0.63120319  0.85118670  1.0
  C  C26  1  0.49213689  0.57610060  0.33776297  1.0
  C  C27  1  0.62646953  0.31404335  0.03049775  1.0
  C  C28  1  0.66295402  0.16299958  0.35071126  1.0
  C  C29  1  0.33477666  0.83682659  0.64882838  1.0
  C  C30  1  0.63730558  0.25194673  0.37834297  1.0
  C  C31  1  0.36283168  0.74694664  0.62267521  1.0
  C  C32  1  0.51421504  0.21053466  0.48401714  1.0
  C  C33  1  0.47989176  0.79059917  0.51329806  1.0
  C  C34  1  0.53523639  0.11748656  0.46306680  1.0
  C  C35  1  0.45833846  0.88380437  0.53394136  1.0
  C  C36  1  0.61113503  0.09272449  0.39431312  1.0
  C  C37  1  0.53452956  0.42767636  0.66366868  1.0
  C  C38  1  0.38369671  0.90811509  0.60343764  1.0
  C  C39  1  0.48361563  0.04730948  0.50975408  1.0
  C  C40  1  0.50906527  0.95428098  0.48670852  1.0
  C  C41  1  0.72422145  0.49008600  0.49760937  1.0
  C  C42  1  0.28062398  0.50349155  0.50071056  1.0
  C  C43  1  0.58440294  0.93257021  0.41699389  1.0
  C  C44  1  0.40862777  0.06888179  0.57969325  1.0
  C  C45  1  0.63301738  0.99901781  0.37242538  1.0
  C  C46  1  0.36108515  0.00205690  0.62491281  1.0
  C  C47  1  0.84488344  0.49196041  0.49695448  1.0
  C  C48  1  0.52917968  0.65603305  0.06393923  1.0
  C  C49  1  0.15925097  0.50338202  0.50020818  1.0
  C  C50  1  0.94609115  0.49590046  0.49771432  1.0
  C  C51  1  0.05785337  0.49984279  0.49890988  1.0
  C  C52  1  0.50694101  0.60476946  0.24312477  1.0
  C  C53  1  0.56455171  0.39598526  0.75870841  1.0
  C  C54  1  0.49990820  0.72868171  0.11806461  1.0
  C  C55  1  0.61980884  0.26817806  0.88409898  1.0
  C  C56  1  0.49001840  0.70209530  0.20651937  1.0
  C  C57  1  0.59806051  0.29743150  0.79517137  1.0
  C  C58  1  0.53634585  0.53355215  0.19173228  1.0
  C  C59  1  0.61010707  0.33921349  0.93872773  1.0
  C  C60  1  0.55706575  0.46556500  0.81040288  1.0
  C  C61  1  0.54839818  0.55698777  0.10204603  1.0
  C  C62  1  0.58041759  0.43913809  0.90053410  1.0
  C  C63  1  0.57492693  0.48369184  0.04708519  1.0
  C  C64  1  0.56979052  0.51108809  0.95581839  1.0
  C  C65  1  0.55461071  0.61006117  0.92071815  1.0
  C  C66  1  0.60664633  0.38328105  0.08243705  1.0
  C  C67  1  0.53777507  0.67910212  0.97268738  1.0
  N  N68  1  0.56473579  0.27394396  0.44310950  1.0
  N  N69  1  0.43301583  0.72585570  0.55640961  1.0
  N  N70  1  0.48423802  0.82551270  0.08247358  1.0
  N  N71  1  0.65400095  0.17003193  0.91949280  1.0
  N  N72  1  0.73344634  0.14551943  0.28117843  1.0
  N  N73  1  0.26550057  0.85425617  0.71886876  1.0
  O  O74  1  0.47905242  0.63994914  0.38632852  1.0
  O  O75  1  0.56702799  0.36453212  0.61438593  1.0
  O  O76  1  0.49420493  0.48864291  0.36338351  1.0
  O  O77  1  0.47839462  0.51641764  0.63894741  1.0
  O  O78  1  0.65126720  0.56034564  0.52474450  1.0
  O  O79  1  0.35638543  0.42164873  0.50196852  1.0
  O  O80  1  0.70297817  0.41892942  0.47135121  1.0
  O  O81  1  0.29958335  0.58456811  0.49976517  1.0
