# generated using pymatgen
data_AlH6C13Br2O5
_symmetry_space_group_name_H-M   'P 1'
_cell_length_a   6.58322484
_cell_length_b   11.04834769
_cell_length_c   15.18921561
_cell_angle_alpha   90.36699012
_cell_angle_beta   101.52765616
_cell_angle_gamma   105.68980623
_symmetry_Int_Tables_number   1
_chemical_formula_structural   AlH6C13Br2O5
_chemical_formula_sum   'Al2 H12 C26 Br4 O10'
_cell_volume   1040.00837264
_cell_formula_units_Z   2
loop_
 _symmetry_equiv_pos_site_id
 _symmetry_equiv_pos_as_xyz
  1  'x, y, z'
loop_
 _atom_site_type_symbol
 _atom_site_label
 _atom_site_symmetry_multiplicity
 _atom_site_fract_x
 _atom_site_fract_y
 _atom_site_fract_z
 _atom_site_occupancy
  Al  Al0  1  0.99942814  0.50691281  0.49906867  1.0
  Al  Al1  1  0.50180629  0.51263744  0.50052651  1.0
  H  H2  1  0.33872576  0.65917556  0.55909692  1.0
  H  H3  1  0.64113231  0.36370024  0.43507005  1.0
  H  H4  1  0.53751090  0.43342415  0.77305062  1.0
  H  H5  1  0.62848737  0.42054551  0.93798775  1.0
  H  H6  1  0.45332948  0.59126086  0.22642739  1.0
  H  H7  1  0.36407641  0.58629030  0.06051887  1.0
  H  H8  1  0.80098293  0.38231386  0.22827347  1.0
  H  H9  1  0.71488322  0.36304570  0.06244589  1.0
  H  H10  1  0.21060915  0.54310826  0.76550443  1.0
  H  H11  1  0.30618842  0.52888939  0.93016180  1.0
  H  H12  1  0.54035469  0.77764581  0.38513861  1.0
  H  H13  1  0.80975466  0.24335466  0.38256954  1.0
  C  C14  1  0.86458354  0.73465912  0.49279670  1.0
  C  C15  1  0.81535353  0.50546349  0.66075446  1.0
  C  C16  1  0.14452773  0.28415783  0.50535732  1.0
  C  C17  1  0.18400796  0.49998887  0.33775063  1.0
  C  C18  1  0.86868682  0.49124517  0.75928476  1.0
  C  C19  1  0.13214298  0.48919901  0.23783171  1.0
  C  C20  1  0.70555022  0.45461346  0.80851614  1.0
  C  C21  1  0.75844409  0.44690150  0.90119677  1.0
  C  C22  1  0.29110679  0.54311570  0.18948800  1.0
  C  C23  1  0.24003809  0.53804451  0.09606078  1.0
  C  C24  1  0.92397214  0.42546897  0.19073266  1.0
  C  C25  1  0.87593601  0.41671750  0.09716403  1.0
  C  C26  1  0.08492491  0.51646458  0.80444547  1.0
  C  C27  1  0.13670695  0.50855767  0.89705468  1.0
  C  C28  1  0.97513990  0.47550488  0.94810425  1.0
  C  C29  1  0.03099854  0.47540920  0.04745277  1.0
  C  C30  1  0.93690119  0.87611049  0.49571126  1.0
  C  C31  1  0.80450118  0.94251400  0.44128944  1.0
  C  C32  1  0.12994422  0.94240104  0.55140672  1.0
  C  C33  1  0.60103824  0.87962100  0.38619167  1.0
  C  C34  1  0.47414719  0.94609666  0.33582852  1.0
  C  C35  1  0.07787159  0.14262083  0.50084183  1.0
  C  C36  1  0.20084543  0.07623599  0.55457328  1.0
  C  C37  1  0.87857307  0.07705375  0.44270490  1.0
  C  C38  1  0.75037153  0.14196061  0.38606193  1.0
  C  C39  1  0.55091801  0.07909963  0.33513917  1.0
  Br  Br40  1  0.45663938  0.16427550  0.63636189  1.0
  Br  Br41  1  0.29506817  0.85679589  0.63219006  1.0
  Br  Br42  1  0.19852833  0.85619915  0.26889829  1.0
  Br  Br43  1  0.38459448  0.17566889  0.26675098  1.0
  O  O44  1  0.99153256  0.67657692  0.47185032  1.0
  O  O45  1  0.61783167  0.49101570  0.62373909  1.0
  O  O46  1  0.32447533  0.33929198  0.48632771  1.0
  O  O47  1  0.02577375  0.47126990  0.37793808  1.0
  O  O48  1  0.00998838  0.33765390  0.52519832  1.0
  O  O49  1  0.38300626  0.53557054  0.37669326  1.0
  O  O50  1  0.68169976  0.68426792  0.51150827  1.0
  O  O51  1  0.97238288  0.53347014  0.62020492  1.0
  O  O52  1  0.29420255  0.57073424  0.53812047  1.0
  O  O53  1  0.70341182  0.44964546  0.46037474  1.0
