# generated using pymatgen
data_Zn3H5C15NO15
_symmetry_space_group_name_H-M   'P 1'
_cell_length_a   18.13653937
_cell_length_b   18.16492937
_cell_length_c   21.83631929
_cell_angle_alpha   92.36851166
_cell_angle_beta   90.44784749
_cell_angle_gamma   89.75212109
_symmetry_Int_Tables_number   1
_chemical_formula_structural   Zn3H5C15NO15
_chemical_formula_sum   'Zn12 H20 C60 N4 O60'
_cell_volume   7187.52949373
_cell_formula_units_Z   4
loop_
 _symmetry_equiv_pos_site_id
 _symmetry_equiv_pos_as_xyz
  1  'x, y, z'
loop_
 _atom_site_type_symbol
 _atom_site_label
 _atom_site_symmetry_multiplicity
 _atom_site_fract_x
 _atom_site_fract_y
 _atom_site_fract_z
 _atom_site_occupancy
  Zn  Zn0  1  0.92347873  0.98989447  0.49732843  1.0
  Zn  Zn1  1  0.07270339  0.98451576  0.50259388  1.0
  Zn  Zn2  1  0.42881606  0.49227464  0.00460277  1.0
  Zn  Zn3  1  0.57865192  0.49401472  0.00244567  1.0
  Zn  Zn4  1  0.98309194  0.92008084  0.99653255  1.0
  Zn  Zn5  1  0.97814539  0.07137480  0.99671530  1.0
  Zn  Zn6  1  0.51524579  0.42087875  0.50008929  1.0
  Zn  Zn7  1  0.51662114  0.57251111  0.50134058  1.0
  Zn  Zn8  1  0.01471069  0.48234659  0.43999037  1.0
  Zn  Zn9  1  0.01800206  0.48734414  0.56568082  1.0
  Zn  Zn10  1  0.48228061  0.98909271  0.94026256  1.0
  Zn  Zn11  1  0.47868795  0.99413450  0.06589761  1.0
  H  H12  1  0.03273841  0.92096768  0.18431512  1.0
  H  H13  1  0.90633414  0.12242549  0.80328109  1.0
  H  H14  1  0.47000781  0.42244233  0.68833086  1.0
  H  H15  1  0.48464049  0.63359674  0.30439627  1.0
  H  H16  1  0.92582052  0.00770689  0.29699542  1.0
  H  H17  1  0.01414719  0.02097719  0.69963594  1.0
  H  H18  1  0.57850667  0.51279146  0.80192294  1.0
  H  H19  1  0.59702612  0.52870868  0.20439181  1.0
  H  H20  1  0.16630791  0.97774188  0.23115430  1.0
  H  H21  1  0.14753247  0.88022094  0.22624972  1.0
  H  H22  1  0.20507810  0.91806392  0.28648983  1.0
  H  H23  1  0.78833805  0.14950307  0.75622653  1.0
  H  H24  1  0.77612571  0.05226882  0.76668504  1.0
  H  H25  1  0.73106408  0.09603154  0.70436847  1.0
  H  H26  1  0.36175318  0.37394644  0.73235410  1.0
  H  H27  1  0.33848654  0.47070847  0.73442791  1.0
  H  H28  1  0.30365667  0.41200386  0.79153682  1.0
  H  H29  1  0.36177234  0.64317838  0.25881019  1.0
  H  H30  1  0.35008918  0.54537831  0.24456206  1.0
  H  H31  1  0.31603644  0.60923593  0.19041346  1.0
  C  C32  1  0.04271212  0.12508020  0.50677586  1.0
  C  C33  1  0.02161101  0.84791239  0.51226268  1.0
  C  C34  1  0.45971554  0.63200804  0.00876821  1.0
  C  C35  1  0.47745798  0.35464647  0.01473909  1.0
  C  C36  1  0.97832130  0.98477394  0.38407887  1.0
  C  C37  1  0.95990470  0.01210691  0.61216560  1.0
  C  C38  1  0.52639619  0.48964099  0.88843645  1.0
  C  C39  1  0.54020328  0.51862484  0.11609692  1.0
  C  C40  1  0.02304280  0.97173693  0.21178583  1.0
  C  C41  1  0.92003819  0.06958219  0.78035241  1.0
  C  C42  1  0.48127103  0.47274082  0.71600871  1.0
  C  C43  1  0.49542857  0.57970448  0.28209037  1.0
  C  C44  1  0.00329967  0.03034674  0.17981998  1.0
  C  C45  1  0.94874616  0.01749886  0.81546455  1.0
  C  C46  1  0.50131452  0.53098043  0.68409991  1.0
  C  C47  1  0.51135934  0.52387058  0.31833115  1.0
  C  C48  1  0.03318155  0.96914630  0.27849389  1.0
  C  C49  1  0.90597229  0.05829775  0.71417386  1.0
  C  C50  1  0.47254279  0.47014697  0.78258661  1.0
  C  C51  1  0.48874473  0.56973001  0.21512531  1.0
  C  C52  1  0.97737671  0.98939328  0.31719841  1.0
  C  C53  1  0.96096240  0.03022034  0.67793639  1.0
  C  C54  1  0.52766960  0.49316967  0.82156713  1.0
  C  C55  1  0.54463097  0.53886377  0.18162382  1.0
  C  C56  1  0.04615349  0.20379383  0.51826757  1.0
  C  C57  1  0.02138652  0.76949621  0.52108632  1.0
  C  C58  1  0.45574359  0.71073794  0.01968950  1.0
  C  C59  1  0.47650151  0.27607490  0.02232285  1.0
  C  C60  1  0.04034776  0.27016460  0.52684606  1.0
  C  C61  1  0.01905498  0.70314436  0.52643591  1.0
  C  C62  1  0.45992784  0.77719295  0.02797761  1.0
  C  C63  1  0.47842100  0.20959277  0.02691429  1.0
  C  C64  1  0.11872708  0.97083232  0.98272229  1.0
  C  C65  1  0.84347861  0.96243852  0.99736303  1.0
  C  C66  1  0.65345486  0.46635959  0.49654903  1.0
  C  C67  1  0.37789220  0.46661324  0.48967538  1.0
  C  C68  1  0.99307183  0.02668715  0.11187783  1.0
  C  C69  1  0.96338439  0.02379880  0.88253007  1.0
  C  C70  1  0.50940273  0.52726319  0.61614502  1.0
  C  C71  1  0.51583641  0.52726272  0.38629821  1.0
  C  C72  1  0.15418193  0.48080635  0.47341357  1.0
  C  C73  1  0.87756810  0.47511355  0.48150259  1.0
  C  C74  1  0.61935026  0.97819893  0.98262093  1.0
  C  C75  1  0.34253751  0.98784626  0.97199185  1.0
  C  C76  1  0.02958847  0.34850950  0.52862998  1.0
  C  C77  1  0.01655124  0.62404680  0.52641226  1.0
  C  C78  1  0.46871714  0.85560412  0.02959925  1.0
  C  C79  1  0.48088208  0.13053938  0.02660385  1.0
  C  C80  1  0.19713899  0.97267518  0.97395662  1.0
  C  C81  1  0.76456948  0.96139873  0.99052828  1.0
  C  C82  1  0.73203977  0.46497713  0.48881493  1.0
  C  C83  1  0.29960166  0.46687548  0.47942191  1.0
  C  C84  1  0.79847795  0.46869546  0.48273700  1.0
  C  C85  1  0.23322799  0.47290383  0.47293330  1.0
  C  C86  1  0.26356329  0.97944276  0.96972334  1.0
  C  C87  1  0.69815832  0.96783870  0.98444894  1.0
  C  C88  1  0.15695299  0.92840333  0.25749620  1.0
  C  C89  1  0.78091785  0.09517210  0.73289152  1.0
  C  C90  1  0.35067747  0.42297129  0.76219597  1.0
  C  C91  1  0.36002164  0.59827630  0.22343761  1.0
  N  N92  1  0.99324815  0.10399204  0.20996606  1.0
  N  N93  1  0.96412503  0.94201110  0.78978100  1.0
  N  N94  1  0.51396786  0.60436533  0.71396152  1.0
  N  N95  1  0.52072524  0.44778384  0.29196094  1.0
  O  O96  1  0.97885701  0.09958659  0.49672655  1.0
  O  O97  1  0.08535424  0.87862308  0.51173301  1.0
  O  O98  1  0.95939131  0.87852253  0.50530099  1.0
  O  O99  1  0.10336156  0.08793350  0.50804812  1.0
  O  O100  1  0.39871006  0.59575940  0.00811352  1.0
  O  O101  1  0.54020713  0.38382614  0.00917573  1.0
  O  O102  1  0.41425474  0.38696870  0.01380349  1.0
  O  O103  1  0.52368091  0.60566602  0.00104657  1.0
  O  O104  1  0.91410487  0.98943192  0.40998106  1.0
  O  O105  1  0.02256826  0.99636195  0.58860513  1.0
  O  O106  1  0.89845128  0.01109860  0.58149511  1.0
  O  O107  1  0.03902518  0.97753987  0.41284302  1.0
  O  O108  1  0.46546775  0.48359213  0.91619189  1.0
  O  O109  1  0.60249033  0.51314910  0.08718774  1.0
  O  O110  1  0.47787600  0.50525324  0.09129110  1.0
  O  O111  1  0.59036589  0.49403827  0.91556806  1.0
  O  O112  1  0.08854855  0.90708549  0.98617817  1.0
  O  O113  1  0.87244132  0.02592335  0.00232175  1.0
  O  O114  1  0.08632018  0.03292134  0.98726677  1.0
  O  O115  1  0.87797322  0.90033589  0.99753207  1.0
  O  O116  1  0.62040824  0.40384499  0.49817278  1.0
  O  O117  1  0.40835264  0.52924318  0.49612757  1.0
  O  O118  1  0.62348762  0.52959088  0.50121837  1.0
  O  O119  1  0.41033719  0.40348081  0.49190510  1.0
  O  O120  1  0.99268677  0.96288157  0.08616113  1.0
  O  O121  1  0.96371047  0.08829949  0.90917315  1.0
  O  O122  1  0.51030884  0.46358396  0.59026867  1.0
  O  O123  1  0.51533523  0.59125108  0.41392909  1.0
  O  O124  1  0.98701813  0.08818080  0.08527705  1.0
  O  O125  1  0.97277277  0.96345188  0.90852119  1.0
  O  O126  1  0.51308003  0.58898909  0.58965645  1.0
  O  O127  1  0.51812296  0.46600120  0.41171935  1.0
  O  O128  1  0.11974552  0.48009262  0.42164059  1.0
  O  O129  1  0.90924162  0.48048623  0.53346725  1.0
  O  O130  1  0.12575484  0.48772638  0.52614832  1.0
  O  O131  1  0.90851039  0.47525969  0.42872084  1.0
  O  O132  1  0.58832373  0.97957261  0.92945647  1.0
  O  O133  1  0.37053461  0.99510110  0.02522697  1.0
  O  O134  1  0.58794519  0.98557109  0.03415605  1.0
  O  O135  1  0.37737759  0.98705844  0.92084466  1.0
  O  O136  1  0.02193483  0.37724789  0.47694200  1.0
  O  O137  1  0.01807859  0.59341968  0.57860128  1.0
  O  O138  1  0.47547214  0.88431338  0.97795040  1.0
  O  O139  1  0.47914630  0.09989196  0.07875415  1.0
  O  O140  1  0.02813160  0.38339341  0.58132515  1.0
  O  O141  1  0.01315303  0.59093466  0.47406436  1.0
  O  O142  1  0.46951922  0.89066185  0.08224750  1.0
  O  O143  1  0.48453946  0.09750794  0.97427334  1.0
  O  O144  1  0.04960259  0.13866735  0.22423127  1.0
  O  O145  1  0.92887523  0.12468175  0.21748712  1.0
  O  O146  1  0.02984680  0.92637468  0.78204803  1.0
  O  O147  1  0.91089235  0.90120626  0.77985469  1.0
  O  O148  1  0.57916159  0.62287880  0.72034973  1.0
  O  O149  1  0.45914523  0.64100946  0.72896308  1.0
  O  O150  1  0.58467488  0.42463465  0.28830940  1.0
  O  O151  1  0.46407691  0.41390066  0.27726857  1.0
  O  O152  1  0.09650050  0.93933714  0.29934851  1.0
  O  O153  1  0.84032321  0.07890443  0.69096836  1.0
  O  O154  1  0.41134036  0.43788254  0.80370287  1.0
  O  O155  1  0.42686742  0.59513892  0.18802598  1.0
