# generated using pymatgen
data_Al6H48(C17O6)5
_symmetry_space_group_name_H-M   'P 1'
_cell_length_a   12.37799207
_cell_length_b   12.64537722
_cell_length_c   28.70468915
_cell_angle_alpha   89.85846081
_cell_angle_beta   89.65863323
_cell_angle_gamma   118.53833768
_symmetry_Int_Tables_number   1
_chemical_formula_structural   Al6H48(C17O6)5
_chemical_formula_sum   'Al6 H48 C85 O30'
_cell_volume   3946.93318402
_cell_formula_units_Z   1
loop_
 _symmetry_equiv_pos_site_id
 _symmetry_equiv_pos_as_xyz
  1  'x, y, z'
loop_
 _atom_site_type_symbol
 _atom_site_label
 _atom_site_symmetry_multiplicity
 _atom_site_fract_x
 _atom_site_fract_y
 _atom_site_fract_z
 _atom_site_occupancy
  Al  Al0  1  0.58931656  0.41192232  0.50022774  1.0
  Al  Al1  1  0.57728891  0.65996372  0.49868484  1.0
  Al  Al2  1  0.33869838  0.42856958  0.50037425  1.0
  Al  Al3  1  0.06897076  0.91515141  0.99725340  1.0
  Al  Al4  1  0.32610603  0.91050917  0.00065960  1.0
  Al  Al5  1  0.09377475  0.67385969  0.99989113  1.0
  H  H6  1  0.52290291  0.27280829  0.28909170  1.0
  H  H7  1  0.34148727  0.31658783  0.80669520  1.0
  H  H8  1  0.34201829  0.35483633  0.72136506  1.0
  H  H9  1  0.91856477  0.85427705  0.70282698  1.0
  H  H10  1  0.75449442  0.47402512  0.79374408  1.0
  H  H11  1  0.55212820  0.75563502  0.27311925  1.0
  H  H12  1  0.43533916  0.56419053  0.20888161  1.0
  H  H13  1  0.23277499  0.45061958  0.27090937  1.0
  H  H14  1  0.12040652  0.57518563  0.22722856  1.0
  H  H15  1  0.12846746  0.12263136  0.29348170  1.0
  H  H16  1  0.11933654  0.08055929  0.20828982  1.0
  H  H17  1  0.88578463  0.53358270  0.29820075  1.0
  H  H18  1  0.51380556  0.23119829  0.20386045  1.0
  H  H19  1  0.45922717  0.99917644  0.29024621  1.0
  H  H20  1  0.58589446  0.97091930  0.28463961  1.0
  H  H21  1  0.58498430  0.09193037  0.25356187  1.0
  H  H22  1  0.53434419  0.92489773  0.19804879  1.0
  H  H23  1  0.40253350  0.94147584  0.20630916  1.0
  H  H24  1  0.88058899  0.97002350  0.20980807  1.0
  H  H25  1  0.92327402  0.91593385  0.15932184  1.0
  H  H26  1  0.81389506  0.96840754  0.15480672  1.0
  H  H27  1  0.70761248  0.74426925  0.15435329  1.0
  H  H28  1  0.91229938  0.53471464  0.21169236  1.0
  H  H29  1  0.66464586  0.79739764  0.20433200  1.0
  H  H30  1  0.08363854  0.28144869  0.79809118  1.0
  H  H31  1  0.24273488  0.92321560  0.25301463  1.0
  H  H32  1  0.10842002  0.78523688  0.24184130  1.0
  H  H33  1  0.11309015  0.87343445  0.29046708  1.0
  H  H34  1  0.14173407  0.70479008  0.32003867  1.0
  H  H35  1  0.28112419  0.83865266  0.32615504  1.0
  H  H36  1  0.07447205  0.01570143  0.73671138  1.0
  H  H37  1  0.93579842  0.01212743  0.75567657  1.0
  H  H38  1  0.07257423  0.08762329  0.78910079  1.0
  H  H39  1  0.72945840  0.77128294  0.28256459  1.0
  H  H40  1  0.93648696  0.89462883  0.82810723  1.0
  H  H41  1  0.06986171  0.89557805  0.80803365  1.0
  H  H42  1  0.73435811  0.31688650  0.74329767  1.0
  H  H43  1  0.59455857  0.31433300  0.75996017  1.0
  H  H44  1  0.60081359  0.23993343  0.70868269  1.0
  H  H45  1  0.60502512  0.43300845  0.68756247  1.0
  H  H46  1  0.73875832  0.43190022  0.66929745  1.0
  H  H47  1  0.22602931  0.47008733  0.70996291  1.0
  H  H48  1  0.44654723  0.86153647  0.79175355  1.0
  H  H49  1  0.46002321  0.85485949  0.70539818  1.0
  H  H50  1  0.33001650  0.01484021  0.69267326  1.0
  H  H51  1  0.32826121  0.97619261  0.77778404  1.0
  H  H52  1  0.71114262  0.32951042  0.47286125  1.0
  H  H53  1  0.94940076  0.00104709  0.02398156  1.0
  C  C54  1  0.71857043  0.62391987  0.43284569  1.0
  C  C55  1  0.35253461  0.64252625  0.34596055  1.0
  C  C56  1  0.34748958  0.24702150  0.38649333  1.0
  C  C57  1  0.38178721  0.61184122  0.43498020  1.0
  C  C58  1  0.21235452  0.14695447  0.27354173  1.0
  C  C59  1  0.20727092  0.12374237  0.22619686  1.0
  C  C60  1  0.43008867  0.20827992  0.22370004  1.0
  C  C61  1  0.43514893  0.23132605  0.27102508  1.0
  C  C62  1  0.32626332  0.20020331  0.29677019  1.0
  C  C63  1  0.31597019  0.15306769  0.20063594  1.0
  C  C64  1  0.30898165  0.12317553  0.15294731  1.0
  C  C65  1  0.36008502  0.63534262  0.38813343  1.0
  C  C66  1  0.33394339  0.22344176  0.34510556  1.0
  C  C67  1  0.29926114  0.09310133  0.11224960  1.0
  C  C68  1  0.76738430  0.64689351  0.38614669  1.0
  C  C69  1  0.37971791  0.29459203  0.43277519  1.0
  C  C70  1  0.85744801  0.58517148  0.27565229  1.0
  C  C71  1  0.87171821  0.58563682  0.22776542  1.0
  C  C72  1  0.78132032  0.71997829  0.21820895  1.0
  C  C73  1  0.76919761  0.71956496  0.26647623  1.0
  C  C74  1  0.80625836  0.65314171  0.29571560  1.0
  C  C75  1  0.83541682  0.65306752  0.19867639  1.0
  C  C76  1  0.21661954  0.61471373  0.23779097  1.0
  C  C77  1  0.85885247  0.65834598  0.15028289  1.0
  C  C78  1  0.78791218  0.65154343  0.34441241  1.0
  C  C79  1  0.88521685  0.66912089  0.10894955  1.0
  C  C80  1  0.36430717  0.64527206  0.61090178  1.0
  C  C81  1  0.71365233  0.61855077  0.56556385  1.0
  C  C82  1  0.27491490  0.55579533  0.72788781  1.0
  C  C83  1  0.27045423  0.55841323  0.77639242  1.0
  C  C84  1  0.39922818  0.77602164  0.77352937  1.0
  C  C85  1  0.40602621  0.77242910  0.72533087  1.0
  C  C86  1  0.34382617  0.66182432  0.70166620  1.0
  C  C87  1  0.32864885  0.67765118  0.20266506  1.0
  C  C88  1  0.33238370  0.66995574  0.80016782  1.0
  C  C89  1  0.32400302  0.68004745  0.84902772  1.0
  C  C90  1  0.35360831  0.65485079  0.65271498  1.0
  C  C91  1  0.31515024  0.69747456  0.89029505  1.0
  C  C92  1  0.34577405  0.23739235  0.61200540  1.0
  C  C93  1  0.39042405  0.62125166  0.56445055  1.0
  C  C94  1  0.33229548  0.08041020  0.71776032  1.0
  C  C95  1  0.33214419  0.05930290  0.76519679  1.0
  C  C96  1  0.33923483  0.25134913  0.78144888  1.0
  C  C97  1  0.33892995  0.27215397  0.73402038  1.0
  C  C98  1  0.27844481  0.54601190  0.26133461  1.0
  C  C99  1  0.33540764  0.18715119  0.70144779  1.0
  C  C100  1  0.33514486  0.14416887  0.79772508  1.0
  C  C101  1  0.32919675  0.11954907  0.84599877  1.0
  C  C102  1  0.33900255  0.21188507  0.65325108  1.0
  C  C103  1  0.31920543  0.09544653  0.88743622  1.0
  C  C104  1  0.76437983  0.64974088  0.61132348  1.0
  C  C105  1  0.37160095  0.28759954  0.56567806  1.0
  C  C106  1  0.88359232  0.77199980  0.72351752  1.0
  C  C107  1  0.90860668  0.77755599  0.77085558  1.0
  C  C108  1  0.78962727  0.55629509  0.77305496  1.0
  C  C109  1  0.34448727  0.65213881  0.29727367  1.0
  C  C110  1  0.76462958  0.55066749  0.72570557  1.0
  C  C111  1  0.81334423  0.66149168  0.70075565  1.0
  C  C112  1  0.85988460  0.66666667  0.79579507  1.0
  C  C113  1  0.88330534  0.66860803  0.84394615  1.0
  C  C114  1  0.78958804  0.65948746  0.65263444  1.0
  C  C115  1  0.90766063  0.67807162  0.88532042  1.0
  C  C116  1  0.27211310  0.04066033  0.06658240  1.0
  C  C117  1  0.28097385  0.72170815  0.27268006  1.0
  C  C118  1  0.28795985  0.72835945  0.06590779  1.0
  C  C119  1  0.94075866  0.69891973  0.06338327  1.0
  C  C120  1  0.39149898  0.60892963  0.22761416  1.0
  C  C121  1  0.29109618  0.04677303  0.93397111  1.0
  C  C122  1  0.28685413  0.72101427  0.93641212  1.0
  C  C123  1  0.95642859  0.70950968  0.93135253  1.0
  C  C124  1  0.39556036  0.78538000  0.23851726  1.0
  C  C125  1  0.31172449  0.70347567  0.11234461  1.0
  C  C126  1  0.46472608  0.91542071  0.22433490  1.0
  C  C127  1  0.52701500  0.99888403  0.26546036  1.0
  C  C128  1  0.74174611  0.79177563  0.18749373  1.0
  C  C129  1  0.84635545  0.91920847  0.17732172  1.0
  C  C130  1  0.20669150  0.44372418  0.80339372  1.0
  C  C131  1  0.45623519  0.71540195  0.26226198  1.0
  C  C132  1  0.21739057  0.77719667  0.29997393  1.0
  C  C133  1  0.16778143  0.84338630  0.26956399  1.0
  C  C134  1  0.98498079  0.89457342  0.79580507  1.0
  C  C135  1  0.01818125  0.00833786  0.76753687  1.0
  C  C136  1  0.68859788  0.43326963  0.70093463  1.0
  C  C137  1  0.65289838  0.32017884  0.72999454  1.0
  C  C138  1  0.32027686  0.69049853  0.15409834  1.0
  O  O139  1  0.48746498  0.32354589  0.44586939  1.0
  O  O140  1  0.19014229  0.64972070  0.04622110  1.0
  O  O141  1  0.97552336  0.62531250  0.04659186  1.0
  O  O142  1  0.70330245  0.52834750  0.45256181  1.0
  O  O143  1  0.98254468  0.81408799  0.94482870  1.0
  O  O144  1  0.18896598  0.02598782  0.95121624  1.0
  O  O145  1  0.37169437  0.02358466  0.95312512  1.0
  O  O146  1  0.36205671  0.81997673  0.95557933  1.0
  O  O147  1  0.18374650  0.64266285  0.95378120  1.0
  O  O148  1  0.97369417  0.63127019  0.95450306  1.0
  O  O149  1  0.16403855  0.83246584  0.99962212  1.0
  O  O150  1  0.49456590  0.69614030  0.54682496  1.0
  O  O151  1  0.68913070  0.70137312  0.44963279  1.0
  O  O152  1  0.48030245  0.68952338  0.45466074  1.0
  O  O153  1  0.30345731  0.51095118  0.45309162  1.0
  O  O154  1  0.29767292  0.30785647  0.45619565  1.0
  O  O155  1  0.47003063  0.30318349  0.54651418  1.0
  O  O156  1  0.68127303  0.51218645  0.55254784  1.0
  O  O157  1  0.70100489  0.69927387  0.54205463  1.0
  O  O158  1  0.23379002  0.42943184  0.84282578  1.0
  O  O159  1  0.11639658  0.35375333  0.77835648  1.0
  O  O160  1  0.31094237  0.52397916  0.54548313  1.0
  O  O161  1  0.29341386  0.31726957  0.54867777  1.0
  O  O162  1  0.50074820  0.50117858  0.49948562  1.0
  O  O163  1  0.95599968  0.79571112  0.04481578  1.0
  O  O164  1  0.16475738  0.00736558  0.05179936  1.0
  O  O165  1  0.35777249  0.02851398  0.04547456  1.0
  O  O166  1  0.36387470  0.83089575  0.04822906  1.0
  O  O167  1  0.66749312  0.32768568  0.50112979  1.0
  O  O168  1  0.98352393  0.99216717  0.99482195  1.0
