# generated using pymatgen
data_Zn4H16C40Cl4O13
_symmetry_space_group_name_H-M   'P 1'
_cell_length_a   23.87221212
_cell_length_b   23.87239667
_cell_length_c   23.87057245
_cell_angle_alpha   66.84802877
_cell_angle_beta   72.33460852
_cell_angle_gamma   107.66256072
_symmetry_Int_Tables_number   1
_chemical_formula_structural   Zn4H16C40Cl4O13
_chemical_formula_sum   'Zn8 H32 C80 Cl8 O26'
_cell_volume   10439.07049178
_cell_formula_units_Z   2
loop_
 _symmetry_equiv_pos_site_id
 _symmetry_equiv_pos_as_xyz
  1  'x, y, z'
loop_
 _atom_site_type_symbol
 _atom_site_label
 _atom_site_symmetry_multiplicity
 _atom_site_fract_x
 _atom_site_fract_y
 _atom_site_fract_z
 _atom_site_occupancy
  Zn  Zn0  1  0.05763523  0.09954632  0.45807678  1.0
  Zn  Zn1  1  0.05763209  0.95808681  0.48427823  1.0
  Zn  Zn2  1  0.94235976  0.95807286  0.59955927  1.0
  Zn  Zn3  1  0.94237705  0.98429418  0.45807307  1.0
  Zn  Zn4  1  0.94236645  0.40045503  0.04192206  1.0
  Zn  Zn5  1  0.05764130  0.54192433  0.90044057  1.0
  Zn  Zn6  1  0.94236717  0.54191423  0.01571721  1.0
  Zn  Zn7  1  0.05762030  0.51570881  0.04192874  1.0
  H  H8  1  0.92387021  0.27169345  0.96354646  1.0
  H  H9  1  0.92352935  0.20858591  0.90123691  1.0
  H  H10  1  0.07645806  0.40124081  0.70855613  1.0
  H  H11  1  0.07612781  0.46355110  0.77166319  1.0
  H  H12  1  0.92353440  0.09876624  0.79143865  1.0
  H  H13  1  0.92386883  0.03645077  0.72833865  1.0
  H  H14  1  0.07607708  0.22831665  0.53644028  1.0
  H  H15  1  0.07641269  0.29142991  0.59874456  1.0
  H  H16  1  0.07614275  0.61262268  0.15215439  1.0
  H  H17  1  0.07647750  0.67526735  0.21492647  1.0
  H  H18  1  0.92354337  0.71498323  0.17520845  1.0
  H  H19  1  0.92388146  0.65221267  0.11256077  1.0
  H  H20  1  0.07641706  0.78498875  0.32481963  1.0
  H  H21  1  0.07607965  0.84775983  0.38746690  1.0
  H  H22  1  0.92386906  0.88741534  0.34780989  1.0
  H  H23  1  0.92353656  0.82477172  0.28503629  1.0
  H  H24  1  0.73522892  0.27168890  0.15221274  1.0
  H  H25  1  0.60981078  0.20857984  0.21498709  1.0
  H  H26  1  0.60980702  0.40124105  0.17520827  1.0
  H  H27  1  0.73522450  0.46355231  0.11256102  1.0
  H  H28  1  0.39019422  0.09875480  0.32480286  1.0
  H  H29  1  0.26477571  0.03644510  0.38744393  1.0
  H  H30  1  0.26477613  0.22829819  0.34785096  1.0
  H  H31  1  0.39019096  0.29140205  0.28508804  1.0
  H  H32  1  0.26478121  0.65224165  0.77167976  1.0
  H  H33  1  0.39019854  0.71501838  0.70857001  1.0
  H  H34  1  0.39018151  0.67521004  0.90125806  1.0
  H  H35  1  0.26476658  0.61256230  0.96356842  1.0
  H  H36  1  0.60982072  0.82480440  0.59873693  1.0
  H  H37  1  0.73523730  0.88744433  0.53642956  1.0
  H  H38  1  0.73521341  0.84782167  0.72831082  1.0
  H  H39  1  0.60979788  0.78505638  0.79141467  1.0
  C  C40  1  0.18255960  0.09127216  0.40872716  1.0
  C  C41  1  0.99999733  0.86333613  0.63666008  1.0
  C  C42  1  0.99999301  0.09127176  0.59128165  1.0
  C  C43  1  0.81744166  0.90872959  0.59126670  1.0
  C  C44  1  0.00000886  0.13666771  0.36333272  1.0
  C  C45  1  0.99999486  0.90871782  0.40872367  1.0
  C  C46  1  0.00000031  0.40872957  0.90871387  1.0
  C  C47  1  0.00000312  0.63666178  0.86333581  1.0
  C  C48  1  0.81743933  0.40872630  0.09128532  1.0
  C  C49  1  0.99999633  0.59128777  0.09127482  1.0
  C  C50  1  0.99999526  0.36333945  0.13666540  1.0
  C  C51  1  0.18255667  0.59128120  0.90873552  1.0
  C  C52  1  0.00000173  0.19474067  0.30526025  1.0
  C  C53  1  0.99999802  0.30526181  0.19473853  1.0
  C  C54  1  0.95707427  0.18010369  0.27697378  1.0
  C  C55  1  0.04292772  0.31989982  0.22302348  1.0
  C  C56  1  0.95707277  0.23404769  0.22302913  1.0
  C  C57  1  0.04292853  0.26595529  0.27697023  1.0
  C  C58  1  0.99999914  0.80526213  0.69473625  1.0
  C  C59  1  0.00000379  0.69473734  0.80525702  1.0
  C  C60  1  0.95707453  0.77696865  0.76595939  1.0
  C  C61  1  0.04292752  0.72303083  0.73403415  1.0
  C  C62  1  0.95707306  0.72302204  0.81990429  1.0
  C  C63  1  0.04292875  0.77697692  0.68008994  1.0
  C  C64  1  0.99999796  0.37133211  0.87131147  1.0
  C  C65  1  0.95698058  0.29941189  0.90778004  1.0
  C  C66  1  0.95682205  0.26440212  0.87316152  1.0
  C  C67  1  0.99999301  0.30080199  0.80078286  1.0
  C  C68  1  0.04316778  0.37317213  0.76437901  1.0
  C  C69  1  0.04301487  0.40778928  0.79938954  1.0
  C  C70  1  0.99998698  0.26533508  0.76530932  1.0
  C  C71  1  0.99998233  0.23468889  0.73466662  1.0
  C  C72  1  0.99997362  0.19921054  0.69920344  1.0
  C  C73  1  0.95681436  0.12683542  0.73561451  1.0
  C  C74  1  0.95696891  0.09221517  0.70061058  1.0
  C  C75  1  0.99997276  0.12867316  0.62868315  1.0
  C  C76  1  0.04297566  0.20059667  0.59220963  1.0
  C  C77  1  0.04313041  0.23561059  0.62682136  1.0
  C  C78  1  0.00001156  0.62870914  0.12865216  1.0
  C  C79  1  0.04303053  0.63527047  0.15755079  1.0
  C  C80  1  0.04318698  0.67004334  0.19240200  1.0
  C  C81  1  0.00000978  0.69923613  0.19918028  1.0
  C  C82  1  0.95683698  0.69246023  0.16998271  1.0
  C  C83  1  0.95699289  0.65760671  0.13521068  1.0
  C  C84  1  0.99999957  0.73469607  0.23466157  1.0
  C  C85  1  0.99998914  0.76531835  0.26532706  1.0
  C  C86  1  0.99997905  0.80077329  0.30081271  1.0
  C  C87  1  0.04313410  0.80752425  0.33003387  1.0
  C  C88  1  0.04297862  0.84237775  0.36480703  1.0
  C  C89  1  0.99997422  0.87129560  0.37134486  1.0
  C  C90  1  0.95697031  0.86475248  0.34242946  1.0
  C  C91  1  0.95681639  0.82998220  0.30757435  1.0
  C  C92  1  0.74264081  0.37132761  0.12868171  1.0
  C  C93  1  0.70718607  0.29940942  0.15759388  1.0
  C  C94  1  0.63755956  0.26439869  0.19244714  1.0
  C  C95  1  0.60158632  0.30079874  0.19921237  1.0
  C  C96  1  0.63755693  0.37317029  0.16999868  1.0
  C  C97  1  0.70718365  0.40778994  0.13522416  1.0
  C  C98  1  0.53064639  0.26531948  0.23469433  1.0
  C  C99  1  0.46935771  0.23466083  0.26535515  1.0
  C  C100  1  0.39841750  0.19919041  0.30083413  1.0
  C  C101  1  0.36244438  0.12682195  0.33003019  1.0
  C  C102  1  0.29281866  0.09220541  0.36479815  1.0
  C  C103  1  0.25736098  0.12866568  0.37135414  1.0
  C  C104  1  0.29282023  0.20058130  0.34245754  1.0
  C  C105  1  0.36244460  0.23558838  0.30761139  1.0
  C  C106  1  0.25735845  0.62869445  0.87133239  1.0
  C  C107  1  0.29281799  0.65761752  0.79940481  1.0
  C  C108  1  0.36244528  0.69247459  0.76439407  1.0
  C  C109  1  0.39841395  0.69922644  0.80080020  1.0
  C  C110  1  0.36243936  0.67000523  0.87318150  1.0
  C  C111  1  0.29281210  0.63523192  0.90780019  1.0
  C  C112  1  0.46935450  0.73469947  0.76532092  1.0
  C  C113  1  0.53064467  0.76535187  0.73465876  1.0
  C  C114  1  0.60158407  0.80081867  0.69918858  1.0
  C  C115  1  0.63756243  0.83001961  0.62681203  1.0
  C  C116  1  0.70718951  0.86478876  0.59219671  1.0
  C  C117  1  0.74264134  0.87134027  0.62866288  1.0
  C  C118  1  0.70717638  0.84243487  0.70058764  1.0
  C  C119  1  0.63755024  0.80758405  0.73559474  1.0
  Cl  Cl120  1  0.90218082  0.09667530  0.30551493  1.0
  Cl  Cl121  1  0.09782321  0.40332976  0.19447985  1.0
  Cl  Cl122  1  0.90217955  0.20769432  0.19449359  1.0
  Cl  Cl123  1  0.09781991  0.29230660  0.30550923  1.0
  Cl  Cl124  1  0.90218126  0.80550301  0.79232403  1.0
  Cl  Cl125  1  0.09781958  0.69449386  0.70767089  1.0
  Cl  Cl126  1  0.90218442  0.69447671  0.90334557  1.0
  Cl  Cl127  1  0.09781422  0.80552016  0.59665002  1.0
  O  O128  1  0.00000109  0.99999978  0.50000007  1.0
  O  O129  1  0.15342416  0.12743351  0.41345984  1.0
  O  O130  1  0.03990535  0.88569876  0.57440135  1.0
  O  O131  1  0.95909047  0.02597278  0.62745255  1.0
  O  O132  1  0.15342355  0.02598395  0.43310587  1.0
  O  O133  1  0.04089769  0.12742491  0.52598819  1.0
  O  O134  1  0.96007821  0.88567792  0.65422342  1.0
  O  O135  1  0.84657245  0.91346265  0.62743267  1.0
  O  O136  1  0.96010505  0.07440813  0.38568416  1.0
  O  O137  1  0.84658220  0.93312492  0.52596783  1.0
  O  O138  1  0.03991206  0.15421660  0.38568477  1.0
  O  O139  1  0.04089241  0.91345981  0.43311769  1.0
  O  O140  1  0.95910425  0.93312779  0.41344810  1.0
  O  O141  1  0.00000109  0.49999998  0.99999930  1.0
  O  O142  1  0.95909579  0.37257487  0.97401124  1.0
  O  O143  1  0.03992223  0.61431998  0.84577206  1.0
  O  O144  1  0.84657327  0.47401657  0.06689344  1.0
  O  O145  1  0.04090668  0.47402545  0.87254973  1.0
  O  O146  1  0.84657702  0.37256600  0.08654903  1.0
  O  O147  1  0.96009494  0.61430071  0.92559356  1.0
  O  O148  1  0.95909286  0.58653817  0.06688675  1.0
  O  O149  1  0.03989181  0.42559382  0.11432031  1.0
  O  O150  1  0.04088907  0.56688371  0.08654229  1.0
  O  O151  1  0.96009277  0.34578639  0.11430891  1.0
  O  O152  1  0.15342674  0.58654242  0.87256776  1.0
  O  O153  1  0.15341651  0.56687912  0.97403358  1.0
