# generated using pymatgen
data_AlH11C15O7
_symmetry_space_group_name_H-M   'P 1'
_cell_length_a   6.71902691
_cell_length_b   20.24163716
_cell_length_c   23.13231950
_cell_angle_alpha   93.43292445
_cell_angle_beta   90.99238446
_cell_angle_gamma   90.63454754
_symmetry_Int_Tables_number   1
_chemical_formula_structural   AlH11C15O7
_chemical_formula_sum   'Al4 H44 C60 O28'
_cell_volume   3139.74274276
_cell_formula_units_Z   4
loop_
 _symmetry_equiv_pos_site_id
 _symmetry_equiv_pos_as_xyz
  1  'x, y, z'
loop_
 _atom_site_type_symbol
 _atom_site_label
 _atom_site_symmetry_multiplicity
 _atom_site_fract_x
 _atom_site_fract_y
 _atom_site_fract_z
 _atom_site_occupancy
  Al  Al0  1  0.73933222  0.24795403  0.74869427  1.0
  Al  Al1  1  0.24503877  0.75328014  0.24897636  1.0
  Al  Al2  1  0.23816403  0.25192910  0.74898284  1.0
  Al  Al3  1  0.74455757  0.75162275  0.25034201  1.0
  H  H4  1  0.71503511  0.98564917  0.55473214  1.0
  H  H5  1  0.26814078  0.91839062  0.50788819  1.0
  H  H6  1  0.31948199  0.40191136  0.01614997  1.0
  H  H7  1  0.73450252  0.58575177  0.99299026  1.0
  H  H8  1  0.33170454  0.03722689  0.53464573  1.0
  H  H9  1  0.75252530  0.01491235  0.43854329  1.0
  H  H10  1  0.67301153  0.53483768  0.91803682  1.0
  H  H11  1  0.24557547  0.48134968  0.06841451  1.0
  H  H12  1  0.27287364  0.00137788  0.07173088  1.0
  H  H13  1  0.71414817  0.00227549  0.92749098  1.0
  H  H14  1  0.77893076  0.57898460  0.48950086  1.0
  H  H15  1  0.20642085  0.42399524  0.50951725  1.0
  H  H16  1  0.27829101  0.08089476  0.99356475  1.0
  H  H17  1  0.70902411  0.92264441  0.00559587  1.0
  H  H18  1  0.78031013  0.50097846  0.56887117  1.0
  H  H19  1  0.20467605  0.50206749  0.43019721  1.0
  H  H20  1  0.68878875  0.99518015  0.73882419  1.0
  H  H21  1  0.78162890  0.07853948  0.74277666  1.0
  H  H22  1  0.94010838  0.01193351  0.71825934  1.0
  H  H23  1  0.33126203  0.72987707  0.44207065  1.0
  H  H24  1  0.11264278  0.74309631  0.39980762  1.0
  H  H25  1  0.11466144  0.76409319  0.47658084  1.0
  H  H26  1  0.04560156  0.25708688  0.94549721  1.0
  H  H27  1  0.03586568  0.31598817  0.89054545  1.0
  H  H28  1  0.03475214  0.34391062  0.96588101  1.0
  H  H29  1  0.99489663  0.65508717  0.11564989  1.0
  H  H30  1  0.01933181  0.72263465  0.06947733  1.0
  H  H31  1  0.99925968  0.63943554  0.03843064  1.0
  H  H32  1  0.37265470  0.01394846  0.68837618  1.0
  H  H33  1  0.22100435  0.08009651  0.71747416  1.0
  H  H34  1  0.48209148  0.08892068  0.72039515  1.0
  H  H35  1  0.89565809  0.93010826  0.27385967  1.0
  H  H36  1  0.82378487  0.01250314  0.29715638  1.0
  H  H37  1  0.64454595  0.95509761  0.26316834  1.0
  H  H38  1  0.95193661  0.39630450  0.82781282  1.0
  H  H39  1  0.97735169  0.47712315  0.86471971  1.0
  H  H40  1  0.96002163  0.46897017  0.78718802  1.0
  H  H41  1  0.41894066  0.57378462  0.22765417  1.0
  H  H42  1  0.35483156  0.48940454  0.20624113  1.0
  H  H43  1  0.17713404  0.54247981  0.24268477  1.0
  H  H44  1  0.47847976  0.18027200  0.70855198  1.0
  H  H45  1  0.50047076  0.82905407  0.28509489  1.0
  H  H46  1  0.98233569  0.32807712  0.72377988  1.0
  H  H47  1  0.99257339  0.66960727  0.22396484  1.0
  C  C48  1  0.48987467  0.32853913  0.67289136  1.0
  C  C49  1  0.49476231  0.67175155  0.32361987  1.0
  C  C50  1  0.99570443  0.17546145  0.82651940  1.0
  C  C51  1  0.99014709  0.83116326  0.17509963  1.0
  C  C52  1  0.49823802  0.32986615  0.82966685  1.0
  C  C53  1  0.48813748  0.67361468  0.16741443  1.0
  C  C54  1  0.98650458  0.15681447  0.67639566  1.0
  C  C55  1  0.00028470  0.83106114  0.33214273  1.0
  C  C56  1  0.84038650  0.01874233  0.56622283  1.0
  C  C57  1  0.15648075  0.92387429  0.47384763  1.0
  C  C58  1  0.39580232  0.41460730  0.97712714  1.0
  C  C59  1  0.62580191  0.57989265  0.02670126  1.0
  C  C60  1  0.84605176  0.05257160  0.62056848  1.0
  C  C61  1  0.14957300  0.87691238  0.42729047  1.0
  C  C62  1  0.39682988  0.36747926  0.93062300  1.0
  C  C63  1  0.62163261  0.62810633  0.07235090  1.0
  C  C64  1  0.00413805  0.09716440  0.63664638  1.0
  C  C65  1  0.00419599  0.88032729  0.38261078  1.0
  C  C66  1  0.50251975  0.37925672  0.88027495  1.0
  C  C67  1  0.48576131  0.62315807  0.11773806  1.0
  C  C68  1  0.18709847  0.08219585  0.60881139  1.0
  C  C69  1  0.86235354  0.93154202  0.38789771  1.0
  C  C70  1  0.60510708  0.43984293  0.87763373  1.0
  C  C71  1  0.35266788  0.56852215  0.11485187  1.0
  C  C72  1  0.18987722  0.04657463  0.55559383  1.0
  C  C73  1  0.86562031  0.97671079  0.43592466  1.0
  C  C74  1  0.59949464  0.48750067  0.92364186  1.0
  C  C75  1  0.35485869  0.52146589  0.06847204  1.0
  C  C76  1  0.01180525  0.01762430  0.53242658  1.0
  C  C77  1  0.01334591  0.97346855  0.47913569  1.0
  C  C78  1  0.49558799  0.47566911  0.97432309  1.0
  C  C79  1  0.49207341  0.52604076  0.02356127  1.0
  C  C80  1  0.15441375  0.04608145  0.99643183  1.0
  C  C81  1  0.83285487  0.95745817  0.00268238  1.0
  C  C82  1  0.65500237  0.50150551  0.53835875  1.0
  C  C83  1  0.32988847  0.50161643  0.46077123  1.0
  C  C84  1  0.99658804  0.04674967  0.95536636  1.0
  C  C85  1  0.99041217  0.95690109  0.04384665  1.0
  C  C86  1  0.49340419  0.45739760  0.54432728  1.0
  C  C87  1  0.49180842  0.54558846  0.45463562  1.0
  C  C88  1  0.83588212  0.00172008  0.95919456  1.0
  C  C89  1  0.15133810  0.00184144  0.03994807  1.0
  C  C90  1  0.33071277  0.45820194  0.50490849  1.0
  C  C91  1  0.65421657  0.54493351  0.49420817  1.0
  C  C92  1  0.99866695  0.09185348  0.91094240  1.0
  C  C93  1  0.98735054  0.91239970  0.08873524  1.0
  C  C94  1  0.49382183  0.41277475  0.58905848  1.0
  C  C95  1  0.49182305  0.58942772  0.40922605  1.0
  C  C96  1  0.98666701  0.87476379  0.12791713  1.0
  C  C97  1  0.99862362  0.13058272  0.87258150  1.0
  C  C98  1  0.49248157  0.62713846  0.37007902  1.0
  C  C99  1  0.49227234  0.37402578  0.62735039  1.0
  C  C100  1  0.78687531  0.03029706  0.71850271  1.0
  C  C101  1  0.20405200  0.76252096  0.43701589  1.0
  C  C102  1  0.09289747  0.30655051  0.93412216  1.0
  C  C103  1  0.95027554  0.67396235  0.07384129  1.0
  C  C104  1  0.35755656  0.06789812  0.69455698  1.0
  C  C105  1  0.77467289  0.96028907  0.29238126  1.0
  C  C106  1  0.90927938  0.44854416  0.82728089  1.0
  C  C107  1  0.29786266  0.54025768  0.21140983  1.0
  O  O108  1  0.32713921  0.31417789  0.80842481  1.0
  O  O109  1  0.65748296  0.69035354  0.18944224  1.0
  O  O110  1  0.81286550  0.17707797  0.69101315  1.0
  O  O111  1  0.16681759  0.81402909  0.31070090  1.0
  O  O112  1  0.65960299  0.30961002  0.69082397  1.0
  O  O113  1  0.32529966  0.68884875  0.30433292  1.0
  O  O114  1  0.16334786  0.19507333  0.80902830  1.0
  O  O115  1  0.82195915  0.81402361  0.19424028  1.0
  O  O116  1  0.66362693  0.30836117  0.81130993  1.0
  O  O117  1  0.32158616  0.69530184  0.18521493  1.0
  O  O118  1  0.14794340  0.18757489  0.69126083  1.0
  O  O119  1  0.83089546  0.80957231  0.31359748  1.0
  O  O120  1  0.82430881  0.19029968  0.80705719  1.0
  O  O121  1  0.16218432  0.81526139  0.19319986  1.0
  O  O122  1  0.31857483  0.31218977  0.69066126  1.0
  O  O123  1  0.66599477  0.68847655  0.30645564  1.0
  O  O124  1  0.48590131  0.21028480  0.74308680  1.0
  O  O125  1  0.49696290  0.79279499  0.25549101  1.0
  O  O126  1  0.98694069  0.29082703  0.74833990  1.0
  O  O127  1  0.99452670  0.71202602  0.24585289  1.0
  O  O128  1  0.71275083  0.03344890  0.65987992  1.0
  O  O129  1  0.28654325  0.82700200  0.42843883  1.0
  O  O130  1  0.30715247  0.30646910  0.93496794  1.0
  O  O131  1  0.73861744  0.68401040  0.07160105  1.0
  O  O132  1  0.36230881  0.09611935  0.63821587  1.0
  O  O133  1  0.71277246  0.93814699  0.34719234  1.0
  O  O134  1  0.69571290  0.45455260  0.82680166  1.0
  O  O135  1  0.21457171  0.55991755  0.15749414  1.0
