# generated using pymatgen
data_Zn3H5C22NO14
_symmetry_space_group_name_H-M   'P 1'
_cell_length_a   18.52719140
_cell_length_b   18.53946281
_cell_length_c   32.12838359
_cell_angle_alpha   90.00074419
_cell_angle_beta   90.00041595
_cell_angle_gamma   89.99905393
_symmetry_Int_Tables_number   1
_chemical_formula_structural   Zn3H5C22NO14
_chemical_formula_sum   'Zn12 H20 C88 N4 O56'
_cell_volume   11035.59135878
_cell_formula_units_Z   4
loop_
 _symmetry_equiv_pos_site_id
 _symmetry_equiv_pos_as_xyz
  1  'x, y, z'
loop_
 _atom_site_type_symbol
 _atom_site_label
 _atom_site_symmetry_multiplicity
 _atom_site_fract_x
 _atom_site_fract_y
 _atom_site_fract_z
 _atom_site_occupancy
  Zn  Zn0  1  0.42998394  0.50000138  1.00000000  1.0
  Zn  Zn1  1  0.92998462  0.00000056  0.49999898  1.0
  Zn  Zn2  1  0.57027666  0.49999969  0.99999967  1.0
  Zn  Zn3  1  0.07027670  0.99999940  0.49999925  1.0
  Zn  Zn4  1  0.50007619  0.42989520  0.49999430  1.0
  Zn  Zn5  1  0.50007557  0.57010530  0.50000517  1.0
  Zn  Zn6  1  0.00007569  0.92989491  0.00000539  1.0
  Zn  Zn7  1  0.00007506  0.07010520  0.99999447  1.0
  Zn  Zn8  1  0.49979747  0.99999980  0.95945650  1.0
  Zn  Zn9  1  0.49979834  0.00000070  0.04054328  1.0
  Zn  Zn10  1  0.99979815  0.50000005  0.45945641  1.0
  Zn  Zn11  1  0.99979812  0.50000030  0.54054328  1.0
  H  H12  1  0.55670315  0.38819502  0.77542858  1.0
  H  H13  1  0.57364874  0.39844439  0.22460885  1.0
  H  H14  1  0.57396034  0.60135262  0.77539404  1.0
  H  H15  1  0.55702060  0.61164542  0.22457081  1.0
  H  H16  1  0.07315730  0.89809402  0.27538995  1.0
  H  H17  1  0.05705523  0.88837063  0.72456995  1.0
  H  H18  1  0.05755594  0.11136531  0.27542330  1.0
  H  H19  1  0.07361794  0.10157531  0.72460929  1.0
  H  H20  1  0.43148841  0.39690293  0.72429288  1.0
  H  H21  1  0.44853413  0.38735121  0.27565250  1.0
  H  H22  1  0.44887027  0.61280386  0.72435266  1.0
  H  H23  1  0.43178182  0.60330906  0.27571066  1.0
  H  H24  1  0.94798853  0.88759140  0.22434404  1.0
  H  H25  1  0.93181138  0.89667214  0.77570978  1.0
  H  H26  1  0.93226300  0.10363839  0.22429056  1.0
  H  H27  1  0.94850145  0.11263473  0.77565326  1.0
  H  H28  1  0.37689399  0.50991901  0.77531760  1.0
  H  H29  1  0.37685344  0.49044868  0.22468446  1.0
  H  H30  1  0.87680397  0.99103076  0.27531608  1.0
  H  H31  1  0.87685270  0.00951964  0.72468434  1.0
  C  C32  1  0.50004825  0.36036188  0.00000028  1.0
  C  C33  1  0.50004845  0.63963862  0.99999980  1.0
  C  C34  1  0.00004649  0.86036163  0.50000006  1.0
  C  C35  1  0.00004813  0.13963848  0.49999980  1.0
  C  C36  1  0.50011765  0.49994177  0.91955757  1.0
  C  C37  1  0.50011992  0.50005549  0.08044346  1.0
  C  C38  1  0.00012002  0.00005005  0.41955507  1.0
  C  C39  1  0.00011978  0.99994466  0.58044261  1.0
  C  C40  1  0.46211229  0.44290844  0.73612069  1.0
  C  C41  1  0.47156789  0.43761935  0.26387782  1.0
  C  C42  1  0.47175658  0.56246846  0.73613087  1.0
  C  C43  1  0.46226328  0.55720973  0.26388204  1.0
  C  C44  1  0.97125237  0.93775351  0.23612360  1.0
  C  C45  1  0.96228128  0.94277775  0.76388280  1.0
  C  C46  1  0.96252493  0.05739312  0.23611393  1.0
  C  C47  1  0.97154954  0.06236921  0.76387815  1.0
  C  C48  1  0.53097777  0.43738317  0.76401795  1.0
  C  C49  1  0.54045237  0.44297681  0.23598147  1.0
  C  C50  1  0.54063610  0.55691136  0.76402128  1.0
  C  C51  1  0.53113858  0.56253807  0.23598133  1.0
  C  C52  1  0.04017560  0.94277940  0.26401508  1.0
  C  C53  1  0.03115782  0.93746839  0.73598151  1.0
  C  C54  1  0.03143682  0.06238449  0.26401039  1.0
  C  C55  1  0.04043472  0.05703395  0.73598215  1.0
  C  C56  1  0.50050329  0.49984424  0.87481146  1.0
  C  C57  1  0.50050451  0.50014924  0.12518987  1.0
  C  C58  1  0.00050296  0.00013753  0.37480710  1.0
  C  C59  1  0.00050437  0.99984909  0.62518965  1.0
  C  C60  1  0.49875617  0.49999824  0.62495357  1.0
  C  C61  1  0.49875676  0.50000659  0.37504744  1.0
  C  C62  1  0.99875469  0.00000820  0.12495317  1.0
  C  C63  1  0.99875708  0.99999325  0.87504745  1.0
  C  C64  1  0.43218350  0.50546740  0.76378086  1.0
  C  C65  1  0.43215868  0.49473541  0.23621895  1.0
  C  C66  1  0.93212418  0.99505889  0.26377719  1.0
  C  C67  1  0.93215747  0.00524463  0.73621941  1.0
  C  C68  1  0.50108678  0.49996480  0.79288546  1.0
  C  C69  1  0.50107122  0.50003946  0.20711556  1.0
  C  C70  1  0.00106217  0.00003208  0.29288079  1.0
  C  C71  1  0.00107161  0.99995938  0.70711565  1.0
  C  C72  1  0.50087519  0.49999093  0.70679834  1.0
  C  C73  1  0.50086396  0.50001657  0.29320424  1.0
  C  C74  1  0.00084950  0.00001075  0.20679398  1.0
  C  C75  1  0.00086489  0.99998287  0.79320495  1.0
  C  C76  1  0.56919501  0.49445058  0.73593189  1.0
  C  C77  1  0.56919519  0.50536647  0.26406506  1.0
  C  C78  1  0.06920431  0.00501331  0.23593069  1.0
  C  C79  1  0.06919621  0.99465393  0.76406510  1.0
  C  C80  1  0.50143897  0.49979855  0.83690386  1.0
  C  C81  1  0.50142987  0.50019761  0.16309841  1.0
  C  C82  1  0.00142677  0.00018731  0.33690168  1.0
  C  C83  1  0.00143027  0.99980036  0.66309819  1.0
  C  C84  1  0.50054243  0.49990528  0.66281200  1.0
  C  C85  1  0.50054416  0.50009952  0.33718965  1.0
  C  C86  1  0.00053941  0.00008961  0.16280764  1.0
  C  C87  1  0.00054510  0.99990132  0.83719035  1.0
  C  C88  1  0.49998286  0.28266118  0.99999984  1.0
  C  C89  1  0.49998268  0.71733716  0.00000056  1.0
  C  C90  1  0.99998066  0.78266397  0.50000120  1.0
  C  C91  1  0.99998102  0.21733638  0.49999880  1.0
  C  C92  1  0.50001470  0.21709347  0.99999956  1.0
  C  C93  1  0.50001723  0.78290972  0.00000146  1.0
  C  C94  1  0.00001475  0.71709103  0.50000225  1.0
  C  C95  1  0.00001564  0.28290908  0.49999761  1.0
  C  C96  1  0.36019472  0.49999924  0.49999960  1.0
  C  C97  1  0.86019450  0.99999938  0.99999960  1.0
  C  C98  1  0.49921629  0.50001884  0.58026972  1.0
  C  C99  1  0.49921582  0.49998545  0.41973068  1.0
  C  C100  1  0.99921518  0.99998711  0.08026828  1.0
  C  C101  1  0.99921578  0.00001487  0.91973079  1.0
  C  C102  1  0.63968284  0.49999964  0.49999956  1.0
  C  C103  1  0.13968252  0.00000058  0.00000018  1.0
  C  C104  1  0.63915596  0.00000078  0.00000029  1.0
  C  C105  1  0.13915582  0.49999999  0.49999944  1.0
  C  C106  1  0.50004989  0.13943373  0.99999550  1.0
  C  C107  1  0.50005113  0.86056731  0.00000490  1.0
  C  C108  1  0.00004993  0.63943344  0.50000504  1.0
  C  C109  1  0.00005062  0.36056667  0.49999451  1.0
  C  C110  1  0.36068291  0.00000095  0.99999991  1.0
  C  C111  1  0.86068342  0.49999997  0.50000002  1.0
  C  C112  1  0.28242416  0.49999988  0.49999974  1.0
  C  C113  1  0.78242412  0.00000071  0.99999986  1.0
  C  C114  1  0.71681354  0.99999783  0.00000003  1.0
  C  C115  1  0.21681357  0.49999989  0.50000116  1.0
  C  C116  1  0.71744099  0.49999900  0.49999941  1.0
  C  C117  1  0.21744030  0.99999982  0.99999981  1.0
  C  C118  1  0.28304442  0.99999982  0.99999964  1.0
  C  C119  1  0.78304510  0.49999900  0.49999986  1.0
  N  N120  1  0.64513471  0.48828244  0.72280002  1.0
  N  N121  1  0.64515331  0.51130142  0.27720005  1.0
  N  N122  1  0.14519088  0.01059794  0.22280011  1.0
  N  N123  1  0.14515821  0.98874280  0.77719942  1.0
  O  O124  1  0.43826421  0.39082012  0.00000246  1.0
  O  O125  1  0.43826546  0.60918247  0.99999737  1.0
  O  O126  1  0.93826291  0.89081972  0.49999780  1.0
  O  O127  1  0.93826452  0.10918111  0.50000164  1.0
  O  O128  1  0.56186614  0.39069508  0.99999607  1.0
  O  O129  1  0.56186668  0.60930548  0.00000334  1.0
  O  O130  1  0.06186402  0.89069425  0.50000312  1.0
  O  O131  1  0.06186617  0.10930538  0.49999700  1.0
  O  O132  1  0.43830969  0.49996241  0.93736132  1.0
  O  O133  1  0.43831120  0.50003695  0.06263944  1.0
  O  O134  1  0.93831199  0.00003332  0.43735936  1.0
  O  O135  1  0.93831098  0.99996427  0.56263913  1.0
  O  O136  1  0.56177363  0.50000832  0.93753961  1.0
  O  O137  1  0.56177406  0.49999170  0.06246011  1.0
  O  O138  1  0.06177475  0.99999077  0.43753795  1.0
  O  O139  1  0.06177355  0.00000778  0.56245968  1.0
  O  O140  1  0.39052956  0.43823129  0.49998415  1.0
  O  O141  1  0.39052908  0.56176562  0.50001517  1.0
  O  O142  1  0.89052899  0.93823247  0.00001476  1.0
  O  O143  1  0.89052904  0.06176645  0.99998509  1.0
  O  O144  1  0.49942503  0.43832270  0.56238621  1.0
  O  O145  1  0.49948416  0.43826862  0.43759530  1.0
  O  O146  1  0.49948608  0.56173512  0.56240509  1.0
  O  O147  1  0.49942593  0.56168104  0.43761419  1.0
  O  O148  1  0.99948114  0.93826994  0.06240375  1.0
  O  O149  1  0.99942457  0.93832000  0.93761429  1.0
  O  O150  1  0.99942740  0.06168305  0.06238509  1.0
  O  O151  1  0.99948418  0.06173150  0.93759594  1.0
  O  O152  1  0.60929019  0.43824190  0.49998709  1.0
  O  O153  1  0.60928971  0.56175788  0.50001190  1.0
  O  O154  1  0.10928969  0.93824268  0.00001250  1.0
  O  O155  1  0.10928920  0.06175940  0.99998813  1.0
  O  O156  1  0.60858913  0.00000288  0.96436931  1.0
  O  O157  1  0.60858958  0.99999853  0.03563061  1.0
  O  O158  1  0.10858917  0.49999665  0.46436858  1.0
  O  O159  1  0.10858908  0.50000274  0.53563018  1.0
  O  O160  1  0.50007421  0.10892225  0.96436519  1.0
  O  O161  1  0.50008240  0.10891643  0.03562286  1.0
  O  O162  1  0.50008285  0.89108461  0.96437692  1.0
  O  O163  1  0.50007539  0.89107879  0.03563427  1.0
  O  O164  1  0.00008289  0.60891602  0.46437722  1.0
  O  O165  1  0.00007470  0.60892265  0.53563477  1.0
  O  O166  1  0.00007605  0.39107692  0.46436478  1.0
  O  O167  1  0.00008298  0.39108462  0.53562264  1.0
  O  O168  1  0.39127934  0.00002085  0.96437353  1.0
  O  O169  1  0.39127980  0.99998198  0.03562610  1.0
  O  O170  1  0.89127985  0.49997942  0.46437427  1.0
  O  O171  1  0.89127976  0.50002111  0.53562622  1.0
  O  O172  1  0.68971210  0.48459940  0.75156158  1.0
  O  O173  1  0.65884352  0.48724417  0.68514829  1.0
  O  O174  1  0.68974485  0.51485103  0.24844023  1.0
  O  O175  1  0.65887337  0.51229091  0.31485090  1.0
  O  O176  1  0.18980276  0.01388597  0.25155953  1.0
  O  O177  1  0.15890075  0.01159695  0.18514715  1.0
  O  O178  1  0.18975143  0.98521616  0.74843895  1.0
  O  O179  1  0.15887775  0.98774734  0.81485058  1.0
