# generated using pymatgen
data_ZnH8C9N5O4
_symmetry_space_group_name_H-M   'P 1'
_cell_length_a   9.78688432
_cell_length_b   10.89215923
_cell_length_c   11.94868425
_cell_angle_alpha   84.89733724
_cell_angle_beta   88.83322343
_cell_angle_gamma   86.06104162
_symmetry_Int_Tables_number   1
_chemical_formula_structural   ZnH8C9N5O4
_chemical_formula_sum   'Zn2 H16 C18 N10 O8'
_cell_volume   1265.55836830
_cell_formula_units_Z   2
loop_
 _symmetry_equiv_pos_site_id
 _symmetry_equiv_pos_as_xyz
  1  'x, y, z'
loop_
 _atom_site_type_symbol
 _atom_site_label
 _atom_site_symmetry_multiplicity
 _atom_site_fract_x
 _atom_site_fract_y
 _atom_site_fract_z
 _atom_site_occupancy
  Zn  Zn0  1  0.65973024  0.48696348  0.50134656  1.0
  Zn  Zn1  1  0.35637591  0.49942820  0.50921243  1.0
  H  H2  1  0.30486869  0.19584468  0.63147267  1.0
  H  H3  1  0.07817689  0.71068044  0.30455306  1.0
  H  H4  1  0.83102444  0.26833987  0.60938020  1.0
  H  H5  1  0.80474375  0.36967780  0.70223186  1.0
  H  H6  1  0.23351939  0.41435020  0.70868357  1.0
  H  H7  1  0.09177416  0.32530558  0.73534264  1.0
  H  H8  1  0.77778107  0.59627452  0.31485156  1.0
  H  H9  1  0.82954846  0.72754768  0.35414177  1.0
  H  H10  1  0.23763113  0.05500097  0.65499980  1.0
  H  H11  1  0.74250733  0.94441822  0.29230138  1.0
  H  H12  1  0.63171309  0.83780654  0.27518657  1.0
  H  H13  1  0.31984181  0.76790125  0.61462919  1.0
  H  H14  1  0.32302643  0.87501406  0.70695321  1.0
  H  H15  1  0.69597295  0.21904941  0.37102553  1.0
  H  H16  1  0.67021256  0.12813461  0.26793415  1.0
  H  H17  1  0.23034210  0.69566903  0.38454018  1.0
  C  C18  1  0.51631920  0.25619996  0.51550221  1.0
  C  C19  1  0.59272219  0.93885668  0.41095963  1.0
  C  C20  1  0.41238372  0.92455758  0.55588768  1.0
  C  C21  1  0.59826969  0.06563218  0.42237930  1.0
  C  C22  1  0.50303625  0.86865572  0.47997680  1.0
  C  C23  1  0.51120893  0.12294273  0.50288942  1.0
  C  C24  1  0.07244501  0.58837225  0.44104907  1.0
  C  C25  1  0.94103674  0.41847456  0.57917151  1.0
  C  C26  1  0.07945335  0.43860465  0.59407937  1.0
  C  C27  1  0.93059083  0.57063794  0.42662823  1.0
  C  C28  1  0.50988886  0.73120207  0.48150696  1.0
  C  C29  1  0.50508165  0.49939282  0.72598285  1.0
  C  C30  1  0.49276567  0.48847144  0.28643320  1.0
  C  C31  1  0.50407602  0.49467001  0.84712168  1.0
  C  C32  1  0.49110708  0.48725980  0.16554453  1.0
  C  C33  1  0.49943385  0.49127303  0.94982414  1.0
  C  C34  1  0.49499657  0.48862842  0.06293876  1.0
  C  C35  1  0.41423107  0.05315110  0.56622946  1.0
  N  N36  1  0.87019270  0.48677967  0.49622239  1.0
  N  N37  1  0.86206291  0.63839552  0.33776587  1.0
  N  N38  1  0.14564140  0.51898491  0.52131165  1.0
  N  N39  1  0.32363351  0.10236588  0.64366567  1.0
  N  N40  1  0.68154912  0.88174107  0.33240845  1.0
  N  N41  1  0.31767598  0.85986610  0.62419882  1.0
  N  N42  1  0.69079080  0.13037572  0.35107045  1.0
  N  N43  1  0.13163994  0.67510197  0.37305675  1.0
  N  N44  1  0.87907079  0.32896287  0.65331402  1.0
  N  N45  1  0.15090598  0.37510884  0.67990997  1.0
  O  O46  1  0.62987936  0.30664314  0.49175819  1.0
  O  O47  1  0.39806042  0.68046434  0.46449928  1.0
  O  O48  1  0.62316008  0.67236304  0.50492054  1.0
  O  O49  1  0.40933895  0.31750042  0.54943017  1.0
  O  O50  1  0.61862650  0.47323886  0.67763050  1.0
  O  O51  1  0.38205883  0.46770739  0.33971138  1.0
  O  O52  1  0.60683024  0.51094274  0.32752829  1.0
  O  O53  1  0.39010356  0.52955609  0.67876422  1.0
