# generated using pymatgen
data_Zn2H27C34Br(NO2)4
_symmetry_space_group_name_H-M   'P 1'
_cell_length_a   9.70849039
_cell_length_b   11.06759616
_cell_length_c   16.87117341
_cell_angle_alpha   88.84487946
_cell_angle_beta   85.39367292
_cell_angle_gamma   89.60965216
_symmetry_Int_Tables_number   1
_chemical_formula_structural   Zn2H27C34Br(NO2)4
_chemical_formula_sum   'Zn2 H27 C34 Br1 N4 O8'
_cell_volume   1806.55463252
_cell_formula_units_Z   1
loop_
 _symmetry_equiv_pos_site_id
 _symmetry_equiv_pos_as_xyz
  1  'x, y, z'
loop_
 _atom_site_type_symbol
 _atom_site_label
 _atom_site_symmetry_multiplicity
 _atom_site_fract_x
 _atom_site_fract_y
 _atom_site_fract_z
 _atom_site_occupancy
  Zn  Zn0  1  0.63591379  0.51683604  0.50405879  1.0
  Zn  Zn1  1  0.35214639  0.52067628  0.49951545  1.0
  H  H2  1  0.63091730  0.34443153  0.72772918  1.0
  H  H3  1  0.29396883  0.13196627  0.45964983  1.0
  H  H4  1  0.81948627  0.13088135  0.53763869  1.0
  H  H5  1  0.72728266  0.12700970  0.63383387  1.0
  H  H6  1  0.82299609  0.90369746  0.53818010  1.0
  H  H7  1  0.72932480  0.90016057  0.63331296  1.0
  H  H8  1  0.12584952  0.37802410  0.57296478  1.0
  H  H9  1  0.86508962  0.37321599  0.58215410  1.0
  H  H10  1  0.86064888  0.68069063  0.34790184  1.0
  H  H11  1  0.85379699  0.78313151  0.42892596  1.0
  H  H12  1  0.11148185  0.79059886  0.42178149  1.0
  H  H13  1  0.76054471  0.40192782  0.09482493  1.0
  H  H14  1  0.24541439  0.53274218  0.77001758  1.0
  H  H15  1  0.31729602  0.38187500  0.12423835  1.0
  H  H16  1  0.24721641  0.47895038  0.91614920  1.0
  H  H17  1  0.32607092  0.43593978  0.26737317  1.0
  H  H18  1  0.29771390  0.90748654  0.45729108  1.0
  H  H19  1  0.29477560  0.83686199  0.30803502  1.0
  H  H20  1  0.35479917  0.69320071  0.33926812  1.0
  H  H21  1  0.33265837  0.72240335  0.23709718  1.0
  H  H22  1  0.13347396  0.60027093  0.29249227  1.0
  H  H23  1  0.07638038  0.74723764  0.26988368  1.0
  H  H24  1  0.53734351  0.14319970  0.96233859  1.0
  H  H25  1  0.54111802  0.08764291  0.86406091  1.0
  H  H26  1  0.68787925  0.06974523  0.91999877  1.0
  H  H27  1  0.73060691  0.23651959  0.82032409  1.0
  H  H28  1  0.72098659  0.29430081  0.91800920  1.0
  C  C29  1  0.49500561  0.75302001  0.50321803  1.0
  C  C30  1  0.66835306  0.44186100  0.21257908  1.0
  C  C31  1  0.54913700  0.33892978  0.84986678  1.0
  C  C32  1  0.54714405  0.37374226  0.77010782  1.0
  C  C33  1  0.44110546  0.38574804  0.90304518  1.0
  C  C34  1  0.44281533  0.44701339  0.74129082  1.0
  C  C35  1  0.32935777  0.48011604  0.79280985  1.0
  C  C36  1  0.32954935  0.44929478  0.87301282  1.0
  C  C37  1  0.60044849  0.95345638  0.53554680  1.0
  C  C38  1  0.49394512  0.88737242  0.50674290  1.0
  C  C39  1  0.38320266  0.95596246  0.47986204  1.0
  C  C40  1  0.53282899  0.49231017  0.34755250  1.0
  C  C41  1  0.38117239  0.08190979  0.48107480  1.0
  C  C42  1  0.49094606  0.14786759  0.50853879  1.0
  C  C43  1  0.59903666  0.07966664  0.53596271  1.0
  C  C44  1  0.73465776  0.08722992  0.57439024  1.0
  C  C45  1  0.73614232  0.94432588  0.57422678  1.0
  C  C46  1  0.06596264  0.60145795  0.45294648  1.0
  C  C47  1  0.06659115  0.44244795  0.53956274  1.0
  C  C48  1  0.92271947  0.43997150  0.54476794  1.0
  C  C49  1  0.92174030  0.59880618  0.45900054  1.0
  C  C50  1  0.90737695  0.70409951  0.40271738  1.0
  C  C51  1  0.49038724  0.28249057  0.50652763  1.0
  C  C52  1  0.07209299  0.70947203  0.39457193  1.0
  C  C53  1  0.45726907  0.48947126  0.65609526  1.0
  C  C54  1  0.54536999  0.45470137  0.26193982  1.0
  C  C55  1  0.42036410  0.42928051  0.22809760  1.0
  C  C56  1  0.41507208  0.39861454  0.14940183  1.0
  C  C57  1  0.53907528  0.39132915  0.10065533  1.0
  C  C58  1  0.66532616  0.40965647  0.13320145  1.0
  C  C59  1  0.14012352  0.69537965  0.30984229  1.0
  C  C60  1  0.28928354  0.73917135  0.29809902  1.0
  C  C61  1  0.66044907  0.25280295  0.87366085  1.0
  C  C62  1  0.60308257  0.13140625  0.90695627  1.0
  Br  Br63  1  0.84953029  0.46533736  0.24624781  1.0
  N  N64  1  0.54838973  0.37180086  0.01779997  1.0
  N  N65  1  0.43462165  0.38761043  0.98673622  1.0
  N  N66  1  0.14150502  0.52444395  0.49316461  1.0
  N  N67  1  0.84703025  0.51991547  0.50409277  1.0
  O  O68  1  0.60868394  0.69938112  0.51438390  1.0
  O  O69  1  0.38282673  0.70142194  0.48869842  1.0
  O  O70  1  0.63931801  0.52604473  0.37999282  1.0
  O  O71  1  0.41089093  0.48781076  0.38183719  1.0
  O  O72  1  0.60809682  0.33323017  0.49568971  1.0
  O  O73  1  0.37344553  0.33560793  0.51517834  1.0
  O  O74  1  0.57982047  0.48718344  0.62263871  1.0
  O  O75  1  0.34925959  0.52415406  0.62367818  1.0
