# generated using pymatgen
data_Al2H3C24S6(ClO4)3
_symmetry_space_group_name_H-M   'P 1'
_cell_length_a   3.96613931
_cell_length_b   20.14289353
_cell_length_c   20.14288261
_cell_angle_alpha   59.99977725
_cell_angle_beta   89.99990798
_cell_angle_gamma   89.99996887
_symmetry_Int_Tables_number   1
_chemical_formula_structural   Al2H3C24S6(ClO4)3
_chemical_formula_sum   'Al2 H3 C24 S6 Cl3 O12'
_cell_volume   1393.60950708
_cell_formula_units_Z   1
loop_
 _symmetry_equiv_pos_site_id
 _symmetry_equiv_pos_as_xyz
  1  'x, y, z'
loop_
 _atom_site_type_symbol
 _atom_site_label
 _atom_site_symmetry_multiplicity
 _atom_site_fract_x
 _atom_site_fract_y
 _atom_site_fract_z
 _atom_site_occupancy
  Al  Al0  1  0.99921381  0.50000047  0.99999874  1.0
  Al  Al1  1  0.99779440  0.16666767  0.66666526  1.0
  H  H2  1  0.52338416  0.38552965  0.43753177  1.0
  H  H3  1  0.52338410  0.17693776  0.88552780  1.0
  H  H4  1  0.52338676  0.93753521  0.67693344  1.0
  C  C5  1  0.49886591  0.61747322  0.94195359  1.0
  C  C6  1  0.49886536  0.44057261  0.11747105  1.0
  C  C7  1  0.49886356  0.44195563  0.94057069  1.0
  C  C8  1  0.49821833  0.22529590  0.54899420  1.0
  C  C9  1  0.49822265  0.22571007  0.72529378  1.0
  C  C10  1  0.49822029  0.04899660  0.72570689  1.0
  C  C11  1  0.50832248  0.31970640  0.25090283  1.0
  C  C12  1  0.51344011  0.34533597  0.41644121  1.0
  C  C13  1  0.50061234  0.39829407  0.20230092  1.0
  C  C14  1  0.50139805  0.26690923  0.46421191  1.0
  C  C15  1  0.49679198  0.36457035  0.33861887  1.0
  C  C16  1  0.49371352  0.30018191  0.32895391  1.0
  C  C17  1  0.50832414  0.42939046  0.81970550  1.0
  C  C18  1  0.51344507  0.23822223  0.84533444  1.0
  C  C19  1  0.50060602  0.39940322  0.89829375  1.0
  C  C20  1  0.50140342  0.26887807  0.76690729  1.0
  C  C21  1  0.49679650  0.29681003  0.86456818  1.0
  C  C22  1  0.49372318  0.37086416  0.80017997  1.0
  C  C23  1  0.50833096  0.75090483  0.92938754  1.0
  C  C24  1  0.51344991  0.91644384  0.73821851  1.0
  C  C25  1  0.50061329  0.70230290  0.89940123  1.0
  C  C26  1  0.50140528  0.96421502  0.76887441  1.0
  C  C27  1  0.49680635  0.83862245  0.79680654  1.0
  C  C28  1  0.49373254  0.82895647  0.87086029  1.0
  S  S29  1  0.48305093  0.44852153  0.25156812  1.0
  S  S30  1  0.47732703  0.21615356  0.41541134  1.0
  S  S31  1  0.48305231  0.29990829  0.94852032  1.0
  S  S32  1  0.47733227  0.36843550  0.71615161  1.0
  S  S33  1  0.48305502  0.75157143  0.79990632  1.0
  S  S34  1  0.47733617  0.91541397  0.86843124  1.0
  Cl  Cl35  1  0.51525636  0.25333153  0.22164515  1.0
  Cl  Cl36  1  0.51526054  0.52502299  0.75333034  1.0
  Cl  Cl37  1  0.51526177  0.72164716  0.02502039  1.0
  O  O38  1  0.26379094  0.42615248  0.98949812  1.0
  O  O39  1  0.26378853  0.58435057  0.92615019  1.0
  O  O40  1  0.26379049  0.48949911  0.08434771  1.0
  O  O41  1  0.73306614  0.49069446  0.92560055  1.0
  O  O42  1  0.73306555  0.42560234  0.08370284  1.0
  O  O43  1  0.73306326  0.58370510  0.99069295  1.0
  O  O44  1  0.26273427  0.08253626  0.74097323  1.0
  O  O45  1  0.26273231  0.17649037  0.58253494  1.0
  O  O46  1  0.26273186  0.24097507  0.67648853  1.0
  O  O47  1  0.73092787  0.08269376  0.67628528  1.0
  O  O48  1  0.73093256  0.17628893  0.74101882  1.0
  O  O49  1  0.73092811  0.24102166  0.58269008  1.0
