# generated using pymatgen
data_AlH9(C3O)6
_symmetry_space_group_name_H-M   'P 1'
_cell_length_a   3.95684955
_cell_length_b   20.92621107
_cell_length_c   20.92665346
_cell_angle_alpha   59.99849939
_cell_angle_beta   90.00003858
_cell_angle_gamma   89.99748718
_symmetry_Int_Tables_number   1
_chemical_formula_structural   AlH9(C3O)6
_chemical_formula_sum   'Al2 H18 C36 O12'
_cell_volume   1500.59669474
_cell_formula_units_Z   2
loop_
 _symmetry_equiv_pos_site_id
 _symmetry_equiv_pos_as_xyz
  1  'x, y, z'
loop_
 _atom_site_type_symbol
 _atom_site_label
 _atom_site_symmetry_multiplicity
 _atom_site_fract_x
 _atom_site_fract_y
 _atom_site_fract_z
 _atom_site_occupancy
  Al  Al0  1  0.98287470  0.49998579  0.00001380  1.0
  Al  Al1  1  0.98260163  0.16666938  0.66667128  1.0
  H  H2  1  0.54399230  0.36125907  0.45036253  1.0
  H  H3  1  0.45963718  0.14359451  0.47867268  1.0
  H  H4  1  0.50589489  0.19552134  0.34289954  1.0
  H  H5  1  0.54395763  0.30525578  0.21628366  1.0
  H  H6  1  0.45826838  0.52292981  0.18804201  1.0
  H  H7  1  0.50486738  0.47092022  0.32385182  1.0
  H  H8  1  0.54395489  0.18838959  0.86124950  1.0
  H  H9  1  0.45965834  0.37775854  0.64359218  1.0
  H  H10  1  0.50583205  0.46159953  0.69552739  1.0
  H  H11  1  0.54385815  0.47847554  0.80526704  1.0
  H  H12  1  0.45829483  0.28902335  0.02292884  1.0
  H  H13  1  0.50484893  0.20522890  0.97090837  1.0
  H  H14  1  0.54401830  0.95035939  0.68837820  1.0
  H  H15  1  0.45962270  0.97866008  0.87773071  1.0
  H  H16  1  0.50582683  0.84287794  0.96158559  1.0
  H  H17  1  0.54387930  0.71626001  0.97846435  1.0
  H  H18  1  0.45826590  0.68803511  0.78902859  1.0
  H  H19  1  0.50487045  0.82384977  0.70522640  1.0
  C  C20  1  0.48667885  0.61324268  0.93735339  1.0
  C  C21  1  0.48670076  0.44938881  0.11325618  1.0
  C  C22  1  0.48668903  0.43734694  0.94940500  1.0
  C  C23  1  0.48675150  0.21731502  0.55337810  1.0
  C  C24  1  0.48675312  0.22932609  0.71731095  1.0
  C  C25  1  0.48678099  0.05337462  0.72931345  1.0
  C  C26  1  0.53073580  0.32550675  0.42634290  1.0
  C  C27  1  0.48527944  0.20283414  0.44148101  1.0
  C  C28  1  0.50821080  0.23182577  0.36639328  1.0
  C  C29  1  0.52434590  0.30931225  0.31792651  1.0
  C  C30  1  0.53037965  0.34104868  0.24025962  1.0
  C  C31  1  0.48413932  0.46369100  0.22521727  1.0
  C  C32  1  0.50739370  0.43466888  0.30030347  1.0
  C  C33  1  0.52433289  0.35719116  0.34869033  1.0
  C  C34  1  0.50388992  0.25000422  0.47188181  1.0
  C  C35  1  0.50302078  0.41657304  0.19477022  1.0
  C  C36  1  0.53070505  0.24816484  0.82549951  1.0
  C  C37  1  0.48528750  0.35571027  0.70282927  1.0
  C  C38  1  0.50815654  0.40180144  0.73182968  1.0
  C  C39  1  0.52425624  0.37277619  0.80931338  1.0
  C  C40  1  0.53029373  0.41870407  0.84105557  1.0
  C  C41  1  0.48412074  0.31109162  0.96368859  1.0
  C  C42  1  0.50737931  0.26503323  0.93466238  1.0
  C  C43  1  0.52426796  0.29413014  0.85718704  1.0
  C  C44  1  0.50389722  0.27813469  0.74999833  1.0
  C  C45  1  0.50298528  0.38865877  0.91657812  1.0
  C  C46  1  0.53075817  0.92633312  0.74815100  1.0
  C  C47  1  0.48527611  0.94146534  0.85568662  1.0
  C  C48  1  0.50816167  0.86637459  0.90178352  1.0
  C  C49  1  0.52429364  0.81791053  0.87276230  1.0
  C  C50  1  0.53029991  0.74024212  0.91869312  1.0
  C  C51  1  0.48413075  0.72520748  0.81109214  1.0
  C  C52  1  0.50738038  0.80029391  0.76502737  1.0
  C  C53  1  0.52430756  0.84867962  0.79411710  1.0
  C  C54  1  0.50391095  0.97187450  0.77811470  1.0
  C  C55  1  0.50298029  0.69475637  0.88865589  1.0
  O  O56  1  0.24574120  0.42597373  0.99440059  1.0
  O  O57  1  0.24570815  0.57962069  0.92598830  1.0
  O  O58  1  0.24572094  0.49438170  0.07963634  1.0
  O  O59  1  0.71467023  0.48667447  0.93107088  1.0
  O  O60  1  0.71466444  0.43104978  0.08226226  1.0
  O  O61  1  0.71463159  0.58224842  0.98669108  1.0
  O  O62  1  0.24533508  0.08693681  0.74060434  1.0
  O  O63  1  0.24530456  0.17246655  0.58694250  1.0
  O  O64  1  0.24530960  0.24060846  0.67246188  1.0
  O  O65  1  0.71420062  0.08445017  0.67986005  1.0
  O  O66  1  0.71416453  0.17986341  0.73569270  1.0
  O  O67  1  0.71414503  0.23569780  0.58445275  1.0
