# generated using pymatgen
data_ZnH5C14I4NO4
_symmetry_space_group_name_H-M   'P 1'
_cell_length_a   9.58903464
_cell_length_b   11.00957725
_cell_length_c   13.44273957
_cell_angle_alpha   90.89483991
_cell_angle_beta   97.30053812
_cell_angle_gamma   104.86832113
_symmetry_Int_Tables_number   1
_chemical_formula_structural   ZnH5C14I4NO4
_chemical_formula_sum   'Zn2 H10 C28 I8 N2 O8'
_cell_volume   1358.80797297
_cell_formula_units_Z   2
loop_
 _symmetry_equiv_pos_site_id
 _symmetry_equiv_pos_as_xyz
  1  'x, y, z'
loop_
 _atom_site_type_symbol
 _atom_site_label
 _atom_site_symmetry_multiplicity
 _atom_site_fract_x
 _atom_site_fract_y
 _atom_site_fract_z
 _atom_site_occupancy
  Zn  Zn0  1  0.84707250  0.45607288  0.53604906  1.0
  Zn  Zn1  1  0.13319081  0.51076303  0.47797807  1.0
  H  H2  1  0.16753824  0.15184602  0.49238059  1.0
  H  H3  1  0.60787692  0.22996263  0.87702654  1.0
  H  H4  1  0.65472424  0.53707146  0.39744477  1.0
  H  H5  1  0.00534673  0.32300606  0.14992710  1.0
  H  H6  1  0.29506196  0.44845764  0.78161848  1.0
  H  H7  1  0.54276237  0.57138303  0.20000771  1.0
  H  H8  1  0.88747079  0.87016152  0.46431771  1.0
  H  H9  1  0.37853767  0.48828425  0.34156174  1.0
  H  H10  1  0.39987523  0.54751620  0.55719626  1.0
  H  H11  1  0.67386650  0.47271393  0.24788090  1.0
  C  C12  1  0.99062493  0.71605441  0.48189229  1.0
  C  C13  1  0.68120189  0.34215266  0.01605692  1.0
  C  C14  1  0.63270233  0.40921321  0.09069324  1.0
  C  C15  1  0.09425608  0.54318381  0.69552306  1.0
  C  C16  1  0.81851837  0.31395077  0.03874046  1.0
  C  C17  1  0.89937341  0.34255622  0.13300270  1.0
  C  C18  1  0.71245804  0.42994896  0.18720556  1.0
  C  C19  1  0.08827063  0.07781974  0.52427474  1.0
  C  C20  1  0.98431863  0.11832494  0.56367707  1.0
  C  C21  1  0.10538045  0.95079882  0.51705760  1.0
  C  C22  1  0.99376329  0.85128908  0.48396972  1.0
  C  C23  1  0.31011464  0.49393148  0.94042868  1.0
  C  C24  1  0.57607008  0.49437284  0.44803103  1.0
  C  C25  1  0.42584109  0.50410706  0.42089243  1.0
  C  C26  1  0.97288356  0.25072887  0.54741090  1.0
  C  C27  1  0.92027305  0.42430491  0.31434997  1.0
  C  C28  1  0.15270707  0.56027606  0.80563288  1.0
  C  C29  1  0.84262533  0.39687474  0.20908852  1.0
  C  C30  1  0.14726949  0.62468952  0.97857074  1.0
  C  C31  1  0.09879622  0.62644004  0.87619824  1.0
  C  C32  1  0.25420900  0.49564497  0.83864045  1.0
  C  C33  1  0.26538503  0.57044254  0.01289784  1.0
  C  C34  1  0.41871161  0.42542974  0.96858979  1.0
  C  C35  1  0.50494241  0.45528499  0.06377223  1.0
  C  C36  1  0.47020324  0.54082562  0.13032890  1.0
  C  C37  1  0.35568031  0.59430063  0.10904091  1.0
  C  C38  1  0.45391988  0.33185108  0.90728582  1.0
  C  C39  1  0.58254588  0.29793826  0.92696968  1.0
  I  I40  1  0.36168932  0.73431179  0.22162490  1.0
  I  I41  1  0.90583408  0.23179382  0.92663216  1.0
  I  I42  1  0.82734291  0.00843857  0.64491023  1.0
  I  I43  1  0.32093982  0.93953109  0.56388940  1.0
  I  I44  1  0.49742645  0.34265987  0.62844011  1.0
  I  I45  1  0.02061629  0.68268515  0.07799101  1.0
  I  I46  1  0.96191496  0.73887520  0.81894564  1.0
  I  I47  1  0.30334722  0.21037893  0.79408237  1.0
  N  N48  1  0.62739163  0.44075612  0.52283003  1.0
  N  N49  1  0.34910607  0.53196859  0.48427568  1.0
  O  O50  1  0.87642041  0.64591403  0.51025673  1.0
  O  O51  1  0.09660715  0.68138365  0.45363811  1.0
  O  O52  1  0.95701251  0.49895228  0.67551970  1.0
  O  O53  1  0.18556205  0.56644062  0.63362836  1.0
  O  O54  1  0.85091480  0.27307843  0.55373409  1.0
  O  O55  1  0.08743091  0.32787272  0.52617127  1.0
  O  O56  1  0.83909701  0.43136291  0.38108743  1.0
  O  O57  1  0.05765790  0.44090535  0.33046440  1.0
