# generated using pymatgen
data_Al4H28C28S3O29
_symmetry_space_group_name_H-M   'P 1'
_cell_length_a   6.62924087
_cell_length_b   13.96347164
_cell_length_c   16.20037778
_cell_angle_alpha   89.03786325
_cell_angle_beta   89.09662922
_cell_angle_gamma   89.47227977
_symmetry_Int_Tables_number   1
_chemical_formula_structural   Al4H28C28S3O29
_chemical_formula_sum   'Al4 H28 C28 S3 O29'
_cell_volume   1499.16606499
_cell_formula_units_Z   1
loop_
 _symmetry_equiv_pos_site_id
 _symmetry_equiv_pos_as_xyz
  1  'x, y, z'
loop_
 _atom_site_type_symbol
 _atom_site_label
 _atom_site_symmetry_multiplicity
 _atom_site_fract_x
 _atom_site_fract_y
 _atom_site_fract_z
 _atom_site_occupancy
  Al  Al0  1  0.12765731  0.50296124  0.50085139  1.0
  Al  Al1  1  0.62322022  0.50308180  0.50370787  1.0
  Al  Al2  1  0.60704288  0.99435393  0.00594487  1.0
  Al  Al3  1  0.10735634  0.99869639  0.00478292  1.0
  H  H4  1  0.17339920  0.71116357  0.30818360  1.0
  H  H5  1  0.11405820  0.60858465  0.25221548  1.0
  H  H6  1  0.03989028  0.69875758  0.13194342  1.0
  H  H7  1  0.18157771  0.78847474  0.17913279  1.0
  H  H8  1  0.93121938  0.79164152  0.39266141  1.0
  H  H9  1  0.55294426  0.63248112  0.27429668  1.0
  H  H10  1  0.75264702  0.58815383  0.21219293  1.0
  H  H11  1  0.66113990  0.71355599  0.12112597  1.0
  H  H12  1  0.53386658  0.77842989  0.19887520  1.0
  H  H13  1  0.68692723  0.89561019  0.27396159  1.0
  H  H14  1  0.17711595  0.69297029  0.69611553  1.0
  H  H15  1  0.72399149  0.73745959  0.67695411  1.0
  H  H16  1  0.17377864  0.82379684  0.79864707  1.0
  H  H17  1  0.71906120  0.78214111  0.81609250  1.0
  H  H18  1  0.06609123  0.17478259  0.22213529  1.0
  H  H19  1  0.50707486  0.22710087  0.17700437  1.0
  H  H20  1  0.08819985  0.31242332  0.31369742  1.0
  H  H21  1  0.06930670  0.20348302  0.81949829  1.0
  H  H22  1  0.52522453  0.17760998  0.78547253  1.0
  H  H23  1  0.07901957  0.29945150  0.68728050  1.0
  H  H24  1  0.52128872  0.33640250  0.73228593  1.0
  H  H25  1  0.65829562  0.71636801  0.52175130  1.0
  H  H26  1  0.69148987  0.30310431  0.44113279  1.0
  H  H27  1  0.30674272  0.90889151  0.33195696  1.0
  H  H28  1  0.37715805  0.61787122  0.45433636  1.0
  H  H29  1  0.88149705  0.39759719  0.55874321  1.0
  H  H30  1  0.35011252  0.88278046  0.04980189  1.0
  H  H31  1  0.84816505  0.10908488  0.04341882  1.0
  C  C32  1  0.37097427  0.37000865  0.40689071  1.0
  C  C33  1  0.38091985  0.40496574  0.62587713  1.0
  C  C34  1  0.88582082  0.63255074  0.60200481  1.0
  C  C35  1  0.86352624  0.60169872  0.38099321  1.0
  C  C36  1  0.06307663  0.68176823  0.26619019  1.0
  C  C37  1  0.04836411  0.74347891  0.18701341  1.0
  C  C38  1  0.81640878  0.77721363  0.34634566  1.0
  C  C39  1  0.69715167  0.65163285  0.24513430  1.0
  C  C40  1  0.85474560  0.67541926  0.31039287  1.0
  C  C41  1  0.85620335  0.80563476  0.19078794  1.0
  C  C42  1  0.82785978  0.85344043  0.27609647  1.0
  C  C43  1  0.67275509  0.73788492  0.18504059  1.0
  C  C44  1  0.03278284  0.72647265  0.71292910  1.0
  C  C45  1  0.87123360  0.70362814  0.66744658  1.0
  C  C46  1  0.03069496  0.79209260  0.78118976  1.0
  C  C47  1  0.86565998  0.81393830  0.82720284  1.0
  C  C48  1  0.21185005  0.20900831  0.22942435  1.0
  C  C49  1  0.36139932  0.19198102  0.17403439  1.0
  C  C50  1  0.22701956  0.27334971  0.29783461  1.0
  C  C51  1  0.38736093  0.29163859  0.34630506  1.0
  C  C52  1  0.21424903  0.21908859  0.78922148  1.0
  C  C53  1  0.37783346  0.17005419  0.81565237  1.0
  C  C54  1  0.21818336  0.28826971  0.72162970  1.0
  C  C55  1  0.38042802  0.34067376  0.69848302  1.0
  C  C56  1  0.37023449  0.10273996  0.88705764  1.0
  C  C57  1  0.34682069  0.12059753  0.10831587  1.0
  C  C58  1  0.85056328  0.88100650  0.12051731  1.0
  C  C59  1  0.87073685  0.88096881  0.89696694  1.0
  S  S60  1  0.57936252  0.79521733  0.40765448  1.0
  S  S61  1  0.62413230  0.22798437  0.33494580  1.0
  S  S62  1  0.99913840  0.94956814  0.30214907  1.0
  O  O63  1  0.54978759  0.44472290  0.60685981  1.0
  O  O64  1  0.20287200  0.41265249  0.41656286  1.0
  O  O65  1  0.03019830  0.59088084  0.41819707  1.0
  O  O66  1  0.21869392  0.41601235  0.58523005  1.0
  O  O67  1  0.05104016  0.58941253  0.58870873  1.0
  O  O68  1  0.53186339  0.39120792  0.44654625  1.0
  O  O69  1  0.37540646  0.56302906  0.49321252  1.0
  O  O70  1  0.72200247  0.61883033  0.55980532  1.0
  O  O71  1  0.70222438  0.55770714  0.40018187  1.0
  O  O72  1  0.87529388  0.44335208  0.51300315  1.0
  O  O73  1  0.17567155  0.08704816  0.08995155  1.0
  O  O74  1  0.53846166  0.06523050  0.90766051  1.0
  O  O75  1  0.70260490  0.89499776  0.93448513  1.0
  O  O76  1  0.51627147  0.09722109  0.07485328  1.0
  O  O77  1  0.67826499  0.91523242  0.10202226  1.0
  O  O78  1  0.20084069  0.08886107  0.92309280  1.0
  O  O79  1  0.35618765  0.93655360  0.01117685  1.0
  O  O80  1  0.01701590  0.90056394  0.08445615  1.0
  O  O81  1  0.03835999  0.91836171  0.91461710  1.0
  O  O82  1  0.85457461  0.05552971  0.00588844  1.0
  O  O83  1  0.51227347  0.89337074  0.39597422  1.0
  O  O84  1  0.43420679  0.72129236  0.39030208  1.0
  O  O85  1  0.64808048  0.78605244  0.49935362  1.0
  O  O86  1  0.58950798  0.12857691  0.32130827  1.0
  O  O87  1  0.74406338  0.28360429  0.27620149  1.0
  O  O88  1  0.71919565  0.23485661  0.42356380  1.0
  O  O89  1  0.95886780  0.02465489  0.24306295  1.0
  O  O90  1  0.98348171  0.96512561  0.38976830  1.0
  O  O91  1  0.21837909  0.90642207  0.28236536  1.0
