# generated using pymatgen
data_Zn2H14C28N9O
_symmetry_space_group_name_H-M   'P 1'
_cell_length_a   18.50011540
_cell_length_b   18.53659094
_cell_length_c   18.55972904
_cell_angle_alpha   101.22500246
_cell_angle_beta   110.88702382
_cell_angle_gamma   110.38442182
_symmetry_Int_Tables_number   1
_chemical_formula_structural   Zn2H14C28N9O
_chemical_formula_sum   'Zn4 H28 C56 N18 O2'
_cell_volume   5191.49052796
_cell_formula_units_Z   2
loop_
 _symmetry_equiv_pos_site_id
 _symmetry_equiv_pos_as_xyz
  1  'x, y, z'
loop_
 _atom_site_type_symbol
 _atom_site_label
 _atom_site_symmetry_multiplicity
 _atom_site_fract_x
 _atom_site_fract_y
 _atom_site_fract_z
 _atom_site_occupancy
  Zn  Zn0  1  0.11060068  0.59925227  0.98862077  1.0
  Zn  Zn1  1  0.89651588  0.38659750  0.00445966  1.0
  Zn  Zn2  1  0.89491875  0.50083839  0.88778358  1.0
  Zn  Zn3  1  0.11263857  0.48732073  0.10218966  1.0
  H  H4  1  0.14114541  0.77927239  0.96705972  1.0
  H  H5  1  0.31427327  0.65574960  0.00595233  1.0
  H  H6  1  0.18945141  0.77303300  0.12187081  1.0
  H  H7  1  0.73725562  0.20960236  0.86410667  1.0
  H  H8  1  0.14583387  0.46777333  0.28358981  1.0
  H  H9  1  0.87343686  0.38435651  0.71916885  1.0
  H  H10  1  0.85970324  0.65528866  0.83634924  1.0
  H  H11  1  0.15522040  0.35549392  0.01055968  1.0
  H  H12  1  0.40350889  0.02036219  0.42523767  1.0
  H  H13  1  0.64544339  0.95146062  0.53322493  1.0
  H  H14  1  0.53057443  0.07921916  0.64400113  1.0
  H  H15  1  0.87390476  0.21912272  0.88565673  1.0
  H  H16  1  0.57324606  0.89985662  0.34741187  1.0
  H  H17  1  0.64429313  0.15061336  0.45950800  1.0
  H  H18  1  0.55771718  0.17299635  0.34398445  1.0
  H  H19  1  0.46320786  0.09279969  0.33405466  1.0
  H  H20  1  0.53798908  0.06762078  0.30869569  1.0
  H  H21  1  0.41015451  0.81623423  0.50070910  1.0
  H  H22  1  0.50660572  0.78708395  0.60255276  1.0
  H  H23  1  0.52921741  0.89137962  0.65077066  1.0
  H  H24  1  0.59633466  0.87039498  0.60949446  1.0
  H  H25  1  0.86452929  0.33661438  0.15980837  1.0
  H  H26  1  0.15463344  0.50723378  0.85885715  1.0
  H  H27  1  0.85072469  0.63120727  0.98163423  1.0
  H  H28  1  0.31630757  0.50345317  0.15594894  1.0
  H  H29  1  0.19957209  0.62508663  0.27571154  1.0
  H  H30  1  0.73678911  0.35841641  0.71149002  1.0
  H  H31  1  0.85449691  0.48240580  0.13552250  1.0
  C  C32  1  0.07244560  0.73590893  0.93620834  1.0
  C  C33  1  0.54819334  0.96677370  0.42004689  1.0
  C  C34  1  0.45774187  0.00599386  0.45005270  1.0
  C  C35  1  0.59148858  0.96659901  0.50967724  1.0
  C  C36  1  0.30416712  0.79700769  0.29380379  1.0
  C  C37  1  0.67905675  0.18072377  0.68441856  1.0
  C  C38  1  0.49902586  0.91840660  0.50205319  1.0
  C  C39  1  0.55015376  0.05273550  0.45700669  1.0
  C  C40  1  0.45291164  0.91946227  0.41203911  1.0
  C  C41  1  0.59413248  0.05215093  0.54724280  1.0
  C  C42  1  0.37515379  0.85266497  0.34676841  1.0
  C  C43  1  0.94143137  0.26516029  0.92157500  1.0
  C  C44  1  0.65169417  0.12238549  0.62101799  1.0
  C  C45  1  0.00734012  0.39758546  0.33060658  1.0
  C  C46  1  0.01992505  0.41506010  0.68117718  1.0
  C  C47  1  0.93307686  0.36950621  0.17692048  1.0
  C  C48  1  0.08500125  0.48232311  0.83716511  1.0
  C  C49  1  0.01037229  0.39683482  0.39776679  1.0
  C  C50  1  0.01876012  0.40544384  0.61316643  1.0
  C  C51  1  0.01361567  0.39731596  0.47115830  1.0
  C  C52  1  0.01664186  0.39947256  0.53924579  1.0
  C  C53  1  0.43568469  0.59691651  0.09768533  1.0
  C  C54  1  0.00563689  0.40058314  0.25535612  1.0
  C  C55  1  0.77815386  0.59562461  0.09708985  1.0
  C  C56  1  0.50740676  0.60505634  0.10568112  1.0
  C  C57  1  0.72011248  0.60651261  0.10763228  1.0
  C  C58  1  0.58347231  0.61040812  0.11104795  1.0
  C  C59  1  0.65124721  0.61158118  0.11238094  1.0
  C  C60  1  0.00154730  0.82585274  0.89649309  1.0
  C  C61  1  0.01936229  0.17887648  0.91655260  1.0
  C  C62  1  0.00515585  0.89329109  0.89590623  1.0
  C  C63  1  0.01693478  0.11026866  0.90620575  1.0
  C  C64  1  0.00928819  0.96709543  0.89678457  1.0
  C  C65  1  0.01636301  0.43436826  0.75618703  1.0
  C  C66  1  0.01354125  0.03573816  0.89955801  1.0
  C  C67  1  0.85857359  0.58869163  0.01295588  1.0
  C  C68  1  0.30113817  0.53815621  0.11694641  1.0
  C  C69  1  0.18554543  0.64884730  0.22600636  1.0
  C  C70  1  0.74674573  0.33485151  0.76153891  1.0
  C  C71  1  0.86053847  0.51250992  0.09184957  1.0
  C  C72  1  0.30011093  0.61609687  0.04018444  1.0
  C  C73  1  0.18040622  0.72451485  0.14742604  1.0
  C  C74  1  0.74672673  0.25870600  0.83931541  1.0
  C  C75  1  0.07700175  0.43669910  0.24018926  1.0
  C  C76  1  0.83239051  0.57134574  0.07302963  1.0
  C  C77  1  0.94083818  0.41964822  0.76596172  1.0
  C  C78  1  0.92845026  0.67254537  0.86924885  1.0
  C  C79  1  0.08565947  0.33468512  0.98530668  1.0
  C  C80  1  0.00045218  0.75080711  0.89986987  1.0
  C  C81  1  0.01662081  0.25435521  0.93647328  1.0
  C  C82  1  0.53248519  0.11342134  0.35152071  1.0
  C  C83  1  0.52896232  0.84910888  0.59961867  1.0
  C  C84  1  0.35288970  0.58525072  0.08637658  1.0
  C  C85  1  0.22741380  0.72976689  0.22863972  1.0
  C  C86  1  0.71923311  0.25196701  0.75599234  1.0
  C  C87  1  0.49959693  0.00423222  0.53893909  1.0
  N  N88  1  0.04528638  0.65612061  0.92764537  1.0
  N  N89  1  0.22434211  0.58947557  0.04335079  1.0
  N  N90  1  0.11830996  0.64605323  0.10000748  1.0
  N  N91  1  0.78959527  0.33862788  0.88995427  1.0
  N  N92  1  0.04899280  0.42758406  0.16009075  1.0
  N  N93  1  0.96351701  0.45754396  0.84562753  1.0
  N  N94  1  0.95577835  0.61664588  0.88597354  1.0
  N  N95  1  0.05303401  0.38742253  0.99928567  1.0
  N  N96  1  0.57862073  0.12479523  0.43872916  1.0
  N  N97  1  0.47488062  0.84436913  0.51738307  1.0
  N  N98  1  0.96464430  0.34479087  0.96021635  1.0
  N  N99  1  0.95951610  0.38576064  0.12067812  1.0
  N  N100  1  0.05187665  0.49600031  0.88930001  1.0
  N  N101  1  0.89642970  0.54195385  0.99640596  1.0
  N  N102  1  0.22498868  0.54106871  0.09099667  1.0
  N  N103  1  0.12142924  0.59932300  0.14870575  1.0
  N  N104  1  0.78950845  0.38628441  0.84117802  1.0
  N  N105  1  0.89764086  0.49523471  0.04476833  1.0
  O  O106  1  0.48063410  0.02654445  0.60265730  1.0
  O  O107  1  0.57475730  0.95412410  0.35981004  1.0
