# generated using pymatgen
data_ZnH21C34NO4
_symmetry_space_group_name_H-M   'P 1'
_cell_length_a   15.66049600
_cell_length_b   18.29019409
_cell_length_c   19.65442367
_cell_angle_alpha   90.16082242
_cell_angle_beta   90.37335840
_cell_angle_gamma   67.09066848
_symmetry_Int_Tables_number   1
_chemical_formula_structural   ZnH21C34NO4
_chemical_formula_sum   'Zn2 H42 C68 N2 O8'
_cell_volume   5185.51702948
_cell_formula_units_Z   2
loop_
 _symmetry_equiv_pos_site_id
 _symmetry_equiv_pos_as_xyz
  1  'x, y, z'
loop_
 _atom_site_type_symbol
 _atom_site_label
 _atom_site_symmetry_multiplicity
 _atom_site_fract_x
 _atom_site_fract_y
 _atom_site_fract_z
 _atom_site_occupancy
  Zn  Zn0  1  0.50468856  0.42131043  0.50122743  1.0
  Zn  Zn1  1  0.49527643  0.57828385  0.50244414  1.0
  H  H2  1  0.60151447  0.38023341  0.06513788  1.0
  H  H3  1  0.38800278  0.86624361  0.42808753  1.0
  H  H4  1  0.60558301  0.27086585  0.57108984  1.0
  H  H5  1  0.39273187  0.72782109  0.43294886  1.0
  H  H6  1  0.52517272  0.05819958  0.60793407  1.0
  H  H7  1  0.47511277  0.94102247  0.39056827  1.0
  H  H8  1  0.52943093  0.92190548  0.60646796  1.0
  H  H9  1  0.47081161  0.07740910  0.39195854  1.0
  H  H10  1  0.22750722  0.47123724  0.47423426  1.0
  H  H11  1  0.76997284  0.53136913  0.48713060  1.0
  H  H12  1  0.18629255  0.71538540  0.48857207  1.0
  H  H13  1  0.39868499  0.61969586  0.93806520  1.0
  H  H14  1  0.81168573  0.28751956  0.46988290  1.0
  H  H15  1  0.97927323  0.25130295  0.44638867  1.0
  H  H16  1  0.01552830  0.75519681  0.47830115  1.0
  H  H17  1  0.17727095  0.39518031  0.43864944  1.0
  H  H18  1  0.81510495  0.61385165  0.46659390  1.0
  H  H19  1  0.49610829  0.61835047  0.28538901  1.0
  H  H20  1  0.50666438  0.38023640  0.71799385  1.0
  H  H21  1  0.49577412  0.61922339  0.15813367  1.0
  H  H22  1  0.50547192  0.38014743  0.84513728  1.0
  H  H23  1  0.50336499  0.38128191  0.15745885  1.0
  H  H24  1  0.60190014  0.37970308  0.93927797  1.0
  H  H25  1  0.49560154  0.61879181  0.84534101  1.0
  H  H26  1  0.50455429  0.38153087  0.28471565  1.0
  H  H27  1  0.49332666  0.61858561  0.71816421  1.0
  H  H28  1  0.15481549  0.29809303  0.32385918  1.0
  H  H29  1  0.26025531  0.16027172  0.29454279  1.0
  H  H30  1  0.29961417  0.05342141  0.38204656  1.0
  H  H31  1  0.23533460  0.08571741  0.49897830  1.0
  H  H32  1  0.12842478  0.22336515  0.52733679  1.0
  H  H33  1  0.80389458  0.73589889  0.37080317  1.0
  H  H34  1  0.69180120  0.87655179  0.37246873  1.0
  H  H35  1  0.39813072  0.62016446  0.06392959  1.0
  H  H36  1  0.68129592  0.96046724  0.47453279  1.0
  H  H37  1  0.78244660  0.90255192  0.57539615  1.0
  H  H38  1  0.89464960  0.76223044  0.57325253  1.0
  H  H39  1  0.38981342  0.34350420  0.43181905  1.0
  H  H40  1  0.61466680  0.65590343  0.56693869  1.0
  H  H41  1  0.38273276  0.20888968  0.42887172  1.0
  H  H42  1  0.62184019  0.79059564  0.56691250  1.0
  H  H43  1  0.61099327  0.13228121  0.57292892  1.0
  C  C44  1  0.49968997  0.49954732  0.63438862  1.0
  C  C45  1  0.50455697  0.43211386  0.81746051  1.0
  C  C46  1  0.49954120  0.50026556  0.14891139  1.0
  C  C47  1  0.50057292  0.49946482  0.85423879  1.0
  C  C48  1  0.50282183  0.43312347  0.18537844  1.0
  C  C49  1  0.49653960  0.56671889  0.81756389  1.0
  C  C50  1  0.50275320  0.43307924  0.25613143  1.0
  C  C51  1  0.49620380  0.56672272  0.74678563  1.0
  C  C52  1  0.50001170  0.50001669  0.29238207  1.0
  C  C53  1  0.50020701  0.49934080  0.71061539  1.0
  C  C54  1  0.55568233  0.43245428  0.03729738  1.0
  C  C55  1  0.50042193  0.49957982  0.36855176  1.0
  C  C56  1  0.44446592  0.56746665  0.96587805  1.0
  C  C57  1  0.55590269  0.43216783  0.96650947  1.0
  C  C58  1  0.44411994  0.56769374  0.03667007  1.0
  C  C59  1  0.68123914  0.43667678  0.49597890  1.0
  C  C60  1  0.31846965  0.56382314  0.49302028  1.0
  C  C61  1  0.50033056  0.49968768  0.92933712  1.0
  C  C62  1  0.49974824  0.50018932  0.07383244  1.0
  C  C63  1  0.43704323  0.29449794  0.46229301  1.0
  C  C64  1  0.56591685  0.70477900  0.53715368  1.0
  C  C65  1  0.43439568  0.21943155  0.46044037  1.0
  C  C66  1  0.10328596  0.41155254  0.44642761  1.0
  C  C67  1  0.56874115  0.77979359  0.53734511  1.0
  C  C68  1  0.49706442  0.15853702  0.50073235  1.0
  C  C69  1  0.50422646  0.84053568  0.49800151  1.0
  C  C70  1  0.55953710  0.17740526  0.54163007  1.0
  C  C71  1  0.44048560  0.82131747  0.45891164  1.0
  C  C72  1  0.55772335  0.25388839  0.54065680  1.0
  C  C73  1  0.44200400  0.74496268  0.46150053  1.0
  C  C74  1  0.51539515  0.03226598  0.55994689  1.0
  C  C75  1  0.48477729  0.96705577  0.43854808  1.0
  C  C76  1  0.51754983  0.95556867  0.55916575  1.0
  C  C77  1  0.89003976  0.59638411  0.46653291  1.0
  C  C78  1  0.48277498  0.04373758  0.43924116  1.0
  C  C79  1  0.50229893  0.92172340  0.49841907  1.0
  C  C80  1  0.49815322  0.07757514  0.49997145  1.0
  C  C81  1  0.78234101  0.41238991  0.48107270  1.0
  C  C82  1  0.21591763  0.59001902  0.48270103  1.0
  C  C83  1  0.93403861  0.31296482  0.45583631  1.0
  C  C84  1  0.06158001  0.69265211  0.47727873  1.0
  C  C85  1  0.84114035  0.33254825  0.46889744  1.0
  C  C86  1  0.15623499  0.67105280  0.48286116  1.0
  C  C87  1  0.81802988  0.47070413  0.47785851  1.0
  C  C88  1  0.06955196  0.35247703  0.44332906  1.0
  C  C89  1  0.17913480  0.53294352  0.47354636  1.0
  C  C90  1  0.91225197  0.45291143  0.46464745  1.0
  C  C91  1  0.08311194  0.55291654  0.46669438  1.0
  C  C92  1  0.97254681  0.37153380  0.45479487  1.0
  C  C93  1  0.02227631  0.63487450  0.47126662  1.0
  C  C94  1  0.94877544  0.51435041  0.46308639  1.0
  C  C95  1  0.04555697  0.49258911  0.45861631  1.0
  C  C96  1  0.13403258  0.26996086  0.42738522  1.0
  C  C97  1  0.17289752  0.25143903  0.36224112  1.0
  C  C98  1  0.23211953  0.17391125  0.34585852  1.0
  C  C99  1  0.92373695  0.65551774  0.46957645  1.0
  C  C100  1  0.25400697  0.11404899  0.39479850  1.0
  C  C101  1  0.21739594  0.13207082  0.46028459  1.0
  C  C102  1  0.15744783  0.20937036  0.47633541  1.0
  C  C103  1  0.85719469  0.73965480  0.47165543  1.0
  C  C104  1  0.79879257  0.77259553  0.41570115  1.0
  C  C105  1  0.73603233  0.85162063  0.41669780  1.0
  C  C106  1  0.73027171  0.89878539  0.47384180  1.0
  C  C107  1  0.78708663  0.86627710  0.53026768  1.0
  C  C108  1  0.85030073  0.78742288  0.52915617  1.0
  C  C109  1  0.49702824  0.56708393  0.25654731  1.0
  C  C110  1  0.50450501  0.43200312  0.74666676  1.0
  C  C111  1  0.49636611  0.56734061  0.18576981  1.0
  N  N112  1  0.49765552  0.31142320  0.50155290  1.0
  N  N113  1  0.50324519  0.68782122  0.50032016  1.0
  O  O114  1  0.51099437  0.43443477  0.60456617  1.0
  O  O115  1  0.50167609  0.56104727  0.39850472  1.0
  O  O116  1  0.48786150  0.56497427  0.60521722  1.0
  O  O117  1  0.49957850  0.43763410  0.39755394  1.0
  O  O118  1  0.64816907  0.38313894  0.49532985  1.0
  O  O119  1  0.35224952  0.61693543  0.49296036  1.0
  O  O120  1  0.63562329  0.51029609  0.50756744  1.0
  O  O121  1  0.36405283  0.48959799  0.50126524  1.0
