# generated using pymatgen
data_ZnH14C15NO5
_symmetry_space_group_name_H-M   'P 1'
_cell_length_a   9.60113851
_cell_length_b   11.23365085
_cell_length_c   12.57187532
_cell_angle_alpha   89.81115101
_cell_angle_beta   74.63091857
_cell_angle_gamma   81.86929600
_symmetry_Int_Tables_number   1
_chemical_formula_structural   ZnH14C15NO5
_chemical_formula_sum   'Zn2 H28 C30 N2 O10'
_cell_volume   1293.48640013
_cell_formula_units_Z   2
loop_
 _symmetry_equiv_pos_site_id
 _symmetry_equiv_pos_as_xyz
  1  'x, y, z'
loop_
 _atom_site_type_symbol
 _atom_site_label
 _atom_site_symmetry_multiplicity
 _atom_site_fract_x
 _atom_site_fract_y
 _atom_site_fract_z
 _atom_site_occupancy
  Zn  Zn0  1  0.86242380  0.51713883  0.47828179  1.0
  Zn  Zn1  1  0.12780128  0.48988756  0.53102348  1.0
  H  H2  1  0.96492872  0.60051223  0.88228655  1.0
  H  H3  1  0.00993950  0.44127199  0.13155839  1.0
  H  H4  1  0.40493039  0.41973997  0.86899636  1.0
  H  H5  1  0.14863349  0.38910637  0.93488933  1.0
  H  H6  1  0.33964530  0.61416389  0.29006167  1.0
  H  H7  1  0.18473401  0.86607874  0.50917372  1.0
  H  H8  1  0.62006323  0.98901114  0.55416406  1.0
  H  H9  1  0.67159138  0.83232100  0.57280655  1.0
  H  H10  1  0.74645125  0.95956752  0.35272362  1.0
  H  H11  1  0.78983695  0.80329976  0.37041791  1.0
  H  H12  1  0.52113177  0.78539126  0.43489586  1.0
  H  H13  1  0.19523061  0.08159718  0.52086248  1.0
  H  H14  1  0.56251575  0.84822577  0.30251157  1.0
  H  H15  1  0.47589296  0.94220494  0.42107143  1.0
  H  H16  1  0.28154237  0.82016640  0.68336366  1.0
  H  H17  1  0.46284638  0.74242642  0.65748171  1.0
  H  H18  1  0.20978347  0.71923003  0.86244203  1.0
  H  H19  1  0.38427081  0.63365463  0.83600805  1.0
  H  H20  1  0.49919233  0.81995988  0.84329741  1.0
  H  H21  1  0.36276762  0.80535848  0.96704789  1.0
  H  H22  1  0.32470454  0.91016296  0.86879025  1.0
  H  H23  1  0.88602571  0.12430912  0.48880081  1.0
  H  H24  1  0.58895722  0.55472184  0.64592052  1.0
  H  H25  1  0.60377606  0.54037489  0.41095015  1.0
  H  H26  1  0.41592018  0.41712721  0.48914801  1.0
  H  H27  1  0.59211870  0.65860444  0.22253498  1.0
  H  H28  1  0.82170050  0.64540148  0.07894123  1.0
  H  H29  1  0.60421283  0.46270325  0.81361200  1.0
  C  C30  1  0.00416534  0.27301092  0.49613170  1.0
  C  C31  1  0.18943899  0.50407194  0.17342021  1.0
  C  C32  1  0.08487089  0.92787481  0.51434235  1.0
  C  C33  1  0.10853148  0.51355139  0.29345278  1.0
  C  C34  1  0.96426523  0.87290474  0.52138830  1.0
  C  C35  1  0.09279348  0.05486138  0.51327923  1.0
  C  C36  1  0.98837924  0.14446308  0.50049152  1.0
  C  C37  1  0.54806832  0.55368635  0.57213907  1.0
  C  C38  1  0.38855216  0.55802582  0.58607076  1.0
  C  C39  1  0.97880970  0.73748434  0.51883103  1.0
  C  C40  1  0.87020112  0.51056455  0.71787498  1.0
  C  C41  1  0.41495683  0.50022620  0.02329410  1.0
  C  C42  1  0.77363184  0.60584906  0.02039569  1.0
  C  C43  1  0.78903875  0.53111435  0.83728677  1.0
  C  C44  1  0.12251242  0.45778205  0.10073796  1.0
  C  C45  1  0.20090043  0.42814809  0.99075648  1.0
  C  C46  1  0.34503520  0.44679258  0.95379836  1.0
  C  C47  1  0.70104136  0.90917966  0.52194086  1.0
  C  C48  1  0.70866074  0.88323889  0.40168060  1.0
  C  C49  1  0.55923491  0.86374448  0.38938293  1.0
  C  C50  1  0.34784047  0.73841605  0.70114916  1.0
  C  C51  1  0.32632834  0.72198351  0.82369167  1.0
  C  C52  1  0.33551582  0.52981587  0.13557092  1.0
  C  C53  1  0.38128544  0.82025109  0.87835977  1.0
  C  C54  1  0.56376656  0.52688123  0.98391548  1.0
  C  C55  1  0.62825029  0.58120746  0.05805627  1.0
  C  C56  1  0.54312484  0.61214437  0.16864008  1.0
  C  C57  1  0.40308763  0.58825362  0.20590587  1.0
  C  C58  1  0.64769377  0.50389623  0.87379036  1.0
  C  C59  1  0.85340245  0.58113937  0.91211984  1.0
  N  N60  1  0.64409800  0.54124818  0.47897917  1.0
  N  N61  1  0.33780473  0.47990784  0.53752841  1.0
  O  O62  1  0.91146234  0.33872773  0.45515894  1.0
  O  O63  1  0.29569235  0.63990547  0.65456982  1.0
  O  O64  1  0.10215339  0.31148916  0.53281262  1.0
  O  O65  1  0.97147522  0.55133231  0.31975888  1.0
  O  O66  1  0.18317177  0.47671224  0.35989736  1.0
  O  O67  1  0.86210130  0.69057502  0.52997453  1.0
  O  O68  1  0.10549608  0.67892664  0.50526463  1.0
  O  O69  1  0.79809527  0.48479189  0.65144211  1.0
  O  O70  1  0.00493612  0.52265917  0.69041674  1.0
  O  O71  1  0.83372903  0.94438381  0.53681831  1.0
