# generated using pymatgen
data_Zn3H30C38O25
_symmetry_space_group_name_H-M   'P 1'
_cell_length_a   18.37172795
_cell_length_b   18.49247821
_cell_length_c   18.69162831
_cell_angle_alpha   109.55619147
_cell_angle_beta   108.93407096
_cell_angle_gamma   108.49222071
_symmetry_Int_Tables_number   1
_chemical_formula_structural   Zn3H30C38O25
_chemical_formula_sum   'Zn6 H60 C76 O50'
_cell_volume   4972.58273044
_cell_formula_units_Z   2
loop_
 _symmetry_equiv_pos_site_id
 _symmetry_equiv_pos_as_xyz
  1  'x, y, z'
loop_
 _atom_site_type_symbol
 _atom_site_label
 _atom_site_symmetry_multiplicity
 _atom_site_fract_x
 _atom_site_fract_y
 _atom_site_fract_z
 _atom_site_occupancy
  Zn  Zn0  1  0.93831886  0.00451505  0.44343406  1.0
  Zn  Zn1  1  0.06488279  0.00232558  0.56726435  1.0
  Zn  Zn2  1  0.05763971  0.56553203  0.99638090  1.0
  Zn  Zn3  1  0.93827630  0.44228289  0.00449740  1.0
  Zn  Zn4  1  0.49122023  0.56087835  0.55855706  1.0
  Zn  Zn5  1  0.50459645  0.44337112  0.43780386  1.0
  H  H6  1  0.15661166  0.76420128  0.22112473  1.0
  H  H7  1  0.73952889  0.75170466  0.28450139  1.0
  H  H8  1  0.72531965  0.82308905  0.36555488  1.0
  H  H9  1  0.65380412  0.70690444  0.30805966  1.0
  H  H10  1  0.18783474  0.23728870  0.67999855  1.0
  H  H11  1  0.21766853  0.35093279  0.73455766  1.0
  H  H12  1  0.11058610  0.27363496  0.64412206  1.0
  H  H13  1  0.21901484  0.47854247  0.97612588  1.0
  H  H14  1  0.17464145  0.44428505  0.86289704  1.0
  H  H15  1  0.24249247  0.40293177  0.90932787  1.0
  H  H16  1  0.75287241  0.15018548  0.70646883  1.0
  H  H17  1  0.81425098  0.04859815  0.53983899  1.0
  H  H18  1  0.30479687  0.01488894  0.49633714  1.0
  H  H19  1  0.26400933  0.03948108  0.41177356  1.0
  H  H20  1  0.20100262  0.01207484  0.46400632  1.0
  H  H21  1  0.49696106  0.24140682  0.48404014  1.0
  H  H22  1  0.38293278  0.18733482  0.40675130  1.0
  H  H23  1  0.42031835  0.15343736  0.48538756  1.0
  H  H24  1  0.19117388  0.47889115  0.54036257  1.0
  H  H25  1  0.28452598  0.48205441  0.61505561  1.0
  H  H26  1  0.17503941  0.40887850  0.58744486  1.0
  H  H27  1  0.97568228  0.21144878  0.42489740  1.0
  H  H28  1  0.01558708  0.14694883  0.37020821  1.0
  H  H29  1  0.05300018  0.25901707  0.39326477  1.0
  H  H30  1  0.06106749  0.29582416  0.12645710  1.0
  H  H31  1  0.10984111  0.24487792  0.07116517  1.0
  H  H32  1  0.01688108  0.25397956  0.01196411  1.0
  H  H33  1  0.14115121  0.84567521  0.44667134  1.0
  H  H34  1  0.14645133  0.29591014  0.24468890  1.0
  H  H35  1  0.25067015  0.38062201  0.33520337  1.0
  H  H36  1  0.23768395  0.27482309  0.27572872  1.0
  H  H37  1  0.47807476  0.64631281  0.41525888  1.0
  H  H38  1  0.34673109  0.78803013  0.25775380  1.0
  H  H39  1  0.31917198  0.69327186  0.16273425  1.0
  H  H40  1  0.41343847  0.73598148  0.26617033  1.0
  H  H41  1  0.70546013  0.39842262  0.85797353  1.0
  H  H42  1  0.63254453  0.44368516  0.86404867  1.0
  H  H43  1  0.72517873  0.47306129  0.96111479  1.0
  H  H44  1  0.52042660  0.41339093  0.74932127  1.0
  H  H45  1  0.52007621  0.40108804  0.65044403  1.0
  H  H46  1  0.49229121  0.47908758  0.70488407  1.0
  H  H47  1  0.66746305  0.32776640  0.50092954  1.0
  H  H48  1  0.77842265  0.35110668  0.56328536  1.0
  H  H49  1  0.74957079  0.37118865  0.47287233  1.0
  H  H50  1  0.00426887  0.53224426  0.70574810  1.0
  H  H51  1  0.99215106  0.61038704  0.78267233  1.0
  H  H52  1  0.92499366  0.56612643  0.66767691  1.0
  H  H53  1  0.82578248  0.60075963  0.29929921  1.0
  H  H54  1  0.93368583  0.62809283  0.37509458  1.0
  H  H55  1  0.85337177  0.51577893  0.29801140  1.0
  H  H56  1  0.75121933  0.55277728  0.13988735  1.0
  H  H57  1  0.72729346  0.60557518  0.07694619  1.0
  H  H58  1  0.67243981  0.59067892  0.13892505  1.0
  H  H59  1  0.81300887  0.71449401  0.05045550  1.0
  H  H60  1  0.08967737  0.94626471  0.28508750  1.0
  H  H61  1  0.90143932  0.94180053  0.76687376  1.0
  H  H62  1  0.72066813  0.86975959  0.78398706  1.0
  H  H63  1  0.64712194  0.83176078  0.67281796  1.0
  H  H64  1  0.75138841  0.92961693  0.73094995  1.0
  H  H65  1  0.56841286  0.60358438  0.36346817  1.0
  C  C66  1  0.90909972  0.90524719  0.54533787  1.0
  C  C67  1  0.91640078  0.71820300  0.15785879  1.0
  C  C68  1  0.99615265  0.80869655  0.23370710  1.0
  C  C69  1  0.96326089  0.79834899  0.30029007  1.0
  C  C70  1  0.83060148  0.85850757  0.62493303  1.0
  C  C71  1  0.75955189  0.79728125  0.62293194  1.0
  C  C72  1  0.69558214  0.71999423  0.54484499  1.0
  C  C73  1  0.70424064  0.70219666  0.46941021  1.0
  C  C74  1  0.77420281  0.76418295  0.47121745  1.0
  C  C75  1  0.83710448  0.84178599  0.54881383  1.0
  C  C76  1  0.05408662  0.25258875  0.74685745  1.0
  C  C77  1  0.96499076  0.87176008  0.36762292  1.0
  C  C78  1  0.04725147  0.30033276  0.81906681  1.0
  C  C79  1  0.96519721  0.28984788  0.81054422  1.0
  C  C80  1  0.88834379  0.22683126  0.73236119  1.0
  C  C81  1  0.89431712  0.17492568  0.66172828  1.0
  C  C82  1  0.97714661  0.18847703  0.66827715  1.0
  C  C83  1  0.28398449  0.19063457  0.52367934  1.0
  C  C84  1  0.34067519  0.26104708  0.52135427  1.0
  C  C85  1  0.31675786  0.32425025  0.51335061  1.0
  C  C86  1  0.23573469  0.31660026  0.50495571  1.0
  C  C87  1  0.17761243  0.24503522  0.50410365  1.0
  C  C88  1  0.13800099  0.10849261  0.51439422  1.0
  C  C89  1  0.20177165  0.18220599  0.51404585  1.0
  C  C90  1  0.14222073  0.52502873  0.10823613  1.0
  C  C91  1  0.97717355  0.60325422  0.11661363  1.0
  C  C92  1  0.90156272  0.52034572  0.88014067  1.0
  C  C93  1  0.96719635  0.35664192  0.88506307  1.0
  C  C94  1  0.39416648  0.49377515  0.36125491  1.0
  C  C95  1  0.62071500  0.65059851  0.53868090  1.0
  C  C96  1  0.61330697  0.47699829  0.59260844  1.0
  C  C97  1  0.37738931  0.39824872  0.51048757  1.0
  C  C98  1  0.19850983  0.43479830  0.15811678  1.0
  C  C99  1  0.98310696  0.12822264  0.59643135  1.0
  C  C100  1  0.25768735  0.42728139  0.22235134  1.0
  C  C101  1  0.33274767  0.50307944  0.29296707  1.0
  C  C102  1  0.34975995  0.58764108  0.30393411  1.0
  C  C103  1  0.28656991  0.59435249  0.24216828  1.0
  C  C104  1  0.21289837  0.51873222  0.16995442  1.0
  C  C105  1  0.75607215  0.51310497  0.81454446  1.0
  C  C106  1  0.68519471  0.50228726  0.74544146  1.0
  C  C107  1  0.68404670  0.48206414  0.66460399  1.0
  C  C108  1  0.75556644  0.47522437  0.65578581  1.0
  C  C109  1  0.82822322  0.49090882  0.72681206  1.0
  C  C110  1  0.01939214  0.75273400  0.32350848  1.0
  C  C111  1  0.82826583  0.50992343  0.80596586  1.0
  C  C112  1  0.05284260  0.76265845  0.25722368  1.0
  C  C113  1  0.97267578  0.67216738  0.18259985  1.0
  C  C114  1  0.93802692  0.66070299  0.24661273  1.0
  C  C115  1  0.88229229  0.70913846  0.22400382  1.0
  C  C116  1  0.14553361  0.79797620  0.27489743  1.0
  C  C117  1  0.72107685  0.75855533  0.33547477  1.0
  C  C118  1  0.16408660  0.28358217  0.70087896  1.0
  C  C119  1  0.19342001  0.42392741  0.91188111  1.0
  C  C120  1  0.80117848  0.21643957  0.72487607  1.0
  C  C121  1  0.81138444  0.10433121  0.58337153  1.0
  C  C122  1  0.26732653  0.04554813  0.47353542  1.0
  C  C123  1  0.43015947  0.20913068  0.47352084  1.0
  C  C124  1  0.21591790  0.44000706  0.56356039  1.0
  C  C125  1  0.03226517  0.21281570  0.41633201  1.0
  C  C126  1  0.07712062  0.28523181  0.07331242  1.0
  C  C127  1  0.08211102  0.78106633  0.41431083  1.0
  C  C128  1  0.21791541  0.32362798  0.27055216  1.0
  C  C129  1  0.43258499  0.66385361  0.37780438  1.0
  C  C130  1  0.34633221  0.72505795  0.23352215  1.0
  C  C131  1  0.70095658  0.45654821  0.89284127  1.0
  C  C132  1  0.53416972  0.44836694  0.71379837  1.0
  C  C133  1  0.73719805  0.37166545  0.52654448  1.0
  C  C134  1  0.95761292  0.55232945  0.71827921  1.0
  C  C135  1  0.87850649  0.58289965  0.30916158  1.0
  C  C136  1  0.73410739  0.60399597  0.13713053  1.0
  C  C137  1  0.87496732  0.71018624  0.07026514  1.0
  C  C138  1  0.02368004  0.89202912  0.23126299  1.0
  C  C139  1  0.89393316  0.94281632  0.70584380  1.0
  C  C140  1  0.71610667  0.86410644  0.72228019  1.0
  C  C141  1  0.63812040  0.61830699  0.38591685  1.0
  O  O142  1  0.88384050  0.93486211  0.49543364  1.0
  O  O143  1  0.06565104  0.48499139  0.09616405  1.0
  O  O144  1  0.03477476  0.62928268  0.09471530  1.0
  O  O145  1  0.92224782  0.52390736  0.08823569  1.0
  O  O146  1  0.98048509  0.57539556  0.90519106  1.0
  O  O147  1  0.88055100  0.47352030  0.91365044  1.0
  O  O148  1  0.01508479  0.43497704  0.90723321  1.0
  O  O149  1  0.92275728  0.33254777  0.92142050  1.0
  O  O150  1  0.40587716  0.53348027  0.43748547  1.0
  O  O151  1  0.42904428  0.44642594  0.33817928  1.0
  O  O152  1  0.58345298  0.67105306  0.58381362  1.0
  O  O153  1  0.98787259  0.92118796  0.58820514  1.0
  O  O154  1  0.59706505  0.57299828  0.48452843  1.0
  O  O155  1  0.58266503  0.52859334  0.61383522  1.0
  O  O156  1  0.58721113  0.42281272  0.51332617  1.0
  O  O157  1  0.40091712  0.47641192  0.56577543  1.0
  O  O158  1  0.40144242  0.37813772  0.45373722  1.0
  O  O159  1  0.91201224  0.90040326  0.34220923  1.0
  O  O160  1  0.02131010  0.90127988  0.44521571  1.0
  O  O161  1  0.05882747  0.07108980  0.45601075  1.0
  O  O162  1  0.16594277  0.08747314  0.57300401  1.0
  O  O163  1  0.93213739  0.10491564  0.51723028  1.0
  O  O164  1  0.03760707  0.10143080  0.61856371  1.0
  O  O165  1  0.16372952  0.57092363  0.07241653  1.0
  O  O166  1  0.20598828  0.86171189  0.34374383  1.0
  O  O167  1  0.78344248  0.75029650  0.39864241  1.0
  O  O168  1  0.13720937  0.27204878  0.76221603  1.0
  O  O169  1  0.11751830  0.35494602  0.89919110  1.0
  O  O170  1  0.78600930  0.27803953  0.74339827  1.0
  O  O171  1  0.74092969  0.10447071  0.56756382  1.0
  O  O172  1  0.31441431  0.13599096  0.53930769  1.0
  O  O173  1  0.42264152  0.27488257  0.53435460  1.0
  O  O174  1  0.21055041  0.37497391  0.48979611  1.0
  O  O175  1  0.10035397  0.24077808  0.50076654  1.0
  O  O176  1  0.12976362  0.36752168  0.08222349  1.0
  O  O177  1  0.07313226  0.73761805  0.45083516  1.0
  O  O178  1  0.24247745  0.34569494  0.21178771  1.0
  O  O179  1  0.45529411  0.74122175  0.39969503  1.0
  O  O180  1  0.28981434  0.67286219  0.25532348  1.0
  O  O181  1  0.75694161  0.53091537  0.89231352  1.0
  O  O182  1  0.62350182  0.51651138  0.76415613  1.0
  O  O183  1  0.75911457  0.46041452  0.58020422  1.0
  O  O184  1  0.89532263  0.47978574  0.71631374  1.0
  O  O185  1  0.90849810  0.58306125  0.24629291  1.0
  O  O186  1  0.79913350  0.68814857  0.21183051  1.0
  O  O187  1  0.90912833  0.70176455  0.02404702  1.0
  O  O188  1  0.97676007  0.90274661  0.17682596  1.0
  O  O189  1  0.93455242  0.01019275  0.70647116  1.0
  O  O190  1  0.75690218  0.81185185  0.69867248  1.0
  O  O191  1  0.65853700  0.57145630  0.34227884  1.0
