# generated using pymatgen
data_Hf3H18C25O16F7
_symmetry_space_group_name_H-M   'P 1'
_cell_length_a   14.26946875
_cell_length_b   17.70653619
_cell_length_c   23.73925152
_cell_angle_alpha   88.28659627
_cell_angle_beta   89.57120237
_cell_angle_gamma   86.70232030
_symmetry_Int_Tables_number   1
_chemical_formula_structural   Hf3H18C25O16F7
_chemical_formula_sum   'Hf12 H72 C100 O64 F28'
_cell_volume   5985.31827934
_cell_formula_units_Z   4
loop_
 _symmetry_equiv_pos_site_id
 _symmetry_equiv_pos_as_xyz
  1  'x, y, z'
loop_
 _atom_site_type_symbol
 _atom_site_label
 _atom_site_symmetry_multiplicity
 _atom_site_fract_x
 _atom_site_fract_y
 _atom_site_fract_z
 _atom_site_occupancy
  Hf  Hf0  1  0.48013695  0.37990671  0.45530021  1.0
  Hf  Hf1  1  0.55772951  0.58734715  0.56623382  1.0
  Hf  Hf2  1  0.59699419  0.55335475  0.42315497  1.0
  Hf  Hf3  1  0.46026616  0.41612549  0.59799853  1.0
  Hf  Hf4  1  0.68165045  0.41903816  0.53072750  1.0
  Hf  Hf5  1  0.35605280  0.54497735  0.49636712  1.0
  Hf  Hf6  1  0.07774547  0.06792327  0.95943204  1.0
  Hf  Hf7  1  0.98252585  0.86170739  0.07755910  1.0
  Hf  Hf8  1  0.97371015  0.89581434  0.93243050  1.0
  Hf  Hf9  1  0.08393090  0.03223118  0.10488907  1.0
  Hf  Hf10  1  0.86885237  0.03179943  0.02784185  1.0
  Hf  Hf11  1  0.19319906  0.89994518  0.00885062  1.0
  H  H12  1  0.57926919  0.30099735  0.55372981  1.0
  H  H13  1  0.73649615  0.56489992  0.51561864  1.0
  H  H14  1  0.38408743  0.56354034  0.61574763  1.0
  H  H15  1  0.37640363  0.48892630  0.38821902  1.0
  H  H16  1  0.84758140  0.44372014  0.49831193  1.0
  H  H17  1  0.50201144  0.60949078  0.33370190  1.0
  H  H18  1  0.33141054  0.67805199  0.43298898  1.0
  H  H19  1  0.77005004  0.32321341  0.60524962  1.0
  H  H20  1  0.51642151  0.34775803  0.69663681  1.0
  H  H21  1  0.32529226  0.44465670  0.67415369  1.0
  H  H22  1  0.19590475  0.51233583  0.54467742  1.0
  H  H23  1  0.83016339  0.44609378  0.59947324  1.0
  H  H24  1  0.68558910  0.68222012  0.60693213  1.0
  H  H25  1  0.35461220  0.28113377  0.41599040  1.0
  H  H26  1  0.20842741  0.54944734  0.42866865  1.0
  H  H27  1  0.46991273  0.28509025  0.66067441  1.0
  H  H28  1  0.65434695  0.62607268  0.65730757  1.0
  H  H29  1  0.77530214  0.51500774  0.40903747  1.0
  H  H30  1  0.82781038  0.38454857  0.45022712  1.0
  H  H31  1  0.26845764  0.47927475  0.59501569  1.0
  H  H32  1  0.41370512  0.62794667  0.39788868  1.0
  H  H33  1  0.39715108  0.32688601  0.36344825  1.0
  H  H34  1  0.98904597  0.15088072  0.04633013  1.0
  H  H35  1  0.81730836  0.88085044  0.00984007  1.0
  H  H36  1  0.15347598  0.88472540  0.12903886  1.0
  H  H37  1  0.17663642  0.94848461  0.90289672  1.0
  H  H38  1  0.70814296  0.99941429  0.98021002  1.0
  H  H39  1  0.06725098  0.84138616  0.84351008  1.0
  H  H40  1  0.21205308  0.75677774  0.95674161  1.0
  H  H41  1  0.79261439  0.09167113  0.11651305  1.0
  H  H42  1  0.02133389  0.15551719  0.16393557  1.0
  H  H43  1  0.25281778  0.06292054  0.14057737  1.0
  H  H44  1  0.33686043  0.88365831  0.09448962  1.0
  H  H45  1  0.74302758  0.95523849  0.08944024  1.0
  H  H46  1  0.82729560  0.78468986  0.10964902  1.0
  H  H47  1  0.23066679  0.14749937  0.92457637  1.0
  H  H48  1  0.35399462  0.95049316  0.98082876  1.0
  H  H49  1  0.90192180  0.11639258  0.12412762  1.0
  H  H50  1  0.85680192  0.83325023  0.16097975  1.0
  H  H51  1  0.83067604  0.91631938  0.86345095  1.0
  H  H52  1  0.78605745  0.97042240  0.93305897  1.0
  H  H53  1  0.27318297  0.96453857  0.10512866  1.0
  H  H54  1  0.14451659  0.80857736  0.91516108  1.0
  H  H55  1  0.18729373  0.11217137  0.87013326  1.0
  H  H56  1  0.19573257  0.65897988  0.17728248  1.0
  H  H57  1  0.29147310  0.51773744  0.00760241  1.0
  H  H58  1  0.14690746  0.27491087  0.13339871  1.0
  H  H59  1  0.39155273  0.36268046  0.00176503  1.0
  H  H60  1  0.65398852  0.36094911  0.01281273  1.0
  H  H61  1  0.42602983  0.57930099  0.03062226  1.0
  H  H62  1  0.80153084  0.72615920  0.90531322  1.0
  H  H63  1  0.79097220  0.49645902  0.02798893  1.0
  H  H64  1  0.88561616  0.44896168  0.94948462  1.0
  H  H65  1  0.72008243  0.21451304  0.92190432  1.0
  H  H66  1  0.47134574  0.31908977  0.27046786  1.0
  H  H67  1  0.46805223  0.55416728  0.15327273  1.0
  H  H68  1  0.72032780  0.51032323  0.73634969  1.0
  H  H69  1  0.49963417  0.48227668  0.89723874  1.0
  H  H70  1  0.66743067  0.97217017  0.45886020  1.0
  H  H71  1  0.82329250  0.71453112  0.45120926  1.0
  H  H72  1  0.69492064  0.16677376  0.52980345  1.0
  H  H73  1  0.82241986  0.08563072  0.34465570  1.0
  H  H74  1  0.04727220  0.95192276  0.39522940  1.0
  H  H75  1  0.82341098  0.92671799  0.23900865  1.0
  H  H76  1  0.88603861  0.89829920  0.53376089  1.0
  H  H77  1  0.12615984  0.08429062  0.50107784  1.0
  H  H78  1  0.10866017  0.85438741  0.56899895  1.0
  H  H79  1  0.45144259  0.83720346  0.59111585  1.0
  H  H80  1  0.29005289  0.01632170  0.51207318  1.0
  H  H81  1  0.25955755  0.24508590  0.62650617  1.0
  H  H82  1  0.98894923  0.04118636  0.63895048  1.0
  H  H83  1  0.20690377  0.97622739  0.79645312  1.0
  C  C84  1  0.16595466  0.99518441  0.59901684  1.0
  C  C85  1  0.85962481  0.97549023  0.43082744  1.0
  C  C86  1  0.66275291  0.27315001  0.44942974  1.0
  C  C87  1  0.38184752  0.26252156  0.54348232  1.0
  C  C88  1  0.53619518  0.43557334  0.32793720  1.0
  C  C89  1  0.64144975  0.71079879  0.48051321  1.0
  C  C90  1  0.37942273  0.70174223  0.56218319  1.0
  C  C91  1  0.53594982  0.51472207  0.70237231  1.0
  C  C92  1  0.68911897  0.47910265  0.93265789  1.0
  C  C93  1  0.37605820  0.45057447  0.09968579  1.0
  C  C94  1  0.89895775  0.18385140  0.95209637  1.0
  C  C95  1  0.17119253  0.18327185  0.04545470  1.0
  C  C96  1  0.03065295  0.01546306  0.83347371  1.0
  C  C97  1  0.90238759  0.74044107  0.99559819  1.0
  C  C98  1  0.16010223  0.74212199  0.07834706  1.0
  C  C99  1  0.00697278  0.91982824  0.20367133  1.0
  C  C100  1  0.21806262  0.62957947  0.13935200  1.0
  C  C101  1  0.19839344  0.66165651  0.08613643  1.0
  C  C102  1  0.22366499  0.61766349  0.04002149  1.0
  C  C103  1  0.27362546  0.54867956  0.04554061  1.0
  C  C104  1  0.30550397  0.52056637  0.09854372  1.0
  C  C105  1  0.26958504  0.56051096  0.14500950  1.0
  C  C106  1  0.19869675  0.29503950  0.10349014  1.0
  C  C107  1  0.21889149  0.25509790  0.05432303  1.0
  C  C108  1  0.28623926  0.28404972  0.01794641  1.0
  C  C109  1  0.33666228  0.34610956  0.03095261  1.0
  C  C110  1  0.31982268  0.38377999  0.08131003  1.0
  C  C111  1  0.24616417  0.35848667  0.11503114  1.0
  C  C112  1  0.60422789  0.40974422  0.01464911  1.0
  C  C113  1  0.61273722  0.47342476  0.97898024  1.0
  C  C114  1  0.54714503  0.53352867  0.98883039  1.0
  C  C115  1  0.47340917  0.52933696  0.02714184  1.0
  C  C116  1  0.45940225  0.46275828  0.05868397  1.0
  C  C117  1  0.53023297  0.40528274  0.05255220  1.0
  C  C118  1  0.79972474  0.67547451  0.93238043  1.0
  C  C119  1  0.84925419  0.67230532  0.98302515  1.0
  C  C120  1  0.84255956  0.60656034  0.01675655  1.0
  C  C121  1  0.79275353  0.54605102  0.99975729  1.0
  C  C122  1  0.74501600  0.54801143  0.94800569  1.0
  C  C123  1  0.74759970  0.61624830  0.91649715  1.0
  C  C124  1  0.84740284  0.39869708  0.94247863  1.0
  C  C125  1  0.75084341  0.40428033  0.93216751  1.0
  C  C126  1  0.70966091  0.33583421  0.92137298  1.0
  C  C127  1  0.75754132  0.26591270  0.92617290  1.0
  C  C128  1  0.85337868  0.26066053  0.93889903  1.0
  C  C129  1  0.89695449  0.32859031  0.94497286  1.0
  C  C130  1  0.47042170  0.37148368  0.24519277  1.0
  C  C131  1  0.50828251  0.43549866  0.26718510  1.0
  C  C132  1  0.50828491  0.49979569  0.23110044  1.0
  C  C133  1  0.46832830  0.50138834  0.17812593  1.0
  C  C134  1  0.42406769  0.43919173  0.15776920  1.0
  C  C135  1  0.43090978  0.37326549  0.19196258  1.0
  C  C136  1  0.67074006  0.50393685  0.77106783  1.0
  C  C137  1  0.57392409  0.50634761  0.76138438  1.0
  C  C138  1  0.51566974  0.49683331  0.80822852  1.0
  C  C139  1  0.54967872  0.48836229  0.86281859  1.0
  C  C140  1  0.64598566  0.48745374  0.87303435  1.0
  C  C141  1  0.70433473  0.49304493  0.82549140  1.0
  C  C142  1  0.70412487  0.91658134  0.45919553  1.0
  C  C143  1  0.79974406  0.90826818  0.44605935  1.0
  C  C144  1  0.84006107  0.83418191  0.44498313  1.0
  C  C145  1  0.78942286  0.77089464  0.45524993  1.0
  C  C146  1  0.69461410  0.78029253  0.47005855  1.0
  C  C147  1  0.65409150  0.85343642  0.47208526  1.0
  C  C148  1  0.71960869  0.14847801  0.48854811  1.0
  C  C149  1  0.70871590  0.19627737  0.44094269  1.0
  C  C150  1  0.74457764  0.17095077  0.38990681  1.0
  C  C151  1  0.79196050  0.10077645  0.38521184  1.0
  C  C152  1  0.80228928  0.05161422  0.43226222  1.0
  C  C153  1  0.76426537  0.07770389  0.48331711  1.0
  C  C154  1  0.99666335  0.94894425  0.36147999  1.0
  C  C155  1  0.90027558  0.95945133  0.37188174  1.0
  C  C156  1  0.84078089  0.94883052  0.32638967  1.0
  C  C157  1  0.87363615  0.93160226  0.27288826  1.0
  C  C158  1  0.97027263  0.92478324  0.26262898  1.0
  C  C159  1  0.02997859  0.93305404  0.30800480  1.0
  C  C160  1  0.93903014  0.93889183  0.52491120  1.0
  C  C161  1  0.93702851  0.98215611  0.47485710  1.0
  C  C162  1  0.00439546  0.03632620  0.47038483  1.0
  C  C163  1  0.07500126  0.04217846  0.50965543  1.0
  C  C164  1  0.08088080  0.99550386  0.55837374  1.0
  C  C165  1  0.00664690  0.94705851  0.56527407  1.0
  C  C166  1  0.18354458  0.85489172  0.57480481  1.0
  C  C167  1  0.22769645  0.92023197  0.58911781  1.0
  C  C168  1  0.32610936  0.90971820  0.59464080  1.0
  C  C169  1  0.37533728  0.84059346  0.58686832  1.0
  C  C170  1  0.32902092  0.77616206  0.57292497  1.0
  C  C171  1  0.23148966  0.78586693  0.56752119  1.0
  C  C172  1  0.28090319  0.06640618  0.53759439  1.0
  C  C173  1  0.22128832  0.06588315  0.58500244  1.0
  C  C174  1  0.21383698  0.13350444  0.61463787  1.0
  C  C175  1  0.26621748  0.19494795  0.60093203  1.0
  C  C176  1  0.32668278  0.19422348  0.55443351  1.0
  C  C177  1  0.33086185  0.12888604  0.52249501  1.0
  C  C178  1  0.03739507  0.02369756  0.67266830  1.0
  C  C179  1  0.12985239  0.99757173  0.66060849  1.0
  C  C180  1  0.18769785  0.98140627  0.70722316  1.0
  C  C181  1  0.15708632  0.98956224  0.76247501  1.0
  C  C182  1  0.06409066  0.01368038  0.77350136  1.0
  C  C183  1  0.00576215  0.03000556  0.72756541  1.0
  O  O184  1  0.36226709  0.33153940  0.39907408  1.0
  O  O185  1  0.57623316  0.28284978  0.43706067  1.0
  O  O186  1  0.50938826  0.38080364  0.35943143  1.0
  O  O187  1  0.39841228  0.30026856  0.58660522  1.0
  O  O188  1  0.57884733  0.49101283  0.34446487  1.0
  O  O189  1  0.40651305  0.27858964  0.49318114  1.0
  O  O190  1  0.71346467  0.31949337  0.47245043  1.0
  O  O191  1  0.59101501  0.44412288  0.45890394  1.0
  O  O192  1  0.55371112  0.34970543  0.53877621  1.0
  O  O193  1  0.41077744  0.48290131  0.42321686  1.0
  O  O194  1  0.40615575  0.43400632  0.51969073  1.0
  O  O195  1  0.32940625  0.42245720  0.63723639  1.0
  O  O196  1  0.81414022  0.43634246  0.46194498  1.0
  O  O197  1  0.58402231  0.47310656  0.58375157  1.0
  O  O198  1  0.67397082  0.54710292  0.51046242  1.0
  O  O199  1  0.49878935  0.57784163  0.49206292  1.0
  O  O200  1  0.42361158  0.53965376  0.58718257  1.0
  O  O201  1  0.72644374  0.55152098  0.39514708  1.0
  O  O202  1  0.63054285  0.67165784  0.43822718  1.0
  O  O203  1  0.61655974  0.69549045  0.53126219  1.0
  O  O204  1  0.22664153  0.53029387  0.46586185  1.0
  O  O205  1  0.45825898  0.68546042  0.58606429  1.0
  O  O206  1  0.50178357  0.62051342  0.37351149  1.0
  O  O207  1  0.34729755  0.62714362  0.42040272  1.0
  O  O208  1  0.24940816  0.52336039  0.56811349  1.0
  O  O209  1  0.33809409  0.65956607  0.52897661  1.0
  O  O210  1  0.68148692  0.62922850  0.61901166  1.0
  O  O211  1  0.51836575  0.32200403  0.66064115  1.0
  O  O212  1  0.55168710  0.57357287  0.67299888  1.0
  O  O213  1  0.49076131  0.45929789  0.68616828  1.0
  O  O214  1  0.71003609  0.33147751  0.58669865  1.0
  O  O215  1  0.80481095  0.46064712  0.56281893  1.0
  O  O216  1  0.21060565  0.10085484  0.90830781  1.0
  O  O217  1  0.98357321  0.16884474  0.93688791  1.0
  O  O218  1  0.05966919  0.06735799  0.86373977  1.0
  O  O219  1  0.15202734  0.14524925  0.08989827  1.0
  O  O220  1  0.98184592  0.96136250  0.84946465  1.0
  O  O221  1  0.15222447  0.16643407  0.99513484  1.0
  O  O222  1  0.84668793  0.14005769  0.97974670  1.0
  O  O223  1  0.96331552  0.00649526  0.96170907  1.0
  O  O224  1  0.00019608  0.09805193  0.03736632  1.0
  O  O225  1  0.12642653  0.95325042  0.93081799  1.0
  O  O226  1  0.14490240  0.01103973  0.02482140  1.0
  O  O227  1  0.22007874  0.01646384  0.13863432  1.0
  O  O228  1  0.76240472  0.01497701  0.95847622  1.0
  O  O229  1  0.96116585  0.97575710  0.08526893  1.0
  O  O230  1  0.87640240  0.90438058  0.01436990  1.0
  O  O231  1  0.05203817  0.86616457  0.00448631  1.0
  O  O232  1  0.12077413  0.90632148  0.09615375  1.0
  O  O233  1  0.83514404  0.90544974  0.90376328  1.0
  O  O234  1  0.92502764  0.77962101  0.95300173  1.0
  O  O235  1  0.91719639  0.75619634  0.04711609  1.0
  O  O236  1  0.30632161  0.92324864  0.96244562  1.0
  O  O237  1  0.08049199  0.76065361  0.09941549  1.0
  O  O238  1  0.05334182  0.82420865  0.88166948  1.0
  O  O239  1  0.20269184  0.80786071  0.94075621  1.0
  O  O240  1  0.30277206  0.92545885  0.07494293  1.0
  O  O241  1  0.21481421  0.78475783  0.05109111  1.0
  O  O242  1  0.83394524  0.83649769  0.12194363  1.0
  O  O243  1  0.99809971  0.10896907  0.15061750  1.0
  O  O244  1  0.98029295  0.86631336  0.17309707  1.0
  O  O245  1  0.05887586  0.97164985  0.18834675  1.0
  O  O246  1  0.84409868  0.11663628  0.09746741  1.0
  O  O247  1  0.74924727  0.00428944  0.07097374  1.0
  F  F248  1  0.28379459  0.53437402  0.19890137  1.0
  F  F249  1  0.19981708  0.64381545  0.98684630  1.0
  F  F250  1  0.22324197  0.39539075  0.16324007  1.0
  F  F251  1  0.30924769  0.24879923  0.96885181  1.0
  F  F252  1  0.52658557  0.33982928  0.08400612  1.0
  F  F253  1  0.55260817  0.59994928  0.95871173  1.0
  F  F254  1  0.69677176  0.62941912  0.86852076  1.0
  F  F255  1  0.88696844  0.59930514  0.06731381  1.0
  F  F256  1  0.98995230  0.32769914  0.95743303  1.0
  F  F257  1  0.61625273  0.33635156  0.90861464  1.0
  F  F258  1  0.39801114  0.30708360  0.17466116  1.0
  F  F259  1  0.54362081  0.56543525  0.24751653  1.0
  F  F260  1  0.79933252  0.49170290  0.83274690  1.0
  F  F261  1  0.42081052  0.49734633  0.80083635  1.0
  F  F262  1  0.56106025  0.86367217  0.48547557  1.0
  F  F263  1  0.93367799  0.82254924  0.43333761  1.0
  F  F264  1  0.77173484  0.03294935  0.53126533  1.0
  F  F265  1  0.73577182  0.21749801  0.34318146  1.0
  F  F266  1  0.12444074  0.92405915  0.30017954  1.0
  F  F267  1  0.74570652  0.95637411  0.33384994  1.0
  F  F268  1  0.99800887  0.90246161  0.61314835  1.0
  F  F269  1  0.00339793  0.08607918  0.42527520  1.0
  F  F270  1  0.17806535  0.72735923  0.55602537  1.0
  F  F271  1  0.37938302  0.96797543  0.60816143  1.0
  F  F272  1  0.38729545  0.12387380  0.47613357  1.0
  F  F273  1  0.15426031  0.14350292  0.65936638  1.0
  F  F274  1  0.91469461  0.05441761  0.73690864  1.0
  F  F275  1  0.27979337  0.95886546  0.70014398  1.0
