# generated using pymatgen
data_Zn2H28C40BrN11O8
_symmetry_space_group_name_H-M   'P 1'
_cell_length_a   13.56469607
_cell_length_b   15.93324319
_cell_length_c   17.14873720
_cell_angle_alpha   85.73473264
_cell_angle_beta   86.87622444
_cell_angle_gamma   70.21886221
_symmetry_Int_Tables_number   1
_chemical_formula_structural   Zn2H28C40BrN11O8
_chemical_formula_sum   'Zn2 H28 C40 Br1 N11 O8'
_cell_volume   3476.28848530
_cell_formula_units_Z   1
loop_
 _symmetry_equiv_pos_site_id
 _symmetry_equiv_pos_as_xyz
  1  'x, y, z'
loop_
 _atom_site_type_symbol
 _atom_site_label
 _atom_site_symmetry_multiplicity
 _atom_site_fract_x
 _atom_site_fract_y
 _atom_site_fract_z
 _atom_site_occupancy
  Zn  Zn0  1  0.51015789  0.41355727  0.50279091  1.0
  Zn  Zn1  1  0.49394534  0.59359009  0.50032978  1.0
  H  H2  1  0.15221313  0.70822803  0.54659287  1.0
  H  H3  1  0.57785091  0.68546835  0.60678631  1.0
  H  H4  1  0.38879996  0.33869281  0.41713753  1.0
  H  H5  1  0.42395061  0.92288578  0.40388520  1.0
  H  H6  1  0.42012896  0.76673791  0.40003092  1.0
  H  H7  1  0.96261696  0.73689271  0.58349787  1.0
  H  H8  1  0.12824989  0.34760292  0.48628290  1.0
  H  H9  1  0.03988668  0.24960923  0.44478314  1.0
  H  H10  1  0.73264125  0.57141793  0.57921312  1.0
  H  H11  1  0.59003330  0.36780285  0.26410558  1.0
  H  H12  1  0.40070563  0.72071729  0.21223805  1.0
  H  H13  1  0.60086646  0.36124038  0.11765414  1.0
  H  H14  1  0.44300931  0.67197805  0.30338087  1.0
  H  H15  1  0.49279936  0.65804963  0.02877295  1.0
  H  H16  1  0.49565599  0.71778845  0.10713872  1.0
  H  H17  1  0.65532926  0.28253761  0.58089497  1.0
  H  H18  1  0.68468610  0.17387409  0.61778818  1.0
  H  H19  1  0.31180265  0.24082490  0.35340901  1.0
  H  H20  1  0.34012554  0.13008911  0.38598483  1.0
  H  H21  1  0.19125240  0.36394538  0.58379407  1.0
  H  H22  1  0.29326315  0.40151326  0.55143039  1.0
  H  H23  1  0.51378925  0.33481881  0.89482326  1.0
  H  H24  1  0.48892897  0.35708565  0.74886283  1.0
  H  H25  1  0.60459233  0.56882007  0.88891367  1.0
  H  H26  1  0.58135558  0.58972090  0.74370651  1.0
  H  H27  1  0.59911160  0.07299298  0.57336821  1.0
  H  H28  1  0.59145319  0.83883337  0.61842340  1.0
  H  H29  1  0.81498679  0.68307882  0.60173762  1.0
  C  C30  1  0.51129045  0.49073543  0.65278869  1.0
  C  C31  1  0.82445052  0.41675423  0.50797281  1.0
  C  C32  1  0.53067946  0.47606711  0.73843592  1.0
  C  C33  1  0.70674836  0.44754577  0.50636123  1.0
  C  C34  1  0.56550004  0.53478808  0.77756910  1.0
  C  C35  1  0.57839075  0.52342948  0.85779853  1.0
  C  C36  1  0.55650672  0.45234644  0.90034653  1.0
  C  C37  1  0.52801269  0.39036528  0.86069304  1.0
  C  C38  1  0.51394585  0.40285660  0.78045605  1.0
  C  C39  1  0.57239365  0.42446307  0.14575842  1.0
  C  C40  1  0.56591873  0.42845523  0.22588641  1.0
  C  C41  1  0.98798993  0.44919473  0.52958571  1.0
  C  C42  1  0.54281877  0.50473809  0.09798848  1.0
  C  C43  1  0.52681249  0.51116364  0.26211891  1.0
  C  C44  1  0.49664918  0.59173640  0.21517521  1.0
  C  C45  1  0.51553080  0.50941750  0.34911380  1.0
  C  C46  1  0.50723287  0.58815176  0.13222049  1.0
  C  C47  1  0.45680498  0.78593919  0.44750142  1.0
  C  C48  1  0.45882722  0.87210183  0.44973259  1.0
  C  C49  1  0.50766215  0.89246105  0.51252490  1.0
  C  C50  1  0.55274032  0.82436743  0.56962884  1.0
  C  C51  1  0.54625679  0.74015578  0.56317001  1.0
  C  C52  1  0.87590031  0.47330679  0.53585755  1.0
  C  C53  1  0.55138120  0.13147490  0.53914876  1.0
  C  C54  1  0.56312801  0.21467146  0.54397957  1.0
  C  C55  1  0.47899909  0.12145664  0.48865870  1.0
  C  C56  1  0.43358210  0.27798890  0.45057482  1.0
  C  C57  1  0.29955103  0.55424657  0.51608271  1.0
  C  C58  1  0.41599051  0.19690007  0.44273015  1.0
  C  C59  1  0.01443823  0.67048828  0.56925886  1.0
  C  C60  1  0.18759221  0.56782840  0.53673956  1.0
  C  C61  1  0.88492161  0.33613139  0.47729806  1.0
  C  C62  1  0.99433359  0.31161075  0.47123491  1.0
  C  C63  1  0.03715337  0.51320436  0.54861520  1.0
  C  C64  1  0.04400704  0.36693480  0.49625633  1.0
  C  C65  1  0.97181606  0.60102482  0.56660083  1.0
  C  C66  1  0.86225355  0.61798989  0.58102119  1.0
  C  C67  1  0.81624870  0.55651143  0.56814061  1.0
  C  C68  1  0.14879659  0.49505915  0.54518498  1.0
  C  C69  1  0.11886020  0.65467979  0.55010686  1.0
  Br  Br70  1  0.82699915  0.25648855  0.43402767  1.0
  N  N71  1  0.55801485  0.43966050  0.98257913  1.0
  N  N72  1  0.33964864  0.19216410  0.39597093  1.0
  N  N73  1  0.21607512  0.40836746  0.55022567  1.0
  N  N74  1  0.54496607  0.51121725  0.01656152  1.0
  N  N75  1  0.49922770  0.72094505  0.50303605  1.0
  N  N76  1  0.51750821  0.97570962  0.52385641  1.0
  N  N77  1  0.46505489  0.04011542  0.47794942  1.0
  N  N78  1  0.50327150  0.28650752  0.49894246  1.0
  N  N79  1  0.45830813  0.67587095  0.24439333  1.0
  N  N80  1  0.47554230  0.66761821  0.08676042  1.0
  N  N81  1  0.63064880  0.22885282  0.59346558  1.0
  O  O82  1  0.47905060  0.43530045  0.62130931  1.0
  O  O83  1  0.52838665  0.55797461  0.61666937  1.0
  O  O84  1  0.66300906  0.39057718  0.53107923  1.0
  O  O85  1  0.65878770  0.52632964  0.47992751  1.0
  O  O86  1  0.54016988  0.43318115  0.38609039  1.0
  O  O87  1  0.48110047  0.58425325  0.38252677  1.0
  O  O88  1  0.35412771  0.47851579  0.48930274  1.0
  O  O89  1  0.33581876  0.61713695  0.52410537  1.0
