# generated using pymatgen
data_Al3H31C42(S3O16)2
_symmetry_space_group_name_H-M   'P 1'
_cell_length_a   13.85157179
_cell_length_b   13.96481061
_cell_length_c   27.03590133
_cell_angle_alpha   90.49801073
_cell_angle_beta   90.31512274
_cell_angle_gamma   60.37009736
_symmetry_Int_Tables_number   1
_chemical_formula_structural   Al3H31C42(S3O16)2
_chemical_formula_sum   'Al6 H62 C84 S12 O64'
_cell_volume   4545.65377959
_cell_formula_units_Z   2
loop_
 _symmetry_equiv_pos_site_id
 _symmetry_equiv_pos_as_xyz
  1  'x, y, z'
loop_
 _atom_site_type_symbol
 _atom_site_label
 _atom_site_symmetry_multiplicity
 _atom_site_fract_x
 _atom_site_fract_y
 _atom_site_fract_z
 _atom_site_occupancy
  Al  Al0  1  0.82579872  0.53760894  0.49632571  1.0
  Al  Al1  1  0.56250374  0.63314731  0.49761513  1.0
  Al  Al2  1  0.64343375  0.79531879  0.49841877  1.0
  Al  Al3  1  0.84243733  0.04681612  0.98643365  1.0
  Al  Al4  1  0.04179708  0.10092998  0.98561373  1.0
  Al  Al5  1  0.10118203  0.86395021  0.98568047  1.0
  H  H6  1  0.48192512  0.79405736  0.18737498  1.0
  H  H7  1  0.37569943  0.71787693  0.78293953  1.0
  H  H8  1  0.73460771  0.90922226  0.77931700  1.0
  H  H9  1  0.91276596  0.37457233  0.77897067  1.0
  H  H10  1  0.40987884  0.99314310  0.71751513  1.0
  H  H11  1  0.00799472  0.59954643  0.71390493  1.0
  H  H12  1  0.59013693  0.41881782  0.72183387  1.0
  H  H13  1  0.25356134  0.06601001  0.76651542  1.0
  H  H14  1  0.08458109  0.68092296  0.76292308  1.0
  H  H15  1  0.67564504  0.26024052  0.76898289  1.0
  H  H16  1  0.19068566  0.09663191  0.85400506  1.0
  H  H17  1  0.79160330  0.73330073  0.18046006  1.0
  H  H18  1  0.11503586  0.71410103  0.85095932  1.0
  H  H19  1  0.72183102  0.19108102  0.85555649  1.0
  H  H20  1  0.31121759  0.74599674  0.70159499  1.0
  H  H21  1  0.76491093  0.94373717  0.70012166  1.0
  H  H22  1  0.93696695  0.30973960  0.69825159  1.0
  H  H23  1  0.37749765  0.71384189  0.61451772  1.0
  H  H24  1  0.72591482  0.90950683  0.61356915  1.0
  H  H25  1  0.89453744  0.37727272  0.61133316  1.0
  H  H26  1  0.20603180  0.06452205  0.29555103  1.0
  H  H27  1  0.05588351  0.72819893  0.29510069  1.0
  H  H28  1  0.73056227  0.49089248  0.18439545  1.0
  H  H29  1  0.70589656  0.22537244  0.28600693  1.0
  H  H30  1  0.38075557  0.76195629  0.28101834  1.0
  H  H31  1  0.75012010  0.86252789  0.26818585  1.0
  H  H32  1  0.84537687  0.39567817  0.27841167  1.0
  H  H33  1  0.31956457  0.78431307  0.20014063  1.0
  H  H34  1  0.80035114  0.90214726  0.19241158  1.0
  H  H35  1  0.90237975  0.31398415  0.20085835  1.0
  H  H36  1  0.50387637  0.07144906  0.19716636  1.0
  H  H37  1  0.05102375  0.42672643  0.19390816  1.0
  H  H38  1  0.43327764  0.50931215  0.18377335  1.0
  H  H39  1  0.19275722  0.90351551  0.21484655  1.0
  H  H40  1  0.53521192  0.79333827  0.26911271  1.0
  H  H41  1  0.77908510  0.67943749  0.25997452  1.0
  H  H42  1  0.66631966  0.54741820  0.26490302  1.0
  H  H43  1  0.31002083  0.74999011  0.87005759  1.0
  H  H44  1  0.76687515  0.94362072  0.86695308  1.0
  H  H45  1  0.95963019  0.30287119  0.86502359  1.0
  H  H46  1  0.51223758  0.92960883  0.26573140  1.0
  H  H47  1  0.91605760  0.56572227  0.25904823  1.0
  H  H48  1  0.55052137  0.52769198  0.25573952  1.0
  H  H49  1  0.44355705  0.17376227  0.29107161  1.0
  H  H50  1  0.92489107  0.89091484  0.21554325  1.0
  H  H51  1  0.14129696  0.38987080  0.29933429  1.0
  H  H52  1  0.36386092  0.47579014  0.28883170  1.0
  H  H53  1  0.34109273  0.08750400  0.12174483  1.0
  H  H54  1  0.09543754  0.56329832  0.12121214  1.0
  H  H55  1  0.58557523  0.34990438  0.10749781  1.0
  H  H56  1  0.17008639  0.08096433  0.21540734  1.0
  H  H57  1  0.08978541  0.73569591  0.21609151  1.0
  H  H58  1  0.73606922  0.18657918  0.20665627  1.0
  H  H59  1  0.03406982  0.92252132  0.30218949  1.0
  H  H60  1  0.83732769  0.08630599  0.29729412  1.0
  H  H61  1  0.88813493  0.19924169  0.21628250  1.0
  H  H62  1  0.04268821  0.07069880  0.28799096  1.0
  H  H63  1  0.47640053  0.95957195  0.63052449  1.0
  H  H64  1  0.96809455  0.56691826  0.62697413  1.0
  H  H65  1  0.54909101  0.48604967  0.63491389  1.0
  H  H66  1  0.00827836  0.41893558  0.46908618  1.0
  H  H67  1  0.67534198  0.04710917  0.96967438  1.0
  C  C68  1  0.80720778  0.70964256  0.42575442  1.0
  C  C69  1  0.28966825  0.93949148  0.14202000  1.0
  C  C70  1  0.95355527  0.76284299  0.13941747  1.0
  C  C71  1  0.77753071  0.30106210  0.13773162  1.0
  C  C72  1  0.40535684  0.89747783  0.34089049  1.0
  C  C73  1  0.87802813  0.70919066  0.33497787  1.0
  C  C74  1  0.67804267  0.41656848  0.33483471  1.0
  C  C75  1  0.44037829  0.86052481  0.38163965  1.0
  C  C76  1  0.84295326  0.71460858  0.37641206  1.0
  C  C77  1  0.67976004  0.44464778  0.37722962  1.0
  C  C78  1  0.87180297  0.20470388  0.05325266  1.0
  C  C79  1  0.68595539  0.48342916  0.42615520  1.0
  C  C80  1  0.20047914  0.94493873  0.05435270  1.0
  C  C81  1  0.95918117  0.85206275  0.05416555  1.0
  C  C82  1  0.43045456  0.83511745  0.61706422  1.0
  C  C83  1  0.84464151  0.73623628  0.61555723  1.0
  C  C84  1  0.71947246  0.43579464  0.61822968  1.0
  C  C85  1  0.43877375  0.91427457  0.64629084  1.0
  C  C86  1  0.92528584  0.64900657  0.64353741  1.0
  C  C87  1  0.63375580  0.44664344  0.64916337  1.0
  C  C88  1  0.40121817  0.93277884  0.69489112  1.0
  C  C89  1  0.94724090  0.66794903  0.69173534  1.0
  C  C90  1  0.48251077  0.81633385  0.42982312  1.0
  C  C91  1  0.65723661  0.40870320  0.69755911  1.0
  C  C92  1  0.35612257  0.87167300  0.71605359  1.0
  C  C93  1  0.88828432  0.77370813  0.71315410  1.0
  C  C94  1  0.76626580  0.36056349  0.71627905  1.0
  C  C95  1  0.81327725  0.71430742  0.56601157  1.0
  C  C96  1  0.69809534  0.48172092  0.56749082  1.0
  C  C97  1  0.47921661  0.80764656  0.56670020  1.0
  C  C98  1  0.34782483  0.79277713  0.68629689  1.0
  C  C99  1  0.80898493  0.86085800  0.68436616  1.0
  C  C100  1  0.85163253  0.34946665  0.68468542  1.0
  C  C101  1  0.28297589  0.86392284  0.21950402  1.0
  C  C102  1  0.38369725  0.77514646  0.63741472  1.0
  C  C103  1  0.78760024  0.84256421  0.63600656  1.0
  C  C104  1  0.82890887  0.38597863  0.63618919  1.0
  C  C105  1  0.33422961  0.80129446  0.79820079  1.0
  C  C106  1  0.81827694  0.86720069  0.79479288  1.0
  C  C107  1  0.87164381  0.33319286  0.79546059  1.0
  C  C108  1  0.29882363  0.81855850  0.84713787  1.0
  C  C109  1  0.83536434  0.88569860  0.84374101  1.0
  C  C110  1  0.89749720  0.29416315  0.84361538  1.0
  C  C111  1  0.23262719  0.01380882  0.83825265  1.0
  C  C112  1  0.87346117  0.85127872  0.21525988  1.0
  C  C113  1  0.03202618  0.75538353  0.83489041  1.0
  C  C114  1  0.76232687  0.23206732  0.83821496  1.0
  C  C115  1  0.26828148  0.99608661  0.78936861  1.0
  C  C116  1  0.01448993  0.73698629  0.78593480  1.0
  C  C117  1  0.73657905  0.27143835  0.79022048  1.0
  C  C118  1  0.31937169  0.88967586  0.76824761  1.0
  C  C119  1  0.90747482  0.79270489  0.76503923  1.0
  C  C120  1  0.79137536  0.32185956  0.76780238  1.0
  C  C121  1  0.24735291  0.92516024  0.86766991  1.0
  C  C122  1  0.94248527  0.82985158  0.86413449  1.0
  C  C123  1  0.84702087  0.28940834  0.21853327  1.0
  C  C124  1  0.84352074  0.24249042  0.86520118  1.0
  C  C125  1  0.87514144  0.19213281  0.91491174  1.0
  C  C126  1  0.20030555  0.94540236  0.91826371  1.0
  C  C127  1  0.96028696  0.85621810  0.91533205  1.0
  C  C128  1  0.47576025  0.87738854  0.25735818  1.0
  C  C129  1  0.86560422  0.65332989  0.25045725  1.0
  C  C130  1  0.64043460  0.48966352  0.25072923  1.0
  C  C131  1  0.28429084  0.04326782  0.27680059  1.0
  C  C132  1  0.03396607  0.67241043  0.27551683  1.0
  C  C133  1  0.65429943  0.30249083  0.26643179  1.0
  C  C134  1  0.31659842  0.84790509  0.27429164  1.0
  C  C135  1  0.25883347  0.05388529  0.21954193  1.0
  C  C136  1  0.05581162  0.67960577  0.21907471  1.0
  C  C137  1  0.67627281  0.27515804  0.20956563  1.0
  C  C138  1  0.25469898  0.93549962  0.10123897  1.0
  C  C139  1  0.95295539  0.80188610  0.09949792  1.0
  C  C140  1  0.82626209  0.26336572  0.09908437  1.0
  C  C141  1  0.36894181  0.92041694  0.28957385  1.0
  C  C142  1  0.90653649  0.71671226  0.28427838  1.0
  C  C143  1  0.69606137  0.38408752  0.28305462  1.0
  C  C144  1  0.44986422  0.87832399  0.20177883  1.0
  C  C145  1  0.83828497  0.83958201  0.26728197  1.0
  C  C146  1  0.87424084  0.67672050  0.19559929  1.0
  C  C147  1  0.67375150  0.46150619  0.19597086  1.0
  C  C148  1  0.32254781  0.93843111  0.19345810  1.0
  C  C149  1  0.94361700  0.73545380  0.19014452  1.0
  C  C150  1  0.73688233  0.33497319  0.18787373  1.0
  C  C151  1  0.82338359  0.33102748  0.27189843  1.0
  S  S152  1  0.53353126  0.91847932  0.16413449  1.0
  S  S153  1  0.20869774  0.85240483  0.31495937  1.0
  S  S154  1  0.84289491  0.93507557  0.31210880  1.0
  S  S155  1  0.91273235  0.22764574  0.31707337  1.0
  S  S156  1  0.90896771  0.55633136  0.15618902  1.0
  S  S157  1  0.55716224  0.54474780  0.15430118  1.0
  S  S158  1  0.30812385  0.14467596  0.31234478  1.0
  S  S159  1  0.12450104  0.55004266  0.31384772  1.0
  S  S160  1  0.52433416  0.32932388  0.29733492  1.0
  S  S161  1  0.26028463  0.17048422  0.18809209  1.0
  S  S162  1  0.17103424  0.55627174  0.19071170  1.0
  S  S163  1  0.56340444  0.27681233  0.17189924  1.0
  O  O164  1  0.77512807  0.48117054  0.43747088  1.0
  O  O165  1  0.78205421  0.46471870  0.54260762  1.0
  O  O166  1  0.46051810  0.74177061  0.54008559  1.0
  O  O167  1  0.74353523  0.80009657  0.54098209  1.0
  O  O168  1  0.85187815  0.61567633  0.55207689  1.0
  O  O169  1  0.59657475  0.53906861  0.55239152  1.0
  O  O170  1  0.54164512  0.84621835  0.55332254  1.0
  O  O171  1  0.67585947  0.65675192  0.49684823  1.0
  O  O172  1  0.99709353  0.00315578  0.98687026  1.0
  O  O173  1  0.81887872  0.16202572  0.03400030  1.0
  O  O174  1  0.16046215  0.03780978  0.03268024  1.0
  O  O175  1  0.48213350  0.72846355  0.44193867  1.0
  O  O176  1  0.05031232  0.79761558  0.02947816  1.0
  O  O177  1  0.87695126  0.92704646  0.93945668  1.0
  O  O178  1  0.95075363  0.20232980  0.93907433  1.0
  O  O179  1  0.20784048  0.86321853  0.94236786  1.0
  O  O180  1  0.82875329  0.13954177  0.93008171  1.0
  O  O181  1  0.14978203  0.04488444  0.93460323  1.0
  O  O182  1  0.06119698  0.80765508  0.93174006  1.0
  O  O183  1  0.63694611  0.81943343  0.15581862  1.0
  O  O184  1  0.46953617  0.98166403  0.12179826  1.0
  O  O185  1  0.56272877  0.99188242  0.19877210  1.0
  O  O186  1  0.72438520  0.79765445  0.44294863  1.0
  O  O187  1  0.80546629  0.56242547  0.14348317  1.0
  O  O188  1  0.98336861  0.54859401  0.11677447  1.0
  O  O189  1  0.96951802  0.45293689  0.19102887  1.0
  O  O190  1  0.55442545  0.64821563  0.14897913  1.0
  O  O191  1  0.56572630  0.48061187  0.11033842  1.0
  O  O192  1  0.44857643  0.57302258  0.18375620  1.0
  O  O193  1  0.23563385  0.25348260  0.29273613  1.0
  O  O194  1  0.29598684  0.12293664  0.36281984  1.0
  O  O195  1  0.43272527  0.11023401  0.30175794  1.0
  O  O196  1  0.23777960  0.49857921  0.29620355  1.0
  O  O197  1  0.87793216  0.94476804  0.04378445  1.0
  O  O198  1  0.10214832  0.58961360  0.36369430  1.0
  O  O199  1  0.07892245  0.46786163  0.30355441  1.0
  O  O200  1  0.48369082  0.26217669  0.27367079  1.0
  O  O201  1  0.55020665  0.31259276  0.34898412  1.0
  O  O202  1  0.44493906  0.45416700  0.28522177  1.0
  O  O203  1  0.15217865  0.26239846  0.19712282  1.0
  O  O204  1  0.36008823  0.17337049  0.20136734  1.0
  O  O205  1  0.26318514  0.14536042  0.13136913  1.0
  O  O206  1  0.26778169  0.56249103  0.20404246  1.0
  O  O207  1  0.16021946  0.46107189  0.20224020  1.0
  O  O208  1  0.96257322  0.19776387  0.03737630  1.0
  O  O209  1  0.15695348  0.57642627  0.13350350  1.0
  O  O210  1  0.57107362  0.17215520  0.17966168  1.0
  O  O211  1  0.46059832  0.37801508  0.18110042  1.0
  O  O212  1  0.59967472  0.27455180  0.11706349  1.0
  O  O213  1  0.21726432  0.74562737  0.31041310  1.0
  O  O214  1  0.20722125  0.90059443  0.36209194  1.0
  O  O215  1  0.09296843  0.93857524  0.28621554  1.0
  O  O216  1  0.75841477  0.96546466  0.34858053  1.0
  O  O217  1  0.95819738  0.89132230  0.32900820  1.0
  O  O218  1  0.81761228  0.03536352  0.27691571  1.0
  O  O219  1  0.19269313  0.86194827  0.03952768  1.0
  O  O220  1  0.94177704  0.27900383  0.35555618  1.0
  O  O221  1  0.86334220  0.15945605  0.33034579  1.0
  O  O222  1  0.01874979  0.15191151  0.28405847  1.0
  O  O223  1  0.85943227  0.61738644  0.44670882  1.0
  O  O224  1  0.59745805  0.52043113  0.45303876  1.0
  O  O225  1  0.52099867  0.86672250  0.45604455  1.0
  O  O226  1  0.96131864  0.42616885  0.49683366  1.0
  O  O227  1  0.70026933  0.08994449  0.98850819  1.0
