# generated using pymatgen
data_Zn4H2C24S4Cl4O13F2
_symmetry_space_group_name_H-M   'P 1'
_cell_length_a   19.65849350
_cell_length_b   19.79230968
_cell_length_c   33.35294653
_cell_angle_alpha   78.78271467
_cell_angle_beta   79.17722924
_cell_angle_gamma   63.95520021
_symmetry_Int_Tables_number   1
_chemical_formula_structural   Zn4H2C24S4Cl4O13F2
_chemical_formula_sum   'Zn16 H8 C96 S16 Cl16 O52 F8'
_cell_volume   11359.23927249
_cell_formula_units_Z   4
loop_
 _symmetry_equiv_pos_site_id
 _symmetry_equiv_pos_as_xyz
  1  'x, y, z'
loop_
 _atom_site_type_symbol
 _atom_site_label
 _atom_site_symmetry_multiplicity
 _atom_site_fract_x
 _atom_site_fract_y
 _atom_site_fract_z
 _atom_site_occupancy
  Zn  Zn0  1  0.05560194  0.40100974  0.47813416  1.0
  Zn  Zn1  1  0.98537159  0.48364645  0.56019547  1.0
  Zn  Zn2  1  0.05858463  0.56150124  0.48214461  1.0
  Zn  Zn3  1  0.89991133  0.55475671  0.47944117  1.0
  Zn  Zn4  1  0.69380912  0.34900393  0.27188236  1.0
  Zn  Zn5  1  0.69073315  0.18861080  0.26635818  1.0
  Zn  Zn6  1  0.76904520  0.26624130  0.18968661  1.0
  Zn  Zn7  1  0.84778761  0.19555586  0.27196925  1.0
  Zn  Zn8  1  0.26484941  0.76603497  0.68995273  1.0
  Zn  Zn9  1  0.34936730  0.69711868  0.77146179  1.0
  Zn  Zn10  1  0.19220873  0.84930090  0.77121210  1.0
  Zn  Zn11  1  0.19128578  0.68831803  0.76786458  1.0
  Zn  Zn12  1  0.55877346  0.06188305  0.98368142  1.0
  Zn  Zn13  1  0.40249170  0.05268583  0.97715182  1.0
  Zn  Zn14  1  0.55760444  0.90050905  0.97909852  1.0
  Zn  Zn15  1  0.48133201  0.98370743  0.06027636  1.0
  H  H16  1  0.74854044  0.45134242  0.34962485  1.0
  H  H17  1  0.00087669  0.29970777  0.40019138  1.0
  H  H18  1  0.20085790  0.70041418  0.59970254  1.0
  H  H19  1  0.04929838  0.54984145  0.65011820  1.0
  H  H20  1  0.64990903  0.15078941  0.04920782  1.0
  H  H21  1  0.60052368  0.09913766  0.20072804  1.0
  H  H22  1  0.30012681  0.99977140  0.89984949  1.0
  H  H23  1  0.45054570  0.74969232  0.84972062  1.0
  C  C24  1  0.06172994  0.31688698  0.56196567  1.0
  C  C25  1  0.07011566  0.57049728  0.56805509  1.0
  C  C26  1  0.18337775  0.43985153  0.43838699  1.0
  C  C27  1  0.93609062  0.68393927  0.43852425  1.0
  C  C28  1  0.92946634  0.43181629  0.43113445  1.0
  C  C29  1  0.81731073  0.56069966  0.56286630  1.0
  C  C30  1  0.56621505  0.30940749  0.31118939  1.0
  C  C31  1  0.68283549  0.18072080  0.18003698  1.0
  C  C32  1  0.68985143  0.43304691  0.18830901  1.0
  C  C33  1  0.93542228  0.18803037  0.18958662  1.0
  C  C34  1  0.81955528  0.31876350  0.31919304  1.0
  C  C35  1  0.81203723  0.06599930  0.31127819  1.0
  C  C36  1  0.43273901  0.68967215  0.68799877  1.0
  C  C37  1  0.31727936  0.82138579  0.81877383  1.0
  C  C38  1  0.18821629  0.93281611  0.68757862  1.0
  C  C39  1  0.06550581  0.80952941  0.81124219  1.0
  C  C40  1  0.18005308  0.67959049  0.68181437  1.0
  C  C41  1  0.31465429  0.56651765  0.81164740  1.0
  C  C42  1  0.43691336  0.18364777  0.93842550  1.0
  C  C43  1  0.43342227  0.92815530  0.93075787  1.0
  C  C44  1  0.68388668  0.94148030  0.93917665  1.0
  C  C45  1  0.56086677  0.81681958  0.06245965  1.0
  C  C46  1  0.56758240  0.06925207  0.06989691  1.0
  C  C47  1  0.31496588  0.06133043  0.05990976  1.0
  C  C48  1  0.89994901  0.40452881  0.40223942  1.0
  C  C49  1  0.84938099  0.34651752  0.34768035  1.0
  C  C50  1  0.82868337  0.44608184  0.38719728  1.0
  C  C51  1  0.92080358  0.30508476  0.36257343  1.0
  C  C52  1  0.80401273  0.41788430  0.36065273  1.0
  C  C53  1  0.94541374  0.33324670  0.38916266  1.0
  C  C54  1  0.09906100  0.59936014  0.59639719  1.0
  C  C55  1  0.15104683  0.65088947  0.65342258  1.0
  C  C56  1  0.14217824  0.64225849  0.58313576  1.0
  C  C57  1  0.10789882  0.60803175  0.66666667  1.0
  C  C58  1  0.16753621  0.66738440  0.61086407  1.0
  C  C59  1  0.08257448  0.58289396  0.63894681  1.0
  C  C60  1  0.30515708  0.45389667  0.40042265  1.0
  C  C61  1  0.44448567  0.29520361  0.34931042  1.0
  C  C62  1  0.25832103  0.41567053  0.41363505  1.0
  C  C63  1  0.49135479  0.33338065  0.33608607  1.0
  C  C64  1  0.37659794  0.33919766  0.37278052  1.0
  C  C65  1  0.37306987  0.40985596  0.37696790  1.0
  C  C66  1  0.72552303  0.57583732  0.63078214  1.0
  C  C67  1  0.52451177  0.67399394  0.62012702  1.0
  C  C68  1  0.74296188  0.58506140  0.58817604  1.0
  C  C69  1  0.50715328  0.66493916  0.66275874  1.0
  C  C70  1  0.60423104  0.64147319  0.60847001  1.0
  C  C71  1  0.64581578  0.60834629  0.64240798  1.0
  C  C72  1  0.07671510  0.22460851  0.62989757  1.0
  C  C73  1  0.17394157  0.02485929  0.61961246  1.0
  C  C74  1  0.08591415  0.24247698  0.58727034  1.0
  C  C75  1  0.16454760  0.00710972  0.66222936  1.0
  C  C76  1  0.14184390  0.10425656  0.60784506  1.0
  C  C77  1  0.10887549  0.14519715  0.64165014  1.0
  C  C78  1  0.84181744  0.80179492  0.39686436  1.0
  C  C79  1  0.90627491  0.94823829  0.35292497  1.0
  C  C80  1  0.91031502  0.75858110  0.41360744  1.0
  C  C81  1  0.83774599  0.99132500  0.33616548  1.0
  C  C82  1  0.90778941  0.87895570  0.37502479  1.0
  C  C83  1  0.84050027  0.87089534  0.37466678  1.0
  C  C84  1  0.65419436  0.15278814  0.15101920  1.0
  C  C85  1  0.59635519  0.09701156  0.09891690  1.0
  C  C86  1  0.66707422  0.16636051  0.10786256  1.0
  C  C87  1  0.58342231  0.08349143  0.14208760  1.0
  C  C88  1  0.63896673  0.13925887  0.08248091  1.0
  C  C89  1  0.61156457  0.11056016  0.16746252  1.0
  C  C90  1  0.67386763  0.52503194  0.12032504  1.0
  C  C91  1  0.57606790  0.72482446  0.13046870  1.0
  C  C92  1  0.66498494  0.50735694  0.16297122  1.0
  C  C93  1  0.58516775  0.74255637  0.08783735  1.0
  C  C94  1  0.60848530  0.64544518  0.14227351  1.0
  C  C95  1  0.64137786  0.60442310  0.10850277  1.0
  C  C96  1  0.08298697  0.12334382  0.17776559  1.0
  C  C97  1  0.16739624  0.12640654  0.07191023  1.0
  C  C98  1  0.01043901  0.16266304  0.16507940  1.0
  C  C99  1  0.23998194  0.08707399  0.08449815  1.0
  C  C100  1  0.11016717  0.13959187  0.10596671  1.0
  C  C101  1  0.14030095  0.11013678  0.14372570  1.0
  C  C102  1  0.34544330  0.85035291  0.84749759  1.0
  C  C103  1  0.40523427  0.89904479  0.90211916  1.0
  C  C104  1  0.30429365  0.92103601  0.86232465  1.0
  C  C105  1  0.44637767  0.82839832  0.88728692  1.0
  C  C106  1  0.33333333  0.94478051  0.88891828  1.0
  C  C107  1  0.41734749  0.80463489  0.86069502  1.0
  C  C108  1  0.40868922  0.44793088  0.85322008  1.0
  C  C109  1  0.34295655  0.30220037  0.89682175  1.0
  C  C110  1  0.34037535  0.49160575  0.83639104  1.0
  C  C111  1  0.41129834  0.25854965  0.91366668  1.0
  C  C112  1  0.34199772  0.37134466  0.87478766  1.0
  C  C113  1  0.40952030  0.37888270  0.87531374  1.0
  C  C114  1  0.94371088  0.79586132  0.84958486  1.0
  C  C115  1  0.80550038  0.95520995  0.90052940  1.0
  C  C116  1  0.99070461  0.83382957  0.83606461  1.0
  C  C117  1  0.75847296  0.91732546  0.91410310  1.0
  C  C118  1  0.87303818  0.91085423  0.87697477  1.0
  C  C119  1  0.87609616  0.84022073  0.87310754  1.0
  S  S120  1  0.29738864  0.32619908  0.39739279  1.0
  S  S121  1  0.45232188  0.42279883  0.35238265  1.0
  S  S122  1  0.66201944  0.63315200  0.56243526  1.0
  S  S123  1  0.58811287  0.61685066  0.68846384  1.0
  S  S124  1  0.13366500  0.16229822  0.56174948  1.0
  S  S125  1  0.11688167  0.08725245  0.68776000  1.0
  S  S126  1  0.97277705  0.80248074  0.40226822  1.0
  S  S127  1  0.77549215  0.94724570  0.34738120  1.0
  S  S128  1  0.61699021  0.58758469  0.18842973  1.0
  S  S129  1  0.63305648  0.66232673  0.06236205  1.0
  S  S130  1  0.01232015  0.18334664  0.11175991  1.0
  S  S131  1  0.23819199  0.06651143  0.13784623  1.0
  S  S132  1  0.27745253  0.44821819  0.84749112  1.0
  S  S133  1  0.47402953  0.30211041  0.90265724  1.0
  S  S134  1  0.95222223  0.92346808  0.85201116  1.0
  S  S135  1  0.79683686  0.82771565  0.89808795  1.0
  Cl  Cl136  1  0.28726137  0.54208557  0.41002572  1.0
  Cl  Cl137  1  0.46247357  0.20689660  0.33981778  1.0
  Cl  Cl138  1  0.78876192  0.53157486  0.66630111  1.0
  Cl  Cl139  1  0.46133962  0.71817978  0.58456733  1.0
  Cl  Cl140  1  0.03282311  0.28685411  0.66535395  1.0
  Cl  Cl141  1  0.21770613  0.96241707  0.58424755  1.0
  Cl  Cl142  1  0.76676221  0.77839260  0.40116055  1.0
  Cl  Cl143  1  0.98127938  0.97171539  0.34865478  1.0
  Cl  Cl144  1  0.71725446  0.46262280  0.08495142  1.0
  Cl  Cl145  1  0.53260644  0.78727123  0.16581566  1.0
  Cl  Cl146  1  0.10445830  0.09313441  0.22716761  1.0
  Cl  Cl147  1  0.14564102  0.15696606  0.02255267  1.0
  Cl  Cl148  1  0.48409709  0.47080305  0.84904153  1.0
  Cl  Cl149  1  0.26750308  0.27940572  0.90100746  1.0
  Cl  Cl150  1  0.96132647  0.70763953  0.84016301  1.0
  Cl  Cl151  1  0.78804707  0.04350947  0.90978372  1.0
  O  O152  1  0.00037360  0.49927425  0.49976972  1.0
  O  O153  1  0.07671607  0.31571135  0.52292179  1.0
  O  O154  1  0.03334768  0.53098136  0.58542116  1.0
  O  O155  1  0.15498250  0.50545409  0.44988751  1.0
  O  O156  1  0.02849378  0.37529394  0.58079755  1.0
  O  O157  1  0.15350685  0.39197753  0.44603698  1.0
  O  O158  1  0.08414659  0.58729039  0.52957836  1.0
  O  O159  1  0.00329217  0.65791731  0.44918198  1.0
  O  O160  1  0.88624459  0.49592429  0.44316060  1.0
  O  O161  1  0.89037632  0.65196935  0.44732395  1.0
  O  O162  1  0.99592799  0.38773382  0.44127511  1.0
  O  O163  1  0.87678760  0.52687911  0.58146300  1.0
  O  O164  1  0.81493470  0.57622947  0.52386244  1.0
  O  O165  1  0.74892766  0.25089834  0.25009538  1.0
  O  O166  1  0.59623008  0.35711465  0.30404748  1.0
  O  O167  1  0.66549463  0.16368019  0.21835204  1.0
  O  O168  1  0.72580987  0.37467881  0.16959277  1.0
  O  O169  1  0.59429650  0.24431473  0.29905477  1.0
  O  O170  1  0.67275801  0.43431797  0.22729965  1.0
  O  O171  1  0.72158939  0.21861635  0.16437926  1.0
  O  O172  1  0.87795505  0.22318465  0.16904280  1.0
  O  O173  1  0.86211674  0.25373598  0.30816661  1.0
  O  O174  1  0.93380828  0.17319435  0.22856528  1.0
  O  O175  1  0.75358117  0.36310022  0.30848235  1.0
  O  O176  1  0.74581113  0.09153394  0.29938185  1.0
  O  O177  1  0.85717306  0.09854052  0.30380798  1.0
  O  O178  1  0.24957643  0.75043432  0.75037892  1.0
  O  O179  1  0.37352909  0.72258740  0.66918166  1.0
  O  O180  1  0.36283919  0.75660443  0.80772291  1.0
  O  O181  1  0.17206915  0.93432780  0.72655100  1.0
  O  O182  1  0.43472066  0.67543160  0.72706151  1.0
  O  O183  1  0.22207468  0.87420363  0.66891645  1.0
  O  O184  1  0.25128749  0.86294598  0.80788621  1.0
  O  O185  1  0.09455046  0.85807609  0.80297310  1.0
  O  O186  1  0.16578163  0.66290138  0.72027687  1.0
  O  O187  1  0.09465905  0.74343610  0.80026976  1.0
  O  O188  1  0.21713676  0.71881178  0.66449109  1.0
  O  O189  1  0.35961351  0.59935796  0.80367507  1.0
  O  O190  1  0.24799187  0.59188986  0.80039380  1.0
  O  O191  1  0.50063357  0.99950952  0.99986427  1.0
  O  O192  1  0.50264128  0.15875509  0.95081716  1.0
  O  O193  1  0.38867847  0.99394357  0.94073243  1.0
  O  O194  1  0.65450243  0.89324906  0.94691600  1.0
  O  O195  1  0.39251071  0.15029820  0.94525874  1.0
  O  O196  1  0.65537622  0.00699056  0.95085927  1.0
  O  O197  1  0.49849564  0.88590231  0.94265679  1.0
  O  O198  1  0.57889832  0.81529963  0.02354212  1.0
  O  O199  1  0.52901321  0.03117093  0.08552668  1.0
  O  O200  1  0.52454036  0.87541720  0.08098287  1.0
  O  O201  1  0.58461835  0.08660025  0.03158053  1.0
  O  O202  1  0.31659630  0.07447093  0.02087842  1.0
  O  O203  1  0.37236533  0.02738462  0.08053188  1.0
  F  F204  1  0.78105916  0.51552992  0.39802948  1.0
  F  F205  1  0.96860639  0.23577798  0.35161418  1.0
  F  F206  1  0.16085528  0.66074698  0.54263529  1.0
  F  F207  1  0.08921949  0.58955447  0.70718352  1.0
  F  F208  1  0.70754444  0.20662415  0.08922838  1.0
  F  F209  1  0.54278051  0.04338866  0.16072885  1.0
  F  F210  1  0.23452306  0.96904377  0.85114363  1.0
  F  F211  1  0.51625898  0.78056024  0.89836999  1.0
