# generated using pymatgen
data_AlH5C14Br2N2O5
_symmetry_space_group_name_H-M   'P 1'
_cell_length_a   6.70495765
_cell_length_b   23.07397993
_cell_length_c   26.14927763
_cell_angle_alpha   79.56814947
_cell_angle_beta   89.99848676
_cell_angle_gamma   89.99841079
_symmetry_Int_Tables_number   1
_chemical_formula_structural   AlH5C14Br2N2O5
_chemical_formula_sum   'Al4 H20 C56 Br8 N8 O20'
_cell_volume   3978.68713733
_cell_formula_units_Z   4
loop_
 _symmetry_equiv_pos_site_id
 _symmetry_equiv_pos_as_xyz
  1  'x, y, z'
loop_
 _atom_site_type_symbol
 _atom_site_label
 _atom_site_symmetry_multiplicity
 _atom_site_fract_x
 _atom_site_fract_y
 _atom_site_fract_z
 _atom_site_occupancy
  Al  Al0  1  0.20496968  0.74910203  0.75045203  1.0
  Al  Al1  1  0.79502117  0.25089584  0.24955017  1.0
  Al  Al2  1  0.70497280  0.75089585  0.74955256  1.0
  Al  Al3  1  0.29502252  0.24910336  0.25045159  1.0
  H  H4  1  0.30134935  0.00870865  0.44358056  1.0
  H  H5  1  0.69866536  0.99129120  0.55642048  1.0
  H  H6  1  0.80133872  0.49128680  0.05642233  1.0
  H  H7  1  0.19868046  0.50870359  0.94357831  1.0
  H  H8  1  0.73973507  0.17055269  0.12238413  1.0
  H  H9  1  0.26025428  0.82944921  0.87761536  1.0
  H  H10  1  0.23971135  0.32945181  0.37761718  1.0
  H  H11  1  0.76027651  0.67054781  0.62238075  1.0
  H  H12  1  0.73546564  0.10520817  0.05579500  1.0
  H  H13  1  0.26452819  0.89479760  0.94420255  1.0
  H  H14  1  0.23546619  0.39479794  0.44420711  1.0
  H  H15  1  0.76455299  0.60520737  0.55578849  1.0
  H  H16  1  0.34041168  0.11547606  0.16356291  1.0
  H  H17  1  0.65957618  0.88452552  0.83643813  1.0
  H  H18  1  0.84038724  0.38452133  0.33643120  1.0
  H  H19  1  0.15960510  0.61547631  0.66357217  1.0
  H  H20  1  0.45115960  0.82603252  0.72813957  1.0
  H  H21  1  0.54883274  0.17396380  0.27185757  1.0
  H  H22  1  0.95116779  0.67396333  0.77185894  1.0
  H  H23  1  0.04882753  0.32603408  0.22814132  1.0
  C  C24  1  0.45595741  0.68557447  0.68662443  1.0
  C  C25  1  0.54403195  0.31442342  0.31337350  1.0
  C  C26  1  0.95597034  0.81442460  0.81337717  1.0
  C  C27  1  0.04402796  0.18557465  0.18662465  1.0
  C  C28  1  0.45672045  0.67335770  0.82657425  1.0
  C  C29  1  0.54327487  0.32663928  0.17342601  1.0
  C  C30  1  0.95673900  0.82663980  0.67342656  1.0
  C  C31  1  0.04325483  0.17335907  0.32657292  1.0
  C  C32  1  0.16966513  0.00454019  0.46831028  1.0
  C  C33  1  0.83034362  0.99545900  0.53168764  1.0
  C  C34  1  0.66965364  0.49545697  0.03168947  1.0
  C  C35  1  0.33035809  0.50453906  0.96831117  1.0
  C  C36  1  0.01252189  0.04534777  0.45563377  1.0
  C  C37  1  0.98748387  0.95465019  0.54436804  1.0
  C  C38  1  0.51251003  0.45464638  0.04436572  1.0
  C  C39  1  0.48748828  0.54534653  0.95563532  1.0
  C  C40  1  0.84255556  0.03986166  0.48831417  1.0
  C  C41  1  0.15745765  0.96013848  0.51168337  1.0
  C  C42  1  0.34256554  0.46013829  0.01168420  1.0
  C  C43  1  0.65745067  0.53986012  0.98831956  1.0
  C  C44  1  0.02719923  0.08995728  0.41111768  1.0
  C  C45  1  0.97281399  0.91004021  0.58888219  1.0
  C  C46  1  0.52719753  0.41003807  0.08888172  1.0
  C  C47  1  0.47281270  0.58995626  0.91112087  1.0
  C  C48  1  0.96166538  0.87178566  0.62752259  1.0
  C  C49  1  0.03833441  0.12821541  0.37247884  1.0
  C  C50  1  0.46165692  0.62821411  0.87248170  1.0
  C  C51  1  0.53834138  0.37178159  0.12752050  1.0
  C  C52  1  0.86968525  0.14426107  0.11634357  1.0
  C  C53  1  0.13029664  0.85574135  0.88365552  1.0
  C  C54  1  0.36968525  0.35574688  0.38365699  1.0
  C  C55  1  0.63032796  0.64426033  0.61634406  1.0
  C  C56  1  0.86735477  0.10772327  0.07958462  1.0
  C  C57  1  0.13263905  0.89227950  0.92041487  1.0
  C  C58  1  0.36735351  0.39228145  0.42041906  1.0
  C  C59  1  0.63265821  0.60772379  0.57958315  1.0
  C  C60  1  0.03286831  0.07258864  0.07274528  1.0
  C  C61  1  0.96713149  0.92741634  0.92725187  1.0
  C  C62  1  0.53286036  0.42741275  0.42724982  1.0
  C  C63  1  0.46714987  0.57258605  0.57274577  1.0
  C  C64  1  0.20286767  0.07526340  0.10378238  1.0
  C  C65  1  0.79711721  0.92473810  0.89621905  1.0
  C  C66  1  0.70285121  0.42473225  0.39621290  1.0
  C  C67  1  0.29714560  0.57526087  0.60378502  1.0
  C  C68  1  0.20875222  0.11311588  0.13965483  1.0
  C  C69  1  0.79123713  0.88688646  0.86034466  1.0
  C  C70  1  0.70875048  0.38688804  0.36034004  1.0
  C  C71  1  0.29127467  0.61311464  0.63965983  1.0
  C  C72  1  0.04134875  0.14728999  0.14626885  1.0
  C  C73  1  0.95863315  0.85271058  0.85372868  1.0
  C  C74  1  0.54134199  0.35271338  0.35372892  1.0
  C  C75  1  0.45868614  0.64729061  0.64627095  1.0
  C  C76  1  0.98210911  0.96651276  0.96593299  1.0
  C  C77  1  0.01789367  0.03349186  0.03406378  1.0
  C  C78  1  0.48212322  0.53349083  0.53406457  1.0
  C  C79  1  0.51789298  0.46650679  0.46593257  1.0
  Br  Br80  1  0.37166214  0.90631128  0.52705788  1.0
  Br  Br81  1  0.62833915  0.09368549  0.47293499  1.0
  Br  Br82  1  0.87164113  0.59369083  0.97295121  1.0
  Br  Br83  1  0.12834375  0.40631370  0.02706073  1.0
  Br  Br84  1  0.42453610  0.02480913  0.10012727  1.0
  Br  Br85  1  0.57545027  0.97519383  0.89987338  1.0
  Br  Br86  1  0.92452936  0.47519013  0.39986286  1.0
  Br  Br87  1  0.07549430  0.52481115  0.60013546  1.0
  N  N88  1  0.16428543  0.03564761  0.99825352  1.0
  N  N89  1  0.83570542  0.96435586  0.00174674  1.0
  N  N90  1  0.66429188  0.46435554  0.50174446  1.0
  N  N91  1  0.33571537  0.53565053  0.49825581  1.0
  N  N92  1  0.14583833  0.00119094  0.96326577  1.0
  N  N93  1  0.85416147  0.99881408  0.03673333  1.0
  N  N94  1  0.64585583  0.49881397  0.53673077  1.0
  N  N95  1  0.35415739  0.50118904  0.46326755  1.0
  O  O96  1  0.62531070  0.69181532  0.80790373  1.0
  O  O97  1  0.37469506  0.30818567  0.19209809  1.0
  O  O98  1  0.12529893  0.80819017  0.69209861  1.0
  O  O99  1  0.87469192  0.19181003  0.30790282  1.0
  O  O100  1  0.28616815  0.69810140  0.70361719  1.0
  O  O101  1  0.71383910  0.30189711  0.29638190  1.0
  O  O102  1  0.78614224  0.80189964  0.79638149  1.0
  O  O103  1  0.21384711  0.19810104  0.20361760  1.0
  O  O104  1  0.28542790  0.69019450  0.80878504  1.0
  O  O105  1  0.71456742  0.30980183  0.19121833  1.0
  O  O106  1  0.78541641  0.80980109  0.69121909  1.0
  O  O107  1  0.21457294  0.19019813  0.30878078  1.0
  O  O108  1  0.12498823  0.79837094  0.79863963  1.0
  O  O109  1  0.87499515  0.20162929  0.20136375  1.0
  O  O110  1  0.62501587  0.70162613  0.70136776  1.0
  O  O111  1  0.37497796  0.29837071  0.29863522  1.0
  O  O112  1  0.45389142  0.78554036  0.74638797  1.0
  O  O113  1  0.54610539  0.21445811  0.25361345  1.0
  O  O114  1  0.95388716  0.71445746  0.75361558  1.0
  O  O115  1  0.04610667  0.28554042  0.24638662  1.0
