# generated using pymatgen
data_ZnH16C27N2O7
_symmetry_space_group_name_H-M   'P 1'
_cell_length_a   9.51695182
_cell_length_b   11.05571999
_cell_length_c   28.09149922
_cell_angle_alpha   88.30441758
_cell_angle_beta   88.34485319
_cell_angle_gamma   87.79379186
_symmetry_Int_Tables_number   1
_chemical_formula_structural   ZnH16C27N2O7
_chemical_formula_sum   'Zn2 H32 C54 N4 O14'
_cell_volume   2951.07309985
_cell_formula_units_Z   2
loop_
 _symmetry_equiv_pos_site_id
 _symmetry_equiv_pos_as_xyz
  1  'x, y, z'
loop_
 _atom_site_type_symbol
 _atom_site_label
 _atom_site_symmetry_multiplicity
 _atom_site_fract_x
 _atom_site_fract_y
 _atom_site_fract_z
 _atom_site_occupancy
  Zn  Zn0  1  0.64136933  0.49531791  0.49725472  1.0
  Zn  Zn1  1  0.35941253  0.50520028  0.50303331  1.0
  H  H2  1  0.28783610  0.46220424  0.65612818  1.0
  H  H3  1  0.71323220  0.53119334  0.34432209  1.0
  H  H4  1  0.52263095  0.19740154  0.88066772  1.0
  H  H5  1  0.50832964  0.80284863  0.11956498  1.0
  H  H6  1  0.26950679  0.47820577  0.35250813  1.0
  H  H7  1  0.72874347  0.52745346  0.64755887  1.0
  H  H8  1  0.26457570  0.47419239  0.26292141  1.0
  H  H9  1  0.73384664  0.53225257  0.73715247  1.0
  H  H10  1  0.47557416  0.19746774  0.12598464  1.0
  H  H11  1  0.49538813  0.80499072  0.87416391  1.0
  H  H12  1  0.48570507  0.19399734  0.03784293  1.0
  H  H13  1  0.49204386  0.80829548  0.96231369  1.0
  H  H14  1  0.51305827  0.19344829  0.96889460  1.0
  H  H15  1  0.51332025  0.80713584  0.03130962  1.0
  H  H16  1  0.27824000  0.12207792  0.51072875  1.0
  H  H17  1  0.72453659  0.87842377  0.48959281  1.0
  H  H18  1  0.27611872  0.89459955  0.51075472  1.0
  H  H19  1  0.72667214  0.10594118  0.48958080  1.0
  H  H20  1  0.13511020  0.63955726  0.44948026  1.0
  H  H21  1  0.86561988  0.36100112  0.55077323  1.0
  H  H22  1  0.13503806  0.36919970  0.55496720  1.0
  H  H23  1  0.86559296  0.63162514  0.44543938  1.0
  H  H24  1  0.16495819  0.33356464  0.72213636  1.0
  H  H25  1  0.11340707  0.48520192  0.70459253  1.0
  H  H26  1  0.00616602  0.52306811  0.78436371  1.0
  H  H27  1  0.93681310  0.38883304  0.76201714  1.0
  H  H28  1  0.06789744  0.37810251  0.80606212  1.0
  H  H29  1  0.88957842  0.49676066  0.29454530  1.0
  H  H30  1  0.84117860  0.65188162  0.28163532  1.0
  H  H31  1  0.93278879  0.62300633  0.19619627  1.0
  H  H32  1  0.06613316  0.59919262  0.23898089  1.0
  H  H33  1  0.99048457  0.47270689  0.21270085  1.0
  C  C34  1  0.50352120  0.26226231  0.50033788  1.0
  C  C35  1  0.49915127  0.73823286  0.49998808  1.0
  C  C36  1  0.50198272  0.49283619  0.59418922  1.0
  C  C37  1  0.49741073  0.50705653  0.40611441  1.0
  C  C38  1  0.51946160  0.38794419  0.82147974  1.0
  C  C39  1  0.49263434  0.61294326  0.17871763  1.0
  C  C40  1  0.50748575  0.61475440  0.81895406  1.0
  C  C41  1  0.48025236  0.38698020  0.18116561  1.0
  C  C42  1  0.63666839  0.51705534  0.71897431  1.0
  C  C43  1  0.36229807  0.48675221  0.28116497  1.0
  C  C44  1  0.63417175  0.51396025  0.66947213  1.0
  C  C45  1  0.36471563  0.48933420  0.33068218  1.0
  C  C46  1  0.38386930  0.47711366  0.67478291  1.0
  C  C47  1  0.61656862  0.51910622  0.32560875  1.0
  C  C48  1  0.38611648  0.48048782  0.72441205  1.0
  C  C49  1  0.61431893  0.51626355  0.27597018  1.0
  C  C50  1  0.51441304  0.50030963  0.74615292  1.0
  C  C51  1  0.48529377  0.50046509  0.25405959  1.0
  C  C52  1  0.50867697  0.50113000  0.89819038  1.0
  C  C53  1  0.49252334  0.50036131  0.10196568  1.0
  C  C54  1  0.51488247  0.39021775  0.87411232  1.0
  C  C55  1  0.49639331  0.61078789  0.12608327  1.0
  C  C56  1  0.51702135  0.28143624  0.90009823  1.0
  C  C57  1  0.50439027  0.71922769  0.10010661  1.0
  C  C58  1  0.50563775  0.61217517  0.87170263  1.0
  C  C59  1  0.48462031  0.38969289  0.12843356  1.0
  C  C60  1  0.50742151  0.49414960  0.64747494  1.0
  C  C61  1  0.49214772  0.50550890  0.35281788  1.0
  C  C62  1  0.49631652  0.38785024  0.02731867  1.0
  C  C63  1  0.50151003  0.61380889  0.97282567  1.0
  C  C64  1  0.50201994  0.61345539  0.02492569  1.0
  C  C65  1  0.50452260  0.38789988  0.97523060  1.0
  C  C66  1  0.49692481  0.50055736  0.05098615  1.0
  C  C67  1  0.50500140  0.50095411  0.94916845  1.0
  C  C68  1  0.48799781  0.28084398  0.05504144  1.0
  C  C69  1  0.49732719  0.72121780  0.94510632  1.0
  C  C70  1  0.48192587  0.28135445  0.10476616  1.0
  C  C71  1  0.49904327  0.72078689  0.89537426  1.0
  C  C72  1  0.51147598  0.28066094  0.94982624  1.0
  C  C73  1  0.50696500  0.72021033  0.05035923  1.0
  C  C74  1  0.37532866  0.06768258  0.50622427  1.0
  C  C75  1  0.62749788  0.93283183  0.49416928  1.0
  C  C76  1  0.37407050  0.94196315  0.50607297  1.0
  C  C77  1  0.62875084  0.05856428  0.49431341  1.0
  C  C78  1  0.50016983  0.87365508  0.50002899  1.0
  C  C79  1  0.50263865  0.12684936  0.50037324  1.0
  C  C80  1  0.07311057  0.57824541  0.47191071  1.0
  C  C81  1  0.92763771  0.42238497  0.52839250  1.0
  C  C82  1  0.07313508  0.42720694  0.53078466  1.0
  C  C83  1  0.92760458  0.57351844  0.46954688  1.0
  C  C84  1  0.14482863  0.42608910  0.73505356  1.0
  C  C85  1  0.03241956  0.42947726  0.77429362  1.0
  C  C86  1  0.85816886  0.56198988  0.26597064  1.0
  C  C87  1  0.96826751  0.56409084  0.22598285  1.0
  N  N88  1  0.51703371  0.50137105  0.79727487  1.0
  N  N89  1  0.48301476  0.49999594  0.20293528  1.0
  N  N90  1  0.85702576  0.49557425  0.49776841  1.0
  N  N91  1  0.14373549  0.50507928  0.50253888  1.0
  O  O92  1  0.62288369  0.31113695  0.49788440  1.0
  O  O93  1  0.37979323  0.68930037  0.50279865  1.0
  O  O94  1  0.61796082  0.68119061  0.49727315  1.0
  O  O95  1  0.38462093  0.31929081  0.50261817  1.0
  O  O96  1  0.61898994  0.49098011  0.57089330  1.0
  O  O97  1  0.38030812  0.51018173  0.42936469  1.0
  O  O98  1  0.61861885  0.50446049  0.42447191  1.0
  O  O99  1  0.38072616  0.49453171  0.57588549  1.0
  O  O100  1  0.52583367  0.29346991  0.79933532  1.0
  O  O101  1  0.49643927  0.70700983  0.20087541  1.0
  O  O102  1  0.47449050  0.29250189  0.20525310  1.0
  O  O103  1  0.50156311  0.70929766  0.79479185  1.0
  O  O104  1  0.27235461  0.46728654  0.75443438  1.0
  O  O105  1  0.72873714  0.52677114  0.24611136  1.0
