# generated using pymatgen
data_AlH27(C11O2)3
_symmetry_space_group_name_H-M   'P 1'
_cell_length_a   4.01530710
_cell_length_b   27.78513765
_cell_length_c   27.78317861
_cell_angle_alpha   60.11139700
_cell_angle_beta   89.45785215
_cell_angle_gamma   88.91058429
_symmetry_Int_Tables_number   1
_chemical_formula_structural   AlH27(C11O2)3
_chemical_formula_sum   'Al3 H81 C99 O18'
_cell_volume   2686.90170310
_cell_formula_units_Z   3
loop_
 _symmetry_equiv_pos_site_id
 _symmetry_equiv_pos_as_xyz
  1  'x, y, z'
loop_
 _atom_site_type_symbol
 _atom_site_label
 _atom_site_symmetry_multiplicity
 _atom_site_fract_x
 _atom_site_fract_y
 _atom_site_fract_z
 _atom_site_occupancy
  Al  Al0  1  0.00153485  0.00036104  0.49959392  1.0
  Al  Al1  1  0.03637149  0.33363380  0.83300133  1.0
  Al  Al2  1  0.95831489  0.66701045  0.16632414  1.0
  H  H3  1  0.49750573  0.00004166  0.92299702  1.0
  H  H4  1  0.51103015  0.91103724  0.83348704  1.0
  H  H5  1  0.47231414  0.08925433  0.74494491  1.0
  H  H6  1  0.27429988  0.07312684  0.91395070  1.0
  H  H7  1  0.76434488  0.14789200  0.75514609  1.0
  H  H8  1  0.71531723  0.92758851  0.98596004  1.0
  H  H9  1  0.23696536  0.85122571  0.90355720  1.0
  H  H10  1  0.24957145  0.92134986  0.76227174  1.0
  H  H11  1  0.73185519  0.07915592  0.68340317  1.0
  H  H12  1  0.49826036  0.42273698  0.07729390  1.0
  H  H13  1  0.46101016  0.24474509  0.16608173  1.0
  H  H14  1  0.52452055  0.33341486  0.25545768  1.0
  H  H15  1  0.73625487  0.48436079  0.08686413  1.0
  H  H16  1  0.24786291  0.40467200  0.24581609  1.0
  H  H17  1  0.25490011  0.41368290  0.01482572  1.0
  H  H18  1  0.75306389  0.25424066  0.09586021  1.0
  H  H19  1  0.74080547  0.18307050  0.23712922  1.0
  H  H20  1  0.24132592  0.26316182  0.31626323  1.0
  H  H21  1  0.49427837  0.57697184  0.50015004  1.0
  H  H22  1  0.53596009  0.75483841  0.41071536  1.0
  H  H23  1  0.48454730  0.66696063  0.58873474  1.0
  H  H24  1  0.26998672  0.51523064  0.57183352  1.0
  H  H25  1  0.74930752  0.59577075  0.65000858  1.0
  H  H26  1  0.73150669  0.58573202  0.42740341  1.0
  H  H27  1  0.23338707  0.74517207  0.35170630  1.0
  H  H28  1  0.26991004  0.81720262  0.42038508  1.0
  H  H29  1  0.76133041  0.73714620  0.57870395  1.0
  H  H30  1  0.69176074  0.25949366  0.70013746  1.0
  H  H31  1  0.80594134  0.28893195  0.74146857  1.0
  H  H32  1  0.08154069  0.24229189  0.73471266  1.0
  H  H33  1  0.32936077  0.12167243  0.96847202  1.0
  H  H34  1  0.36821101  0.19511738  0.93357623  1.0
  H  H35  1  0.99815189  0.16561828  0.92708839  1.0
  H  H36  1  0.65474809  0.87910551  0.08934380  1.0
  H  H37  1  0.62800187  0.80548079  0.12768037  1.0
  H  H38  1  0.99419553  0.83677382  0.09038218  1.0
  H  H39  1  0.31271657  0.74076585  0.95891037  1.0
  H  H40  1  0.21101760  0.71007893  0.03050419  1.0
  H  H41  1  0.92359700  0.75564948  0.97972624  1.0
  H  H42  1  0.98370232  0.91352401  0.65486029  1.0
  H  H43  1  0.38865652  0.88728331  0.65792894  1.0
  H  H44  1  0.17760061  0.87181468  0.72068392  1.0
  H  H45  1  0.00660444  0.08702906  0.56808817  1.0
  H  H46  1  0.60338695  0.11351111  0.54510365  1.0
  H  H47  1  0.80902348  0.12882026  0.59243399  1.0
  H  H48  1  0.31412086  0.45906699  0.30087521  1.0
  H  H49  1  0.23152433  0.53164561  0.26058708  1.0
  H  H50  1  0.93310600  0.48405359  0.26423786  1.0
  H  H51  1  0.68757211  0.58800145  0.03223538  1.0
  H  H52  1  0.65505754  0.62666191  0.06741037  1.0
  H  H53  1  0.02182156  0.58798417  0.07357975  1.0
  H  H54  1  0.29670697  0.46819066  0.91176112  1.0
  H  H55  1  0.34334923  0.43357878  0.87272211  1.0
  H  H56  1  0.97226226  0.42658988  0.91000846  1.0
  H  H57  1  0.69469717  0.19940804  0.04079807  1.0
  H  H58  1  0.78054261  0.23989665  0.96860785  1.0
  H  H59  1  0.07436228  0.23556421  0.01757819  1.0
  H  H60  1  0.01902440  0.06790676  0.34418052  1.0
  H  H61  1  0.61916356  0.04482454  0.34177604  1.0
  H  H62  1  0.82366472  0.09168116  0.27866215  1.0
  H  H63  1  0.96991874  0.15619372  0.43129515  1.0
  H  H64  1  0.37059169  0.15866222  0.45458182  1.0
  H  H65  1  0.15943749  0.22172320  0.40739863  1.0
  H  H66  1  0.67708102  0.54192745  0.75914998  1.0
  H  H67  1  0.75937376  0.46931033  0.79158416  1.0
  H  H68  1  0.06042827  0.51666691  0.74746382  1.0
  H  H69  1  0.33055601  0.41106562  0.62112643  1.0
  H  H70  1  0.34647136  0.37322670  0.69492643  1.0
  H  H71  1  0.98535343  0.41225574  0.66087436  1.0
  H  H72  1  0.69069243  0.53157054  0.37876662  1.0
  H  H73  1  0.63653070  0.56601578  0.30547344  1.0
  H  H74  1  0.01042444  0.57361104  0.33365009  1.0
  H  H75  1  0.29465566  0.80018678  0.24096962  1.0
  H  H76  1  0.19377545  0.75937684  0.21035282  1.0
  H  H77  1  0.91094441  0.76499089  0.25647001  1.0
  H  H78  1  0.99472051  0.93284388  0.41220543  1.0
  H  H79  1  0.39624861  0.95544750  0.38631201  1.0
  H  H80  1  0.19236128  0.90849921  0.37050537  1.0
  H  H81  1  0.03081562  0.84434654  0.58648588  1.0
  H  H82  1  0.62808307  0.84185379  0.61259785  1.0
  H  H83  1  0.84073693  0.77879278  0.62813970  1.0
  C  C84  1  0.51108446  0.92596097  0.49948070  1.0
  C  C85  1  0.49662761  0.00035546  0.57407894  1.0
  C  C86  1  0.49653308  0.07467788  0.42529219  1.0
  C  C87  1  0.54423402  0.25937141  0.83305964  1.0
  C  C88  1  0.53054819  0.33343368  0.90733093  1.0
  C  C89  1  0.53058474  0.40780088  0.75913000  1.0
  C  C90  1  0.45441623  0.74104899  0.09226400  1.0
  C  C91  1  0.46855799  0.59265618  0.16660926  1.0
  C  C92  1  0.45526526  0.66691372  0.24062119  1.0
  C  C93  1  0.48954267  0.94920635  0.88460095  1.0
  C  C94  1  0.49535046  0.00000073  0.88382985  1.0
  C  C95  1  0.49941192  0.05083383  0.83399653  1.0
  C  C96  1  0.48927519  0.05010688  0.78395101  1.0
  C  C97  1  0.49079633  0.00012686  0.78298968  1.0
  C  C98  1  0.49466094  0.95008753  0.83370751  1.0
  C  C99  1  0.40679498  0.15817694  0.88042438  1.0
  C  C100  1  0.39218760  0.10864162  0.87918559  1.0
  C  C101  1  0.51351957  0.10392300  0.83419001  1.0
  C  C102  1  0.65382088  0.15099516  0.78954873  1.0
  C  C103  1  0.66645992  0.20184286  0.78824748  1.0
  C  C104  1  0.54100975  0.20498591  0.83406630  1.0
  C  C105  1  0.60057111  0.89179688  0.98703228  1.0
  C  C106  1  0.58796465  0.84236714  0.03781970  1.0
  C  C107  1  0.45785104  0.79517782  0.03875741  1.0
  C  C108  1  0.33553644  0.79780999  0.99019388  1.0
  C  C109  1  0.34555683  0.84857913  0.94066620  1.0
  C  C110  1  0.48050887  0.89609862  0.93778231  1.0
  C  C111  1  0.36102650  0.95591167  0.72573555  1.0
  C  C112  1  0.35867512  0.95486053  0.67604451  1.0
  C  C113  1  0.49367279  0.00038187  0.62768720  1.0
  C  C114  1  0.62677798  0.04587357  0.63056777  1.0
  C  C115  1  0.62095882  0.04468477  0.68137342  1.0
  C  C116  1  0.49027643  0.00026668  0.72972068  1.0
  C  C117  1  0.49282439  0.33367371  0.11542143  1.0
  C  C118  1  0.49633590  0.38359906  0.11640549  1.0
  C  C119  1  0.49798901  0.38446384  0.16640290  1.0
  C  C120  1  0.50279265  0.33363796  0.21629332  1.0
  C  C121  1  0.49190695  0.28291697  0.21695142  1.0
  C  C122  1  0.48352077  0.28373493  0.16612645  1.0
  C  C123  1  0.61098216  0.53706492  0.12031998  1.0
  C  C124  1  0.62065543  0.48616233  0.12163424  1.0
  C  C125  1  0.49524407  0.43763720  0.16655659  1.0
  C  C126  1  0.35985807  0.44122928  0.21136689  1.0
  C  C127  1  0.35171992  0.49089219  0.21259043  1.0
  C  C128  1  0.47761262  0.53879172  0.16652845  1.0
  C  C129  1  0.37339957  0.37879847  0.01331365  1.0
  C  C130  1  0.38512208  0.38010928  0.96243215  1.0
  C  C131  1  0.52243183  0.33375689  0.96107055  1.0
  C  C132  1  0.65104823  0.28764481  0.00928639  1.0
  C  C133  1  0.64006339  0.28880947  0.05896842  1.0
  C  C134  1  0.49962517  0.33367395  0.06219946  1.0
  C  C135  1  0.62642277  0.18124328  0.27376046  1.0
  C  C136  1  0.63247708  0.13057766  0.32335654  1.0
  C  C137  1  0.49342194  0.12813084  0.37170571  1.0
  C  C138  1  0.35263975  0.17671212  0.36895420  1.0
  C  C139  1  0.35616558  0.22630750  0.31829068  1.0
  C  C140  1  0.49090362  0.22981865  0.26999572  1.0
  C  C141  1  0.50090847  0.66596464  0.44922802  1.0
  C  C142  1  0.49944064  0.61617574  0.50010807  1.0
  C  C143  1  0.50303384  0.61553146  0.55087736  1.0
  C  C144  1  0.50214328  0.66650487  0.54981968  1.0
  C  C145  1  0.51158609  0.71710910  0.49975503  1.0
  C  C146  1  0.51454540  0.71601887  0.44985406  1.0
  C  C147  1  0.39313928  0.46292223  0.65758005  1.0
  C  C148  1  0.38351130  0.51372173  0.60807959  1.0
  C  C149  1  0.50660897  0.56244850  0.60415943  1.0
  C  C150  1  0.63928304  0.55911514  0.65223322  1.0
  C  C151  1  0.64650678  0.50958267  0.70305896  1.0
  C  C152  1  0.52331939  0.46148854  0.70518569  1.0
  C  C153  1  0.61215321  0.62064579  0.39161372  1.0
  C  C154  1  0.59821844  0.61953663  0.34197890  1.0
  C  C155  1  0.46045213  0.66601208  0.29495935  1.0
  C  C156  1  0.33223366  0.71195753  0.29787956  1.0
  C  C157  1  0.34568667  0.71063276  0.34876720  1.0
  C  C158  1  0.48811440  0.66575566  0.39611769  1.0
  C  C159  1  0.38306118  0.81903465  0.45495104  1.0
  C  C160  1  0.37852695  0.86984928  0.45373718  1.0
  C  C161  1  0.51486077  0.87238010  0.49939399  1.0
  C  C162  1  0.65240275  0.82371887  0.54503365  1.0
  C  C163  1  0.64846283  0.77401133  0.54401350  1.0
  C  C164  1  0.51530376  0.77037050  0.49955496  1.0
  C  C165  1  0.81771430  0.25099394  0.73865630  1.0
  C  C166  1  0.27041764  0.16045263  0.92999109  1.0
  C  C167  1  0.72124158  0.84062781  0.08920664  1.0
  C  C168  1  0.18969720  0.74821646  0.99020316  1.0
  C  C169  1  0.22000219  0.90413660  0.67745395  1.0
  C  C170  1  0.76862664  0.09655471  0.58139534  1.0
  C  C171  1  0.20164206  0.49181486  0.26207966  1.0
  C  C172  1  0.74922316  0.58778611  0.07078535  1.0
  C  C173  1  0.24391162  0.42973236  0.91136600  1.0
  C  C174  1  0.80658219  0.23814058  0.00867019  1.0
  C  C175  1  0.78105451  0.08107989  0.32191845  1.0
  C  C176  1  0.20574387  0.17840827  0.41821242  1.0
  C  C177  1  0.79164711  0.50898946  0.75319817  1.0
  C  C178  1  0.25867875  0.41198472  0.65892893  1.0
  C  C179  1  0.73935718  0.57006595  0.33970125  1.0
  C  C180  1  0.17650267  0.76163190  0.24854208  1.0
  C  C181  1  0.23321825  0.91932428  0.40295346  1.0
  C  C182  1  0.79538964  0.82208045  0.59580630  1.0
  O  O183  1  0.26017747  0.06584501  0.45973679  1.0
  O  O184  1  0.27392138  0.96062401  0.47396586  1.0
  O  O185  1  0.26540964  0.97480588  0.56509537  1.0
  O  O186  1  0.73569358  0.04018607  0.43426129  1.0
  O  O187  1  0.73053302  0.02586242  0.53956516  1.0
  O  O188  1  0.74425215  0.93476391  0.52501828  1.0
  O  O189  1  0.29521474  0.39919822  0.79350664  1.0
  O  O190  1  0.30893103  0.29402702  0.80701590  1.0
  O  O191  1  0.30042482  0.30767501  0.89863067  1.0
  O  O192  1  0.77107607  0.37387364  0.76749555  1.0
  O  O193  1  0.76615718  0.35890680  0.87344580  1.0
  O  O194  1  0.77975511  0.26786146  0.85827183  1.0
  O  O195  1  0.22143345  0.64168385  0.23203260  1.0
  O  O196  1  0.21601665  0.73263337  0.12608432  1.0
  O  O197  1  0.22995277  0.62670195  0.14097462  1.0
  O  O198  1  0.68704006  0.69292687  0.20606194  1.0
  O  O199  1  0.70065217  0.60135726  0.19222615  1.0
  O  O200  1  0.69192279  0.70655821  0.10083742  1.0
