# generated using pymatgen
data_ZnH6C9NO3
_symmetry_space_group_name_H-M   'P 1'
_cell_length_a   6.63391248
_cell_length_b   12.34674202
_cell_length_c   14.26916960
_cell_angle_alpha   113.35300664
_cell_angle_beta   89.99912972
_cell_angle_gamma   89.99962515
_symmetry_Int_Tables_number   1
_chemical_formula_structural   ZnH6C9NO3
_chemical_formula_sum   'Zn4 H24 C36 N4 O12'
_cell_volume   1073.00405461
_cell_formula_units_Z   4
loop_
 _symmetry_equiv_pos_site_id
 _symmetry_equiv_pos_as_xyz
  1  'x, y, z'
loop_
 _atom_site_type_symbol
 _atom_site_label
 _atom_site_symmetry_multiplicity
 _atom_site_fract_x
 _atom_site_fract_y
 _atom_site_fract_z
 _atom_site_occupancy
  Zn  Zn0  1  0.25000654  0.81412533  0.01991884  1.0
  Zn  Zn1  1  0.74999566  0.18586741  0.98008124  1.0
  Zn  Zn2  1  0.24999719  0.12842408  0.02218222  1.0
  Zn  Zn3  1  0.75001255  0.87156876  0.97781579  1.0
  H  H4  1  0.94171384  0.17453957  0.11994413  1.0
  H  H5  1  0.44175136  0.82543318  0.88004583  1.0
  H  H6  1  0.05828082  0.82546296  0.88005746  1.0
  H  H7  1  0.55825385  0.17458426  0.11996336  1.0
  H  H8  1  0.25001559  0.54073070  0.88066446  1.0
  H  H9  1  0.75000169  0.45927360  0.11933779  1.0
  H  H10  1  0.25001335  0.34799414  0.90660540  1.0
  H  H11  1  0.75000995  0.65201380  0.09339538  1.0
  H  H12  1  0.25001736  0.35964699  0.08539600  1.0
  H  H13  1  0.75000444  0.64035486  0.91460043  1.0
  H  H14  1  0.25000781  0.55514465  0.22992960  1.0
  H  H15  1  0.75000043  0.44485606  0.77007272  1.0
  H  H16  1  0.24998685  0.72856053  0.34219886  1.0
  H  H17  1  0.74999425  0.27144098  0.65780585  1.0
  H  H18  1  0.25001254  0.09921978  0.39358116  1.0
  H  H19  1  0.74998665  0.90077846  0.60641604  1.0
  H  H20  1  0.24998130  0.13864407  0.54097614  1.0
  H  H21  1  0.74998322  0.86135920  0.45902923  1.0
  H  H22  1  0.24998103  0.18915346  0.72656000  1.0
  H  H23  1  0.74999253  0.81084629  0.27344407  1.0
  H  H24  1  0.24999756  0.82247105  0.67333829  1.0
  H  H25  1  0.75001067  0.17752110  0.32665457  1.0
  H  H26  1  0.24999935  0.76850075  0.48759511  1.0
  H  H27  1  0.75000436  0.23150730  0.51240291  1.0
  C  C28  1  0.25000082  0.53893171  0.95658497  1.0
  C  C29  1  0.75000892  0.46106644  0.04341431  1.0
  C  C30  1  0.25001330  0.43356767  0.97079951  1.0
  C  C31  1  0.75000849  0.56643236  0.02919765  1.0
  C  C32  1  0.25000353  0.43957181  0.07057235  1.0
  C  C33  1  0.75001374  0.56042487  0.92941937  1.0
  C  C34  1  0.25000306  0.54962369  0.15181865  1.0
  C  C35  1  0.75000216  0.45037455  0.84817856  1.0
  C  C36  1  0.24999220  0.65134292  0.13132359  1.0
  C  C37  1  0.74999945  0.34866063  0.86867487  1.0
  C  C38  1  0.24999168  0.77285812  0.21148532  1.0
  C  C39  1  0.74999846  0.22714623  0.78851554  1.0
  C  C40  1  0.24999587  0.80013556  0.31612409  1.0
  C  C41  1  0.74999277  0.19987053  0.68387811  1.0
  C  C42  1  0.24999099  0.91833277  0.38704699  1.0
  C  C43  1  0.74999162  0.08167249  0.61295351  1.0
  C  C44  1  0.25000030  0.00517962  0.34667318  1.0
  C  C45  1  0.74998532  0.99482555  0.65332939  1.0
  C  C46  1  0.25001107  0.97191539  0.24144584  1.0
  C  C47  1  0.74999113  0.02808182  0.75855449  1.0
  C  C48  1  0.25002048  0.06178923  0.19372280  1.0
  C  C49  1  0.74998925  0.93822524  0.80629301  1.0
  C  C50  1  0.24999655  0.94927059  0.49849370  1.0
  C  C51  1  0.74999208  0.05072054  0.50150228  1.0
  C  C52  1  0.24998582  0.06792279  0.56836723  1.0
  C  C53  1  0.74998774  0.93207260  0.43163383  1.0
  C  C54  1  0.24998849  0.09724176  0.67289401  1.0
  C  C55  1  0.74999110  0.90276074  0.32710827  1.0
  C  C56  1  0.24998842  0.00914294  0.71147994  1.0
  C  C57  1  0.75000022  0.99085792  0.28851893  1.0
  C  C58  1  0.24999611  0.89076629  0.64309012  1.0
  C  C59  1  0.75000458  0.10923553  0.35690701  1.0
  C  C60  1  0.24999796  0.86162504  0.53842416  1.0
  C  C61  1  0.74999519  0.13837235  0.46157203  1.0
  C  C62  1  0.24999245  0.04149646  0.82412215  1.0
  C  C63  1  0.75000674  0.95849797  0.17588066  1.0
  N  N64  1  0.25000585  0.64468931  0.03463257  1.0
  N  N65  1  0.75001293  0.35531157  0.96536561  1.0
  N  N66  1  0.25000829  0.85878415  0.17606780  1.0
  N  N67  1  0.74999391  0.14121750  0.82393346  1.0
  O  O68  1  0.25000729  0.01425286  0.09439083  1.0
  O  O69  1  0.74999189  0.98575055  0.90561108  1.0
  O  O70  1  0.25004758  0.16852297  0.24931683  1.0
  O  O71  1  0.74997271  0.83145755  0.75067594  1.0
  O  O72  1  0.24999222  0.96182902  0.85931276  1.0
  O  O73  1  0.75001903  0.03816367  0.14068870  1.0
  O  O74  1  0.24999385  0.15161326  0.88251058  1.0
  O  O75  1  0.75000534  0.84838133  0.11748809  1.0
  O  O76  1  0.98535239  0.20286093  0.06825132  1.0
  O  O77  1  0.48537052  0.79712182  0.93174763  1.0
  O  O78  1  0.01464830  0.79713458  0.93174698  1.0
  O  O79  1  0.51463017  0.20287545  0.06825132  1.0
