# generated using pymatgen
data_AlH12(C7O2)3
_symmetry_space_group_name_H-M   'P 1'
_cell_length_a   3.95766180
_cell_length_b   24.57103863
_cell_length_c   24.57186346
_cell_angle_alpha   60.00844406
_cell_angle_beta   89.99976002
_cell_angle_gamma   89.99920433
_symmetry_Int_Tables_number   1
_chemical_formula_structural   AlH12(C7O2)3
_chemical_formula_sum   'Al2 H24 C42 O12'
_cell_volume   2069.51160340
_cell_formula_units_Z   2
loop_
 _symmetry_equiv_pos_site_id
 _symmetry_equiv_pos_as_xyz
  1  'x, y, z'
loop_
 _atom_site_type_symbol
 _atom_site_label
 _atom_site_symmetry_multiplicity
 _atom_site_fract_x
 _atom_site_fract_y
 _atom_site_fract_z
 _atom_site_occupancy
  Al  Al0  1  0.00000215  0.49998597  0.00002994  1.0
  Al  Al1  1  0.00008077  0.16667829  0.66666141  1.0
  H  H2  1  0.74090696  0.33488478  0.17355589  1.0
  H  H3  1  0.72571718  0.27492345  0.29075665  1.0
  H  H4  1  0.74094735  0.33179099  0.49308189  1.0
  H  H5  1  0.72577577  0.39171251  0.37587453  1.0
  H  H6  1  0.25913263  0.17506708  0.49315521  1.0
  H  H7  1  0.27390311  0.23231108  0.37594531  1.0
  H  H8  1  0.25916789  0.49157889  0.17354241  1.0
  H  H9  1  0.27382641  0.43429783  0.29075231  1.0
  H  H10  1  0.74082148  0.49154430  0.83489635  1.0
  H  H11  1  0.72475770  0.43427052  0.77494488  1.0
  H  H12  1  0.74073593  0.17516704  0.83177020  1.0
  H  H13  1  0.72484145  0.23242258  0.89173950  1.0
  H  H14  1  0.25898428  0.33178210  0.67503717  1.0
  H  H15  1  0.27290529  0.39175977  0.73230004  1.0
  H  H16  1  0.25880711  0.33490148  0.99163142  1.0
  H  H17  1  0.27284199  0.27494240  0.93434271  1.0
  H  H18  1  0.74110817  0.67345550  0.99165377  1.0
  H  H19  1  0.72718608  0.79069663  0.93437626  1.0
  H  H20  1  0.74109775  0.99315634  0.67505236  1.0
  H  H21  1  0.72708416  0.87592067  0.73234912  1.0
  H  H22  1  0.25940672  0.99308896  0.83176046  1.0
  H  H23  1  0.27520362  0.87587032  0.89174368  1.0
  H  H24  1  0.25929595  0.67357544  0.83490590  1.0
  H  H25  1  0.27523496  0.79080639  0.77495417  1.0
  C  C26  1  0.50004094  0.59682476  0.95161868  1.0
  C  C27  1  0.49998501  0.45157456  0.09684299  1.0
  C  C28  1  0.49990907  0.45159834  0.95157505  1.0
  C  C29  1  0.50001154  0.21509892  0.56982799  1.0
  C  C30  1  0.50003695  0.21508585  0.71506962  1.0
  C  C31  1  0.50002889  0.06984493  0.71504197  1.0
  C  C32  1  0.50001589  0.41669296  0.16662370  1.0
  C  C33  1  0.49999330  0.24997428  0.50004023  1.0
  C  C34  1  0.63292509  0.35572854  0.19971232  1.0
  C  C35  1  0.62453937  0.32255668  0.26502061  1.0
  C  C36  1  0.63301385  0.31092636  0.46692773  1.0
  C  C37  1  0.62456387  0.34408778  0.40161756  1.0
  C  C38  1  0.36700759  0.22208579  0.46696854  1.0
  C  C39  1  0.37491580  0.25425510  0.40165079  1.0
  C  C40  1  0.36698847  0.44455495  0.19971551  1.0
  C  C41  1  0.37484968  0.41237868  0.26502763  1.0
  C  C42  1  0.49971627  0.35064767  0.29866786  1.0
  C  C43  1  0.49972188  0.31598757  0.36798761  1.0
  C  C44  1  0.49959045  0.41670401  0.91662932  1.0
  C  C45  1  0.49976684  0.24997817  0.74996737  1.0
  C  C46  1  0.63253223  0.44454958  0.85572657  1.0
  C  C47  1  0.62356945  0.41238343  0.82257378  1.0
  C  C48  1  0.63249582  0.22215334  0.81092957  1.0
  C  C49  1  0.62361725  0.25431447  0.84409081  1.0
  C  C50  1  0.36653035  0.31092717  0.72208352  1.0
  C  C51  1  0.37394167  0.34410992  0.75422045  1.0
  C  C52  1  0.36637037  0.35574393  0.94459171  1.0
  C  C53  1  0.37390222  0.32259146  0.91241860  1.0
  C  C54  1  0.49824296  0.35068346  0.85064696  1.0
  C  C55  1  0.49830586  0.31601600  0.81598324  1.0
  C  C56  1  0.50034384  0.66660013  0.91673853  1.0
  C  C57  1  0.50048654  0.00005802  0.74995172  1.0
  C  C58  1  0.63371850  0.69966400  0.94460639  1.0
  C  C59  1  0.62596884  0.76498442  0.91244949  1.0
  C  C60  1  0.63375204  0.96695485  0.72210812  1.0
  C  C61  1  0.62582326  0.90163418  0.75425985  1.0
  C  C62  1  0.36772735  0.96696033  0.81091451  1.0
  C  C63  1  0.37626029  0.90164429  0.84408265  1.0
  C  C64  1  0.36769419  0.69972790  0.85575098  1.0
  C  C65  1  0.37634312  0.76504771  0.82259318  1.0
  C  C66  1  0.50183178  0.79865651  0.85068007  1.0
  C  C67  1  0.50181127  0.86798783  0.81604095  1.0
  O  O68  1  0.26503043  0.43921581  0.99178433  1.0
  O  O69  1  0.26498957  0.56906135  0.93920118  1.0
  O  O70  1  0.26501901  0.49176521  0.06903641  1.0
  O  O71  1  0.73510679  0.49174101  0.93921582  1.0
  O  O72  1  0.73507438  0.43920907  0.06905007  1.0
  O  O73  1  0.73504404  0.56899077  0.99179030  1.0
  O  O74  1  0.26507042  0.09763180  0.72745415  1.0
  O  O75  1  0.26512436  0.17490027  0.59763112  1.0
  O  O76  1  0.26517359  0.22745093  0.67487335  1.0
  O  O77  1  0.73512155  0.09764519  0.67488317  1.0
  O  O78  1  0.73514218  0.17493267  0.72744733  1.0
  O  O79  1  0.73510889  0.22747291  0.59761683  1.0
