# generated using pymatgen
data_Hf3H18(C15O8)2
_symmetry_space_group_name_H-M   'P 1'
_cell_length_a   17.33230966
_cell_length_b   17.34696427
_cell_length_c   18.40770319
_cell_angle_alpha   89.82451554
_cell_angle_beta   89.79151977
_cell_angle_gamma   109.67712254
_symmetry_Int_Tables_number   1
_chemical_formula_structural   Hf3H18(C15O8)2
_chemical_formula_sum   'Hf6 H36 C60 O32'
_cell_volume   5211.23832734
_cell_formula_units_Z   2
loop_
 _symmetry_equiv_pos_site_id
 _symmetry_equiv_pos_as_xyz
  1  'x, y, z'
loop_
 _atom_site_type_symbol
 _atom_site_label
 _atom_site_symmetry_multiplicity
 _atom_site_fract_x
 _atom_site_fract_y
 _atom_site_fract_z
 _atom_site_occupancy
  Hf  Hf0  1  0.88345454  0.89585730  0.09015633  1.0
  Hf  Hf1  1  0.89396294  0.90769899  0.89827865  1.0
  Hf  Hf2  1  0.05879283  0.07256545  0.10071283  1.0
  Hf  Hf3  1  0.07098805  0.08245330  0.90935722  1.0
  Hf  Hf4  1  0.06444457  0.90271531  0.99985522  1.0
  Hf  Hf5  1  0.88925134  0.07677214  0.99960902  1.0
  H  H6  1  0.76713556  0.91521841  0.99440344  1.0
  H  H7  1  0.05238550  0.92809648  0.84730227  1.0
  H  H8  1  0.05069440  0.19900177  0.00435810  1.0
  H  H9  1  0.04169453  0.91753626  0.15220903  1.0
  H  H10  1  0.92574936  0.88792903  0.75611098  1.0
  H  H11  1  0.99288027  0.00638487  0.78239212  1.0
  H  H12  1  0.22211016  0.18895179  0.91570382  1.0
  H  H13  1  0.17713359  0.18763342  0.01784599  1.0
  H  H14  1  0.02547891  0.08707435  0.23948931  1.0
  H  H15  1  0.95873240  0.97191651  0.21694671  1.0
  H  H16  1  0.78048372  0.74253870  0.08212357  1.0
  H  H17  1  0.78092331  0.78821944  0.98165251  1.0
  H  H18  1  0.21780253  0.16990711  0.09421924  1.0
  H  H19  1  0.91424813  0.87352907  0.23735165  1.0
  H  H20  1  0.79733329  0.74786771  0.90406774  1.0
  H  H21  1  0.03193461  0.10586127  0.77038776  1.0
  H  H22  1  0.60128195  0.99213936  0.33260096  1.0
  H  H23  1  0.35148015  0.98953157  0.33102939  1.0
  H  H24  1  0.47858787  0.99027472  0.12908396  1.0
  H  H25  1  0.60343597  0.99580625  0.66390077  1.0
  H  H26  1  0.35345275  0.99247759  0.66991228  1.0
  H  H27  1  0.48458001  0.99788098  0.86955302  1.0
  H  H28  1  0.96984782  0.48220251  0.12987398  1.0
  H  H29  1  0.96724274  0.61067027  0.32968470  1.0
  H  H30  1  0.97174902  0.36368380  0.33572375  1.0
  H  H31  1  0.97566077  0.48772245  0.86998483  1.0
  H  H32  1  0.97024873  0.61327726  0.66845115  1.0
  H  H33  1  0.97213302  0.36530425  0.66592767  1.0
  H  H34  1  0.88995994  0.36355815  0.56807356  1.0
  H  H35  1  0.04876387  0.61541344  0.56556521  1.0
  H  H36  1  0.04823092  0.61465335  0.43171688  1.0
  H  H37  1  0.88950166  0.36278043  0.43430544  1.0
  H  H38  1  0.55260251  0.91623102  0.56651909  1.0
  H  H39  1  0.39987629  0.06754165  0.56588658  1.0
  H  H40  1  0.39928875  0.06635163  0.43227265  1.0
  H  H41  1  0.55203394  0.91505254  0.43299525  1.0
  C  C42  1  0.97138907  0.75901965  0.11455322  1.0
  C  C43  1  0.76045928  0.99884147  0.87373905  1.0
  C  C44  1  0.98001747  0.76598789  0.88016708  1.0
  C  C45  1  0.75372371  0.99109654  0.11919004  1.0
  C  C46  1  0.96784339  0.20570618  0.12690788  1.0
  C  C47  1  0.20865822  0.99587047  0.88699792  1.0
  C  C48  1  0.97416090  0.21244497  0.87861652  1.0
  C  C49  1  0.20140632  0.98790734  0.11840758  1.0
  C  C50  1  0.54770836  0.99078449  0.22706285  1.0
  C  C51  1  0.54617325  0.99056899  0.30348960  1.0
  C  C52  1  0.47624085  0.99068807  0.34191044  1.0
  C  C53  1  0.40717075  0.99087456  0.30261197  1.0
  C  C54  1  0.40747397  0.99046384  0.22613165  1.0
  C  C55  1  0.47797471  0.99047754  0.18824428  1.0
  C  C56  1  0.55193569  0.99656213  0.77040769  1.0
  C  C57  1  0.54888365  0.99471657  0.69405607  1.0
  C  C58  1  0.47812380  0.99373565  0.65689573  1.0
  C  C59  1  0.40971545  0.99458203  0.69736593  1.0
  C  C60  1  0.41151352  0.99582277  0.77383402  1.0
  C  C61  1  0.48285424  0.99684399  0.81042471  1.0
  C  C62  1  0.96917784  0.41436504  0.22913053  1.0
  C  C63  1  0.96972081  0.48360075  0.18901861  1.0
  C  C64  1  0.97006662  0.55469333  0.22562715  1.0
  C  C65  1  0.96921816  0.55586093  0.30210984  1.0
  C  C66  1  0.96933938  0.48735567  0.34259085  1.0
  C  C67  1  0.96977148  0.41708195  0.30551310  1.0
  C  C68  1  0.97230676  0.41803078  0.77177410  1.0
  C  C69  1  0.97425425  0.48810511  0.81084508  1.0
  C  C70  1  0.97450248  0.55874048  0.77317052  1.0
  C  C71  1  0.97213218  0.55866437  0.69672278  1.0
  C  C72  1  0.97085158  0.48930191  0.65725277  1.0
  C  C73  1  0.97126383  0.41939400  0.69536869  1.0
  C  C74  1  0.92578209  0.41856644  0.53840588  1.0
  C  C75  1  0.96952609  0.48950453  0.57698786  1.0
  C  C76  1  0.01251390  0.56014956  0.53700444  1.0
  C  C77  1  0.01222453  0.55972166  0.46140775  1.0
  C  C78  1  0.96895450  0.48861353  0.42286262  1.0
  C  C79  1  0.92551718  0.41812597  0.46287162  1.0
  C  C80  1  0.51969350  0.95029955  0.53735368  1.0
  C  C81  1  0.47641174  0.99211330  0.57659470  1.0
  C  C82  1  0.43235805  0.03280435  0.53704523  1.0
  C  C83  1  0.43202790  0.03212527  0.46144230  1.0
  C  C84  1  0.47570357  0.99072517  0.42222571  1.0
  C  C85  1  0.51935413  0.94961392  0.46180294  1.0
  C  C86  1  0.34144193  0.99585343  0.81400808  1.0
  C  C87  1  0.28140961  0.99607028  0.84849335  1.0
  C  C88  1  0.62474635  0.99832923  0.80639515  1.0
  C  C89  1  0.68767347  0.99955310  0.83631159  1.0
  C  C90  1  0.33646379  0.98966326  0.18755862  1.0
  C  C91  1  0.27520057  0.98894853  0.15496976  1.0
  C  C92  1  0.68162735  0.99208703  0.15805540  1.0
  C  C93  1  0.61961745  0.99156131  0.18960948  1.0
  C  C94  1  0.97257135  0.28421986  0.83977343  1.0
  C  C95  1  0.97246388  0.34628389  0.80879526  1.0
  C  C96  1  0.97652289  0.63002801  0.81179138  1.0
  C  C97  1  0.97861558  0.69185718  0.84409721  1.0
  C  C98  1  0.96762319  0.27863869  0.16420092  1.0
  C  C99  1  0.96857302  0.34181639  0.19343350  1.0
  C  C100  1  0.97039053  0.62503214  0.18586600  1.0
  C  C101  1  0.97091862  0.68587475  0.15235327  1.0
  O  O102  1  0.91345884  0.78637684  0.13117164  1.0
  O  O103  1  0.02925666  0.79021749  0.06934571  1.0
  O  O104  1  0.78951957  0.94330771  0.85588352  1.0
  O  O105  1  0.78811442  0.05362895  0.92237586  1.0
  O  O106  1  0.92339000  0.79440268  0.86239502  1.0
  O  O107  1  0.03754088  0.79693035  0.92529855  1.0
  O  O108  1  0.78130861  0.93395973  0.13501974  1.0
  O  O109  1  0.78222069  0.04742204  0.07147549  1.0
  O  O110  1  0.78220816  0.79383188  0.05966184  1.0
  O  O111  1  0.90531788  0.91821631  0.21071550  1.0
  O  O112  1  0.78662562  0.79543634  0.92355294  1.0
  O  O113  1  0.92115757  0.93144458  0.78690760  1.0
  O  O114  1  0.94099249  0.87966641  0.99598860  1.0
  O  O115  1  0.82659677  0.93655337  0.99500304  1.0
  O  O116  1  0.02194879  0.17485844  0.14643483  1.0
  O  O117  1  0.91479376  0.17959178  0.07701568  1.0
  O  O118  1  0.18243362  0.05481286  0.87256629  1.0
  O  O119  1  0.17658159  0.93659290  0.93090892  1.0
  O  O120  1  0.02961122  0.18294794  0.86016985  1.0
  O  O121  1  0.92068678  0.18592631  0.92868386  1.0
  O  O122  1  0.17420281  0.04581951  0.13382918  1.0
  O  O123  1  0.16941172  0.92875534  0.07483883  1.0
  O  O124  1  0.17042398  0.18173688  0.07549912  1.0
  O  O125  1  0.03253773  0.04225232  0.21181159  1.0
  O  O126  1  0.17059449  0.18641671  0.93837233  1.0
  O  O127  1  0.04570076  0.05953624  0.78921629  1.0
  O  O128  1  0.02954098  0.13957265  0.00425155  1.0
  O  O129  1  0.08682656  0.02574455  0.00341060  1.0
  O  O130  1  0.93612306  0.02235007  0.07877498  1.0
  O  O131  1  0.03216582  0.94597139  0.89104802  1.0
  O  O132  1  0.02203506  0.93634553  0.10866958  1.0
  O  O133  1  0.94355885  0.02987493  0.92001760  1.0
