# generated using pymatgen
data_ZnH9C22SNO11
_symmetry_space_group_name_H-M   'P 1'
_cell_length_a   13.74023373
_cell_length_b   14.01163320
_cell_length_c   14.98905941
_cell_angle_alpha   83.74939132
_cell_angle_beta   86.21154689
_cell_angle_gamma   82.91654457
_symmetry_Int_Tables_number   1
_chemical_formula_structural   ZnH9C22SNO11
_chemical_formula_sum   'Zn2 H18 C44 S2 N2 O22'
_cell_volume   2842.63408058
_cell_formula_units_Z   2
loop_
 _symmetry_equiv_pos_site_id
 _symmetry_equiv_pos_as_xyz
  1  'x, y, z'
loop_
 _atom_site_type_symbol
 _atom_site_label
 _atom_site_symmetry_multiplicity
 _atom_site_fract_x
 _atom_site_fract_y
 _atom_site_fract_z
 _atom_site_occupancy
  Zn  Zn0  1  0.50390331  0.39151293  0.53111012  1.0
  Zn  Zn1  1  0.52496555  0.60098718  0.48043739  1.0
  H  H2  1  0.04617001  0.39853477  0.52289898  1.0
  H  H3  1  0.73276382  0.93623012  0.37456831  1.0
  H  H4  1  0.31117962  0.88214484  0.62950345  1.0
  H  H5  1  0.71668233  0.10804862  0.40271612  1.0
  H  H6  1  0.70223589  0.19555469  0.21508292  1.0
  H  H7  1  0.19727255  0.62131895  0.77972929  1.0
  H  H8  1  0.26206227  0.82289294  0.87845173  1.0
  H  H9  1  0.86361645  0.37208111  0.15621881  1.0
  H  H10  1  0.30313023  0.39048712  0.54155498  1.0
  H  H11  1  0.63299594  0.79510148  0.23348092  1.0
  H  H12  1  0.98224409  0.60460296  0.43358292  1.0
  H  H13  1  0.38156513  0.55922649  0.24593613  1.0
  H  H14  1  0.63878046  0.44334972  0.76979685  1.0
  H  H15  1  0.29934947  0.63526944  0.11152646  1.0
  H  H16  1  0.73315014  0.39120633  0.90331636  1.0
  H  H17  1  0.62317722  0.24789311  0.47052881  1.0
  H  H18  1  0.40390372  0.74232389  0.55835367  1.0
  H  H19  1  0.29130916  0.05622517  0.65169592  1.0
  C  C20  1  0.49901253  0.52386787  0.67073007  1.0
  C  C21  1  0.67492571  0.40068313  0.03718198  1.0
  C  C22  1  0.56854462  0.20079435  0.49791688  1.0
  C  C23  1  0.45522705  0.79089460  0.52725041  1.0
  C  C24  1  0.41903514  0.18830273  0.58005170  1.0
  C  C25  1  0.59691235  0.80835838  0.43629333  1.0
  C  C26  1  0.42376900  0.08788485  0.57196783  1.0
  C  C27  1  0.59662849  0.90641277  0.45075065  1.0
  C  C28  1  0.50648748  0.04601831  0.52033372  1.0
  C  C29  1  0.51599884  0.94693760  0.50520651  1.0
  C  C30  1  0.57954429  0.10347517  0.48243231  1.0
  C  C31  1  0.51222904  0.45345760  0.34439367  1.0
  C  C32  1  0.44422592  0.88817666  0.54393062  1.0
  C  C33  1  0.35319592  0.02541534  0.61109139  1.0
  C  C34  1  0.66974025  0.96686601  0.41408815  1.0
  C  C35  1  0.70042955  0.45917686  0.50977830  1.0
  C  C36  1  0.32191753  0.55130387  0.48514325  1.0
  C  C37  1  0.36388885  0.92946123  0.59822586  1.0
  C  C38  1  0.66130984  0.06174595  0.42999432  1.0
  C  C39  1  0.21921435  0.55853311  0.47036993  1.0
  C  C40  1  0.80651776  0.44669933  0.50394264  1.0
  C  C41  1  0.03198456  0.54326119  0.46147162  1.0
  C  C42  1  0.51241891  0.49472125  0.05446920  1.0
  C  C43  1  0.99558375  0.45953523  0.49549481  1.0
  C  C44  1  0.89508294  0.45003072  0.49869230  1.0
  C  C45  1  0.13201316  0.55284436  0.46392307  1.0
  C  C46  1  0.58428635  0.40671470  0.18981503  1.0
  C  C47  1  0.42430270  0.58096780  0.82226709  1.0
  C  C48  1  0.51160087  0.45695498  0.24345461  1.0
  C  C49  1  0.50023961  0.53263200  0.77016130  1.0
  C  C50  1  0.43753311  0.52091222  0.20357583  1.0
  C  C51  1  0.58107710  0.48040517  0.81122809  1.0
  C  C52  1  0.43389038  0.53651905  0.10999992  1.0
  C  C53  1  0.50904399  0.51461716  0.95911604  1.0
  C  C54  1  0.58680004  0.47031200  0.90439168  1.0
  C  C55  1  0.64678320  0.32300839  0.23466401  1.0
  C  C56  1  0.33436300  0.62842610  0.77606189  1.0
  C  C57  1  0.27832681  0.70313721  0.95044949  1.0
  C  C58  1  0.77403582  0.36003089  0.06825939  1.0
  C  C59  1  0.59152785  0.43231576  0.09528003  1.0
  C  C60  1  0.42853521  0.57469005  0.91760796  1.0
  C  C61  1  0.35700533  0.59982498  0.06875773  1.0
  C  C62  1  0.66986857  0.41705440  0.94571839  1.0
  C  C63  1  0.35496119  0.62175822  0.97739878  1.0
  S  S64  1  0.31661600  0.25891480  0.63597888  1.0
  S  S65  1  0.69078918  0.75273699  0.36216200  1.0
  N  N66  1  0.49060807  0.24126210  0.54500212  1.0
  N  N67  1  0.52907776  0.75261237  0.47387478  1.0
  O  O68  1  0.51502657  0.43698958  0.65106132  1.0
  O  O69  1  0.66048547  0.24762350  0.18228888  1.0
  O  O70  1  0.33046656  0.69220340  0.71378337  1.0
  O  O71  1  0.25342615  0.58806636  0.81230994  1.0
  O  O72  1  0.19425983  0.71341248  0.98266915  1.0
  O  O73  1  0.31596055  0.77118215  0.89024982  1.0
  O  O74  1  0.83189863  0.30273124  0.02996060  1.0
  O  O75  1  0.79700300  0.40061003  0.14185457  1.0
  O  O76  1  0.24600404  0.19561991  0.67265185  1.0
  O  O77  1  0.36036306  0.31562586  0.69347476  1.0
  O  O78  1  0.27082890  0.32360517  0.55481888  1.0
  O  O79  1  0.53379876  0.53196819  0.36845349  1.0
  O  O80  1  0.78472814  0.76752389  0.39092160  1.0
  O  O81  1  0.66624859  0.66005056  0.34561020  1.0
  O  O82  1  0.67542359  0.82430958  0.27021282  1.0
  O  O83  1  0.48724773  0.59921868  0.61621812  1.0
  O  O84  1  0.48775187  0.38127646  0.39522318  1.0
  O  O85  1  0.65516744  0.38524707  0.50953726  1.0
  O  O86  1  0.37046959  0.62098435  0.45997618  1.0
  O  O87  1  0.66264139  0.54615171  0.51534247  1.0
  O  O88  1  0.35824316  0.46902420  0.52549332  1.0
  O  O89  1  0.67785363  0.31642756  0.30976059  1.0
