# generated using pymatgen
data_Zn4H16C32O13F2
_symmetry_space_group_name_H-M   'P 1'
_cell_length_a   13.07829485
_cell_length_b   13.25027989
_cell_length_c   18.08713663
_cell_angle_alpha   68.89287634
_cell_angle_beta   72.38157666
_cell_angle_gamma   88.78486715
_symmetry_Int_Tables_number   1
_chemical_formula_structural   Zn4H16C32O13F2
_chemical_formula_sum   'Zn4 H16 C32 O13 F2'
_cell_volume   2773.27740053
_cell_formula_units_Z   1
loop_
 _symmetry_equiv_pos_site_id
 _symmetry_equiv_pos_as_xyz
  1  'x, y, z'
loop_
 _atom_site_type_symbol
 _atom_site_label
 _atom_site_symmetry_multiplicity
 _atom_site_fract_x
 _atom_site_fract_y
 _atom_site_fract_z
 _atom_site_occupancy
  Zn  Zn0  1  0.41612706  0.44688808  0.44520858  1.0
  Zn  Zn1  1  0.55339905  0.38163612  0.57234904  1.0
  Zn  Zn2  1  0.40969182  0.56990093  0.57375403  1.0
  Zn  Zn3  1  0.60973977  0.61173989  0.40707446  1.0
  H  H4  1  0.67400519  0.75787599  0.87994785  1.0
  H  H5  1  0.37377655  0.23900062  0.84411387  1.0
  H  H6  1  0.34830540  0.24211954  0.11250248  1.0
  H  H7  1  0.71445732  0.79125713  0.99336936  1.0
  H  H8  1  0.68678089  0.74043533  0.14573469  1.0
  H  H9  1  0.46728730  0.46757374  0.20382370  1.0
  H  H10  1  0.58764334  0.64487284  0.83054987  1.0
  H  H11  1  0.41511952  0.36617900  0.16358998  1.0
  H  H12  1  0.33695931  0.19262684  0.99705773  1.0
  H  H13  1  0.09894164  0.49395426  0.45616489  1.0
  H  H14  1  0.94437525  0.52083943  0.40782413  1.0
  H  H15  1  0.05231176  0.48643451  0.63613685  1.0
  H  H16  1  0.42839614  0.89477103  0.55569412  1.0
  H  H17  1  0.43782277  0.04682550  0.60031564  1.0
  H  H18  1  0.53884169  0.96011967  0.36572781  1.0
  H  H19  1  0.51004784  0.55776981  0.79226293  1.0
  C  C20  1  0.77316798  0.49560833  0.48057710  1.0
  C  C21  1  0.42995639  0.39003473  0.09674156  1.0
  C  C22  1  0.39232669  0.32020465  0.06845052  1.0
  C  C23  1  0.21628402  0.49909502  0.55004421  1.0
  C  C24  1  0.41047076  0.34671684  0.98159669  1.0
  C  C25  1  0.46495213  0.45041342  0.92353987  1.0
  C  C26  1  0.37708220  0.27185986  0.95186745  1.0
  C  C27  1  0.39609610  0.29733089  0.86770215  1.0
  C  C28  1  0.47516933  0.47758793  0.83841233  1.0
  C  C29  1  0.09718473  0.48896752  0.57391331  1.0
  C  C30  1  0.04848056  0.48776863  0.51828570  1.0
  C  C31  1  0.64560576  0.69247196  0.12346319  1.0
  C  C32  1  0.88942815  0.49675154  0.47141948  1.0
  C  C33  1  0.93401462  0.48021985  0.53262659  1.0
  C  C34  1  0.50116111  0.90879258  0.43112678  1.0
  C  C35  1  0.46146703  0.22127261  0.52483110  1.0
  C  C36  1  0.46114263  0.95046568  0.49075247  1.0
  C  C37  1  0.44910239  0.10501913  0.53727130  1.0
  C  C38  1  0.46257834  0.06474936  0.47657806  1.0
  C  C39  1  0.50417464  0.78986212  0.45382666  1.0
  C  C40  1  0.45812162  0.43196939  0.72024868  1.0
  C  C41  1  0.55215040  0.57342155  0.27353607  1.0
  C  C42  1  0.52178180  0.53688754  0.15589957  1.0
  C  C43  1  0.57349187  0.60115962  0.18243410  1.0
  C  C44  1  0.44279660  0.40252003  0.81067631  1.0
  C  C45  1  0.66084034  0.71966949  0.03955885  1.0
  C  C46  1  0.53911884  0.56021964  0.07027902  1.0
  C  C47  1  0.60800867  0.65578517  0.01115535  1.0
  C  C48  1  0.49121125  0.49103505  0.04059786  1.0
  C  C49  1  0.50872764  0.52176940  0.95365795  1.0
  C  C50  1  0.57369088  0.62059325  0.89733396  1.0
  C  C51  1  0.62245593  0.68419752  0.92463828  1.0
  O  O52  1  0.49891541  0.50278290  0.49853720  1.0
  O  O53  1  0.48083704  0.35643969  0.69126025  1.0
  O  O54  1  0.61661179  0.61987414  0.29497708  1.0
  O  O55  1  0.44704571  0.53005896  0.67795676  1.0
  O  O56  1  0.47053179  0.50536638  0.32329077  1.0
  O  O57  1  0.41777353  0.28823150  0.47574206  1.0
  O  O58  1  0.57515245  0.75960266  0.40177208  1.0
  O  O59  1  0.70877121  0.42120798  0.54361599  1.0
  O  O60  1  0.25681671  0.52202717  0.59899603  1.0
  O  O61  1  0.74991835  0.57060924  0.42167168  1.0
  O  O62  1  0.26848269  0.48538521  0.48264323  1.0
  O  O63  1  0.51557066  0.24240321  0.56663192  1.0
  O  O64  1  0.43741627  0.72854497  0.52332495  1.0
  F  F65  1  0.87115518  0.45904350  0.61258928  1.0
  F  F66  1  0.48615806  0.13279179  0.39537817  1.0
