# generated using pymatgen
data_Zn4H10C22O13
_symmetry_space_group_name_H-M   'P 1'
_cell_length_a   10.96532955
_cell_length_b   10.98208220
_cell_length_c   16.14073965
_cell_angle_alpha   98.24307420
_cell_angle_beta   91.03075437
_cell_angle_gamma   79.85786399
_symmetry_Int_Tables_number   1
_chemical_formula_structural   Zn4H10C22O13
_chemical_formula_sum   'Zn4 H10 C22 O13'
_cell_volume   1893.51049261
_cell_formula_units_Z   1
loop_
 _symmetry_equiv_pos_site_id
 _symmetry_equiv_pos_as_xyz
  1  'x, y, z'
loop_
 _atom_site_type_symbol
 _atom_site_label
 _atom_site_symmetry_multiplicity
 _atom_site_fract_x
 _atom_site_fract_y
 _atom_site_fract_z
 _atom_site_occupancy
  Zn  Zn0  1  0.40908468  0.40931345  0.56804514  1.0
  Zn  Zn1  1  0.38162462  0.60904281  0.43863014  1.0
  Zn  Zn2  1  0.61214874  0.37491852  0.42161021  1.0
  Zn  Zn3  1  0.59781211  0.60024944  0.57501864  1.0
  H  H4  1  0.59412368  0.59198044  0.01141678  1.0
  H  H5  1  0.90363845  0.74727401  0.44991610  1.0
  H  H6  1  0.40912496  0.40751015  0.98973398  1.0
  H  H7  1  0.59879571  0.97016173  0.42394621  1.0
  H  H8  1  0.40796569  0.03040659  0.56938899  1.0
  H  H9  1  0.01953830  0.37502799  0.45050646  1.0
  H  H10  1  0.02852500  0.63357958  0.68604336  1.0
  H  H11  1  0.93169836  0.84185761  0.75964762  1.0
  H  H12  1  0.82025148  0.00348728  0.67847892  1.0
  H  H13  1  0.80780564  0.95652950  0.52329751  1.0
  C  C14  1  0.47617327  0.83371222  0.51598112  1.0
  C  C15  1  0.16715308  0.53311535  0.51199515  1.0
  C  C16  1  0.83242612  0.46800021  0.48905146  1.0
  C  C17  1  0.48522021  0.47928330  0.27580819  1.0
  C  C18  1  0.51163439  0.51852650  0.72617455  1.0
  C  C19  1  0.48058508  0.47324621  0.18589173  1.0
  C  C20  1  0.46978899  0.46700395  0.02294825  1.0
  C  C21  1  0.53340201  0.53237925  0.97851515  1.0
  C  C22  1  0.97061989  0.67714310  0.56345489  1.0
  C  C23  1  0.98051689  0.70484962  0.65056424  1.0
  C  C24  1  0.92579315  0.82176122  0.69169253  1.0
  C  C25  1  0.52465361  0.52692866  0.89135062  1.0
  C  C26  1  0.86323298  0.91234747  0.64619588  1.0
  C  C27  1  0.85584243  0.88584447  0.55917225  1.0
  C  C28  1  0.90920770  0.76878573  0.51782107  1.0
  C  C29  1  0.47660109  0.47106271  0.11007252  1.0
  C  C30  1  0.51867270  0.52378739  0.81550509  1.0
  C  C31  1  0.53559860  0.02461703  0.47239525  1.0
  C  C32  1  0.46971472  0.97150130  0.52148758  1.0
  C  C33  1  0.96834019  0.46096360  0.48498094  1.0
  C  C34  1  0.02819292  0.55253923  0.51964197  1.0
  C  C35  1  0.52656963  0.16212825  0.48147045  1.0
  O  O36  1  0.49971586  0.49824042  0.49923886  1.0
  O  O37  1  0.40497637  0.56376658  0.31663959  1.0
  O  O38  1  0.57699265  0.58476129  0.69329780  1.0
  O  O39  1  0.56842514  0.40041322  0.30456737  1.0
  O  O40  1  0.44072809  0.44801342  0.68839284  1.0
  O  O41  1  0.22833905  0.45271432  0.55319592  1.0
  O  O42  1  0.77227984  0.54709098  0.54591352  1.0
  O  O43  1  0.40466957  0.78473140  0.46336919  1.0
  O  O44  1  0.59526237  0.20239321  0.43210160  1.0
  O  O45  1  0.55114580  0.77957269  0.56570325  1.0
  O  O46  1  0.45217772  0.22840042  0.53707434  1.0
  O  O47  1  0.20939778  0.60154258  0.46620187  1.0
  O  O48  1  0.78698671  0.39102264  0.43508270  1.0
