# generated using pymatgen
data_Zn2H27C52N2Cl5O8
_symmetry_space_group_name_H-M   'P 1'
_cell_length_a   13.47025347
_cell_length_b   18.02172403
_cell_length_c   19.65501581
_cell_angle_alpha   90.58671817
_cell_angle_beta   90.69316984
_cell_angle_gamma   110.95547377
_symmetry_Int_Tables_number   1
_chemical_formula_structural   Zn2H27C52N2Cl5O8
_chemical_formula_sum   'Zn2 H27 C52 N2 Cl5 O8'
_cell_volume   4454.94156249
_cell_formula_units_Z   1
loop_
 _symmetry_equiv_pos_site_id
 _symmetry_equiv_pos_as_xyz
  1  'x, y, z'
loop_
 _atom_site_type_symbol
 _atom_site_label
 _atom_site_symmetry_multiplicity
 _atom_site_fract_x
 _atom_site_fract_y
 _atom_site_fract_z
 _atom_site_occupancy
  Zn  Zn0  1  0.93442127  0.42212254  0.50048770  1.0
  Zn  Zn1  1  0.06690841  0.57905767  0.50239995  1.0
  H  H2  1  0.82740240  0.68328336  0.42998447  1.0
  H  H3  1  0.12491111  0.60703992  0.15701255  1.0
  H  H4  1  0.02501578  0.38447189  0.93678162  1.0
  H  H5  1  0.99069697  0.61303623  0.93919450  1.0
  H  H6  1  0.10386102  0.62451122  0.84670548  1.0
  H  H7  1  0.91551764  0.37600945  0.71494392  1.0
  H  H8  1  0.46411394  0.65793461  0.39327457  1.0
  H  H9  1  0.91456874  0.37453210  0.84177402  1.0
  H  H10  1  0.71421967  0.34786013  0.44319603  1.0
  H  H11  1  0.91057622  0.26680791  0.56145195  1.0
  H  H12  1  0.54288969  0.07781748  0.60839824  1.0
  H  H13  1  0.40887631  0.94108615  0.60543168  1.0
  H  H14  1  0.45857301  0.92341893  0.39061183  1.0
  H  H15  1  0.59278179  0.06008618  0.39360640  1.0
  H  H16  1  0.65943091  0.70490333  0.39830326  1.0
  H  H17  1  0.29143981  0.65277656  0.55473108  1.0
  H  H18  1  0.64744869  0.45696904  0.51136817  1.0
  H  H19  1  0.50763740  0.37197374  0.52177254  1.0
  H  H20  1  0.12709674  0.61062933  0.28431663  1.0
  H  H21  1  0.86801289  0.38675617  0.28440209  1.0
  H  H22  1  0.01595170  0.38098172  0.06222209  1.0
  H  H23  1  0.98445750  0.61031088  0.06505909  1.0
  H  H24  1  0.10027788  0.62509803  0.71975194  1.0
  H  H25  1  0.08832810  0.73419242  0.44335424  1.0
  H  H26  1  0.16955753  0.31070670  0.53712173  1.0
  H  H27  1  0.33251486  0.27503910  0.55044393  1.0
  H  H28  1  0.29024842  0.56197032  0.42622318  1.0
  C  C29  1  0.00521118  0.50103699  0.63361713  1.0
  C  C30  1  0.44761992  0.46181328  0.48617254  1.0
  C  C31  1  0.35392192  0.47995116  0.47463249  1.0
  C  C32  1  0.55072865  0.52063781  0.46996143  1.0
  C  C33  1  0.55612112  0.59265822  0.43779845  1.0
  C  C34  1  0.45937121  0.60457199  0.42102900  1.0
  C  C35  1  0.36276777  0.55136729  0.43927613  1.0
  C  C36  1  0.64687223  0.51028628  0.48622072  1.0
  C  C37  1  0.74980411  0.63891526  0.44067591  1.0
  C  C38  1  0.25422034  0.42503846  0.49641530  1.0
  C  C39  1  0.07003115  0.56116500  0.25590756  1.0
  C  C40  1  0.15664579  0.44665562  0.49816509  1.0
  C  C41  1  0.06806229  0.55892038  0.18517025  1.0
  C  C42  1  0.99592643  0.49476106  0.14780857  1.0
  C  C43  1  0.92372156  0.43293160  0.18529237  1.0
  C  C44  1  0.92469665  0.43465365  0.25616347  1.0
  C  C45  1  0.99834853  0.49855907  0.29193108  1.0
  C  C46  1  0.00960037  0.43170044  0.03527835  1.0
  C  C47  1  0.01419699  0.43360337  0.96464404  1.0
  C  C48  1  0.00768043  0.49874077  0.92855338  1.0
  C  C49  1  0.99816762  0.56258650  0.96608295  1.0
  C  C50  1  0.99416342  0.56093842  0.03684513  1.0
  C  C51  1  0.99957140  0.49942630  0.36819207  1.0
  C  C52  1  0.99887205  0.49519407  0.07260891  1.0
  C  C53  1  0.06100864  0.56998226  0.81806543  1.0
  C  C54  1  0.06010884  0.57061424  0.74726944  1.0
  C  C55  1  0.00768366  0.50061764  0.70978588  1.0
  C  C56  1  0.95665070  0.42996990  0.74457244  1.0
  C  C57  1  0.95722200  0.42942875  0.81531351  1.0
  C  C58  1  0.00913781  0.49948380  0.85344629  1.0
  C  C59  1  0.72400256  0.29766161  0.46910912  1.0
  C  C60  1  0.64359107  0.22284181  0.46894655  1.0
  C  C61  1  0.65842989  0.15888175  0.50268076  1.0
  C  C62  1  0.84365105  0.55171101  0.49025166  1.0
  C  C63  1  0.75669518  0.17628328  0.53705496  1.0
  C  C64  1  0.83383234  0.25239554  0.53556641  1.0
  C  C65  1  0.52458391  0.04391886  0.56068571  1.0
  C  C66  1  0.44934374  0.96716534  0.55901353  1.0
  C  C67  1  0.42501772  0.92325032  0.49786656  1.0
  C  C68  1  0.47699572  0.95724201  0.43835651  1.0
  C  C69  1  0.55229115  0.03400668  0.44002138  1.0
  C  C70  1  0.57670756  0.07786145  0.50119692  1.0
  C  C71  1  0.24380631  0.82460757  0.46440457  1.0
  C  C72  1  0.16660631  0.74861752  0.46717467  1.0
  C  C73  1  0.65671925  0.65043196  0.42335593  1.0
  C  C74  1  0.27990063  0.70322890  0.53036006  1.0
  C  C75  1  0.36011522  0.77815452  0.52950271  1.0
  C  C76  1  0.34354902  0.84206956  0.49683223  1.0
  C  C77  1  0.74502953  0.56790058  0.47250725  1.0
  C  C78  1  0.24718145  0.35186550  0.52211702  1.0
  C  C79  1  0.33870655  0.33259183  0.53010473  1.0
  C  C80  1  0.43717763  0.38726675  0.51368054  1.0
  N  N81  1  0.81684838  0.31090609  0.50166690  1.0
  N  N82  1  0.18524632  0.69011101  0.50015897  1.0
  Cl  Cl83  1  0.82679777  0.35314728  0.14428558  1.0
  Cl  Cl84  1  0.52519934  0.21133543  0.42776490  1.0
  Cl  Cl85  1  0.78626754  0.10392958  0.58040267  1.0
  Cl  Cl86  1  0.21270645  0.89691812  0.42201519  1.0
  Cl  Cl87  1  0.48031834  0.79004040  0.56825278  1.0
  O  O88  1  0.96589823  0.43375230  0.60307396  1.0
  O  O89  1  0.04222873  0.56839758  0.60487365  1.0
  O  O90  1  0.06674924  0.39183446  0.48679174  1.0
  O  O91  1  0.17099235  0.51862480  0.51383997  1.0
  O  O92  1  0.92940481  0.44171507  0.39736103  1.0
  O  O93  1  0.07062112  0.55776577  0.39820857  1.0
  O  O94  1  0.83063004  0.48216822  0.51122406  1.0
  O  O95  1  0.93364166  0.60713325  0.48247289  1.0
