# generated using pymatgen
data_CuH3C5N2
_symmetry_space_group_name_H-M   'P 1'
_cell_length_a   17.95675613
_cell_length_b   18.01983460
_cell_length_c   18.03899918
_cell_angle_alpha   93.34469061
_cell_angle_beta   93.63595262
_cell_angle_gamma   93.66481686
_symmetry_Int_Tables_number   1
_chemical_formula_structural   CuH3C5N2
_chemical_formula_sum   'Cu12 H36 C60 N24'
_cell_volume   5801.93763986
_cell_formula_units_Z   12
loop_
 _symmetry_equiv_pos_site_id
 _symmetry_equiv_pos_as_xyz
  1  'x, y, z'
loop_
 _atom_site_type_symbol
 _atom_site_label
 _atom_site_symmetry_multiplicity
 _atom_site_fract_x
 _atom_site_fract_y
 _atom_site_fract_z
 _atom_site_occupancy
  Cu  Cu0  1  0.13674146  0.25742160  0.25645926  1.0
  Cu  Cu1  1  0.25538325  0.25378346  0.13322403  1.0
  Cu  Cu2  1  0.25448571  0.13319692  0.25451144  1.0
  Cu  Cu3  1  0.85120176  0.73440569  0.25768993  1.0
  Cu  Cu4  1  0.76085931  0.75903603  0.10242566  1.0
  Cu  Cu5  1  0.73293941  0.84489400  0.26077867  1.0
  Cu  Cu6  1  0.84743667  0.26001221  0.73331246  1.0
  Cu  Cu7  1  0.73356568  0.25919522  0.84822030  1.0
  Cu  Cu8  1  0.76010941  0.10241767  0.76077090  1.0
  Cu  Cu9  1  0.09944845  0.76372367  0.76228747  1.0
  Cu  Cu10  1  0.25903517  0.73451951  0.84646826  1.0
  Cu  Cu11  1  0.25756928  0.85116251  0.73490730  1.0
  H  H12  1  0.03601445  0.38269155  0.19876228  1.0
  H  H13  1  0.19653094  0.37643049  0.02980810  1.0
  H  H14  1  0.19436131  0.03138502  0.37780139  1.0
  H  H15  1  0.03496633  0.20157726  0.38190926  1.0
  H  H16  1  0.37974170  0.19542676  0.03214355  1.0
  H  H17  1  0.37802905  0.03006648  0.19680145  1.0
  H  H18  1  0.94794746  0.60734143  0.21065151  1.0
  H  H19  1  0.84462111  0.64663759  0.99418160  1.0
  H  H20  1  0.78965970  0.95370474  0.39988064  1.0
  H  H21  1  0.96464316  0.79988169  0.38932561  1.0
  H  H22  1  0.65039439  0.84605249  0.99586654  1.0
  H  H23  1  0.60442257  0.93970108  0.21350135  1.0
  H  H24  1  0.95970835  0.39481280  0.79455739  1.0
  H  H25  1  0.79398366  0.39503916  0.95851196  1.0
  H  H26  1  0.84457918  0.99568405  0.64868902  1.0
  H  H27  1  0.94158622  0.21360120  0.60422159  1.0
  H  H28  1  0.60657108  0.21134024  0.94476072  1.0
  H  H29  1  0.65019545  0.99411391  0.84778779  1.0
  H  H30  1  0.99293798  0.65211108  0.84938727  1.0
  H  H31  1  0.21288523  0.60389462  0.93894566  1.0
  H  H32  1  0.21014718  0.94613680  0.60683607  1.0
  H  H33  1  0.99138708  0.84992168  0.65098218  1.0
  H  H34  1  0.39686276  0.79278780  0.95695294  1.0
  H  H35  1  0.39372265  0.96207393  0.79654872  1.0
  H  H36  1  0.50487903  0.00635477  0.15949143  1.0
  H  H37  1  0.57179851  0.93811664  0.94052135  1.0
  H  H38  1  0.50649323  0.15744111  0.01053968  1.0
  H  H39  1  0.34938513  0.99232405  0.99260713  1.0
  H  H40  1  0.15993023  0.50587293  0.00805223  1.0
  H  H41  1  0.93893084  0.56991975  0.93841280  1.0
  H  H42  1  0.00976206  0.50454335  0.15775311  1.0
  H  H43  1  0.99406891  0.34874393  0.99285424  1.0
  H  H44  1  0.00648151  0.16054971  0.50377804  1.0
  H  H45  1  0.93621594  0.94086529  0.56949671  1.0
  H  H46  1  0.15753368  0.01188293  0.50710501  1.0
  H  H47  1  0.99322268  0.99447644  0.34884862  1.0
  C  C48  1  0.08224712  0.37328656  0.16423638  1.0
  C  C49  1  0.09925799  0.40365294  0.09720298  1.0
  C  C50  1  0.16411571  0.37007788  0.07808377  1.0
  C  C51  1  0.16233963  0.07987338  0.37084782  1.0
  C  C52  1  0.09743518  0.09969579  0.40389181  1.0
  C  C53  1  0.08102871  0.16666241  0.37297201  1.0
  C  C54  1  0.37142559  0.16178005  0.07928495  1.0
  C  C55  1  0.40341968  0.09598635  0.09794211  1.0
  C  C56  1  0.37052813  0.07747733  0.16328880  1.0
  C  C57  1  0.91492260  0.62502992  0.16320831  1.0
  C  C58  1  0.91673623  0.60312365  0.08721552  1.0
  C  C59  1  0.86291617  0.64545396  0.05257681  1.0
  C  C60  1  0.82397545  0.90711132  0.39015254  1.0
  C  C61  1  0.89799085  0.89840131  0.41622945  1.0
  C  C62  1  0.91334346  0.82854008  0.38455496  1.0
  C  C63  1  0.64754643  0.86193320  0.05451261  1.0
  C  C64  1  0.60370683  0.91379169  0.08945619  1.0
  C  C65  1  0.62378180  0.90908577  0.16565459  1.0
  C  C66  1  0.91039941  0.38772935  0.82592633  1.0
  C  C67  1  0.89819911  0.41656169  0.89773739  1.0
  C  C68  1  0.82577039  0.38782265  0.90967476  1.0
  C  C69  1  0.86132748  0.05437055  0.64616378  1.0
  C  C70  1  0.91342478  0.08957767  0.60231017  1.0
  C  C71  1  0.91014995  0.16570698  0.62321479  1.0
  C  C72  1  0.62529074  0.16364519  0.91336013  1.0
  C  C73  1  0.60475381  0.08735683  0.91721916  1.0
  C  C74  1  0.64784711  0.05269356  0.86449617  1.0
  C  C75  1  0.05209656  0.64878013  0.86424666  1.0
  C  C76  1  0.08801858  0.60377444  0.91466168  1.0
  C  C77  1  0.16441236  0.62395403  0.90937253  1.0
  C  C78  1  0.16207836  0.91491967  0.62581869  1.0
  C  C79  1  0.08565582  0.91842770  0.60471657  1.0
  C  C80  1  0.05032407  0.86645176  0.64857668  1.0
  C  C81  1  0.38901533  0.82548676  0.90874570  1.0
  C  C82  1  0.41756172  0.89806637  0.89791717  1.0
  C  C83  1  0.38733945  0.91197492  0.82682663  1.0
  C  C84  1  0.45416105  0.05125076  0.05352893  1.0
  C  C85  1  0.50549001  0.00370484  0.09911251  1.0
  C  C86  1  0.54951807  0.96198718  0.05870629  1.0
  C  C87  1  0.53667508  0.97197352  0.97434176  1.0
  C  C88  1  0.50657030  0.09696748  0.00711189  1.0
  C  C89  1  0.55042519  0.05653441  0.96522795  1.0
  C  C90  1  0.41023950  0.99536266  0.99661434  1.0
  C  C91  1  0.45234229  0.95350531  0.95484693  1.0
  C  C92  1  0.05393234  0.45360799  0.05203737  1.0
  C  C93  1  0.09919390  0.50552316  0.00467550  1.0
  C  C94  1  0.05803267  0.54898149  0.96262894  1.0
  C  C95  1  0.97338632  0.53517726  0.97239602  1.0
  C  C96  1  0.00670266  0.50498729  0.09735063  1.0
  C  C97  1  0.96441813  0.54863125  0.05670651  1.0
  C  C98  1  0.99717177  0.40939069  0.99599652  1.0
  C  C99  1  0.95471219  0.45109592  0.95395957  1.0
  C  C100  1  0.05167192  0.05484390  0.45375250  1.0
  C  C101  1  0.00358764  0.10009339  0.50430509  1.0
  C  C102  1  0.96123118  0.05931742  0.54784141  1.0
  C  C103  1  0.97081022  0.97497453  0.53496805  1.0
  C  C104  1  0.09677309  0.00814196  0.50636948  1.0
  C  C105  1  0.05549843  0.96597839  0.54965001  1.0
  C  C106  1  0.99574765  0.99802370  0.40942422  1.0
  C  C107  1  0.95317317  0.95585351  0.45093890  1.0
  N  N108  1  0.18444284  0.32308259  0.13032514  1.0
  N  N109  1  0.13365931  0.32509553  0.18382909  1.0
  N  N110  1  0.13281103  0.18553632  0.32490617  1.0
  N  N111  1  0.18325084  0.13163543  0.32356092  1.0
  N  N112  1  0.32246243  0.12898282  0.18238207  1.0
  N  N113  1  0.32300665  0.18127757  0.13026949  1.0
  N  N114  1  0.83172912  0.68898161  0.10424548  1.0
  N  N115  1  0.86428715  0.67591827  0.17283961  1.0
  N  N116  1  0.85326474  0.79833204  0.34173664  1.0
  N  N117  1  0.79760900  0.84731290  0.34503334  1.0
  N  N118  1  0.67510188  0.85871804  0.17509103  1.0
  N  N119  1  0.69021320  0.82916648  0.10612372  1.0
  N  N120  1  0.79737547  0.34399479  0.84979056  1.0
  N  N121  1  0.85008800  0.34397997  0.79761309  1.0
  N  N122  1  0.86034686  0.17488969  0.67499516  1.0
  N  N123  1  0.82977835  0.10583365  0.68962039  1.0
  N  N124  1  0.69048377  0.10459349  0.83198897  1.0
  N  N125  1  0.67612286  0.17340172  0.86263175  1.0
  N  N126  1  0.17309288  0.67649364  0.86013667  1.0
  N  N127  1  0.10337814  0.69228079  0.83180672  1.0
  N  N128  1  0.10200880  0.83475301  0.69223730  1.0
  N  N129  1  0.17134565  0.86514361  0.67769568  1.0
  N  N130  1  0.34303995  0.85244220  0.79789260  1.0
  N  N131  1  0.34402747  0.79856993  0.84894802  1.0
