# generated using pymatgen
data_AlH2C8S2O5F
_symmetry_space_group_name_H-M   'P 1'
_cell_length_a   6.77184304
_cell_length_b   17.15485668
_cell_length_c   17.72142705
_cell_angle_alpha   89.99244184
_cell_angle_beta   89.99475755
_cell_angle_gamma   89.98815247
_symmetry_Int_Tables_number   1
_chemical_formula_structural   AlH2C8S2O5F
_chemical_formula_sum   'Al4 H8 C32 S8 O20 F4'
_cell_volume   2058.69805334
_cell_formula_units_Z   4
loop_
 _symmetry_equiv_pos_site_id
 _symmetry_equiv_pos_as_xyz
  1  'x, y, z'
loop_
 _atom_site_type_symbol
 _atom_site_label
 _atom_site_symmetry_multiplicity
 _atom_site_fract_x
 _atom_site_fract_y
 _atom_site_fract_z
 _atom_site_occupancy
  Al  Al0  1  0.00102171  0.99964951  0.50051694  1.0
  Al  Al1  1  0.50104844  0.00032996  0.49949304  1.0
  Al  Al2  1  0.00041147  0.50009915  0.99995777  1.0
  Al  Al3  1  0.50042267  0.49989726  0.00004659  1.0
  H  H4  1  0.24975791  0.10253936  0.49990760  1.0
  H  H5  1  0.74937929  0.89744519  0.50004075  1.0
  H  H6  1  0.25016295  0.39728011  0.00001428  1.0
  H  H7  1  0.75031214  0.60271779  0.99998200  1.0
  H  H8  1  0.43901243  0.32434411  0.17746308  1.0
  H  H9  1  0.93938192  0.67566674  0.82259003  1.0
  H  H10  1  0.56239013  0.67556143  0.17715515  1.0
  H  H11  1  0.43847185  0.32451808  0.82264362  1.0
  C  C12  1  0.75186151  0.09492964  0.60032925  1.0
  C  C13  1  0.75265540  0.09492291  0.39967045  1.0
  C  C14  1  0.25018183  0.90509852  0.39963259  1.0
  C  C15  1  0.25242995  0.90508531  0.60034496  1.0
  C  C16  1  0.75025959  0.40501970  0.89961047  1.0
  C  C17  1  0.74999243  0.40503989  0.10040621  1.0
  C  C18  1  0.25058025  0.59495021  0.10040500  1.0
  C  C19  1  0.25044132  0.59494344  0.89959121  1.0
  C  C20  1  0.91211456  0.19144827  0.30663967  1.0
  C  C21  1  0.58995128  0.30951491  0.19261025  1.0
  C  C22  1  0.75290093  0.15416618  0.33990512  1.0
  C  C23  1  0.75144371  0.34556922  0.16003441  1.0
  C  C24  1  0.64984605  0.25312154  0.24598569  1.0
  C  C25  1  0.85679319  0.24785257  0.25286465  1.0
  C  C26  1  0.41228416  0.80855466  0.69334478  1.0
  C  C27  1  0.09026830  0.69049649  0.80741418  1.0
  C  C28  1  0.25301137  0.84584842  0.66011253  1.0
  C  C29  1  0.25177510  0.65439827  0.83993984  1.0
  C  C30  1  0.15009869  0.74688955  0.75403652  1.0
  C  C31  1  0.35704183  0.75214683  0.74711908  1.0
  C  C32  1  0.09005839  0.80852292  0.30687643  1.0
  C  C33  1  0.41147200  0.69039612  0.19245530  1.0
  C  C34  1  0.24962277  0.84580978  0.33992392  1.0
  C  C35  1  0.24964338  0.65438706  0.16006685  1.0
  C  C36  1  0.35199744  0.74681250  0.24590647  1.0
  C  C37  1  0.14508075  0.75212830  0.25303258  1.0
  C  C38  1  0.91110040  0.19139334  0.69331566  1.0
  C  C39  1  0.58942099  0.30965307  0.80744110  1.0
  C  C40  1  0.75166744  0.15428253  0.65998884  1.0
  C  C41  1  0.75121714  0.34557002  0.83996329  1.0
  C  C42  1  0.64899596  0.25329382  0.75397187  1.0
  C  C43  1  0.85594810  0.24784392  0.74706132  1.0
  S  S44  1  0.52986662  0.18870575  0.30499687  1.0
  S  S45  1  0.97730582  0.31184163  0.19396804  1.0
  S  S46  1  0.03000905  0.81130948  0.69505012  1.0
  S  S47  1  0.47762312  0.68811803  0.80596776  1.0
  S  S48  1  0.47243239  0.81129076  0.30471762  1.0
  S  S49  1  0.02407414  0.68819509  0.19427557  1.0
  S  S50  1  0.52876477  0.18903300  0.69486445  1.0
  S  S51  1  0.97684248  0.31170310  0.80591822  1.0
  O  O52  1  0.91976526  0.07183715  0.57703906  1.0
  O  O53  1  0.58259988  0.07285045  0.42260296  1.0
  O  O54  1  0.41998990  0.92785807  0.42207788  1.0
  O  O55  1  0.08226339  0.92728390  0.57770890  1.0
  O  O56  1  0.08277288  0.92706818  0.42441256  1.0
  O  O57  1  0.41956025  0.92756079  0.57574047  1.0
  O  O58  1  0.58244762  0.07319087  0.57651436  1.0
  O  O59  1  0.91991422  0.07227838  0.42395148  1.0
  O  O60  1  0.25102346  0.04612146  0.50002121  1.0
  O  O61  1  0.75053406  0.95386299  0.49996434  1.0
  O  O62  1  0.91929962  0.42785324  0.92298063  1.0
  O  O63  1  0.58154624  0.42763661  0.07689038  1.0
  O  O64  1  0.41889291  0.57266393  0.07647204  1.0
  O  O65  1  0.08207207  0.57277642  0.92354337  1.0
  O  O66  1  0.08152099  0.57223150  0.07697727  1.0
  O  O67  1  0.41948419  0.57208555  0.92295469  1.0
  O  O68  1  0.58192923  0.42721795  0.92357843  1.0
  O  O69  1  0.91895374  0.42746278  0.07658550  1.0
  O  O70  1  0.25029731  0.45368688  0.00000166  1.0
  O  O71  1  0.75034569  0.54630994  0.00000066  1.0
  F  F72  1  0.10199123  0.17685649  0.32349474  1.0
  F  F73  1  0.60211844  0.82316919  0.67647406  1.0
  F  F74  1  0.90021966  0.82308090  0.32389335  1.0
  F  F75  1  0.10106318  0.17665462  0.67662378  1.0
