# generated using pymatgen
data_AlH6C24(OF)6
_symmetry_space_group_name_H-M   'P 1'
_cell_length_a   3.98422408
_cell_length_b   29.09932465
_cell_length_c   29.09845348
_cell_angle_alpha   59.99958496
_cell_angle_beta   90.00081260
_cell_angle_gamma   89.99898688
_symmetry_Int_Tables_number   1
_chemical_formula_structural   AlH6C24(OF)6
_chemical_formula_sum   'Al2 H12 C48 O12 F12'
_cell_volume   2921.63116661
_cell_formula_units_Z   2
loop_
 _symmetry_equiv_pos_site_id
 _symmetry_equiv_pos_as_xyz
  1  'x, y, z'
loop_
 _atom_site_type_symbol
 _atom_site_label
 _atom_site_symmetry_multiplicity
 _atom_site_fract_x
 _atom_site_fract_y
 _atom_site_fract_z
 _atom_site_occupancy
  Al  Al0  1  0.99995558  0.49999713  0.00000384  1.0
  Al  Al1  1  0.00045023  0.16665590  0.66668225  1.0
  H  H2  1  0.50171264  0.36414371  0.42104346  1.0
  H  H3  1  0.49864222  0.21481040  0.42103306  1.0
  H  H4  1  0.49867641  0.45186119  0.24564272  1.0
  H  H5  1  0.50135115  0.30250685  0.24564344  1.0
  H  H6  1  0.50174382  0.21483342  0.86415412  1.0
  H  H7  1  0.49862479  0.36416593  0.71480193  1.0
  H  H8  1  0.49866823  0.30250815  0.95186239  1.0
  H  H9  1  0.50136212  0.45186232  0.80250467  1.0
  H  H10  1  0.50170268  0.92103219  0.71480041  1.0
  H  H11  1  0.49860300  0.92100742  0.86415781  1.0
  H  H12  1  0.49869604  0.74562844  0.80249604  1.0
  H  H13  1  0.50136661  0.74562948  0.95185266  1.0
  C  C14  1  0.49995403  0.58128615  0.95935256  1.0
  C  C15  1  0.49997276  0.45935677  0.08129477  1.0
  C  C16  1  0.49995905  0.45935325  0.95935978  1.0
  C  C17  1  0.50044308  0.20729775  0.58537665  1.0
  C  C18  1  0.50044174  0.20732398  0.70731640  1.0
  C  C19  1  0.50044174  0.08535595  0.70733752  1.0
  C  C20  1  0.50036295  0.23694620  0.52608473  1.0
  C  C21  1  0.50651230  0.29250376  0.49672176  1.0
  C  C22  1  0.50298135  0.32098844  0.44176915  1.0
  C  C23  1  0.50020067  0.29317205  0.41364855  1.0
  C  C24  1  0.49750490  0.23723120  0.44176429  1.0
  C  C25  1  0.49415610  0.21075912  0.49671174  1.0
  C  C26  1  0.50010323  0.32123286  0.35753125  1.0
  C  C27  1  0.50005410  0.34543741  0.30913342  1.0
  C  C28  1  0.50001940  0.37349599  0.25301851  1.0
  C  C29  1  0.49735403  0.42943625  0.22490672  1.0
  C  C30  1  0.49398132  0.45589348  0.16995806  1.0
  C  C31  1  0.49997760  0.42971602  0.14057954  1.0
  C  C32  1  0.50600126  0.37416013  0.16995564  1.0
  C  C33  1  0.50267015  0.34566748  0.22490427  1.0
  C  C34  1  0.50038368  0.23697151  0.73696043  1.0
  C  C35  1  0.50656195  0.21078298  0.79251987  1.0
  C  C36  1  0.50302531  0.23725727  0.82099680  1.0
  C  C37  1  0.50019681  0.29319412  0.79317431  1.0
  C  C38  1  0.49750164  0.32101373  0.73723082  1.0
  C  C39  1  0.49415637  0.29253123  0.71076617  1.0
  C  C40  1  0.50007603  0.32125317  0.82123022  1.0
  C  C41  1  0.50003058  0.34544254  0.84543688  1.0
  C  C42  1  0.50001019  0.37349647  0.87349479  1.0
  C  C43  1  0.49734422  0.34566750  0.92943708  1.0
  C  C44  1  0.49397301  0.37415683  0.95589496  1.0
  C  C45  1  0.49994934  0.42971362  0.92971575  1.0
  C  C46  1  0.50598874  0.45589394  0.87415798  1.0
  C  C47  1  0.50266331  0.42943697  0.84566635  1.0
  C  C48  1  0.50032392  0.02606570  0.73696913  1.0
  C  C49  1  0.50648920  0.99670481  0.71076988  1.0
  C  C50  1  0.50296752  0.94175593  0.73723363  1.0
  C  C51  1  0.50015599  0.91362770  0.79317512  1.0
  C  C52  1  0.49744748  0.94174395  0.82100048  1.0
  C  C53  1  0.49410448  0.99668986  0.79252956  1.0
  C  C54  1  0.50009060  0.85751419  0.82123135  1.0
  C  C55  1  0.50005466  0.80911868  0.84542846  1.0
  C  C56  1  0.50003194  0.75300762  0.87348667  1.0
  C  C57  1  0.49737930  0.72489671  0.84565614  1.0
  C  C58  1  0.49399326  0.66995042  0.87414571  1.0
  C  C59  1  0.49997647  0.64057011  0.92970466  1.0
  C  C60  1  0.50599473  0.66994391  0.95588639  1.0
  C  C61  1  0.50267692  0.72489149  0.92942937  1.0
  O  O62  1  0.26366691  0.44922630  0.99240111  1.0
  O  O63  1  0.26365296  0.55837242  0.94922803  1.0
  O  O64  1  0.26367261  0.49239635  0.05837921  1.0
  O  O65  1  0.73624843  0.49239096  0.94923343  1.0
  O  O66  1  0.73626918  0.44922872  0.05838276  1.0
  O  O67  1  0.73624403  0.55837227  0.99239483  1.0
  O  O68  1  0.26423675  0.10829058  0.71745031  1.0
  O  O69  1  0.26424471  0.17425248  0.60831578  1.0
  O  O70  1  0.26419519  0.21742941  0.67427325  1.0
  O  O71  1  0.73668540  0.10828184  0.67429546  1.0
  O  O72  1  0.73665340  0.17427709  0.71743861  1.0
  O  O73  1  0.73667783  0.21741564  0.60830436  1.0
  F  F74  1  0.50626851  0.31971940  0.52326853  1.0
  F  F75  1  0.49439920  0.15699860  0.52325725  1.0
  F  F76  1  0.49427785  0.50965577  0.14341176  1.0
  F  F77  1  0.50569538  0.34694133  0.14341243  1.0
  F  F78  1  0.50637140  0.15702342  0.81974350  1.0
  F  F79  1  0.49441351  0.31974176  0.65700199  1.0
  F  F80  1  0.49427107  0.34693847  0.00966066  1.0
  F  F81  1  0.50567783  0.50965680  0.84693905  1.0
  F  F82  1  0.50626097  0.02325639  0.65700705  1.0
  F  F83  1  0.49435222  0.02322888  0.81975183  1.0
  F  F84  1  0.49429722  0.64340102  0.84693107  1.0
  F  F85  1  0.50567029  0.64340353  0.00965011  1.0
