# generated using pymatgen
data_ZnH12C22(NO3)2
_symmetry_space_group_name_H-M   'P 1'
_cell_length_a   14.78010646
_cell_length_b   15.65432740
_cell_length_c   16.21179519
_cell_angle_alpha   89.33645542
_cell_angle_beta   89.23393774
_cell_angle_gamma   65.47764691
_symmetry_Int_Tables_number   1
_chemical_formula_structural   ZnH12C22(NO3)2
_chemical_formula_sum   'Zn2 H24 C44 N4 O12'
_cell_volume   3412.24629781
_cell_formula_units_Z   2
loop_
 _symmetry_equiv_pos_site_id
 _symmetry_equiv_pos_as_xyz
  1  'x, y, z'
loop_
 _atom_site_type_symbol
 _atom_site_label
 _atom_site_symmetry_multiplicity
 _atom_site_fract_x
 _atom_site_fract_y
 _atom_site_fract_z
 _atom_site_occupancy
  Zn  Zn0  1  0.40289444  0.50523708  0.50091622  1.0
  Zn  Zn1  1  0.59756025  0.49253803  0.49702192  1.0
  H  H2  1  0.23029876  0.12508539  0.54306724  1.0
  H  H3  1  0.76481382  0.87554200  0.57117566  1.0
  H  H4  1  0.46309975  0.23115864  0.52219856  1.0
  H  H5  1  0.53651567  0.76701409  0.53062670  1.0
  H  H6  1  0.18371050  0.99316633  0.52757698  1.0
  H  H7  1  0.81372654  0.00718146  0.55570076  1.0
  H  H8  1  0.35895568  0.18594271  0.54680036  1.0
  H  H9  1  0.63652885  0.81447794  0.56606916  1.0
  H  H10  1  0.34960418  0.52444354  0.91793208  1.0
  H  H11  1  0.62839192  0.53262599  0.08005909  1.0
  H  H12  1  0.84900097  0.65049923  0.49686248  1.0
  H  H13  1  0.15098952  0.34838243  0.50189402  1.0
  H  H14  1  0.78850177  0.23596908  0.57649397  1.0
  H  H15  1  0.86973624  0.12080282  0.54251875  1.0
  H  H16  1  0.80265690  0.21213888  0.47056369  1.0
  H  H17  1  0.20895941  0.78070340  0.44992869  1.0
  H  H18  1  0.20147228  0.76885035  0.55715482  1.0
  H  H19  1  0.12944286  0.87977590  0.50922980  1.0
  H  H20  1  0.94885505  0.73867093  0.49433191  1.0
  H  H21  1  0.06215836  0.68437288  0.54980212  1.0
  H  H22  1  0.06443455  0.68212839  0.44104946  1.0
  H  H23  1  0.05126412  0.26024552  0.50420969  1.0
  H  H24  1  0.93719997  0.31630630  0.55982461  1.0
  H  H25  1  0.93641769  0.31479319  0.45109461  1.0
  C  C26  1  0.49823636  0.50654364  0.33797553  1.0
  C  C27  1  0.49704560  0.50352939  0.66078283  1.0
  C  C28  1  0.42438393  0.68104814  0.50728596  1.0
  C  C29  1  0.57682820  0.31715550  0.50866069  1.0
  C  C30  1  0.38753192  0.78500684  0.51964612  1.0
  C  C31  1  0.61244243  0.21364530  0.52473127  1.0
  C  C32  1  0.26172564  0.94305816  0.52866993  1.0
  C  C33  1  0.73612561  0.05671157  0.54810389  1.0
  C  C34  1  0.28462755  0.84830963  0.51924530  1.0
  C  C35  1  0.71466952  0.15087451  0.53458619  1.0
  C  C36  1  0.45976883  0.81889846  0.53126304  1.0
  C  C37  1  0.53923528  0.17973523  0.53031623  1.0
  C  C38  1  0.43707418  0.91483388  0.54054473  1.0
  C  C39  1  0.56050935  0.08441245  0.54332580  1.0
  C  C40  1  0.33463039  0.97861815  0.53777030  1.0
  C  C41  1  0.66254908  0.02105495  0.55142299  1.0
  C  C42  1  0.51253028  0.95061479  0.54838335  1.0
  C  C43  1  0.48434230  0.04890004  0.54547826  1.0
  C  C44  1  0.38093745  0.11040773  0.54458105  1.0
  C  C45  1  0.61523483  0.88962026  0.55870589  1.0
  C  C46  1  0.30897708  0.07680725  0.54245460  1.0
  C  C47  1  0.68705698  0.92342461  0.56158519  1.0
  C  C48  1  0.40986664  0.52896610  0.95279559  1.0
  C  C49  1  0.56558955  0.53357042  0.04522499  1.0
  C  C50  1  0.49265656  0.53150697  0.91051625  1.0
  C  C51  1  0.48213291  0.53257503  0.08750722  1.0
  C  C52  1  0.56919313  0.53531690  0.95983901  1.0
  C  C53  1  0.40421174  0.53175320  0.03812195  1.0
  C  C54  1  0.49712699  0.52444921  0.82380373  1.0
  C  C55  1  0.48321641  0.52668673  0.17439896  1.0
  C  C56  1  0.49208512  0.51708570  0.24889450  1.0
  C  C57  1  0.49600269  0.51399124  0.74958554  1.0
  C  C58  1  0.00918829  0.58767236  0.49771728  1.0
  C  C59  1  0.99081126  0.41122098  0.50172259  1.0
  C  C60  1  0.09265183  0.49976620  0.49913271  1.0
  C  C61  1  0.90732808  0.49910636  0.50005323  1.0
  C  C62  1  0.08387794  0.41374467  0.50099959  1.0
  C  C63  1  0.91609699  0.58513849  0.49817027  1.0
  C  C64  1  0.18892235  0.49918457  0.49903281  1.0
  C  C65  1  0.81120325  0.49938750  0.49969744  1.0
  C  C66  1  0.79883191  0.18121745  0.53094074  1.0
  C  C67  1  0.20123607  0.81814132  0.50829656  1.0
  C  C68  1  0.02127724  0.67820060  0.49563705  1.0
  C  C69  1  0.97879797  0.32069243  0.50432490  1.0
  N  N70  1  0.73403873  0.49649316  0.49863051  1.0
  N  N71  1  0.26647622  0.50128605  0.49950408  1.0
  N  N72  1  0.31222242  0.53358969  0.07640602  1.0
  N  N73  1  0.65805071  0.53989042  0.92107180  1.0
  O  O74  1  0.42220154  0.50472153  0.37400353  1.0
  O  O75  1  0.57927688  0.48756245  0.62465903  1.0
  O  O76  1  0.57861615  0.50049220  0.37039468  1.0
  O  O77  1  0.41579699  0.51173374  0.62871179  1.0
  O  O78  1  0.36059308  0.64633505  0.50060476  1.0
  O  O79  1  0.64091685  0.35112036  0.49703283  1.0
  O  O80  1  0.51849949  0.63390426  0.50451978  1.0
  O  O81  1  0.48275478  0.36486198  0.50800697  1.0
  O  O82  1  0.28188998  0.58053288  0.13977700  1.0
  O  O83  1  0.27137284  0.48924704  0.04124737  1.0
  O  O84  1  0.64572314  0.58481863  0.85580758  1.0
  O  O85  1  0.73818126  0.49932051  0.95741385  1.0
