# generated using pymatgen
data_AlH36C33(NO2)3
_symmetry_space_group_name_H-M   'P 1'
_cell_length_a   3.93295479
_cell_length_b   28.15641639
_cell_length_c   28.16341848
_cell_angle_alpha   60.01058643
_cell_angle_beta   89.69684991
_cell_angle_gamma   89.78195783
_symmetry_Int_Tables_number   1
_chemical_formula_structural   AlH36C33(NO2)3
_chemical_formula_sum   'Al2 H72 C66 N6 O12'
_cell_volume   2701.17165136
_cell_formula_units_Z   2
loop_
 _symmetry_equiv_pos_site_id
 _symmetry_equiv_pos_as_xyz
  1  'x, y, z'
loop_
 _atom_site_type_symbol
 _atom_site_label
 _atom_site_symmetry_multiplicity
 _atom_site_fract_x
 _atom_site_fract_y
 _atom_site_fract_z
 _atom_site_occupancy
  Al  Al0  1  0.01699236  0.50005906  0.49974722  1.0
  Al  Al1  1  0.98175995  0.83333924  0.83317529  1.0
  H  H2  1  0.67809606  0.87969968  0.65364081  1.0
  H  H3  1  0.31249485  0.87028421  0.69417328  1.0
  H  H4  1  0.27580835  0.87032090  0.63150940  1.0
  H  H5  1  0.30087220  0.80920015  0.58679355  1.0
  H  H6  1  0.69508511  0.77706155  0.59143369  1.0
  H  H7  1  0.67842778  0.83992909  0.59260030  1.0
  H  H8  1  0.33200512  0.66055634  0.86677698  1.0
  H  H9  1  0.67622483  0.70395698  0.85925456  1.0
  H  H10  1  0.75013143  0.64286560  0.85750847  1.0
  H  H11  1  0.77959244  0.60099026  0.79349274  1.0
  H  H12  1  0.37815325  0.60095271  0.76520686  1.0
  H  H13  1  0.40248419  0.60287270  0.82718379  1.0
  H  H14  1  0.23083341  0.52166147  0.74616245  1.0
  H  H15  1  0.63447227  0.54941293  0.74531310  1.0
  H  H16  1  0.60450373  0.48849694  0.74188907  1.0
  H  H17  1  0.69155640  0.45367190  0.67596216  1.0
  H  H18  1  0.33321283  0.46250292  0.63479380  1.0
  H  H19  1  0.27994674  0.45896279  0.69888045  1.0
  H  H20  1  0.67351827  0.73607956  0.54305136  1.0
  H  H21  1  0.28011727  0.72629799  0.57664613  1.0
  H  H22  1  0.30094049  0.72742896  0.51289368  1.0
  H  H23  1  0.31358998  0.67319759  0.46812531  1.0
  H  H24  1  0.68443885  0.63506886  0.47397770  1.0
  H  H25  1  0.71356504  0.69563834  0.47809421  1.0
  H  H26  1  0.66974935  0.65380592  0.96601288  1.0
  H  H27  1  0.30544515  0.69446939  0.93532373  1.0
  H  H28  1  0.26690383  0.63180908  0.99797498  1.0
  H  H29  1  0.29636089  0.58665735  0.10359117  1.0
  H  H30  1  0.69002105  0.59152828  0.13060772  1.0
  H  H31  1  0.67449327  0.59285002  0.06653316  1.0
  H  H32  1  0.32929762  0.86691932  0.97257076  1.0
  H  H33  1  0.67474045  0.85937181  0.93647702  1.0
  H  H34  1  0.74664064  0.85765221  0.99923200  1.0
  H  H35  1  0.77349425  0.79132102  0.10731225  1.0
  H  H36  1  0.36283092  0.76559146  0.13304046  1.0
  H  H37  1  0.40977705  0.82764242  0.06954129  1.0
  H  H38  1  0.23642773  0.74631714  0.23193248  1.0
  H  H39  1  0.63926439  0.74544163  0.20440232  1.0
  H  H40  1  0.61043120  0.74232794  0.26867796  1.0
  H  H41  1  0.69680959  0.67624435  0.36970617  1.0
  H  H42  1  0.33663863  0.63531019  0.40230519  1.0
  H  H43  1  0.28616389  0.69941970  0.34176990  1.0
  H  H44  1  0.67614508  0.54316155  0.22041077  1.0
  H  H45  1  0.28176965  0.57634815  0.19737362  1.0
  H  H46  1  0.30481431  0.51265666  0.26004198  1.0
  H  H47  1  0.31647595  0.46811831  0.35868899  1.0
  H  H48  1  0.68676672  0.47417136  0.39051194  1.0
  H  H49  1  0.71675866  0.47834898  0.32577522  1.0
  H  H50  1  0.67249141  0.96560687  0.88019505  1.0
  H  H51  1  0.30757498  0.93485557  0.87078381  1.0
  H  H52  1  0.26980733  0.99734997  0.87121838  1.0
  H  H53  1  0.29764145  0.10274139  0.81136485  1.0
  H  H54  1  0.68991058  0.13037863  0.77865381  1.0
  H  H55  1  0.67701059  0.06599990  0.84111916  1.0
  H  H56  1  0.32100852  0.97252034  0.66124182  1.0
  H  H57  1  0.66982354  0.93712448  0.70372071  1.0
  H  H58  1  0.73713016  0.99988560  0.64244777  1.0
  H  H59  1  0.74181945  0.11488143  0.59999668  1.0
  H  H60  1  0.31214729  0.13037662  0.60343257  1.0
  H  H61  1  0.42193597  0.06910336  0.60313573  1.0
  H  H62  1  0.24115016  0.23416166  0.52014376  1.0
  H  H63  1  0.63258765  0.20362666  0.55075453  1.0
  H  H64  1  0.62729835  0.26834553  0.48962403  1.0
  H  H65  1  0.69626993  0.36981947  0.45364348  1.0
  H  H66  1  0.33525713  0.40209188  0.46257994  1.0
  H  H67  1  0.28671562  0.34128170  0.45943523  1.0
  H  H68  1  0.68300717  0.22024550  0.73598712  1.0
  H  H69  1  0.28547296  0.19794136  0.72673143  1.0
  H  H70  1  0.31624383  0.26060489  0.72774526  1.0
  H  H71  1  0.31855055  0.35914568  0.67313742  1.0
  H  H72  1  0.68784652  0.39121725  0.63443288  1.0
  H  H73  1  0.71985254  0.32668212  0.69509114  1.0
  C  C74  1  0.51696658  0.41480574  0.54032891  1.0
  C  C75  1  0.51406492  0.54058203  0.54448315  1.0
  C  C76  1  0.51748924  0.54482280  0.41454685  1.0
  C  C77  1  0.48658758  0.79486513  0.78664958  1.0
  C  C78  1  0.48260415  0.78691299  0.91816836  1.0
  C  C79  1  0.48274694  0.91834384  0.79478628  1.0
  C  C80  1  0.50040828  0.76547147  0.75485529  1.0
  C  C81  1  0.52728455  0.70794058  0.78348292  1.0
  C  C82  1  0.51969166  0.67938511  0.75442784  1.0
  C  C83  1  0.52765806  0.70995665  0.69617975  1.0
  C  C84  1  0.52548570  0.76814247  0.66790125  1.0
  C  C85  1  0.49009799  0.79592297  0.69738202  1.0
  C  C86  1  0.47901130  0.56225548  0.66646258  1.0
  C  C87  1  0.47520644  0.62033591  0.63988233  1.0
  C  C88  1  0.48070063  0.65264603  0.58190291  1.0
  C  C89  1  0.51116075  0.62601344  0.55105591  1.0
  C  C90  1  0.50430413  0.56845637  0.57781077  1.0
  C  C91  1  0.48084881  0.53613548  0.63525996  1.0
  C  C92  1  0.49518212  0.75506252  0.97935942  1.0
  C  C93  1  0.52328408  0.78359600  0.00832816  1.0
  C  C94  1  0.51603064  0.75440066  0.06593396  1.0
  C  C95  1  0.52425186  0.69614026  0.09346149  1.0
  C  C96  1  0.52031520  0.66798538  0.06344792  1.0
  C  C97  1  0.48362344  0.69757044  0.00628627  1.0
  C  C98  1  0.48366790  0.66666667  0.27087520  1.0
  C  C99  1  0.47926715  0.63997508  0.23947040  1.0
  C  C100  1  0.48358211  0.58195397  0.26525222  1.0
  C  C101  1  0.51405799  0.55119704  0.32267584  1.0
  C  C102  1  0.50797839  0.57808021  0.35338128  1.0
  C  C103  1  0.48520032  0.63556432  0.32817906  1.0
  C  C104  1  0.49408867  0.97953099  0.76568959  1.0
  C  C105  1  0.51780867  0.00876445  0.70809273  1.0
  C  C106  1  0.50850108  0.06638353  0.67998618  1.0
  C  C107  1  0.52198612  0.09365851  0.71099396  1.0
  C  C108  1  0.52036902  0.06333484  0.76917893  1.0
  C  C109  1  0.48411774  0.00615890  0.79656652  1.0
  C  C110  1  0.48900006  0.27095563  0.56255706  1.0
  C  C111  1  0.48639715  0.23953332  0.62068705  1.0
  C  C112  1  0.48856663  0.26550256  0.65281654  1.0
  C  C113  1  0.51632636  0.32298243  0.62597377  1.0
  C  C114  1  0.50881262  0.35359741  0.56840063  1.0
  C  C115  1  0.48695689  0.32827814  0.53627175  1.0
  C  C116  1  0.43663809  0.85710975  0.66775965  1.0
  C  C117  1  0.55252683  0.80042512  0.60640478  1.0
  C  C118  1  0.57336444  0.67734244  0.84483460  1.0
  C  C119  1  0.51891975  0.61762515  0.78675720  1.0
  C  C120  1  0.48769301  0.52870806  0.72811939  1.0
  C  C121  1  0.44490773  0.47473675  0.66259485  1.0
  C  C122  1  0.43120305  0.71376537  0.55201210  1.0
  C  C123  1  0.55773501  0.65913770  0.48972494  1.0
  C  C124  1  0.42874649  0.66800264  0.97475797  1.0
  C  C125  1  0.54777216  0.60649986  0.09245127  1.0
  C  C126  1  0.57047958  0.84496935  0.97756255  1.0
  C  C127  1  0.51422207  0.78645837  0.09563400  1.0
  C  C128  1  0.49320815  0.72834095  0.24256898  1.0
  C  C129  1  0.44975425  0.66302655  0.36218918  1.0
  C  C130  1  0.43384165  0.55191302  0.23422353  1.0
  C  C131  1  0.56045571  0.48985271  0.35086573  1.0
  C  C132  1  0.43093176  0.97431969  0.85776285  1.0
  C  C133  1  0.54898650  0.09203076  0.80192182  1.0
  C  C134  1  0.56305152  0.97802436  0.67732102  1.0
  C  C135  1  0.49394998  0.09661853  0.61834659  1.0
  C  C136  1  0.49872740  0.24281914  0.52903559  1.0
  C  C137  1  0.44972042  0.36208316  0.47488902  1.0
  C  C138  1  0.44052116  0.23460028  0.71397550  1.0
  C  C139  1  0.56244590  0.35146180  0.65881177  1.0
  N  N140  1  0.56842184  0.68758085  0.66113912  1.0
  N  N141  1  0.43479634  0.64138952  0.67586180  1.0
  N  N142  1  0.56586953  0.66092356  0.15073385  1.0
  N  N143  1  0.43940151  0.67599361  0.18255397  1.0
  N  N144  1  0.56092251  0.15083215  0.68938952  1.0
  N  N145  1  0.45218666  0.18264200  0.64132532  1.0
  O  O146  1  0.75524683  0.55410970  0.43953228  1.0
  O  O147  1  0.75585035  0.43984040  0.50593252  1.0
  O  O148  1  0.75275309  0.50616774  0.55371654  1.0
  O  O149  1  0.28510822  0.50890425  0.43881949  1.0
  O  O150  1  0.28173285  0.55225729  0.50872539  1.0
  O  O151  1  0.28283688  0.43900246  0.55193980  1.0
  O  O152  1  0.71380424  0.89184435  0.83010302  1.0
  O  O153  1  0.71762111  0.83022872  0.77771026  1.0
  O  O154  1  0.71477670  0.77797029  0.89162906  1.0
  O  O155  1  0.24407293  0.89563839  0.78275631  1.0
  O  O156  1  0.24217535  0.82154188  0.89553462  1.0
  O  O157  1  0.24601155  0.78289470  0.82139827  1.0
