# generated using pymatgen
data_AlH24C45(BrO2)3
_symmetry_space_group_name_H-M   'P 1'
_cell_length_a   3.96824055
_cell_length_b   23.50762829
_cell_length_c   23.52659768
_cell_angle_alpha   60.04202440
_cell_angle_beta   86.91004351
_cell_angle_gamma   86.57260657
_symmetry_Int_Tables_number   1
_chemical_formula_structural   AlH24C45(BrO2)3
_chemical_formula_sum   'Al1 H24 C45 Br3 O6'
_cell_volume   1897.29488753
_cell_formula_units_Z   1
loop_
 _symmetry_equiv_pos_site_id
 _symmetry_equiv_pos_as_xyz
  1  'x, y, z'
loop_
 _atom_site_type_symbol
 _atom_site_label
 _atom_site_symmetry_multiplicity
 _atom_site_fract_x
 _atom_site_fract_y
 _atom_site_fract_z
 _atom_site_occupancy
  Al  Al0  1  0.98865652  0.49962980  0.50057665  1.0
  H  H1  1  0.51339818  0.32174210  0.68056384  1.0
  H  H2  1  0.51229265  0.25831945  0.80212709  1.0
  H  H3  1  0.82359895  0.22598561  0.89183870  1.0
  H  H4  1  0.83672974  0.16528963  0.01213862  1.0
  H  H5  1  0.47601173  0.80494971  0.25432278  1.0
  H  H6  1  0.23152980  0.89858301  0.22402709  1.0
  H  H7  1  0.24454363  0.01824966  0.16455050  1.0
  H  H8  1  0.52587840  0.10594828  0.10520228  1.0
  H  H9  1  0.54906339  0.67880983  0.49631267  1.0
  H  H10  1  0.54577333  0.80020248  0.43930453  1.0
  H  H11  1  0.79860051  0.89131490  0.37898634  1.0
  H  H12  1  0.81072636  0.01105444  0.31953272  1.0
  H  H13  1  0.55552265  0.25444871  0.43920442  1.0
  H  H14  1  0.26232486  0.22768282  0.38056010  1.0
  H  H15  1  0.26026290  0.16737824  0.32075880  1.0
  H  H16  1  0.54854965  0.10527564  0.28808770  1.0
  H  H17  1  0.59366748  0.49736118  0.32239892  1.0
  H  H18  1  0.58605268  0.44009924  0.25813119  1.0
  H  H19  1  0.85507553  0.37677175  0.22336970  1.0
  H  H20  1  0.85249206  0.31638499  0.16352805  1.0
  H  H21  1  0.50690437  0.44031277  0.80554136  1.0
  H  H22  1  0.20555135  0.37978030  0.89856461  1.0
  H  H23  1  0.21968536  0.31916169  0.01879691  1.0
  H  H24  1  0.54956269  0.28812780  0.10570323  1.0
  C  C25  1  0.47835194  0.45080209  0.60139253  1.0
  C  C26  1  0.52466871  0.44785861  0.45117611  1.0
  C  C27  1  0.47536537  0.60045554  0.44825611  1.0
  C  C28  1  0.50647661  0.34719039  0.70874379  1.0
  C  C29  1  0.50999484  0.31185373  0.77685170  1.0
  C  C30  1  0.68416991  0.24618173  0.91940289  1.0
  C  C31  1  0.69134583  0.21176274  0.98754998  1.0
  C  C32  1  0.46095192  0.71034075  0.34071092  1.0
  C  C33  1  0.47889267  0.77843796  0.30771301  1.0
  C  C34  1  0.36764151  0.92262252  0.24471365  1.0
  C  C35  1  0.37455273  0.99073979  0.21089603  1.0
  C  C36  1  0.48712947  0.41612218  0.67454971  1.0
  C  C37  1  0.50610785  0.34446661  0.81329904  1.0
  C  C38  1  0.51442354  0.30782130  0.88560432  1.0
  C  C39  1  0.52963491  0.23751458  0.02490648  1.0
  C  C40  1  0.53745529  0.20109813  0.09726113  1.0
  C  C41  1  0.53371872  0.13234654  0.13221270  1.0
  C  C42  1  0.52642072  0.70744940  0.44316045  1.0
  C  C43  1  0.52932133  0.77552781  0.41079412  1.0
  C  C44  1  0.66871742  0.91871062  0.33266600  1.0
  C  C45  1  0.67517405  0.98687588  0.29887885  1.0
  C  C46  1  0.54139445  0.34085101  0.44809898  1.0
  C  C47  1  0.55157367  0.30794543  0.41261887  1.0
  C  C48  1  0.40011286  0.24680239  0.33363236  1.0
  C  C49  1  0.39923450  0.21249125  0.29975455  1.0
  C  C50  1  0.48609970  0.67344605  0.40915778  1.0
  C  C51  1  0.50753073  0.81250596  0.34206575  1.0
  C  C52  1  0.51510487  0.88485964  0.30637036  1.0
  C  C53  1  0.52887653  0.02457212  0.23711015  1.0
  C  C54  1  0.53712029  0.09699641  0.20097578  1.0
  C  C55  1  0.54625990  0.13204637  0.23463443  1.0
  C  C56  1  0.58006211  0.44401134  0.34734460  1.0
  C  C57  1  0.57978502  0.41155945  0.31159351  1.0
  C  C58  1  0.71693306  0.33158743  0.24453012  1.0
  C  C59  1  0.71581127  0.29726515  0.21060660  1.0
  C  C60  1  0.48183079  0.44857195  0.71092005  1.0
  C  C61  1  0.49616791  0.41346769  0.77906987  1.0
  C  C62  1  0.35171720  0.33343230  0.92302452  1.0
  C  C63  1  0.35939402  0.29907828  0.99113658  1.0
  C  C64  1  0.55238082  0.40952312  0.41612189  1.0
  C  C65  1  0.56323391  0.34275679  0.34366389  1.0
  C  C66  1  0.55974292  0.30706441  0.30694895  1.0
  C  C67  1  0.55698024  0.23694362  0.23741762  1.0
  C  C68  1  0.55125259  0.20080834  0.20113951  1.0
  C  C69  1  0.54655493  0.23462783  0.13240047  1.0
  Br  Br70  1  0.53892252  0.28884469  0.54127842  1.0
  Br  Br71  1  0.48014789  0.54188939  0.66888200  1.0
  Br  Br72  1  0.42505779  0.66998027  0.28857815  1.0
  O  O73  1  0.24422568  0.57231234  0.43724712  1.0
  O  O74  1  0.22984396  0.49022847  0.57354783  1.0
  O  O75  1  0.27601004  0.43668775  0.49136204  1.0
  O  O76  1  0.69846402  0.57108502  0.49183226  1.0
  O  O77  1  0.74591054  0.49037906  0.43717743  1.0
  O  O78  1  0.72052804  0.43678757  0.57206671  1.0
