# generated using pymatgen
data_LiZnH3(C3O2)3
_symmetry_space_group_name_H-M   'P 1'
_cell_length_a   11.28743815
_cell_length_b   16.45371927
_cell_length_c   16.45371708
_cell_angle_alpha   89.99997128
_cell_angle_beta   89.99997208
_cell_angle_gamma   89.99997051
_symmetry_Int_Tables_number   1
_chemical_formula_structural   LiZnH3(C3O2)3
_chemical_formula_sum   'Li8 Zn8 H24 C72 O48'
_cell_volume   3055.78990729
_cell_formula_units_Z   8
loop_
 _symmetry_equiv_pos_site_id
 _symmetry_equiv_pos_as_xyz
  1  'x, y, z'
loop_
 _atom_site_type_symbol
 _atom_site_label
 _atom_site_symmetry_multiplicity
 _atom_site_fract_x
 _atom_site_fract_y
 _atom_site_fract_z
 _atom_site_occupancy
  Li  Li0  1  0.62136412  0.09773854  0.67469665  1.0
  Li  Li1  1  0.12136474  0.90226198  0.32530314  1.0
  Li  Li2  1  0.87136245  0.17469441  0.40226331  1.0
  Li  Li3  1  0.37136206  0.82530541  0.59773700  1.0
  Li  Li4  1  0.62863775  0.40226312  0.17469466  1.0
  Li  Li5  1  0.12863737  0.59773678  0.82530512  1.0
  Li  Li6  1  0.37863571  0.32530348  0.90226101  1.0
  Li  Li7  1  0.87863595  0.67469633  0.09773868  1.0
  Zn  Zn8  1  0.84193321  0.17450840  0.58319812  1.0
  Zn  Zn9  1  0.34193295  0.82549204  0.41680159  1.0
  Zn  Zn10  1  0.09193056  0.08319732  0.32549175  1.0
  Zn  Zn11  1  0.59193020  0.91680199  0.67450865  1.0
  Zn  Zn12  1  0.40806872  0.32549148  0.08319745  1.0
  Zn  Zn13  1  0.90806926  0.67450832  0.91680223  1.0
  Zn  Zn14  1  0.15806661  0.41680200  0.82549114  1.0
  Zn  Zn15  1  0.65806686  0.58319789  0.17450863  1.0
  H  H16  1  0.08604774  0.25430689  0.62879339  1.0
  H  H17  1  0.58604773  0.74569303  0.37120640  1.0
  H  H18  1  0.33605328  0.12879672  0.24569575  1.0
  H  H19  1  0.83605290  0.87120372  0.75430457  1.0
  H  H20  1  0.16394691  0.24569558  0.12879633  1.0
  H  H21  1  0.66394654  0.75430432  0.87120405  1.0
  H  H22  1  0.91395031  0.37120673  0.74569447  1.0
  H  H23  1  0.41395208  0.62879369  0.25430704  1.0
  H  H24  1  0.37170335  0.13898698  0.75747797  1.0
  H  H25  1  0.87170334  0.86101284  0.24252173  1.0
  H  H26  1  0.62170703  0.25747940  0.36101612  1.0
  H  H27  1  0.12170667  0.74252051  0.63898366  1.0
  H  H28  1  0.87829315  0.36101585  0.25747957  1.0
  H  H29  1  0.37829368  0.63898397  0.74252074  1.0
  H  H30  1  0.62829648  0.24252156  0.86101256  1.0
  H  H31  1  0.12829646  0.75747835  0.13898722  1.0
  H  H32  1  0.22972173  0.02747732  0.54155052  1.0
  H  H33  1  0.72972238  0.97252194  0.45844983  1.0
  H  H34  1  0.47972091  0.04155071  0.47252291  1.0
  H  H35  1  0.97972063  0.95844968  0.52747736  1.0
  H  H36  1  0.02027918  0.47252276  0.04155097  1.0
  H  H37  1  0.52027980  0.52747719  0.95844946  1.0
  H  H38  1  0.77027721  0.45844959  0.97252224  1.0
  H  H39  1  0.27027743  0.54155027  0.02747749  1.0
  C  C40  1  0.07801235  0.14446975  0.50104417  1.0
  C  C41  1  0.57801216  0.85553078  0.49895623  1.0
  C  C42  1  0.32800984  0.00104564  0.35552932  1.0
  C  C43  1  0.82800855  0.99895420  0.64446978  1.0
  C  C44  1  0.17199037  0.35553096  0.00104523  1.0
  C  C45  1  0.67199176  0.64446954  0.99895454  1.0
  C  C46  1  0.92198748  0.49895654  0.85552980  1.0
  C  C47  1  0.42198853  0.50104326  0.14446988  1.0
  C  C48  1  0.23221460  0.27088606  0.75969387  1.0
  C  C49  1  0.73221558  0.72911381  0.24030587  1.0
  C  C50  1  0.48221927  0.25969658  0.22911828  1.0
  C  C51  1  0.98221898  0.74030381  0.77088198  1.0
  C  C52  1  0.01778084  0.22911816  0.25969626  1.0
  C  C53  1  0.51778055  0.77088178  0.74030416  1.0
  C  C54  1  0.76778522  0.24030626  0.72911408  1.0
  C  C55  1  0.26778511  0.75969420  0.27088626  1.0
  C  C56  1  0.38976245  0.00390448  0.65662723  1.0
  C  C57  1  0.88976227  0.99609534  0.34337307  1.0
  C  C58  1  0.63976337  0.15662192  0.49609808  1.0
  C  C59  1  0.13976303  0.84337737  0.50390170  1.0
  C  C60  1  0.86023678  0.49609780  0.15662208  1.0
  C  C61  1  0.36023734  0.50390142  0.84337823  1.0
  C  C62  1  0.61023738  0.34337289  0.99609569  1.0
  C  C63  1  0.11023754  0.65662702  0.00390470  1.0
  C  C64  1  0.15044151  0.14144852  0.57666902  1.0
  C  C65  1  0.65044138  0.85855138  0.42333076  1.0
  C  C66  1  0.40044165  0.07666743  0.35855353  1.0
  C  C67  1  0.90044220  0.92333238  0.64144615  1.0
  C  C68  1  0.09955849  0.35855337  0.07666706  1.0
  C  C69  1  0.59955817  0.64144655  0.92333273  1.0
  C  C70  1  0.84955831  0.42333231  0.85855225  1.0
  C  C71  1  0.34955843  0.57666873  0.14144868  1.0
  C  C72  1  0.14764987  0.20366179  0.63456716  1.0
  C  C73  1  0.64764982  0.79633811  0.36543261  1.0
  C  C74  1  0.39765626  0.13456803  0.29633779  1.0
  C  C75  1  0.89765592  0.86543299  0.70366251  1.0
  C  C76  1  0.10234389  0.29633763  0.13456706  1.0
  C  C77  1  0.60234356  0.70366229  0.86543273  1.0
  C  C78  1  0.85234730  0.36543417  0.79633714  1.0
  C  C79  1  0.35234998  0.63456687  0.20366196  1.0
  C  C80  1  0.22810123  0.20255259  0.69948865  1.0
  C  C81  1  0.72810123  0.79744728  0.30051170  1.0
  C  C82  1  0.47810673  0.19948830  0.29745119  1.0
  C  C83  1  0.97810556  0.80051149  0.70254847  1.0
  C  C84  1  0.02189515  0.29745105  0.19948918  1.0
  C  C85  1  0.52189486  0.70254889  0.80051124  1.0
  C  C86  1  0.77189860  0.30051209  0.79744756  1.0
  C  C87  1  0.27189858  0.69948838  0.20255278  1.0
  C  C88  1  0.30875463  0.13835493  0.70728750  1.0
  C  C89  1  0.80875547  0.86164491  0.29271222  1.0
  C  C90  1  0.55875742  0.20728833  0.36164700  1.0
  C  C91  1  0.05875614  0.79271221  0.63835280  1.0
  C  C92  1  0.94124368  0.36164732  0.20728846  1.0
  C  C93  1  0.44124328  0.63835248  0.79271182  1.0
  C  C94  1  0.69124520  0.29271202  0.86164522  1.0
  C  C95  1  0.19124522  0.70728725  0.13835514  1.0
  C  C96  1  0.30707758  0.07423631  0.65148736  1.0
  C  C97  1  0.80707745  0.92576353  0.34851297  1.0
  C  C98  1  0.55707856  0.15148755  0.42576566  1.0
  C  C99  1  0.05707817  0.84851299  0.57423415  1.0
  C  C100  1  0.94292165  0.42576597  0.15148768  1.0
  C  C101  1  0.44292215  0.57423383  0.84851260  1.0
  C  C102  1  0.69292224  0.34851277  0.92576324  1.0
  C  C103  1  0.19292235  0.65148712  0.07423652  1.0
  C  C104  1  0.22858327  0.07633678  0.58608513  1.0
  C  C105  1  0.72858398  0.92366309  0.41391462  1.0
  C  C106  1  0.47858513  0.08608533  0.42366586  1.0
  C  C107  1  0.97858485  0.91391567  0.57633381  1.0
  C  C108  1  0.02141496  0.42366571  0.08608499  1.0
  C  C109  1  0.52141558  0.57633363  0.91391544  1.0
  C  C110  1  0.77141567  0.41391499  0.92366399  1.0
  C  C111  1  0.27141671  0.58608487  0.07633696  1.0
  O  O112  1  0.97826090  0.18139255  0.49972091  1.0
  O  O113  1  0.47825969  0.81860845  0.50027876  1.0
  O  O114  1  0.22826231  0.99972078  0.31860917  1.0
  O  O115  1  0.72826175  0.00027848  0.68138936  1.0
  O  O116  1  0.27173808  0.31861137  0.99972108  1.0
  O  O117  1  0.77173838  0.68138909  0.00027865  1.0
  O  O118  1  0.02173981  0.50027860  0.81860698  1.0
  O  O119  1  0.52174012  0.49972135  0.18139283  1.0
  O  O120  1  0.12446048  0.10958768  0.43986954  1.0
  O  O121  1  0.62446022  0.89041162  0.56013024  1.0
  O  O122  1  0.37446288  0.93986922  0.39041178  1.0
  O  O123  1  0.87446322  0.06013060  0.60958792  1.0
  O  O124  1  0.12553484  0.39041281  0.93986956  1.0
  O  O125  1  0.62553692  0.60958770  0.06013083  1.0
  O  O126  1  0.87554023  0.56013055  0.89041188  1.0
  O  O127  1  0.37553959  0.43986927  0.10958782  1.0
  O  O128  1  0.15459556  0.32810354  0.74892974  1.0
  O  O129  1  0.65459569  0.67189636  0.25107064  1.0
  O  O130  1  0.40459937  0.24893491  0.17190023  1.0
  O  O131  1  0.90459904  0.75106490  0.82810007  1.0
  O  O132  1  0.09540078  0.17190008  0.24893517  1.0
  O  O133  1  0.59540133  0.82809983  0.75106523  1.0
  O  O134  1  0.84540516  0.25107040  0.67189599  1.0
  O  O135  1  0.34540501  0.74892943  0.32810372  1.0
  O  O136  1  0.30835941  0.26969117  0.81516826  1.0
  O  O137  1  0.80835954  0.73030868  0.18483146  1.0
  O  O138  1  0.55836850  0.31517217  0.23031434  1.0
  O  O139  1  0.05836897  0.68482776  0.76968546  1.0
  O  O140  1  0.94163173  0.23031407  0.31517233  1.0
  O  O141  1  0.44163132  0.76968573  0.68482796  1.0
  O  O142  1  0.69164042  0.18483128  0.73030897  1.0
  O  O143  1  0.19164026  0.81516860  0.26969079  1.0
  O  O144  1  0.49017228  0.01508490  0.69386926  1.0
  O  O145  1  0.99017302  0.98491488  0.30613101  1.0
  O  O146  1  0.74017765  0.19386698  0.48491395  1.0
  O  O147  1  0.24017821  0.80613289  0.51508579  1.0
  O  O148  1  0.75982249  0.48491432  0.19386718  1.0
  O  O149  1  0.25982218  0.51508554  0.80613316  1.0
  O  O150  1  0.50982755  0.30613088  0.98491466  1.0
  O  O151  1  0.00982766  0.69386907  0.01508516  1.0
  O  O152  1  0.36237591  0.93792371  0.62356882  1.0
  O  O153  1  0.86237552  0.06207551  0.37643149  1.0
  O  O154  1  0.61237717  0.12356920  0.56207346  1.0
  O  O155  1  0.11237862  0.87643071  0.43792694  1.0
  O  O156  1  0.88762296  0.56207377  0.12356995  1.0
  O  O157  1  0.38762266  0.43792605  0.87643035  1.0
  O  O158  1  0.63762390  0.37643130  0.06207573  1.0
  O  O159  1  0.13762430  0.62356860  0.93792405  1.0
