# generated using pymatgen
data_Al3H16C40Br4O17
_symmetry_space_group_name_H-M   'P 1'
_cell_length_a   12.07818169
_cell_length_b   12.39325546
_cell_length_c   28.73558487
_cell_angle_alpha   89.58393501
_cell_angle_beta   88.12174828
_cell_angle_gamma   118.24236680
_symmetry_Int_Tables_number   1
_chemical_formula_structural   Al3H16C40Br4O17
_chemical_formula_sum   'Al6 H32 C80 Br8 O34'
_cell_volume   3786.00726403
_cell_formula_units_Z   2
loop_
 _symmetry_equiv_pos_site_id
 _symmetry_equiv_pos_as_xyz
  1  'x, y, z'
loop_
 _atom_site_type_symbol
 _atom_site_label
 _atom_site_symmetry_multiplicity
 _atom_site_fract_x
 _atom_site_fract_y
 _atom_site_fract_z
 _atom_site_occupancy
  Al  Al0  1  0.60165469  0.40961697  0.49930941  1.0
  Al  Al1  1  0.58184681  0.66051905  0.49761030  1.0
  Al  Al2  1  0.34206465  0.42310024  0.50026054  1.0
  Al  Al3  1  0.06761400  0.92299890  0.00000114  1.0
  Al  Al4  1  0.32932821  0.91386954  0.99835723  1.0
  Al  Al5  1  0.09081067  0.67505784  0.99760420  1.0
  H  H6  1  0.52382701  0.75609065  0.20948587  1.0
  H  H7  1  0.54560577  0.24875454  0.28633619  1.0
  H  H8  1  0.87009659  0.49504102  0.21100307  1.0
  H  H9  1  0.53218693  0.30696138  0.70371586  1.0
  H  H10  1  0.53147408  0.29321881  0.79030460  1.0
  H  H11  1  0.13805736  0.02406322  0.79295780  1.0
  H  H12  1  0.60391169  0.61483419  0.72571154  1.0
  H  H13  1  0.64718877  0.62866211  0.81022456  1.0
  H  H14  1  0.98719624  0.69467675  0.69262954  1.0
  H  H15  1  0.10962050  0.57347137  0.29121266  1.0
  H  H16  1  0.15231072  0.15380949  0.29348261  1.0
  H  H17  1  0.53254621  0.20960222  0.20099224  1.0
  H  H18  1  0.69001626  0.89118870  0.33243502  1.0
  H  H19  1  0.65948320  0.73731029  0.34433136  1.0
  H  H20  1  0.59811345  0.77194376  0.29363829  1.0
  H  H21  1  0.25058217  0.33906480  0.72928484  1.0
  H  H22  1  0.31428167  0.41301150  0.67321674  1.0
  H  H23  1  0.15359094  0.29606513  0.67950652  1.0
  H  H24  1  0.37831217  0.92140197  0.82764572  1.0
  H  H25  1  0.43869903  0.99697480  0.77165669  1.0
  H  H26  1  0.53571719  0.04470574  0.82146919  1.0
  H  H27  1  0.49705944  0.99907116  0.22564369  1.0
  H  H28  1  0.61884390  0.95932596  0.23761857  1.0
  H  H29  1  0.59943941  0.06871988  0.27272115  1.0
  H  H30  1  0.54515652  0.57884876  0.20837290  1.0
  H  H31  1  0.40782906  0.43113195  0.20798195  1.0
  H  H32  1  0.53739416  0.45413318  0.24287426  1.0
  H  H33  1  0.24490241  0.91531430  0.29055947  1.0
  H  H34  1  0.10334941  0.77108210  0.29566514  1.0
  H  H35  1  0.10906246  0.89173493  0.25915839  1.0
  H  H36  1  0.72736048  0.32535950  0.47098175  1.0
  H  H37  1  0.97129878  0.03420514  0.03047939  1.0
  C  C38  1  0.74398285  0.63392417  0.43535440  1.0
  C  C39  1  0.35885984  0.63567935  0.38767830  1.0
  C  C40  1  0.26106797  0.73812062  0.24254787  1.0
  C  C41  1  0.30534028  0.67534319  0.20318966  1.0
  C  C42  1  0.20170098  0.61614931  0.27302070  1.0
  C  C43  1  0.32926058  0.65863546  0.29840187  1.0
  C  C44  1  0.24325687  0.55360730  0.23469446  1.0
  C  C45  1  0.37334048  0.59608004  0.25878911  1.0
  C  C46  1  0.29690125  0.68657069  0.15466974  1.0
  C  C47  1  0.34346442  0.64704404  0.34651722  1.0
  C  C48  1  0.36784710  0.25004185  0.38481700  1.0
  C  C49  1  0.38756658  0.61208290  0.43348988  1.0
  C  C50  1  0.23541027  0.16584295  0.27329065  1.0
  C  C51  1  0.22845823  0.14133471  0.22613163  1.0
  C  C52  1  0.44984004  0.19688670  0.22170996  1.0
  C  C53  1  0.45726738  0.21890097  0.26898478  1.0
  C  C54  1  0.35001239  0.20401883  0.29539575  1.0
  C  C55  1  0.33542636  0.15703801  0.19900135  1.0
  C  C56  1  0.32700074  0.13010885  0.15124296  1.0
  C  C57  1  0.35789302  0.22770468  0.34350781  1.0
  C  C58  1  0.31486883  0.10292899  0.11037173  1.0
  C  C59  1  0.80051745  0.66202591  0.38907930  1.0
  C  C60  1  0.39488036  0.29557522  0.43119003  1.0
  C  C61  1  0.83902230  0.56522006  0.27581347  1.0
  C  C62  1  0.85010491  0.56267074  0.22780725  1.0
  C  C63  1  0.80905574  0.73690431  0.22158510  1.0
  C  C64  1  0.80446588  0.74413714  0.27014015  1.0
  C  C65  1  0.82017797  0.65712564  0.29810570  1.0
  C  C66  1  0.83625994  0.64944533  0.19999014  1.0
  C  C67  1  0.85346942  0.65076200  0.15128530  1.0
  C  C68  1  0.81377831  0.66205527  0.34686057  1.0
  C  C69  1  0.87670743  0.66091383  0.10947078  1.0
  C  C70  1  0.36249062  0.64242983  0.61023628  1.0
  C  C71  1  0.70997817  0.61284654  0.56709234  1.0
  C  C72  1  0.27034257  0.56140321  0.72851596  1.0
  C  C73  1  0.27018347  0.56607624  0.77714840  1.0
  C  C74  1  0.43404322  0.78081723  0.77223703  1.0
  C  C75  1  0.43585564  0.77538780  0.72358562  1.0
  C  C76  1  0.35513469  0.66611824  0.70107879  1.0
  C  C77  1  0.35013255  0.67563887  0.79964809  1.0
  C  C78  1  0.34239132  0.68636506  0.84838698  1.0
  C  C79  1  0.35841925  0.65611390  0.65217247  1.0
  C  C80  1  0.33116055  0.69985001  0.88999455  1.0
  C  C81  1  0.34511540  0.21748690  0.60926247  1.0
  C  C82  1  0.38467027  0.61549215  0.56344718  1.0
  C  C83  1  0.44662124  0.24534064  0.72367664  1.0
  C  C84  1  0.44611383  0.23808334  0.77181269  1.0
  C  C85  1  0.22388031  0.08606030  0.77333025  1.0
  C  C86  1  0.22536804  0.09458760  0.72513891  1.0
  C  C87  1  0.33640063  0.17428792  0.69921360  1.0
  C  C88  1  0.33471644  0.15754293  0.79716762  1.0
  C  C89  1  0.33139035  0.14015389  0.84596903  1.0
  C  C90  1  0.33847118  0.19167377  0.65059407  1.0
  C  C91  1  0.32147349  0.11403857  0.88738907  1.0
  C  C92  1  0.75041716  0.63834492  0.61413859  1.0
  C  C93  1  0.37365510  0.27331634  0.56345448  1.0
  C  C94  1  0.69658683  0.63462092  0.73716511  1.0
  C  C95  1  0.72066472  0.64248108  0.78417934  1.0
  C  C96  1  0.93599393  0.68905769  0.76539437  1.0
  C  C97  1  0.91275721  0.67979649  0.71830436  1.0
  C  C98  1  0.79249517  0.65308346  0.70368308  1.0
  C  C99  1  0.84090640  0.66993527  0.79948263  1.0
  C  C100  1  0.86692659  0.67995158  0.84720684  1.0
  C  C101  1  0.76961773  0.64560831  0.65560491  1.0
  C  C102  1  0.89440294  0.69051505  0.88790287  1.0
  C  C103  1  0.28476356  0.05010586  0.06512962  1.0
  C  C104  1  0.39195464  0.78110093  0.26720205  1.0
  C  C105  1  0.27380145  0.72122259  0.06532328  1.0
  C  C106  1  0.93352994  0.69874691  0.06347450  1.0
  C  C107  1  0.29026237  0.05745475  0.93318452  1.0
  C  C108  1  0.29878128  0.72576566  0.93548254  1.0
  C  C109  1  0.94949402  0.71711884  0.93275121  1.0
  C  C110  1  0.43277736  0.71716551  0.22838029  1.0
  C  C111  1  0.29207782  0.69812430  0.11270462  1.0
  C  C112  1  0.67704249  0.80596519  0.31688674  1.0
  C  C113  1  0.23005464  0.37195342  0.69672945  1.0
  C  C114  1  0.46226655  0.96650613  0.80412888  1.0
  C  C115  1  0.55002575  0.98456229  0.25322820  1.0
  C  C116  1  0.48293714  0.49638953  0.22947974  1.0
  C  C117  1  0.16343144  0.84860075  0.27192906  1.0
  Br  Br118  1  0.84966409  0.44267281  0.31242477  1.0
  Br  Br119  1  0.77433032  0.84250477  0.18405932  1.0
  Br  Br120  1  0.15789801  0.42628051  0.81283835  1.0
  Br  Br121  1  0.54699258  0.91590640  0.68792830  1.0
  Br  Br122  1  0.07511492  0.00024867  0.69382220  1.0
  Br  Br123  1  0.10090870  0.73243383  0.78377618  1.0
  Br  Br124  1  0.13725006  0.39360490  0.21259625  1.0
  Br  Br125  1  0.07013625  0.07684547  0.19876898  1.0
  O  O126  1  0.50286447  0.32274204  0.44511387  1.0
  O  O127  1  0.48406827  0.69559681  0.54127141  1.0
  O  O128  1  0.30780281  0.51072254  0.54812237  1.0
  O  O129  1  0.29243313  0.30059919  0.54619485  1.0
  O  O130  1  0.50801096  0.49904184  0.49887479  1.0
  O  O131  1  0.96270500  0.80698358  0.05097426  1.0
  O  O132  1  0.17715670  0.02282697  0.05080311  1.0
  O  O133  1  0.36945259  0.03090378  0.04384733  1.0
  O  O134  1  0.35666218  0.82110379  0.04543474  1.0
  O  O135  1  0.17263782  0.64276110  0.04709732  1.0
  O  O136  1  0.95534269  0.62161455  0.04032258  1.0
  O  O137  1  0.72213964  0.53213177  0.45310830  1.0
  O  O138  1  0.96536858  0.81496425  0.95139973  1.0
  O  O139  1  0.18217892  0.02991919  0.95007678  1.0
  O  O140  1  0.37293297  0.03454559  0.95178028  1.0
  O  O141  1  0.37249463  0.82973834  0.95236672  1.0
  O  O142  1  0.19455136  0.64563857  0.95473613  1.0
  O  O143  1  0.98251289  0.63958719  0.94880601  1.0
  O  O144  1  0.16351553  0.83656094  0.99865269  1.0
  O  O145  1  0.71315331  0.71179411  0.45310681  1.0
  O  O146  1  0.49450574  0.68836105  0.44867547  1.0
  O  O147  1  0.30712077  0.51374081  0.45513351  1.0
  O  O148  1  0.30805207  0.30879434  0.45375074  1.0
  O  O149  1  0.47904749  0.29659776  0.54507477  1.0
  O  O150  1  0.68993420  0.51023022  0.55191738  1.0
  O  O151  1  0.69359820  0.69542093  0.54550037  1.0
  O  O152  1  0.79200983  0.83725978  0.28967063  1.0
  O  O153  1  0.18646963  0.45999915  0.70661748  1.0
  O  O154  1  0.51367413  0.88444769  0.79413968  1.0
  O  O155  1  0.46694291  0.89212355  0.28653147  1.0
  O  O156  1  0.43087295  0.52784919  0.26978863  1.0
  O  O157  1  0.20365247  0.80655775  0.23132636  1.0
  O  O158  1  0.68492818  0.32640345  0.49993390  1.0
  O  O159  1  0.97966271  0.00163032  0.00090410  1.0
