# generated using pymatgen
data_Zn4C24O13F12
_symmetry_space_group_name_H-M   'P 1'
_cell_length_a   18.10927449
_cell_length_b   18.38599058
_cell_length_c   18.28089823
_cell_angle_alpha   118.63325710
_cell_angle_beta   119.22524972
_cell_angle_gamma   61.24572558
_symmetry_Int_Tables_number   1
_chemical_formula_structural   Zn4C24O13F12
_chemical_formula_sum   'Zn8 C48 O26 F24'
_cell_volume   4413.09403229
_cell_formula_units_Z   2
loop_
 _symmetry_equiv_pos_site_id
 _symmetry_equiv_pos_as_xyz
  1  'x, y, z'
loop_
 _atom_site_type_symbol
 _atom_site_label
 _atom_site_symmetry_multiplicity
 _atom_site_fract_x
 _atom_site_fract_y
 _atom_site_fract_z
 _atom_site_occupancy
  Zn  Zn0  1  0.14090838  0.93583223  0.03707310  1.0
  Zn  Zn1  1  0.96447979  0.94271990  0.04824101  1.0
  Zn  Zn2  1  0.96204092  0.93952173  0.86796948  1.0
  Zn  Zn3  1  0.96848230  0.11010272  0.03850080  1.0
  Zn  Zn4  1  0.37722851  0.52231882  0.45157290  1.0
  Zn  Zn5  1  0.55619132  0.52862658  0.45762923  1.0
  Zn  Zn6  1  0.55532250  0.35397728  0.45532089  1.0
  Zn  Zn7  1  0.54756794  0.52320522  0.62799182  1.0
  C  C8  1  0.14741574  0.84389652  0.13626748  1.0
  C  C9  1  0.20589793  0.78532252  0.19319340  1.0
  C  C10  1  0.20209637  0.70129134  0.16370617  1.0
  C  C11  1  0.25662293  0.64712175  0.21653246  1.0
  C  C12  1  0.31657420  0.67544562  0.30046764  1.0
  C  C13  1  0.37404479  0.61792781  0.35833398  1.0
  C  C14  1  0.32041580  0.75952199  0.32979151  1.0
  C  C15  1  0.26583560  0.81362705  0.27692656  1.0
  C  C16  1  0.14140985  0.84151546  0.85392308  1.0
  C  C17  1  0.19687173  0.78194980  0.79445386  1.0
  C  C18  1  0.19583948  0.80985998  0.73501120  1.0
  C  C19  1  0.24845971  0.75500596  0.68093329  1.0
  C  C20  1  0.30363792  0.67069591  0.68485180  1.0
  C  C21  1  0.36282128  0.61301513  0.62895116  1.0
  C  C22  1  0.30407446  0.64256522  0.74386549  1.0
  C  C23  1  0.25143275  0.69742974  0.79786584  1.0
  C  C24  1  0.15403526  0.11304185  0.12961585  1.0
  C  C25  1  0.21274454  0.16992914  0.18897963  1.0
  C  C26  1  0.20859183  0.22404253  0.27349784  1.0
  C  C27  1  0.26043250  0.27923819  0.32828462  1.0
  C  C28  1  0.31805958  0.28176591  0.30010391  1.0
  C  C29  1  0.37408047  0.34120945  0.35884518  1.0
  C  C30  1  0.32250875  0.22737182  0.21574541  1.0
  C  C31  1  0.27059612  0.17215230  0.16092505  1.0
  C  C32  1  0.86669005  0.84850560  0.87075994  1.0
  C  C33  1  0.81076752  0.78875528  0.81500146  1.0
  C  C34  1  0.84436615  0.70467450  0.76116810  1.0
  C  C35  1  0.79168877  0.65029123  0.70571353  1.0
  C  C36  1  0.70380715  0.67840634  0.70258329  1.0
  C  C37  1  0.64619134  0.62049799  0.64187133  1.0
  C  C38  1  0.67058995  0.76207591  0.75728263  1.0
  C  C39  1  0.72334108  0.81648487  0.81274539  1.0
  C  C40  1  0.87517709  0.12386581  0.14048770  1.0
  C  C41  1  0.81863723  0.18368176  0.19892395  1.0
  C  C42  1  0.73289020  0.23907901  0.16707938  1.0
  C  C43  1  0.68015666  0.29469443  0.22098171  1.0
  C  C44  1  0.71176231  0.29640049  0.30819540  1.0
  C  C45  1  0.65338407  0.35277795  0.36510480  1.0
  C  C46  1  0.79775868  0.24153266  0.34027020  1.0
  C  C47  1  0.85047401  0.18588621  0.28639904  1.0
  C  C48  1  0.87186257  0.11778198  0.85707087  1.0
  C  C49  1  0.81434963  0.17524035  0.79935711  1.0
  C  C50  1  0.84321124  0.23657536  0.80510785  1.0
  C  C51  1  0.78906705  0.29107321  0.75267225  1.0
  C  C52  1  0.70460338  0.28579202  0.69308174  1.0
  C  C53  1  0.64635593  0.34405641  0.63610439  1.0
  C  C54  1  0.67573983  0.22451245  0.68721336  1.0
  C  C55  1  0.72985159  0.16992639  0.73955576  1.0
  O  O56  1  0.00924449  0.98129134  0.99824405  1.0
  O  O57  1  0.06379473  0.86528928  0.11689624  1.0
  O  O58  1  0.18827289  0.86563073  0.11393149  1.0
  O  O59  1  0.45758128  0.60402754  0.38665480  1.0
  O  O60  1  0.33255870  0.58964129  0.37297094  1.0
  O  O61  1  0.05763260  0.86826617  0.81558104  1.0
  O  O62  1  0.18448142  0.85876326  0.93633005  1.0
  O  O63  1  0.44563648  0.58542547  0.67091041  1.0
  O  O64  1  0.32438397  0.59833955  0.54610724  1.0
  O  O65  1  0.07077036  0.15370511  0.11231073  1.0
  O  O66  1  0.19315292  0.03121505  0.10340510  1.0
  O  O67  1  0.45783274  0.30395274  0.37582885  1.0
  O  O68  1  0.33195484  0.42222173  0.38515679  1.0
  O  O69  1  0.89149986  0.86505140  0.82794024  1.0
  O  O70  1  0.88310905  0.87595402  0.95362359  1.0
  O  O71  1  0.61541321  0.60338642  0.67890768  1.0
  O  O72  1  0.63417148  0.59511328  0.56009048  1.0
  O  O73  1  0.89181543  0.16127187  0.10988396  1.0
  O  O74  1  0.90010684  0.04255883  0.12770337  1.0
  O  O75  1  0.63571974  0.31127373  0.39025217  1.0
  O  O76  1  0.62774069  0.43484133  0.38168470  1.0
  O  O77  1  0.89855818  0.15737369  0.93953126  1.0
  O  O78  1  0.88757904  0.03598723  0.81771359  1.0
  O  O79  1  0.62478641  0.30508383  0.55330377  1.0
  O  O80  1  0.62499532  0.42574779  0.67673249  1.0
  O  O81  1  0.50897942  0.48268291  0.49792345  1.0
  F  F82  1  0.14668488  0.67069897  0.08216773  1.0
  F  F83  1  0.25243452  0.56554826  0.18440877  1.0
  F  F84  1  0.37531961  0.79067974  0.41137242  1.0
  F  F85  1  0.26979336  0.89529022  0.30866541  1.0
  F  F86  1  0.14575676  0.89186785  0.73133115  1.0
  F  F87  1  0.24784948  0.78576103  0.62674360  1.0
  F  F88  1  0.35432029  0.56074949  0.74793906  1.0
  F  F89  1  0.25220968  0.66715512  0.85258278  1.0
  F  F90  1  0.15522439  0.22192282  0.30382578  1.0
  F  F91  1  0.25605957  0.32891296  0.41027483  1.0
  F  F92  1  0.37553941  0.22966288  0.18517460  1.0
  F  F93  1  0.27467657  0.12264309  0.07880165  1.0
  F  F94  1  0.92954346  0.67454770  0.76356848  1.0
  F  F95  1  0.82736052  0.56883796  0.65613261  1.0
  F  F96  1  0.58536343  0.79251092  0.75480971  1.0
  F  F97  1  0.68768438  0.89802454  0.86223242  1.0
  F  F98  1  0.69885106  0.23740090  0.08229068  1.0
  F  F99  1  0.59648574  0.34506066  0.18683180  1.0
  F  F100  1  0.83146631  0.24301513  0.42495109  1.0
  F  F101  1  0.93398658  0.13534524  0.32050496  1.0
  F  F102  1  0.92532119  0.24220131  0.86005894  1.0
  F  F103  1  0.82025179  0.34780489  0.75836600  1.0
  F  F104  1  0.59351044  0.21917866  0.63210671  1.0
  F  F105  1  0.69819761  0.11355511  0.73375696  1.0
