# generated using pymatgen
data_Cu2H5C9SN7O4
_symmetry_space_group_name_H-M   'P 1'
_cell_length_a   12.99461825
_cell_length_b   20.24628598
_cell_length_c   20.25006147
_cell_angle_alpha   115.56252308
_cell_angle_beta   102.34693729
_cell_angle_gamma   102.33784213
_symmetry_Int_Tables_number   1
_chemical_formula_structural   Cu2H5C9SN7O4
_chemical_formula_sum   'Cu12 H30 C54 S6 N42 O24'
_cell_volume   4402.96892538
_cell_formula_units_Z   6
loop_
 _symmetry_equiv_pos_site_id
 _symmetry_equiv_pos_as_xyz
  1  'x, y, z'
loop_
 _atom_site_type_symbol
 _atom_site_label
 _atom_site_symmetry_multiplicity
 _atom_site_fract_x
 _atom_site_fract_y
 _atom_site_fract_z
 _atom_site_occupancy
  Cu  Cu0  1  0.69985947  0.31398391  0.82429621  1.0
  Cu  Cu1  1  0.54728217  0.08776792  0.61271702  1.0
  Cu  Cu2  1  0.38562695  0.51040164  0.68615149  1.0
  Cu  Cu3  1  0.45938367  0.52497992  0.91226069  1.0
  Cu  Cu4  1  0.87538154  0.17557054  0.48949182  1.0
  Cu  Cu5  1  0.93447246  0.38726052  0.47506090  1.0
  Cu  Cu6  1  0.30014047  0.68601823  0.17570465  1.0
  Cu  Cu7  1  0.45271963  0.91223480  0.38728534  1.0
  Cu  Cu8  1  0.61437360  0.48959700  0.31384794  1.0
  Cu  Cu9  1  0.54061314  0.47501755  0.08773822  1.0
  Cu  Cu10  1  0.12461801  0.82442927  0.51050600  1.0
  Cu  Cu11  1  0.06553024  0.61273928  0.52493982  1.0
  H  H12  1  0.85267735  0.48457851  0.94910222  1.0
  H  H13  1  0.02321826  0.58026563  0.96023578  1.0
  H  H14  1  0.10857378  0.53639554  0.85484625  1.0
  H  H15  1  0.02327273  0.39801699  0.74541323  1.0
  H  H16  1  0.67119019  0.99933845  0.36879066  1.0
  H  H17  1  0.36715898  0.46441282  0.51548229  1.0
  H  H18  1  0.44197772  0.37989026  0.41966271  1.0
  H  H19  1  0.57130661  0.31825556  0.46332882  1.0
  H  H20  1  0.62439316  0.34710653  0.60167610  1.0
  H  H21  1  0.67200419  0.36945172  0.00055716  1.0
  H  H22  1  0.90331895  0.05086828  0.53544403  1.0
  H  H23  1  0.06257699  0.03968865  0.62005734  1.0
  H  H24  1  0.25338261  0.14516246  0.68175118  1.0
  H  H25  1  0.27741862  0.25460239  0.65278370  1.0
  H  H26  1  0.30206358  0.63122623  0.63086569  1.0
  H  H27  1  0.14732278  0.51542246  0.05089817  1.0
  H  H28  1  0.97678391  0.41973944  0.03976912  1.0
  H  H29  1  0.89142948  0.46361011  0.14515756  1.0
  H  H30  1  0.97673102  0.60198807  0.25458942  1.0
  H  H31  1  0.32881172  0.00066136  0.63121094  1.0
  H  H32  1  0.63284147  0.53558407  0.48451588  1.0
  H  H33  1  0.55802795  0.62010604  0.58033840  1.0
  H  H34  1  0.42869807  0.68174192  0.53667266  1.0
  H  H35  1  0.37560601  0.65289095  0.39832462  1.0
  H  H36  1  0.32799703  0.63054983  0.99944412  1.0
  H  H37  1  0.09667500  0.94912978  0.46455425  1.0
  H  H38  1  0.93741912  0.96031057  0.37994223  1.0
  H  H39  1  0.74661341  0.85483501  0.31824712  1.0
  H  H40  1  0.72257860  0.74539275  0.34721179  1.0
  H  H41  1  0.69794050  0.36877475  0.36913376  1.0
  C  C42  1  0.89324671  0.46813916  0.90549966  1.0
  C  C43  1  0.98830395  0.52064744  0.91124892  1.0
  C  C44  1  0.03594271  0.49603147  0.85318441  1.0
  C  C45  1  0.98778614  0.41917822  0.79138460  1.0
  C  C46  1  0.89194286  0.37003603  0.78897680  1.0
  C  C47  1  0.82845642  0.29013797  0.72649262  1.0
  C  C48  1  0.75402558  0.18251337  0.62404864  1.0
  C  C49  1  0.71263686  0.11495723  0.54718731  1.0
  C  C50  1  0.67161440  0.03035759  0.42792850  1.0
  C  C51  1  0.42410106  0.43714453  0.53179044  1.0
  C  C52  1  0.46654180  0.39033250  0.47919801  1.0
  C  C53  1  0.53892254  0.35689088  0.50371493  1.0
  C  C54  1  0.56770704  0.37193419  0.58056057  1.0
  C  C55  1  0.52113658  0.41874088  0.62980484  1.0
  C  C56  1  0.53776207  0.43624391  0.70974671  1.0
  C  C57  1  0.57140771  0.44160259  0.81746340  1.0
  C  C58  1  0.59768863  0.43228346  0.88501235  1.0
  C  C59  1  0.64142366  0.39762806  0.96959646  1.0
  C  C60  1  0.98745233  0.09448327  0.56270926  1.0
  C  C61  1  0.07669469  0.08874760  0.60953800  1.0
  C  C62  1  0.18240183  0.14678984  0.64299790  1.0
  C  C63  1  0.19601222  0.20860258  0.62795704  1.0
  C  C64  1  0.10262462  0.21096092  0.58111813  1.0
  C  C65  1  0.10164382  0.27342483  0.56366692  1.0
  C  C66  1  0.12973555  0.37583375  0.55841442  1.0
  C  C67  1  0.16526309  0.45273723  0.56781363  1.0
  C  C68  1  0.24339606  0.57206259  0.60267753  1.0
  C  C69  1  0.10675508  0.53186357  0.09450220  1.0
  C  C70  1  0.01169566  0.47935879  0.08875415  1.0
  C  C71  1  0.96405888  0.50397242  0.14681892  1.0
  C  C72  1  0.01221703  0.58082568  0.20861844  1.0
  C  C73  1  0.10805766  0.62996728  0.21102366  1.0
  C  C74  1  0.17154509  0.70986417  0.27350846  1.0
  C  C75  1  0.24597237  0.81749111  0.37595049  1.0
  C  C76  1  0.28736129  0.88504608  0.45281233  1.0
  C  C77  1  0.32838366  0.96964397  0.57207186  1.0
  C  C78  1  0.57590027  0.56285411  0.46820960  1.0
  C  C79  1  0.53345856  0.60966264  0.52080236  1.0
  C  C80  1  0.46107762  0.64310543  0.49628542  1.0
  C  C81  1  0.43229292  0.62806328  0.41944025  1.0
  C  C82  1  0.47886151  0.58125601  0.37019498  1.0
  C  C83  1  0.46223199  0.56375122  0.29025378  1.0
  C  C84  1  0.42859586  0.55839897  0.18254018  1.0
  C  C85  1  0.40230444  0.56771285  0.11498751  1.0
  C  C86  1  0.35857627  0.60237408  0.03040588  1.0
  C  C87  1  0.01254291  0.90551420  0.43728548  1.0
  C  C88  1  0.92329798  0.91125104  0.39045986  1.0
  C  C89  1  0.81759381  0.85320529  0.35699787  1.0
  C  C90  1  0.80398471  0.79139197  0.37203865  1.0
  C  C91  1  0.89737484  0.78903713  0.41887942  1.0
  C  C92  1  0.89835763  0.72657089  0.43632891  1.0
  C  C93  1  0.87026558  0.62416606  0.44158559  1.0
  C  C94  1  0.83474128  0.54726433  0.43218709  1.0
  C  C95  1  0.75660279  0.42793897  0.39732293  1.0
  S  S96  1  0.48115299  0.18319175  0.75123234  1.0
  S  S97  1  0.29789166  0.56820153  0.81678550  1.0
  S  S98  1  0.72952488  0.24850431  0.43184295  1.0
  S  S99  1  0.51884764  0.81680864  0.24876737  1.0
  S  S100  1  0.70210997  0.43179770  0.18321482  1.0
  S  S101  1  0.27047724  0.75149433  0.56815423  1.0
  N  N102  1  0.84567617  0.39471341  0.84552241  1.0
  N  N103  1  0.73476061  0.25218409  0.73256695  1.0
  N  N104  1  0.68631553  0.18270116  0.66649314  1.0
  N  N105  1  0.84421288  0.24793535  0.65911350  1.0
  N  N106  1  0.61501339  0.06034427  0.52709845  1.0
  N  N107  1  0.58913876  0.00620194  0.45092910  1.0
  N  N108  1  0.75123659  0.09808584  0.48716656  1.0
  N  N109  1  0.45024773  0.45069171  0.60524385  1.0
  N  N110  1  0.48219421  0.48036590  0.74783260  1.0
  N  N111  1  0.50351549  0.48389059  0.81736488  1.0
  N  N112  1  0.59588016  0.41110284  0.75191561  1.0
  N  N113  1  0.55463386  0.46676219  0.93964327  1.0
  N  N114  1  0.58301494  0.44474074  0.99377240  1.0
  N  N115  1  0.65325622  0.38916478  0.90185819  1.0
  N  N116  1  0.99988286  0.15437296  0.54913903  1.0
  N  N117  1  0.00195513  0.26732687  0.51952643  1.0
  N  N118  1  0.01964054  0.33337221  0.51605751  1.0
  N  N119  1  0.18477074  0.34080879  0.58889552  1.0
  N  N120  1  0.08776603  0.47284057  0.53325040  1.0
  N  N121  1  0.13799822  0.54905916  0.55542642  1.0
  N  N122  1  0.26377147  0.51279081  0.61111157  1.0
  N  N123  1  0.15432750  0.60528990  0.15447947  1.0
  N  N124  1  0.26524218  0.74781747  0.26743405  1.0
  N  N125  1  0.31368291  0.81730274  0.33350630  1.0
  N  N126  1  0.15578606  0.75206796  0.34088576  1.0
  N  N127  1  0.38498633  0.93965904  0.47290239  1.0
  N  N128  1  0.41085989  0.99380078  0.54907134  1.0
  N  N129  1  0.24876019  0.90191631  0.51283190  1.0
  N  N130  1  0.54975360  0.54930693  0.39475619  1.0
  N  N131  1  0.51779957  0.51962865  0.25216760  1.0
  N  N132  1  0.49648995  0.51611156  0.18263921  1.0
  N  N133  1  0.40411989  0.58889638  0.24808746  1.0
  N  N134  1  0.44535813  0.53323354  0.06035571  1.0
  N  N135  1  0.41698275  0.55525848  0.00622887  1.0
  N  N136  1  0.34674284  0.61083561  0.09814377  1.0
  N  N137  1  0.00011346  0.84562509  0.45085661  1.0
  N  N138  1  0.99804699  0.73267177  0.48046927  1.0
  N  N139  1  0.98036117  0.66666667  0.48394260  1.0
  N  N140  1  0.81523109  0.65918927  0.41110136  1.0
  N  N141  1  0.91223480  0.52715865  0.46674933  1.0
  N  N142  1  0.86199876  0.45094182  0.44457452  1.0
  N  N143  1  0.73622925  0.48721133  0.38888693  1.0
  O  O144  1  0.58998441  0.23086191  0.82189900  1.0
  O  O145  1  0.46543250  0.22543534  0.70875687  1.0
  O  O146  1  0.38954519  0.16194732  0.77716741  1.0
  O  O147  1  0.49587585  0.10630834  0.69908338  1.0
  O  O148  1  0.35951349  0.59142952  0.76942783  1.0
  O  O149  1  0.23984107  0.48347220  0.77426687  1.0
  O  O150  1  0.22746868  0.61535606  0.83800283  1.0
  O  O151  1  0.38913293  0.59269322  0.89369881  1.0
  O  O152  1  0.76810100  0.17797985  0.40864137  1.0
  O  O153  1  0.75582202  0.29053516  0.51651222  1.0
  O  O154  1  0.61204463  0.22249914  0.38451677  1.0
  O  O155  1  0.79636328  0.30111285  0.40756948  1.0
  O  O156  1  0.41001552  0.76914024  0.17810136  1.0
  O  O157  1  0.53456589  0.77456213  0.29123979  1.0
  O  O158  1  0.61045731  0.83805365  0.22283429  1.0
  O  O159  1  0.50412665  0.89369263  0.30091733  1.0
  O  O160  1  0.64048763  0.40857029  0.23057218  1.0
  O  O161  1  0.76016291  0.51652702  0.22573674  1.0
  O  O162  1  0.77252833  0.38464025  0.16199462  1.0
  O  O163  1  0.61086683  0.40730542  0.10630249  1.0
  O  O164  1  0.23190112  0.82201879  0.59135433  1.0
  O  O165  1  0.24417648  0.70945940  0.48348418  1.0
  O  O166  1  0.38795630  0.77750184  0.61548224  1.0
  O  O167  1  0.20363764  0.69888812  0.59242855  1.0
