# generated using pymatgen
data_ZnH30C30NO7
_symmetry_space_group_name_H-M   'P 1'
_cell_length_a   13.90684030
_cell_length_b   14.91339653
_cell_length_c   15.21328334
_cell_angle_alpha   90.09085404
_cell_angle_beta   90.56664658
_cell_angle_gamma   90.51824038
_symmetry_Int_Tables_number   1
_chemical_formula_structural   ZnH30C30NO7
_chemical_formula_sum   'Zn2 H60 C60 N2 O14'
_cell_volume   3154.92015404
_cell_formula_units_Z   2
loop_
 _symmetry_equiv_pos_site_id
 _symmetry_equiv_pos_as_xyz
  1  'x, y, z'
loop_
 _atom_site_type_symbol
 _atom_site_label
 _atom_site_symmetry_multiplicity
 _atom_site_fract_x
 _atom_site_fract_y
 _atom_site_fract_z
 _atom_site_occupancy
  Zn  Zn0  1  0.40708667  0.49940225  0.49095629  1.0
  Zn  Zn1  1  0.60579448  0.50367667  0.48714106  1.0
  H  H2  1  0.38293881  0.57473101  0.75884449  1.0
  H  H3  1  0.61837356  0.25202629  0.62388730  1.0
  H  H4  1  0.93612688  0.36610296  0.44260981  1.0
  H  H5  1  0.07550071  0.56210459  0.61797972  1.0
  H  H6  1  0.94195078  0.64137134  0.53228075  1.0
  H  H7  1  0.07298575  0.44142129  0.35944315  1.0
  H  H8  1  0.75537590  0.37320904  0.44571253  1.0
  H  H9  1  0.25620550  0.55516648  0.61477521  1.0
  H  H10  1  0.76069774  0.63713188  0.52811579  1.0
  H  H11  1  0.25388961  0.44381628  0.36610944  1.0
  H  H12  1  0.75237757  0.43253318  0.82672741  1.0
  H  H13  1  0.59481532  0.40279039  0.21959702  1.0
  H  H14  1  0.71661587  0.48089062  0.72366226  1.0
  H  H15  1  0.78895668  0.28817295  0.74586539  1.0
  H  H16  1  0.76047859  0.34197076  0.64566967  1.0
  H  H17  1  0.89329613  0.45673776  0.67466975  1.0
  H  H18  1  0.94013523  0.34626514  0.67308607  1.0
  H  H19  1  0.92222984  0.40181496  0.77477314  1.0
  H  H20  1  0.35362370  0.75335070  0.24546326  1.0
  H  H21  1  0.40997716  0.74025849  0.14129472  1.0
  H  H22  1  0.50458981  0.69920510  0.32005940  1.0
  H  H23  1  0.55867181  0.68467245  0.21646714  1.0
  H  H24  1  0.66341273  0.32435438  0.92074426  1.0
  H  H25  1  0.53891157  0.85257471  0.18688791  1.0
  H  H26  1  0.61435360  0.82912063  0.27864698  1.0
  H  H27  1  0.49502156  0.86497733  0.29556476  1.0
  H  H28  1  0.41057395  0.06095480  0.34133693  1.0
  H  H29  1  0.29649085  0.09039344  0.38516200  1.0
  H  H30  1  0.35858876  0.89588398  0.35978811  1.0
  H  H31  1  0.24206327  0.93377485  0.38404920  1.0
  H  H32  1  0.23686645  0.01378338  0.23445674  1.0
  H  H33  1  0.25028161  0.89608296  0.22389510  1.0
  H  H34  1  0.35140528  0.96811846  0.21108939  1.0
  H  H35  1  0.30939102  0.64847773  0.05719768  1.0
  H  H36  1  0.58114578  0.99751433  0.39469851  1.0
  H  H37  1  0.68779334  0.93493420  0.37568898  1.0
  H  H38  1  0.67747462  0.13150031  0.43525361  1.0
  H  H39  1  0.78558336  0.07089973  0.42443672  1.0
  H  H40  1  0.75069585  0.04821936  0.26188847  1.0
  H  H41  1  0.75352839  0.16407737  0.28884398  1.0
  H  H42  1  0.64161326  0.10830756  0.27258269  1.0
  H  H43  1  0.34697444  0.96672148  0.79823247  1.0
  H  H44  1  0.42836262  0.87622024  0.78400987  1.0
  H  H45  1  0.21442835  0.86675899  0.73311060  1.0
  H  H46  1  0.65594381  0.32984103  0.08353732  1.0
  H  H47  1  0.29450997  0.77533429  0.73996193  1.0
  H  H48  1  0.31517222  0.80468987  0.90467942  1.0
  H  H49  1  0.19406160  0.77935398  0.87548522  1.0
  H  H50  1  0.22964684  0.89204691  0.89614137  1.0
  H  H51  1  0.63969225  0.01446359  0.79498150  1.0
  H  H52  1  0.51981899  0.02813278  0.75455544  1.0
  H  H53  1  0.64653607  0.17844860  0.83293498  1.0
  H  H54  1  0.52706437  0.19127116  0.79612841  1.0
  H  H55  1  0.47000359  0.08168447  0.91291641  1.0
  H  H56  1  0.53279601  0.17417791  0.96041040  1.0
  H  H57  1  0.31113207  0.63709544  0.89487201  1.0
  H  H58  1  0.59064724  0.06905231  0.94996658  1.0
  H  H59  1  0.39633366  0.19789208  0.43170243  1.0
  H  H60  1  0.64945398  0.79394292  0.48207567  1.0
  H  H61  1  0.38777817  0.76271104  0.62760594  1.0
  C  C62  1  0.51251715  0.32831602  0.49363798  1.0
  C  C63  1  0.59261976  0.82316806  0.52130964  1.0
  C  C64  1  0.44568862  0.80586195  0.60443863  1.0
  C  C65  1  0.56939738  0.20490376  0.59155797  1.0
  C  C66  1  0.50890705  0.23298511  0.52332786  1.0
  C  C67  1  0.51743725  0.76903644  0.55185563  1.0
  C  C68  1  0.50526311  0.05302143  0.57705614  1.0
  C  C69  1  0.51586002  0.95446763  0.58453683  1.0
  C  C70  1  0.90024967  0.42787387  0.46115163  1.0
  C  C71  1  0.11212723  0.53563126  0.56065975  1.0
  C  C72  1  0.90350915  0.58045557  0.51264137  1.0
  C  C73  1  0.51196337  0.67295728  0.52358815  1.0
  C  C74  1  0.11073168  0.46697813  0.41749769  1.0
  C  C75  1  0.80052027  0.43105707  0.46245874  1.0
  C  C76  1  0.21188984  0.53199355  0.55961310  1.0
  C  C77  1  0.80357277  0.57896293  0.51057931  1.0
  C  C78  1  0.21059850  0.46763748  0.42057778  1.0
  C  C79  1  0.95366518  0.50368999  0.48716039  1.0
  C  C80  1  0.05964311  0.50220178  0.48843633  1.0
  C  C81  1  0.49467836  0.51092126  0.31929175  1.0
  C  C82  1  0.50453748  0.48512810  0.65989265  1.0
  C  C83  1  0.43191203  0.53527489  0.79941544  1.0
  C  C84  1  0.61109851  0.37383937  0.04346428  1.0
  C  C85  1  0.54752722  0.44374007  0.17894273  1.0
  C  C86  1  0.50070548  0.48265952  0.75815930  1.0
  C  C87  1  0.48861163  0.50580678  0.22086052  1.0
  C  C88  1  0.56355650  0.42988539  0.80829850  1.0
  C  C89  1  0.42773948  0.56102400  0.17030781  1.0
  C  C90  1  0.55678978  0.42806928  0.90077337  1.0
  C  C91  1  0.42435832  0.55256538  0.07774667  1.0
  C  C92  1  0.48979037  0.48593531  0.94257600  1.0
  C  C93  1  0.48708233  0.49067185  0.03586830  1.0
  C  C94  1  0.42673836  0.54025967  0.89110222  1.0
  C  C95  1  0.36075893  0.59780689  0.93495027  1.0
  C  C96  1  0.54885892  0.43509565  0.08738362  1.0
  C  C97  1  0.61563597  0.37076715  0.95385536  1.0
  C  C98  1  0.36006969  0.60458655  0.02449658  1.0
  C  C99  1  0.72399997  0.41746831  0.76010304  1.0
  C  C100  1  0.78958310  0.35353677  0.71229817  1.0
  C  C101  1  0.89193676  0.39149495  0.70838358  1.0
  C  C102  1  0.40789298  0.71504193  0.20961367  1.0
  C  C103  1  0.50668166  0.72559908  0.25262775  1.0
  C  C104  1  0.54034191  0.82346717  0.25332046  1.0
  C  C105  1  0.35094228  0.03699278  0.38306715  1.0
  C  C106  1  0.44309511  0.08369882  0.50954851  1.0
  C  C107  1  0.30746693  0.95042902  0.34704681  1.0
  C  C108  1  0.28516442  0.95753332  0.24878692  1.0
  C  C109  1  0.65742716  0.99077053  0.41416335  1.0
  C  C110  1  0.71204643  0.07765963  0.39777788  1.0
  C  C111  1  0.71462723  0.10072242  0.29996416  1.0
  C  C112  1  0.36100478  0.90596334  0.75913430  1.0
  C  C113  1  0.27690331  0.84052654  0.76949805  1.0
  C  C114  1  0.25262100  0.82838493  0.86671828  1.0
  C  C115  1  0.58916284  0.06286458  0.76607772  1.0
  C  C116  1  0.57683335  0.14329489  0.82677090  1.0
  C  C117  1  0.59127330  0.91499480  0.53750139  1.0
  C  C118  1  0.54059852  0.11549570  0.91736958  1.0
  C  C119  1  0.44595418  0.89783092  0.62212573  1.0
  C  C120  1  0.56623052  0.11560717  0.61900693  1.0
  C  C121  1  0.44375155  0.17327280  0.48340211  1.0
  N  N122  1  0.75333579  0.50541373  0.48629701  1.0
  N  N123  1  0.25990635  0.49913749  0.49066547  1.0
  O  O124  1  0.43557773  0.36359284  0.46457362  1.0
  O  O125  1  0.37076236  0.62393366  0.21015797  1.0
  O  O126  1  0.38755996  0.01886183  0.46943750  1.0
  O  O127  1  0.66359418  0.97026346  0.50655101  1.0
  O  O128  1  0.37508174  0.93819034  0.67074225  1.0
  O  O129  1  0.63052559  0.08842684  0.68301607  1.0
  O  O130  1  0.58789106  0.63951398  0.49052786  1.0
  O  O131  1  0.43205204  0.63178572  0.53231702  1.0
  O  O132  1  0.59405578  0.36815485  0.50093458  1.0
  O  O133  1  0.41739217  0.52532382  0.36103328  1.0
  O  O134  1  0.58338663  0.50711788  0.62436321  1.0
  O  O135  1  0.42525911  0.46762592  0.62047562  1.0
  O  O136  1  0.57725486  0.49812372  0.35366165  1.0
  O  O137  1  0.62973837  0.37614076  0.76730271  1.0
