# generated using pymatgen
data_AlH6C11SN2O5F
_symmetry_space_group_name_H-M   'P 1'
_cell_length_a   6.68322110
_cell_length_b   12.76278130
_cell_length_c   16.85634378
_cell_angle_alpha   92.04488659
_cell_angle_beta   96.16229085
_cell_angle_gamma   104.64396849
_symmetry_Int_Tables_number   1
_chemical_formula_structural   AlH6C11SN2O5F
_chemical_formula_sum   'Al2 H12 C22 S2 N4 O10 F2'
_cell_volume   1380.09067420
_cell_formula_units_Z   2
loop_
 _symmetry_equiv_pos_site_id
 _symmetry_equiv_pos_as_xyz
  1  'x, y, z'
loop_
 _atom_site_type_symbol
 _atom_site_label
 _atom_site_symmetry_multiplicity
 _atom_site_fract_x
 _atom_site_fract_y
 _atom_site_fract_z
 _atom_site_occupancy
  Al  Al0  1  0.00015119  0.49565718  0.49968197  1.0
  Al  Al1  1  0.49947789  0.49272334  0.50054534  1.0
  H  H2  1  0.17054487  0.36694653  0.44865739  1.0
  H  H3  1  0.82315610  0.62574557  0.54234626  1.0
  H  H4  1  0.58633764  0.44097903  0.73269882  1.0
  H  H5  1  0.65436763  0.44071205  0.88232071  1.0
  H  H6  1  0.09713024  0.54483097  0.90268178  1.0
  H  H7  1  0.93486467  0.54864329  0.10004790  1.0
  H  H8  1  0.27693243  0.44202188  0.11514234  1.0
  H  H9  1  0.35320516  0.43962416  0.26431568  1.0
  H  H10  1  0.94802544  0.54125356  0.68816500  1.0
  H  H11  1  0.88926321  0.56889405  0.78401651  1.0
  H  H12  1  0.08895543  0.54535418  0.31342341  1.0
  H  H13  1  0.17245560  0.56985270  0.21912288  1.0
  C  C14  1  0.65573542  0.29964678  0.50714406  1.0
  C  C15  1  0.71205913  0.49178539  0.35473199  1.0
  C  C16  1  0.34790777  0.68954102  0.49312102  1.0
  C  C17  1  0.28580797  0.49704118  0.64521602  1.0
  C  C18  1  0.30882398  0.49553228  0.73303237  1.0
  C  C19  1  0.48300830  0.46578841  0.77109863  1.0
  C  C20  1  0.52210828  0.46573140  0.85317921  1.0
  C  C21  1  0.38052570  0.49660611  0.89995489  1.0
  C  C22  1  0.20409078  0.52337448  0.86421793  1.0
  C  C23  1  0.16295689  0.52423110  0.78015871  1.0
  C  C24  1  0.80882391  0.52652847  0.13739110  1.0
  C  C25  1  0.60464052  0.49883144  0.10038614  1.0
  C  C26  1  0.43522415  0.46720129  0.14558450  1.0
  C  C27  1  0.47868909  0.46582178  0.22739491  1.0
  C  C28  1  0.68400499  0.49577032  0.26712532  1.0
  C  C29  1  0.85514376  0.52692751  0.22132056  1.0
  C  C30  1  0.29533430  0.88061888  0.51473535  1.0
  C  C31  1  0.71209596  0.10879824  0.48551664  1.0
  C  C32  1  0.40799287  0.80832727  0.49427499  1.0
  C  C33  1  0.59898174  0.18086041  0.50602074  1.0
  C  C34  1  0.60342426  0.99902612  0.48852662  1.0
  C  C35  1  0.40443125  0.99026456  0.51185859  1.0
  S  S36  1  0.65407835  0.87499850  0.47125937  1.0
  S  S37  1  0.35323463  0.11402535  0.52921752  1.0
  N  N38  1  0.40207469  0.49963112  0.98449967  1.0
  N  N39  1  0.58361201  0.50134275  0.01616231  1.0
  N  N40  1  0.99293496  0.55522649  0.74796583  1.0
  N  N41  1  0.05721508  0.55818787  0.25478023  1.0
  O  O42  1  0.84341860  0.34707515  0.49893562  1.0
  O  O43  1  0.55003868  0.47625146  0.39136287  1.0
  O  O44  1  0.49225686  0.64175333  0.48639743  1.0
  O  O45  1  0.10415234  0.49330333  0.60933691  1.0
  O  O46  1  0.15806066  0.64410428  0.49925739  1.0
  O  O47  1  0.44807406  0.50374318  0.60985639  1.0
  O  O48  1  0.50949591  0.34536384  0.51578683  1.0
  O  O49  1  0.89776315  0.50284515  0.38986581  1.0
  O  O50  1  0.21542546  0.44361296  0.46542201  1.0
  O  O51  1  0.78417731  0.54710577  0.53453113  1.0
  F  F52  1  0.10251122  0.85162400  0.53702885  1.0
  F  F53  1  0.90474642  0.13831737  0.46313192  1.0
