# generated using pymatgen
data_ZnH16C18(N2O)4
_symmetry_space_group_name_H-M   'P 1'
_cell_length_a   11.07817135
_cell_length_b   16.03925856
_cell_length_c   17.37678079
_cell_angle_alpha   95.15085147
_cell_angle_beta   90.05731020
_cell_angle_gamma   92.39441898
_symmetry_Int_Tables_number   1
_chemical_formula_structural   ZnH16C18(N2O)4
_chemical_formula_sum   'Zn2 H32 C36 N16 O8'
_cell_volume   3072.41632737
_cell_formula_units_Z   2
loop_
 _symmetry_equiv_pos_site_id
 _symmetry_equiv_pos_as_xyz
  1  'x, y, z'
loop_
 _atom_site_type_symbol
 _atom_site_label
 _atom_site_symmetry_multiplicity
 _atom_site_fract_x
 _atom_site_fract_y
 _atom_site_fract_z
 _atom_site_occupancy
  Zn  Zn0  1  0.50152521  0.40816171  0.49969422  1.0
  Zn  Zn1  1  0.51027893  0.58940241  0.50305100  1.0
  H  H2  1  0.39000916  0.71332293  0.42619258  1.0
  H  H3  1  0.37789546  0.87027352  0.43038431  1.0
  H  H4  1  0.32778372  0.11027981  0.40643045  1.0
  H  H5  1  0.61178123  0.11689873  0.57658375  1.0
  H  H6  1  0.50882698  0.61572509  0.26470513  1.0
  H  H7  1  0.51220037  0.61524394  0.12001776  1.0
  H  H8  1  0.53068582  0.65860735  0.90206967  1.0
  H  H9  1  0.48599123  0.39106429  0.89508764  1.0
  H  H10  1  0.77908861  0.59345951  0.39195960  1.0
  H  H11  1  0.88906918  0.67912439  0.30229479  1.0
  H  H12  1  0.22808659  0.60553723  0.39003054  1.0
  H  H13  1  0.11539259  0.68447449  0.30089631  1.0
  H  H14  1  0.70343945  0.66395318  0.58010143  1.0
  H  H15  1  0.71005073  0.74896737  0.64901521  1.0
  H  H16  1  0.68728685  0.96138491  0.60539043  1.0
  H  H17  1  0.76674436  0.87345471  0.61668335  1.0
  H  H18  1  0.30632869  0.33904803  0.42887148  1.0
  H  H19  1  0.25743909  0.24474809  0.37808194  1.0
  H  H20  1  0.60152450  0.34188367  0.61671526  1.0
  H  H21  1  0.66743104  0.25144671  0.63697367  1.0
  H  H22  1  0.50004017  0.33083003  0.30699720  1.0
  H  H23  1  0.53905067  0.28165079  0.21857481  1.0
  H  H24  1  0.48633655  0.33414332  0.03512463  1.0
  H  H25  1  0.44176655  0.28194250  0.11255847  1.0
  H  H26  1  0.50741198  0.66363597  0.69523990  1.0
  H  H27  1  0.51167902  0.72067161  0.78573284  1.0
  H  H28  1  0.45417062  0.35796565  0.68972203  1.0
  H  H29  1  0.44220507  0.31685901  0.77813925  1.0
  H  H30  1  0.21349734  0.39126985  0.57866935  1.0
  H  H31  1  0.07446270  0.35007344  0.60223224  1.0
  H  H32  1  0.79503228  0.38149247  0.57976923  1.0
  H  H33  1  0.90874252  0.40045689  0.64585494  1.0
  C  C34  1  0.50548923  0.48743569  0.34990210  1.0
  C  C35  1  0.26814922  0.50794521  0.49809868  1.0
  C  C36  1  0.50281170  0.50892130  0.65697093  1.0
  C  C37  1  0.74304978  0.49652414  0.50151210  1.0
  C  C38  1  0.44967364  0.75572269  0.46267586  1.0
  C  C39  1  0.44256289  0.84110419  0.46541063  1.0
  C  C40  1  0.52266539  0.89182704  0.51485098  1.0
  C  C41  1  0.60584273  0.85370713  0.56045089  1.0
  C  C42  1  0.60738132  0.76397047  0.55366906  1.0
  C  C43  1  0.39269251  0.14564197  0.44500471  1.0
  C  C44  1  0.47134452  0.10369673  0.48911741  1.0
  C  C45  1  0.55212884  0.14898271  0.54049420  1.0
  C  C46  1  0.55134039  0.23640001  0.54638724  1.0
  C  C47  1  0.39619961  0.23399067  0.45362446  1.0
  C  C48  1  0.50177233  0.48157803  0.26412454  1.0
  C  C49  1  0.50608208  0.55728393  0.22749782  1.0
  C  C50  1  0.50833128  0.55741551  0.14839439  1.0
  C  C51  1  0.50399649  0.48024012  0.10189991  1.0
  C  C52  1  0.49825055  0.40375998  0.13659941  1.0
  C  C53  1  0.49823405  0.40389682  0.21872176  1.0
  C  C54  1  0.52008062  0.59833454  0.86782609  1.0
  C  C55  1  0.50886261  0.52562602  0.90612992  1.0
  C  C56  1  0.49501682  0.44720127  0.86430085  1.0
  C  C57  1  0.49272224  0.44057630  0.78362247  1.0
  C  C58  1  0.50545772  0.51436562  0.74221641  1.0
  C  C59  1  0.51799574  0.59420190  0.78674799  1.0
  C  C60  1  0.87753284  0.49787497  0.49597225  1.0
  C  C61  1  0.93993777  0.55045819  0.44503429  1.0
  C  C62  1  0.94063540  0.44810175  0.54225121  1.0
  C  C63  1  0.87746125  0.59653860  0.39262040  1.0
  C  C64  1  0.93913597  0.64465984  0.34225830  1.0
  C  C65  1  0.13357360  0.50505005  0.49558011  1.0
  C  C66  1  0.07047037  0.45140016  0.54199262  1.0
  C  C67  1  0.06970087  0.55428573  0.44513648  1.0
  C  C68  1  0.12988798  0.60350152  0.39167811  1.0
  C  C69  1  0.06644001  0.64779249  0.34165563  1.0
  N  N70  1  0.52973433  0.71769261  0.50647947  1.0
  N  N71  1  0.53206681  0.97918661  0.52122437  1.0
  N  N72  1  0.45846702  0.01502241  0.48018396  1.0
  N  N73  1  0.47678387  0.27887625  0.50221937  1.0
  N  N74  1  0.50128462  0.47119290  0.02140385  1.0
  N  N75  1  0.51297777  0.53833480  0.98776923  1.0
  N  N76  1  0.69387238  0.72689104  0.59324921  1.0
  N  N77  1  0.68495085  0.89867764  0.61067561  1.0
  N  N78  1  0.31888032  0.27700203  0.41336742  1.0
  N  N79  1  0.62736637  0.28325899  0.59689382  1.0
  N  N80  1  0.49093232  0.32655982  0.24821104  1.0
  N  N81  1  0.49698705  0.32737206  0.09245347  1.0
  N  N82  1  0.53147684  0.66807439  0.75225123  1.0
  N  N83  1  0.47942507  0.36092883  0.74611938  1.0
  N  N84  1  0.12564241  0.40194993  0.59181758  1.0
  N  N85  1  0.88560380  0.39089673  0.58892245  1.0
  O  O86  1  0.49782197  0.41897086  0.38328190  1.0
  O  O87  1  0.51675334  0.56014557  0.38608484  1.0
  O  O88  1  0.32556042  0.57796445  0.49849186  1.0
  O  O89  1  0.31951302  0.43740210  0.50082524  1.0
  O  O90  1  0.49879733  0.57579249  0.62210446  1.0
  O  O91  1  0.50464251  0.43573098  0.61894104  1.0
  O  O92  1  0.68672502  0.42525109  0.49671725  1.0
  O  O93  1  0.69232247  0.56663006  0.51261625  1.0
