# generated using pymatgen
data_Zn6H36C70N5Cl5O24
_symmetry_space_group_name_H-M   'P 1'
_cell_length_a   18.49589110
_cell_length_b   18.61236739
_cell_length_c   18.70246361
_cell_angle_alpha   110.00968328
_cell_angle_beta   109.19360246
_cell_angle_gamma   108.85987849
_symmetry_Int_Tables_number   1
_chemical_formula_structural   Zn6H36C70N5Cl5O24
_chemical_formula_sum   'Zn6 H36 C70 N5 Cl5 O24'
_cell_volume   4977.18102938
_cell_formula_units_Z   1
loop_
 _symmetry_equiv_pos_site_id
 _symmetry_equiv_pos_as_xyz
  1  'x, y, z'
loop_
 _atom_site_type_symbol
 _atom_site_label
 _atom_site_symmetry_multiplicity
 _atom_site_fract_x
 _atom_site_fract_y
 _atom_site_fract_z
 _atom_site_occupancy
  Zn  Zn0  1  0.92899772  0.00292304  0.43123771  1.0
  Zn  Zn1  1  0.05198429  0.99778686  0.55484849  1.0
  Zn  Zn2  1  0.06830075  0.56887144  0.00788493  1.0
  Zn  Zn3  1  0.93933334  0.44909512  0.00932279  1.0
  Zn  Zn4  1  0.51300797  0.43263075  0.44707238  1.0
  Zn  Zn5  1  0.48587480  0.54623974  0.55495475  1.0
  H  H6  1  0.07446467  0.71770948  0.30991390  1.0
  H  H7  1  0.55305439  0.69541754  0.49151246  1.0
  H  H8  1  0.75893133  0.59615652  0.46898989  1.0
  H  H9  1  0.09714515  0.23931836  0.60723615  1.0
  H  H10  1  0.24052928  0.37486409  0.68822306  1.0
  H  H11  1  0.89161544  0.25515649  0.78859021  1.0
  H  H12  1  0.29933507  0.23095173  0.63462803  1.0
  H  H13  1  0.90619579  0.70168662  0.27523331  1.0
  H  H14  1  0.05070183  0.03534742  0.34136698  1.0
  H  H15  1  0.02438362  0.01299588  0.19659665  1.0
  H  H16  1  0.13944938  0.11076142  0.18008470  1.0
  H  H17  1  0.28149790  0.23016767  0.31051978  1.0
  H  H18  1  0.40760072  0.33776163  0.61920829  1.0
  H  H19  1  0.14216825  0.54423644  0.28642249  1.0
  H  H20  1  0.24202819  0.33763770  0.98989192  1.0
  H  H21  1  0.86580641  0.65860530  0.09983524  1.0
  H  H22  1  0.26878339  0.55875855  0.40585831  1.0
  H  H23  1  0.70084839  0.37951638  0.78066036  1.0
  H  H24  1  0.94295697  0.67009959  0.98637262  1.0
  H  H25  1  0.98281809  0.81571617  0.00147341  1.0
  H  H26  1  0.88790570  0.83303341  0.88638640  1.0
  H  H27  1  0.60089374  0.39435427  0.66585642  1.0
  H  H28  1  0.93112691  0.83869687  0.15144143  1.0
  H  H29  1  0.14081314  0.89959495  0.36430762  1.0
  H  H30  1  0.78375501  0.93333544  0.50114605  1.0
  H  H31  1  0.65894587  0.94697812  0.50831087  1.0
  H  H32  1  0.47318818  0.77411334  0.48600482  1.0
  H  H33  1  0.51276778  0.87171762  0.48871954  1.0
  H  H34  1  0.83840842  0.05295039  0.60989068  1.0
  H  H35  1  0.81720735  0.09944091  0.68978504  1.0
  H  H36  1  0.05849701  0.33966847  0.02234217  1.0
  H  H37  1  0.09423165  0.32399231  0.94805628  1.0
  H  H38  1  0.49714544  0.49826258  0.25069924  1.0
  H  H39  1  0.47023619  0.49880289  0.32812570  1.0
  H  H40  1  0.67720527  0.67707218  0.71093715  1.0
  H  H41  1  0.76904997  0.77413730  0.75729626  1.0
  C  C42  1  0.89157516  0.87503985  0.50294176  1.0
  C  C43  1  0.05666334  0.82304846  0.20926992  1.0
  C  C44  1  0.07982003  0.84517762  0.30525668  1.0
  C  C45  1  0.98655909  0.83553320  0.28384341  1.0
  C  C46  1  0.73571280  0.88271206  0.50308532  1.0
  C  C47  1  0.66454258  0.88941562  0.50517094  1.0
  C  C48  1  0.59711008  0.82128894  0.50115786  1.0
  C  C49  1  0.60488916  0.74795635  0.49537891  1.0
  C  C50  1  0.67776358  0.73971453  0.49409478  1.0
  C  C51  1  0.74579366  0.80864876  0.49768043  1.0
  C  C52  1  0.81984366  0.80121528  0.49564839  1.0
  C  C53  1  0.97382880  0.89448128  0.34898846  1.0
  C  C54  1  0.82300467  0.72475692  0.48494020  1.0
  C  C55  1  0.75537187  0.65566073  0.47814409  1.0
  C  C56  1  0.68554702  0.66310144  0.48486072  1.0
  C  C57  1  0.11779334  0.29064424  0.67178107  1.0
  C  C58  1  0.19774101  0.36544739  0.71650610  1.0
  C  C59  1  0.22758571  0.42929962  0.80252845  1.0
  C  C60  1  0.17440795  0.42054663  0.84078573  1.0
  C  C61  1  0.08532087  0.34983374  0.79040722  1.0
  C  C62  1  0.06100681  0.27957893  0.70778850  1.0
  C  C63  1  0.98167255  0.19832452  0.66281439  1.0
  C  C64  1  0.13604092  0.10695189  0.51418569  1.0
  C  C65  1  0.92190960  0.18649723  0.69334930  1.0
  C  C66  1  0.94073822  0.25998501  0.76774157  1.0
  C  C67  1  0.01844250  0.33921503  0.81555132  1.0
  C  C68  1  0.10226801  0.07758335  0.33574880  1.0
  C  C69  1  0.08710105  0.06573321  0.25426619  1.0
  C  C70  1  0.15198283  0.12097465  0.24491387  1.0
  C  C71  1  0.23121577  0.18775273  0.31764530  1.0
  C  C72  1  0.24928243  0.20160078  0.40269284  1.0
  C  C73  1  0.18336956  0.14507418  0.41244936  1.0
  C  C74  1  0.20342076  0.15842018  0.49843229  1.0
  C  C75  1  0.97073026  0.12123519  0.58979972  1.0
  C  C76  1  0.28500857  0.22344193  0.57031287  1.0
  C  C77  1  0.34651576  0.28245090  0.56137153  1.0
  C  C78  1  0.32911255  0.27245184  0.47961513  1.0
  C  C79  1  0.09443255  0.47534920  0.11813608  1.0
  C  C80  1  0.03174837  0.65419790  0.12377919  1.0
  C  C81  1  0.86030374  0.49930106  0.90978471  1.0
  C  C82  1  0.01896175  0.41043033  0.88502095  1.0
  C  C83  1  0.61422065  0.52766103  0.65188871  1.0
  C  C84  1  0.62027723  0.59008413  0.48398733  1.0
  C  C85  1  0.38234956  0.50980321  0.39707142  1.0
  C  C86  1  0.94935969  0.73482347  0.25518306  1.0
  C  C87  1  0.39287308  0.34368629  0.47671367  1.0
  C  C88  1  0.19313402  0.38429664  0.07543270  1.0
  C  C89  1  0.25808464  0.37692534  0.05704237  1.0
  C  C90  1  0.34466646  0.42022029  0.12454172  1.0
  C  C91  1  0.37041453  0.46451529  0.21371811  1.0
  C  C92  1  0.30344482  0.46863211  0.23471294  1.0
  C  C93  1  0.21858021  0.44007148  0.16467775  1.0
  C  C94  1  0.16430735  0.47295080  0.18567265  1.0
  C  C95  1  0.18389490  0.51853890  0.27171629  1.0
  C  C96  1  0.25725648  0.53063573  0.33901529  1.0
  C  C97  1  0.04249789  0.74577195  0.27639799  1.0
  C  C98  1  0.31651293  0.50652571  0.32274036  1.0
  C  C99  1  0.89879723  0.67711066  0.93768838  1.0
  C  C100  1  0.92170637  0.75862422  0.94518966  1.0
  C  C101  1  0.86800023  0.76837993  0.88059137  1.0
  C  C102  1  0.78922297  0.69729184  0.80764370  1.0
  C  C103  1  0.76110323  0.61133499  0.79951460  1.0
  C  C104  1  0.81972494  0.60201588  0.86503672  1.0
  C  C105  1  0.79628827  0.51612951  0.85470451  1.0
  C  C106  1  0.71704615  0.44367912  0.78635321  1.0
  C  C107  1  0.66102091  0.45227509  0.72230073  1.0
  C  C108  1  0.02007412  0.72299175  0.17968315  1.0
  C  C109  1  0.68199683  0.53349684  0.72784487  1.0
  C  C110  1  0.92641879  0.71286213  0.15942323  1.0
  C  C111  1  0.96284519  0.81233138  0.18756705  1.0
  N  N112  1  0.52693150  0.82975652  0.50570457  1.0
  N  N113  1  0.84451880  0.10881123  0.65258630  1.0
  N  N114  1  0.10685279  0.33708204  0.00941896  1.0
  N  N115  1  0.45890745  0.50957956  0.27678923  1.0
  N  N116  1  0.74391904  0.71058371  0.74255807  1.0
  Cl  Cl117  1  0.33351615  0.51552003  0.86010981  1.0
  Cl  Cl118  1  0.22361675  0.48882481  0.95186615  1.0
  Cl  Cl119  1  0.42347186  0.41549641  0.09482627  1.0
  Cl  Cl120  1  0.12685915  0.88215600  0.18202075  1.0
  Cl  Cl121  1  0.90700801  0.70834688  0.47484635  1.0
  O  O122  1  0.86837725  0.90365349  0.45164308  1.0
  O  O123  1  0.01312159  0.42781828  0.09366800  1.0
  O  O124  1  0.08598594  0.67568449  0.09599179  1.0
  O  O125  1  0.98495495  0.57694683  0.10657401  1.0
  O  O126  1  0.93971364  0.53959075  0.92889698  1.0
  O  O127  1  0.83226867  0.44220609  0.93256884  1.0
  O  O128  1  0.06440293  0.49021603  0.90556343  1.0
  O  O129  1  0.97092843  0.38672276  0.91727922  1.0
  O  O130  1  0.59614861  0.47411383  0.57661283  1.0
  O  O131  1  0.57449750  0.57249117  0.66666667  1.0
  O  O132  1  0.60060064  0.51051444  0.43365249  1.0
  O  O133  1  0.97093322  0.90534643  0.56099194  1.0
  O  O134  1  0.58700863  0.60875547  0.53239458  1.0
  O  O135  1  0.41183078  0.45609073  0.38152548  1.0
  O  O136  1  0.40434789  0.56417798  0.47621674  1.0
  O  O137  1  0.42761478  0.32437619  0.42861197  1.0
  O  O138  1  0.40871090  0.42051455  0.52449805  1.0
  O  O139  1  0.92139608  0.92386933  0.32470490  1.0
  O  O140  1  0.01752625  0.91222263  0.42706334  1.0
  O  O141  1  0.05840895  0.09378801  0.47446590  1.0
  O  O142  1  0.15995778  0.08007572  0.56837508  1.0
  O  O143  1  0.91553225  0.09284302  0.50998083  1.0
  O  O144  1  0.01780277  0.08842172  0.61372738  1.0
  O  O145  1  0.12246486  0.52812301  0.09295606  1.0
