# generated using pymatgen
data_Er2Cu3H30C24(NO4)6
_symmetry_space_group_name_H-M   'P 1'
_cell_length_a   13.38862377
_cell_length_b   13.38872534
_cell_length_c   14.25006325
_cell_angle_alpha   89.99900862
_cell_angle_beta   89.99983127
_cell_angle_gamma   119.99931005
_symmetry_Int_Tables_number   1
_chemical_formula_structural   Er2Cu3H30C24(NO4)6
_chemical_formula_sum   'Er4 Cu6 H60 C48 N12 O48'
_cell_volume   2212.20624056
_cell_formula_units_Z   2
loop_
 _symmetry_equiv_pos_site_id
 _symmetry_equiv_pos_as_xyz
  1  'x, y, z'
loop_
 _atom_site_type_symbol
 _atom_site_label
 _atom_site_symmetry_multiplicity
 _atom_site_fract_x
 _atom_site_fract_y
 _atom_site_fract_z
 _atom_site_occupancy
  Er  Er0  1  0.33333333  0.66666667  0.33167536  1.0
  Er  Er1  1  0.66666667  0.33333333  0.16832005  1.0
  Er  Er2  1  0.66666667  0.33333333  0.66832766  1.0
  Er  Er3  1  0.33333333  0.66666667  0.83168718  1.0
  Cu  Cu4  1  0.49999437  0.00000631  0.50000011  1.0
  Cu  Cu5  1  0.50000923  0.50000411  0.49998904  1.0
  Cu  Cu6  1  0.00000752  0.49998659  0.50000204  1.0
  Cu  Cu7  1  0.00000140  0.50001311  0.00000496  1.0
  Cu  Cu8  1  0.49999541  0.50000142  0.00001339  1.0
  Cu  Cu9  1  0.49999429  0.99997634  0.99998736  1.0
  H  H10  1  0.67630153  0.03619578  0.58366306  1.0
  H  H11  1  0.35988652  0.32368929  0.58365486  1.0
  H  H12  1  0.96379172  0.64008680  0.58365356  1.0
  H  H13  1  0.03620198  0.67631846  0.91633135  1.0
  H  H14  1  0.32367638  0.35989199  0.91634754  1.0
  H  H15  1  0.64012422  0.96379841  0.91633871  1.0
  H  H16  1  0.32369999  0.96381253  0.41634979  1.0
  H  H17  1  0.64011816  0.67631040  0.41633834  1.0
  H  H18  1  0.03619267  0.35988874  0.41633612  1.0
  H  H19  1  0.96379784  0.32369244  0.08366045  1.0
  H  H20  1  0.67630177  0.64009648  0.08366530  1.0
  H  H21  1  0.35989450  0.03619352  0.08365379  1.0
  H  H22  1  0.69557294  0.86388215  0.52552012  1.0
  H  H23  1  0.16830439  0.30444226  0.52551906  1.0
  H  H24  1  0.13611597  0.83168462  0.52553028  1.0
  H  H25  1  0.86386595  0.69557303  0.97447047  1.0
  H  H26  1  0.30443097  0.16830481  0.97448393  1.0
  H  H27  1  0.83169818  0.13612837  0.97447995  1.0
  H  H28  1  0.30442971  0.13613739  0.47447378  1.0
  H  H29  1  0.83170986  0.69557209  0.47448045  1.0
  H  H30  1  0.86386063  0.16829178  0.47447414  1.0
  H  H31  1  0.13613365  0.30443443  0.02550799  1.0
  H  H32  1  0.69556600  0.83169142  0.02552681  1.0
  H  H33  1  0.16829811  0.86385753  0.02552237  1.0
  H  H34  1  0.71214162  0.97257368  0.44451467  1.0
  H  H35  1  0.26041770  0.28787118  0.44450820  1.0
  H  H36  1  0.02743314  0.73957518  0.44450768  1.0
  H  H37  1  0.97255186  0.71214624  0.05547215  1.0
  H  H38  1  0.28786007  0.26041784  0.05550413  1.0
  H  H39  1  0.73958275  0.02745658  0.05549275  1.0
  H  H40  1  0.28785858  0.02744844  0.55548485  1.0
  H  H41  1  0.73958655  0.71215007  0.55547938  1.0
  H  H42  1  0.97256940  0.26040381  0.55547499  1.0
  H  H43  1  0.02744627  0.28786725  0.94451683  1.0
  H  H44  1  0.71213820  0.73958099  0.94451854  1.0
  H  H45  1  0.26041900  0.97255519  0.94451588  1.0
  H  H46  1  0.60402101  0.91430431  0.70653728  1.0
  H  H47  1  0.31028217  0.39596548  0.70652855  1.0
  H  H48  1  0.08567149  0.68969919  0.70652789  1.0
  H  H49  1  0.91430657  0.60403601  0.79345720  1.0
  H  H50  1  0.39594352  0.31027454  0.79346942  1.0
  H  H51  1  0.68973629  0.08568997  0.79345750  1.0
  H  H52  1  0.39596315  0.08569020  0.29346714  1.0
  H  H53  1  0.68972805  0.60403335  0.29346394  1.0
  H  H54  1  0.91430020  0.31027635  0.29345969  1.0
  H  H55  1  0.08568773  0.39595936  0.20653529  1.0
  H  H56  1  0.60403504  0.68973118  0.20653781  1.0
  H  H57  1  0.31027358  0.91430368  0.20653921  1.0
  H  H58  1  0.53713970  0.79513216  0.63154850  1.0
  H  H59  1  0.25799418  0.46285916  0.63154806  1.0
  H  H60  1  0.20485745  0.74199535  0.63154518  1.0
  H  H61  1  0.79513793  0.53713361  0.86844424  1.0
  H  H62  1  0.46283436  0.25798619  0.86845117  1.0
  H  H63  1  0.74200948  0.20485875  0.86844139  1.0
  H  H64  1  0.46285610  0.20486322  0.36843698  1.0
  H  H65  1  0.74201555  0.53714915  0.36844443  1.0
  H  H66  1  0.79513171  0.25799572  0.36844802  1.0
  H  H67  1  0.20486465  0.46285143  0.13155737  1.0
  H  H68  1  0.53712581  0.74199021  0.13155185  1.0
  H  H69  1  0.25800774  0.79513317  0.13156023  1.0
  C  C70  1  0.55407207  0.81486650  0.43007623  1.0
  C  C71  1  0.26080022  0.44595288  0.43007891  1.0
  C  C72  1  0.18514437  0.73921159  0.43007665  1.0
  C  C73  1  0.81486099  0.55406869  0.06991569  1.0
  C  C74  1  0.44594481  0.26079987  0.06992068  1.0
  C  C75  1  0.73919513  0.18514980  0.06990124  1.0
  C  C76  1  0.44592500  0.18514786  0.56992890  1.0
  C  C77  1  0.73920780  0.55407441  0.56993042  1.0
  C  C78  1  0.81486654  0.26077517  0.56993339  1.0
  C  C79  1  0.18513418  0.44595083  0.93007891  1.0
  C  C80  1  0.55405633  0.73919723  0.93008865  1.0
  C  C81  1  0.26079665  0.81485248  0.93007722  1.0
  C  C82  1  0.65082091  0.90467096  0.49176351  1.0
  C  C83  1  0.25384241  0.34918736  0.49176014  1.0
  C  C84  1  0.09532814  0.74615120  0.49176135  1.0
  C  C85  1  0.90465691  0.65082349  0.00822664  1.0
  C  C86  1  0.34917448  0.25384125  0.00824606  1.0
  C  C87  1  0.74615937  0.09534315  0.00823346  1.0
  C  C88  1  0.34917682  0.09534771  0.50823600  1.0
  C  C89  1  0.74616822  0.65082872  0.50823587  1.0
  C  C90  1  0.90466308  0.25382607  0.50823605  1.0
  C  C91  1  0.09533906  0.34918568  0.99176445  1.0
  C  C92  1  0.65081758  0.74615412  0.99177100  1.0
  C  C93  1  0.25383953  0.90465395  0.99176395  1.0
  C  C94  1  0.55119478  0.88244693  0.64266281  1.0
  C  C95  1  0.33125275  0.44879663  0.64265820  1.0
  C  C96  1  0.11753944  0.66873748  0.64265672  1.0
  C  C97  1  0.88246068  0.55120404  0.85732967  1.0
  C  C98  1  0.44877678  0.33124710  0.85733977  1.0
  C  C99  1  0.66875392  0.11753906  0.85732927  1.0
  C  C100  1  0.44879332  0.11754500  0.35733600  1.0
  C  C101  1  0.66875761  0.55120995  0.35733640  1.0
  C  C102  1  0.88245225  0.33124669  0.35733788  1.0
  C  C103  1  0.11754546  0.44878961  0.14266563  1.0
  C  C104  1  0.55120546  0.66874656  0.14266886  1.0
  C  C105  1  0.33125563  0.88245545  0.14266814  1.0
  C  C106  1  0.43426260  0.87105351  0.66194719  1.0
  C  C107  1  0.43679561  0.56571668  0.66194825  1.0
  C  C108  1  0.12893517  0.56320145  0.66194098  1.0
  C  C109  1  0.87108389  0.43428013  0.83804300  1.0
  C  C110  1  0.56570687  0.43678256  0.83804621  1.0
  C  C111  1  0.56320356  0.12890931  0.83804028  1.0
  C  C112  1  0.56571636  0.12892462  0.33804460  1.0
  C  C113  1  0.56321952  0.43428301  0.33805056  1.0
  C  C114  1  0.87107034  0.43679394  0.33805292  1.0
  C  C115  1  0.12892928  0.56571265  0.16195160  1.0
  C  C116  1  0.43428961  0.56320074  0.16196663  1.0
  C  C117  1  0.43680654  0.87108779  0.16196133  1.0
  N  N118  1  0.60969764  0.95681669  0.56110530  1.0
  N  N119  1  0.34710921  0.39029501  0.56110182  1.0
  N  N120  1  0.04317950  0.65287779  0.56110082  1.0
  N  N121  1  0.95681756  0.60971649  0.93888522  1.0
  N  N122  1  0.39027806  0.34710909  0.93890147  1.0
  N  N123  1  0.65289981  0.04317947  0.93888953  1.0
  N  N124  1  0.39029633  0.04319594  0.43889843  1.0
  N  N125  1  0.65290693  0.60971417  0.43889067  1.0
  N  N126  1  0.95680721  0.34709343  0.43889378  1.0
  N  N127  1  0.04318428  0.39029097  0.06111078  1.0
  N  N128  1  0.60970719  0.65289060  0.06111348  1.0
  N  N129  1  0.34710543  0.95680642  0.06110648  1.0
  O  O130  1  0.45456909  0.80621314  0.43693605  1.0
  O  O131  1  0.35165984  0.54544328  0.43693971  1.0
  O  O132  1  0.19380782  0.64836996  0.43693839  1.0
  O  O133  1  0.80622194  0.45457534  0.06305338  1.0
  O  O134  1  0.54544250  0.35164879  0.06305809  1.0
  O  O135  1  0.64836735  0.19382900  0.06300589  1.0
  O  O136  1  0.54543135  0.19381243  0.56306486  1.0
  O  O137  1  0.64836082  0.45457194  0.56306822  1.0
  O  O138  1  0.80621679  0.35162628  0.56308568  1.0
  O  O139  1  0.19376659  0.54543987  0.93695806  1.0
  O  O140  1  0.45456045  0.64834745  0.93696458  1.0
  O  O141  1  0.35164589  0.80619828  0.93693538  1.0
  O  O142  1  0.57575506  0.75500098  0.37437728  1.0
  O  O143  1  0.17925469  0.42430247  0.37438612  1.0
  O  O144  1  0.24501520  0.82076597  0.37437861  1.0
  O  O145  1  0.75498373  0.57573007  0.12561992  1.0
  O  O146  1  0.42428045  0.17924878  0.12561727  1.0
  O  O147  1  0.82072287  0.24501227  0.12562320  1.0
  O  O148  1  0.42423051  0.24499784  0.62563557  1.0
  O  O149  1  0.82074417  0.57574983  0.62563936  1.0
  O  O150  1  0.75500128  0.17922596  0.62563494  1.0
  O  O151  1  0.24501880  0.42431015  0.87436135  1.0
  O  O152  1  0.57571891  0.82073281  0.87437523  1.0
  O  O153  1  0.17924840  0.75498484  0.87437982  1.0
  O  O154  1  0.39731859  0.92083781  0.60697936  1.0
  O  O155  1  0.52350777  0.60267596  0.60696141  1.0
  O  O156  1  0.07920399  0.47649544  0.60694691  1.0
  O  O157  1  0.92082663  0.39732283  0.89305000  1.0
  O  O158  1  0.60265329  0.52349898  0.89302907  1.0
  O  O159  1  0.47647175  0.07910574  0.89300267  1.0
  O  O160  1  0.60267118  0.07916792  0.39303559  1.0
  O  O161  1  0.47650205  0.39732804  0.39303389  1.0
  O  O162  1  0.92082039  0.52349736  0.39304489  1.0
  O  O163  1  0.07917066  0.60267254  0.10696846  1.0
  O  O164  1  0.39734061  0.47647916  0.10699219  1.0
  O  O165  1  0.52352617  0.92086550  0.10697860  1.0
  O  O166  1  0.37651175  0.81143938  0.73125551  1.0
  O  O167  1  0.43495168  0.62345170  0.73127169  1.0
  O  O168  1  0.18849890  0.56503552  0.73127250  1.0
  O  O169  1  0.81151820  0.37655401  0.76871965  1.0
  O  O170  1  0.62345105  0.43493675  0.76873347  1.0
  O  O171  1  0.56506183  0.18853319  0.76873835  1.0
  O  O172  1  0.62346171  0.18850684  0.26872996  1.0
  O  O173  1  0.56506265  0.37653592  0.26874186  1.0
  O  O174  1  0.81149391  0.43495985  0.26873052  1.0
  O  O175  1  0.18851500  0.62345344  0.23126864  1.0
  O  O176  1  0.37654532  0.56504483  0.23128078  1.0
  O  O177  1  0.43496202  0.81150186  0.23127449  1.0
