# generated using pymatgen
data_MnH21C34N5O8
_symmetry_space_group_name_H-M   'P 1'
_cell_length_a   8.46297030
_cell_length_b   17.63037524
_cell_length_c   27.34893058
_cell_angle_alpha   79.92821055
_cell_angle_beta   89.99781479
_cell_angle_gamma   89.99958429
_symmetry_Int_Tables_number   1
_chemical_formula_structural   MnH21C34N5O8
_chemical_formula_sum   'Mn4 H84 C136 N20 O32'
_cell_volume   4017.72196549
_cell_formula_units_Z   4
loop_
 _symmetry_equiv_pos_site_id
 _symmetry_equiv_pos_as_xyz
  1  'x, y, z'
loop_
 _atom_site_type_symbol
 _atom_site_label
 _atom_site_symmetry_multiplicity
 _atom_site_fract_x
 _atom_site_fract_y
 _atom_site_fract_z
 _atom_site_occupancy
  Mn  Mn0  1  0.30931963  0.28534832  0.40541233  1.0
  Mn  Mn1  1  0.30933307  0.71464554  0.09459441  1.0
  Mn  Mn2  1  0.69067817  0.71463560  0.59458530  1.0
  Mn  Mn3  1  0.69064465  0.28535475  0.90540267  1.0
  H  H4  1  0.55367874  0.42695738  0.36802313  1.0
  H  H5  1  0.55367117  0.57303153  0.13197387  1.0
  H  H6  1  0.44632852  0.57303608  0.63199235  1.0
  H  H7  1  0.44630300  0.42696881  0.86799824  1.0
  H  H8  1  0.54779470  0.55276337  0.30629910  1.0
  H  H9  1  0.54774376  0.44723627  0.19370353  1.0
  H  H10  1  0.45223265  0.44722949  0.69371207  1.0
  H  H11  1  0.45227059  0.55278026  0.80627945  1.0
  H  H12  1  0.28269689  0.60164952  0.27059366  1.0
  H  H13  1  0.28263884  0.39834243  0.22940905  1.0
  H  H14  1  0.71732337  0.39832026  0.72941625  1.0
  H  H15  1  0.71740151  0.60167263  0.77059289  1.0
  H  H16  1  0.04271371  0.53039690  0.30074480  1.0
  H  H17  1  0.04265814  0.46959972  0.19925698  1.0
  H  H18  1  0.95730064  0.46958343  0.69925233  1.0
  H  H19  1  0.95737039  0.53041227  0.80076089  1.0
  H  H20  1  0.03454179  0.22479252  0.48271461  1.0
  H  H21  1  0.03457454  0.77521664  0.01728484  1.0
  H  H22  1  0.96547965  0.77519447  0.51728397  1.0
  H  H23  1  0.96543272  0.22479578  0.98271498  1.0
  H  H24  1  0.96773071  0.09843719  0.53305164  1.0
  H  H25  1  0.96776870  0.90156218  0.96694097  1.0
  H  H26  1  0.03229191  0.90153868  0.46695138  1.0
  H  H27  1  0.03221492  0.09845443  0.03306365  1.0
  H  H28  1  0.58768390  0.07332342  0.43172415  1.0
  H  H29  1  0.58768469  0.92667176  0.06826977  1.0
  H  H30  1  0.41230327  0.92666842  0.56827545  1.0
  H  H31  1  0.41228358  0.07333671  0.93172703  1.0
  H  H32  1  0.65273076  0.19952608  0.38214349  1.0
  H  H33  1  0.65275408  0.80047967  0.11785568  1.0
  H  H34  1  0.34726350  0.80046174  0.61785679  1.0
  H  H35  1  0.34721301  0.19952691  0.88214438  1.0
  H  H36  1  0.82011402  0.01196747  0.58574778  1.0
  H  H37  1  0.82012499  0.98803140  0.91424437  1.0
  H  H38  1  0.17989324  0.98801296  0.41425007  1.0
  H  H39  1  0.17986690  0.01197343  0.08575158  1.0
  H  H40  1  0.78015867  0.87408406  0.62324374  1.0
  H  H41  1  0.78013323  0.12591193  0.87675504  1.0
  H  H42  1  0.21987340  0.12590188  0.37675575  1.0
  H  H43  1  0.21986812  0.87409654  0.12324176  1.0
  H  H44  1  0.63438823  0.81979127  0.48928238  1.0
  H  H45  1  0.63434592  0.18019973  0.01070451  1.0
  H  H46  1  0.36557294  0.18019188  0.51072235  1.0
  H  H47  1  0.36564480  0.81981102  0.98928751  1.0
  H  H48  1  0.66296054  0.95449827  0.44622292  1.0
  H  H49  1  0.66293322  0.04549932  0.05376351  1.0
  H  H50  1  0.33698292  0.04548443  0.55377859  1.0
  H  H51  1  0.33703859  0.95451580  0.94623035  1.0
  H  H52  1  0.76488510  0.35360705  0.48269596  1.0
  H  H53  1  0.76488270  0.64641102  0.01730593  1.0
  H  H54  1  0.23512689  0.64640211  0.51730990  1.0
  H  H55  1  0.23515055  0.35361497  0.98269014  1.0
  H  H56  1  0.82503110  0.32299778  0.64141457  1.0
  H  H57  1  0.82511342  0.67702565  0.85858916  1.0
  H  H58  1  0.17495607  0.67701210  0.35859228  1.0
  H  H59  1  0.17490920  0.32299611  0.14141019  1.0
  H  H60  1  0.36486691  0.29381350  0.57644096  1.0
  H  H61  1  0.36490807  0.70621078  0.92354954  1.0
  H  H62  1  0.63512499  0.70616661  0.42355878  1.0
  H  H63  1  0.63510628  0.29379969  0.07644473  1.0
  H  H64  1  0.73783178  0.27881355  0.70743312  1.0
  H  H65  1  0.73789171  0.72120726  0.79256035  1.0
  H  H66  1  0.26218139  0.72118408  0.29256587  1.0
  H  H67  1  0.26210846  0.27881270  0.20743453  1.0
  H  H68  1  0.32998713  0.26065755  0.80071176  1.0
  H  H69  1  0.33004166  0.73932256  0.69929222  1.0
  H  H70  1  0.67002367  0.73933803  0.19928941  1.0
  H  H71  1  0.66993961  0.26067342  0.30071183  1.0
  H  H72  1  0.26932930  0.30474086  0.64185116  1.0
  H  H73  1  0.26939811  0.69527533  0.85815766  1.0
  H  H74  1  0.73066851  0.69525679  0.35815224  1.0
  H  H75  1  0.73062687  0.30472619  0.14184399  1.0
  H  H76  1  0.85032120  0.43156681  0.31451696  1.0
  H  H77  1  0.85026370  0.56842065  0.18547180  1.0
  H  H78  1  0.14969552  0.56842503  0.68548264  1.0
  H  H79  1  0.14971875  0.43158386  0.81452604  1.0
  H  H80  1  0.92481028  0.44378508  0.50333248  1.0
  H  H81  1  0.92482566  0.55621751  0.99666432  1.0
  H  H82  1  0.07517217  0.55622093  0.49665923  1.0
  H  H83  1  0.07520523  0.44379753  0.00333322  1.0
  H  H84  1  0.13578310  0.18818457  0.77578436  1.0
  H  H85  1  0.13586314  0.81182278  0.72420975  1.0
  H  H86  1  0.86425961  0.81181964  0.22421977  1.0
  H  H87  1  0.86414767  0.18817482  0.27579328  1.0
  C  C88  1  0.44410163  0.45184264  0.35124145  1.0
  C  C89  1  0.44406638  0.54814664  0.14875946  1.0
  C  C90  1  0.55589500  0.54814864  0.64877109  1.0
  C  C91  1  0.55592198  0.45186123  0.85122460  1.0
  C  C92  1  0.43941321  0.52073253  0.31710826  1.0
  C  C93  1  0.43936448  0.47925386  0.18289322  1.0
  C  C94  1  0.56059996  0.47926002  0.68290077  1.0
  C  C95  1  0.56065342  0.52076307  0.81709263  1.0
  C  C96  1  0.29375779  0.54878224  0.29787887  1.0
  C  C97  1  0.29370255  0.45121253  0.20212246  1.0
  C  C98  1  0.70624593  0.45119896  0.70212876  1.0
  C  C99  1  0.70632125  0.54879857  0.79787207  1.0
  C  C100  1  0.15779137  0.50741993  0.31374494  1.0
  C  C101  1  0.15773962  0.49257320  0.18625557  1.0
  C  C102  1  0.84222298  0.49256529  0.68625357  1.0
  C  C103  1  0.84227354  0.50743395  0.81374439  1.0
  C  C104  1  0.17328930  0.43769038  0.34642322  1.0
  C  C105  1  0.17326272  0.56229890  0.15357841  1.0
  C  C106  1  0.82673096  0.56229903  0.65357165  1.0
  C  C107  1  0.82673509  0.43770333  0.84642421  1.0
  C  C108  1  0.04171396  0.38600038  0.36145659  1.0
  C  C109  1  0.04170822  0.61399077  0.13854393  1.0
  C  C110  1  0.95829212  0.61399030  0.63854320  1.0
  C  C111  1  0.95827895  0.38601329  0.86145913  1.0
  C  C112  1  0.90201610  0.28967357  0.39543767  1.0
  C  C113  1  0.90202656  0.71033117  0.10455872  1.0
  C  C114  1  0.09799470  0.71030779  0.60456259  1.0
  C  C115  1  0.09795825  0.28967521  0.89543990  1.0
  C  C116  1  0.85454092  0.21830039  0.42746538  1.0
  C  C117  1  0.85455399  0.78170401  0.07252671  1.0
  C  C118  1  0.14545216  0.78167720  0.57252891  1.0
  C  C119  1  0.14543200  0.21830327  0.92746993  1.0
  C  C120  1  0.93781423  0.19088068  0.47138273  1.0
  C  C121  1  0.93785221  0.80912372  0.02860947  1.0
  C  C122  1  0.06217766  0.80910292  0.52861678  1.0
  C  C123  1  0.06214205  0.19088783  0.97138829  1.0
  C  C124  1  0.89825719  0.12023225  0.50001664  1.0
  C  C125  1  0.89828628  0.87976640  0.99997428  1.0
  C  C126  1  0.10171935  0.87974905  0.49998326  1.0
  C  C127  1  0.10169026  0.12024231  0.00001992  1.0
  C  C128  1  0.77595029  0.07513330  0.48536913  1.0
  C  C129  1  0.77596576  0.92486790  0.01462917  1.0
  C  C130  1  0.22401325  0.92484267  0.51462616  1.0
  C  C131  1  0.22403204  0.07515131  0.98536877  1.0
  C  C132  1  0.68797522  0.10537493  0.44265781  1.0
  C  C133  1  0.68799078  0.89462719  0.05734727  1.0
  C  C134  1  0.31198950  0.89460977  0.55734116  1.0
  C  C135  1  0.31197276  0.10538258  0.94264198  1.0
  C  C136  1  0.72516902  0.17619984  0.41424973  1.0
  C  C137  1  0.72517867  0.82380405  0.08574931  1.0
  C  C138  1  0.27481342  0.82378111  0.58574766  1.0
  C  C139  1  0.27478960  0.17620980  0.91424807  1.0
  C  C140  1  0.74616466  0.99625692  0.51185390  1.0
  C  C141  1  0.74614521  0.00373408  0.98813600  1.0
  C  C142  1  0.25382370  0.00372803  0.48814686  1.0
  C  C143  1  0.25383724  0.99627829  0.01186346  1.0
  C  C144  1  0.77851584  0.97159920  0.56262155  1.0
  C  C145  1  0.77851952  0.02839192  0.93738028  1.0
  C  C146  1  0.22146188  0.02838397  0.43738758  1.0
  C  C147  1  0.22147474  0.97161768  0.06262037  1.0
  C  C148  1  0.75697175  0.89461574  0.58388014  1.0
  C  C149  1  0.75693809  0.10537553  0.91612385  1.0
  C  C150  1  0.24304614  0.10537040  0.41612922  1.0
  C  C151  1  0.24304554  0.89463584  0.08387688  1.0
  C  C152  1  0.67238529  0.86437362  0.50962767  1.0
  C  C153  1  0.67236409  0.13562915  0.99036182  1.0
  C  C154  1  0.32759834  0.13561667  0.49037770  1.0
  C  C155  1  0.32760772  0.86438177  0.00963568  1.0
  C  C156  1  0.68903405  0.94001202  0.48576009  1.0
  C  C157  1  0.68904587  0.05999670  0.01422478  1.0
  C  C158  1  0.31092122  0.05998122  0.51424111  1.0
  C  C159  1  0.31093421  0.94002256  0.98577352  1.0
  C  C160  1  0.45810687  0.31654511  0.48188523  1.0
  C  C161  1  0.45809976  0.68345752  0.01811799  1.0
  C  C162  1  0.54189094  0.68343929  0.51812003  1.0
  C  C163  1  0.54191223  0.31655633  0.98187938  1.0
  C  C164  1  0.55674187  0.32295546  0.52639389  1.0
  C  C165  1  0.55675891  0.67706170  0.97360349  1.0
  C  C166  1  0.44326302  0.67703036  0.47360892  1.0
  C  C167  1  0.44325426  0.32295359  0.02639584  1.0
  C  C168  1  0.71665612  0.34214583  0.52027453  1.0
  C  C169  1  0.71672172  0.65786842  0.97971928  1.0
  C  C170  1  0.28333696  0.65785114  0.47972824  1.0
  C  C171  1  0.28331508  0.34215695  0.02027653  1.0
  C  C172  1  0.81112611  0.34236861  0.56216563  1.0
  C  C173  1  0.81119602  0.65765680  0.93782771  1.0
  C  C174  1  0.18887406  0.65763520  0.43783563  1.0
  C  C175  1  0.18883487  0.34236461  0.06216913  1.0
  C  C176  1  0.98257053  0.36226020  0.55730771  1.0
  C  C177  1  0.98261704  0.63775413  0.94269463  1.0
  C  C178  1  0.01742727  0.63776196  0.44268607  1.0
  C  C179  1  0.01740913  0.36225706  0.05730906  1.0
  C  C180  1  0.74647239  0.32278401  0.60987413  1.0
  C  C181  1  0.74652754  0.67725839  0.89012218  1.0
  C  C182  1  0.25353133  0.67722312  0.39012988  1.0
  C  C183  1  0.25349863  0.32277991  0.10987366  1.0
  C  C184  1  0.58478093  0.30573562  0.61657596  1.0
  C  C185  1  0.58484789  0.69428140  0.88342320  1.0
  C  C186  1  0.41522632  0.69425777  0.38342632  1.0
  C  C187  1  0.41517118  0.30573671  0.11657529  1.0
  C  C188  1  0.49113100  0.30628356  0.57394727  1.0
  C  C189  1  0.49119598  0.69375489  0.92605018  1.0
  C  C190  1  0.50885735  0.69371499  0.42605414  1.0
  C  C191  1  0.50881955  0.30626212  0.07394887  1.0
  C  C192  1  0.51406298  0.28994665  0.66706852  1.0
  C  C193  1  0.51412614  0.71005717  0.83293217  1.0
  C  C194  1  0.48594428  0.71004596  0.33293242  1.0
  C  C195  1  0.48588821  0.28995258  0.16706957  1.0
  C  C196  1  0.60918420  0.27782706  0.70991135  1.0
  C  C197  1  0.60924783  0.72216703  0.79008649  1.0
  C  C198  1  0.39082306  0.72215941  0.29008769  1.0
  C  C199  1  0.39075589  0.27782987  0.20991153  1.0
  C  C200  1  0.54370318  0.26898016  0.75757070  1.0
  C  C201  1  0.54375237  0.73102377  0.74243352  1.0
  C  C202  1  0.45631235  0.73100960  0.24243512  1.0
  C  C203  1  0.45624307  0.26898104  0.25756647  1.0
  C  C204  1  0.37964713  0.26623704  0.76340152  1.0
  C  C205  1  0.37970258  0.73373331  0.73660586  1.0
  C  C206  1  0.62036131  0.73375420  0.23660222  1.0
  C  C207  1  0.62029641  0.26626251  0.26339710  1.0
  C  C208  1  0.28317413  0.27808805  0.72109782  1.0
  C  C209  1  0.28323505  0.72189222  0.77891387  1.0
  C  C210  1  0.71682723  0.72189989  0.27890757  1.0
  C  C211  1  0.71676630  0.27811034  0.22108687  1.0
  C  C212  1  0.34927187  0.29196287  0.67344563  1.0
  C  C213  1  0.34933202  0.70805593  0.82656109  1.0
  C  C214  1  0.65072948  0.70804401  0.32655659  1.0
  C  C215  1  0.65067405  0.29194711  0.17343883  1.0
  C  C216  1  0.10746260  0.27745743  0.72578855  1.0
  C  C217  1  0.10753804  0.72253345  0.77420255  1.0
  C  C218  1  0.89254584  0.72252852  0.27421938  1.0
  C  C219  1  0.89246922  0.27746350  0.22579582  1.0
  C  C220  1  0.64982144  0.27293613  0.80144214  1.0
  C  C221  1  0.64992010  0.72706873  0.69855506  1.0
  C  C222  1  0.35017282  0.72705478  0.19856348  1.0
  C  C223  1  0.35007771  0.27294052  0.30144308  1.0
  N  N224  1  0.31379168  0.41054550  0.36523314  1.0
  N  N225  1  0.31376687  0.58944195  0.13476946  1.0
  N  N226  1  0.68620376  0.58944052  0.63477955  1.0
  N  N227  1  0.68621084  0.41055488  0.86521536  1.0
  N  N228  1  0.05044581  0.32159363  0.39545938  1.0
  N  N229  1  0.05045014  0.67840423  0.10454244  1.0
  N  N230  1  0.94958390  0.67838987  0.60453942  1.0
  N  N231  1  0.94954058  0.32159930  0.89545263  1.0
  N  N232  1  0.80407356  0.33086781  0.36244846  1.0
  N  N233  1  0.80406507  0.66913331  0.13753949  1.0
  N  N234  1  0.19593606  0.66911289  0.63754714  1.0
  N  N235  1  0.19591974  0.33087200  0.86245565  1.0
  N  N236  1  0.89486661  0.39112189  0.34193523  1.0
  N  N237  1  0.89483357  0.60887144  0.15805550  1.0
  N  N238  1  0.10513356  0.60886733  0.65806665  1.0
  N  N239  1  0.10514769  0.39112611  0.84193874  1.0
  N  N240  1  0.70682683  0.84086479  0.55798150  1.0
  N  N241  1  0.70678962  0.15913399  0.94201140  1.0
  N  N242  1  0.29317098  0.15912919  0.44202508  1.0
  N  N243  1  0.29320464  0.84087821  0.05799103  1.0
  O  O244  1  0.02110839  0.42109431  0.51958393  1.0
  O  O245  1  0.02113376  0.57891955  0.98042050  1.0
  O  O246  1  0.97887169  0.57891928  0.48041166  1.0
  O  O247  1  0.97890422  0.42109427  0.01958092  1.0
  O  O248  1  0.08532827  0.33044552  0.58461482  1.0
  O  O249  1  0.08539004  0.66957240  0.91538605  1.0
  O  O250  1  0.91466126  0.66957324  0.41537990  1.0
  O  O251  1  0.91463612  0.33045389  0.08461217  1.0
  O  O252  1  0.77891420  0.30735388  0.79340162  1.0
  O  O253  1  0.77899793  0.69263624  0.70660992  1.0
  O  O254  1  0.22109306  0.69262373  0.20660551  1.0
  O  O255  1  0.22100460  0.30736757  0.29339134  1.0
  O  O256  1  0.59490809  0.24374902  0.84493988  1.0
  O  O257  1  0.59497722  0.75624281  0.65505930  1.0
  O  O258  1  0.40505663  0.75624800  0.15506325  1.0
  O  O259  1  0.40500404  0.24375958  0.34493596  1.0
  O  O260  1  0.04752223  0.21937535  0.76040344  1.0
  O  O261  1  0.04761269  0.78062007  0.73959375  1.0
  O  O262  1  0.95248266  0.78061431  0.23961011  1.0
  O  O263  1  0.95239457  0.21938392  0.26041299  1.0
  O  O264  1  0.01915934  0.32341906  0.70077277  1.0
  O  O265  1  0.01920710  0.67656106  0.79922561  1.0
  O  O266  1  0.98085856  0.67657210  0.29922621  1.0
  O  O267  1  0.98079307  0.32343639  0.20077635  1.0
  O  O268  1  0.30925012  0.30709782  0.48629018  1.0
  O  O269  1  0.30923361  0.69289267  0.01370501  1.0
  O  O270  1  0.69074059  0.69290541  0.51371118  1.0
  O  O271  1  0.69076893  0.30708848  0.98629382  1.0
  O  O272  1  0.52872192  0.31662790  0.44040063  1.0
  O  O273  1  0.52871881  0.68336347  0.05960260  1.0
  O  O274  1  0.47128062  0.68335358  0.55960475  1.0
  O  O275  1  0.47129909  0.31664574  0.94039518  1.0
