# generated using pymatgen
data_Zr3H12C22(NO8)2
_symmetry_space_group_name_H-M   'P 1'
_cell_length_a   13.12055702
_cell_length_b   17.19447563
_cell_length_c   17.29093213
_cell_angle_alpha   83.57727910
_cell_angle_beta   69.19664629
_cell_angle_gamma   68.97135188
_symmetry_Int_Tables_number   1
_chemical_formula_structural   Zr3H12C22(NO8)2
_chemical_formula_sum   'Zr6 H24 C44 N4 O32'
_cell_volume   3403.13873661
_cell_formula_units_Z   2
loop_
 _symmetry_equiv_pos_site_id
 _symmetry_equiv_pos_as_xyz
  1  'x, y, z'
loop_
 _atom_site_type_symbol
 _atom_site_label
 _atom_site_symmetry_multiplicity
 _atom_site_fract_x
 _atom_site_fract_y
 _atom_site_fract_z
 _atom_site_occupancy
  Zr  Zr0  1  0.00055979  0.11281313  0.98996338  1.0
  Zr  Zr1  1  0.00577859  0.94854248  0.13510538  1.0
  Zr  Zr2  1  0.12595289  0.95937924  0.82779035  1.0
  Zr  Zr3  1  0.13555025  0.79743239  0.97437166  1.0
  Zr  Zr4  1  0.26491019  0.94645230  0.97491462  1.0
  Zr  Zr5  1  0.86847578  0.96162411  0.98977260  1.0
  H  H6  1  0.17739529  0.43300689  0.97756516  1.0
  H  H7  1  0.29024636  0.53866368  0.97763354  1.0
  H  H8  1  0.93949190  0.47649193  0.01293778  1.0
  H  H9  1  0.83042305  0.37006144  0.00795506  1.0
  H  H10  1  0.17273164  0.96168432  0.45994420  1.0
  H  H11  1  0.28846762  0.95498454  0.56553937  1.0
  H  H12  1  0.95695817  0.94726963  0.50701794  1.0
  H  H13  1  0.85004257  0.93662730  0.40137536  1.0
  H  H14  1  0.81569737  0.09032184  0.11899732  1.0
  H  H15  1  0.22207510  0.82163632  0.09864330  1.0
  H  H16  1  0.01283775  0.83431999  0.86495063  1.0
  H  H17  1  0.21785235  0.07465753  0.85538065  1.0
  H  H18  1  0.95313325  0.83567485  0.24430122  1.0
  H  H19  1  0.07615546  0.76585575  0.14452001  1.0
  H  H20  1  0.28225777  0.68873166  0.85300696  1.0
  H  H21  1  0.21077336  0.78828762  0.79103166  1.0
  H  H22  1  0.05894233  0.07678891  0.72650268  1.0
  H  H23  1  0.05210106  0.14327122  0.82040686  1.0
  H  H24  1  0.95979924  0.22476701  0.09519414  1.0
  H  H25  1  0.85109225  0.03680995  0.28718529  1.0
  H  H26  1  0.15473375  0.83571312  0.72062870  1.0
  H  H27  1  0.93646420  0.21710146  0.87396028  1.0
  H  H28  1  0.98170038  0.03391274  0.26660092  1.0
  H  H29  1  0.05252182  0.70127547  0.09646832  1.0
  C  C30  1  0.33887625  0.33463512  0.97926637  1.0
  C  C31  1  0.26501114  0.41653498  0.97815020  1.0
  C  C32  1  0.32347485  0.47107544  0.97765292  1.0
  C  C33  1  0.43460290  0.42318279  0.97836251  1.0
  C  C34  1  0.78708194  0.57388807  0.99549199  1.0
  C  C35  1  0.85637512  0.49237419  0.00448244  1.0
  C  C36  1  0.80035217  0.43733515  0.00146364  1.0
  C  C37  1  0.69523166  0.48457943  0.99021613  1.0
  C  C38  1  0.33695571  0.95654988  0.36252997  1.0
  C  C39  1  0.26197735  0.95833233  0.44387199  1.0
  C  C40  1  0.32144938  0.95471333  0.49839656  1.0
  C  C41  1  0.43440151  0.95078095  0.45104539  1.0
  C  C42  1  0.79282038  0.95106914  0.60393276  1.0
  C  C43  1  0.86942839  0.94690357  0.52279477  1.0
  C  C44  1  0.81380633  0.94232217  0.46831656  1.0
  C  C45  1  0.70151414  0.94411396  0.51535912  1.0
  C  C46  1  0.24111217  0.13729139  0.98432409  1.0
  C  C47  1  0.73582655  0.95300653  0.18770794  1.0
  C  C48  1  0.23873754  0.95398697  0.16748399  1.0
  C  C49  1  0.73270142  0.15570370  0.98306906  1.0
  C  C50  1  0.89020701  0.96665790  0.79592138  1.0
  C  C51  1  0.40491082  0.74735886  0.96408031  1.0
  C  C52  1  0.89028120  0.76784306  0.99522064  1.0
  C  C53  1  0.39995273  0.94120603  0.77864219  1.0
  C  C54  1  0.81085771  0.95742628  0.67713333  1.0
  C  C55  1  0.84108863  0.96351291  0.73472150  1.0
  C  C56  1  0.59471946  0.94623291  0.66226863  1.0
  C  C57  1  0.50594418  0.94209744  0.71454646  1.0
  C  C58  1  0.53948517  0.95142651  0.30395832  1.0
  C  C59  1  0.63004062  0.95128932  0.25092663  1.0
  C  C60  1  0.31641793  0.95732604  0.28885046  1.0
  C  C61  1  0.28610859  0.95752545  0.22964818  1.0
  C  C62  1  0.52755135  0.94687598  0.47366538  1.0
  C  C63  1  0.61033250  0.94416115  0.49235956  1.0
  C  C64  1  0.80795998  0.64757091  0.99581436  1.0
  C  C65  1  0.83965975  0.70593334  0.99745559  1.0
  C  C66  1  0.50995593  0.68344697  0.96729695  1.0
  C  C67  1  0.59664812  0.63181463  0.97650224  1.0
  C  C68  1  0.62745261  0.21909747  0.97965671  1.0
  C  C69  1  0.53845164  0.27455645  0.97954045  1.0
  C  C70  1  0.31942217  0.26013975  0.98084770  1.0
  C  C71  1  0.29104200  0.19944002  0.98285715  1.0
  C  C72  1  0.52558104  0.44515987  0.98048526  1.0
  C  C73  1  0.60652879  0.46221190  0.98432115  1.0
  N  N74  1  0.44419023  0.33884521  0.97892239  1.0
  N  N75  1  0.68685425  0.56906270  0.98637548  1.0
  N  N76  1  0.44407169  0.95202816  0.36703596  1.0
  N  N77  1  0.68907018  0.94851676  0.59925494  1.0
  O  O78  1  0.13374118  0.16691536  0.99175487  1.0
  O  O79  1  0.30515480  0.06053510  0.97751920  1.0
  O  O80  1  0.81859785  0.95010032  0.21236700  1.0
  O  O81  1  0.73729121  0.95779717  0.11361869  1.0
  O  O82  1  0.13057286  0.96199586  0.19579097  1.0
  O  O83  1  0.30467768  0.94190993  0.09232462  1.0
  O  O84  1  0.81789815  0.17914415  0.97297815  1.0
  O  O85  1  0.73015780  0.08160156  0.99717716  1.0
  O  O86  1  0.91197618  0.20223086  0.07908620  1.0
  O  O87  1  0.01684107  0.18606090  0.86989325  1.0
  O  O88  1  0.91787846  0.04617550  0.24486030  1.0
  O  O89  1  0.02691301  0.83754573  0.20533889  1.0
  O  O90  1  0.09817407  0.01477026  0.04685341  1.0
  O  O91  1  0.88387294  0.04922080  0.08238452  1.0
  O  O92  1  0.99585192  0.96533115  0.76602109  1.0
  O  O93  1  0.82887642  0.96898548  0.87191745  1.0
  O  O94  1  0.32382862  0.72381687  0.96169191  1.0
  O  O95  1  0.40171515  0.82211458  0.96555989  1.0
  O  O96  1  0.99437615  0.73919309  0.99687050  1.0
  O  O97  1  0.83075791  0.84425735  0.99057681  1.0
  O  O98  1  0.31750260  0.94185196  0.75599586  1.0
  O  O99  1  0.39953138  0.94140920  0.85261568  1.0
  O  O100  1  0.20553248  0.83816034  0.74913092  1.0
  O  O101  1  0.10748207  0.07070891  0.75975391  1.0
  O  O102  1  0.20474018  0.72898262  0.86152730  1.0
  O  O103  1  0.11252709  0.72317510  0.09454759  1.0
  O  O104  1  0.02830145  0.86961854  0.89618728  1.0
  O  O105  1  0.20177872  0.88803371  0.91330515  1.0
  O  O106  1  0.98072136  0.02182578  0.92473691  1.0
  O  O107  1  0.17968258  0.85758984  0.06456455  1.0
  O  O108  1  0.17435244  0.04173366  0.89206758  1.0
  O  O109  1  0.98448940  0.89149510  0.04782875  1.0
