# generated using pymatgen
data_NiH10C17N3O4
_symmetry_space_group_name_H-M   'P 1'
_cell_length_a   11.65102477
_cell_length_b   14.77792621
_cell_length_c   14.77796771
_cell_angle_alpha   96.54025178
_cell_angle_beta   107.62151190
_cell_angle_gamma   107.62162030
_symmetry_Int_Tables_number   1
_chemical_formula_structural   NiH10C17N3O4
_chemical_formula_sum   'Ni4 H40 C68 N12 O16'
_cell_volume   2251.30579671
_cell_formula_units_Z   4
loop_
 _symmetry_equiv_pos_site_id
 _symmetry_equiv_pos_as_xyz
  1  'x, y, z'
loop_
 _atom_site_type_symbol
 _atom_site_label
 _atom_site_symmetry_multiplicity
 _atom_site_fract_x
 _atom_site_fract_y
 _atom_site_fract_z
 _atom_site_occupancy
  Ni  Ni0  1  0.61027403  0.69066816  0.93156427  1.0
  Ni  Ni1  1  0.38972633  0.06843638  0.30933154  1.0
  Ni  Ni2  1  0.38972578  0.30933141  0.06843548  1.0
  Ni  Ni3  1  0.61027382  0.93156392  0.69066838  1.0
  H  H4  1  0.43233496  0.77600054  0.99084633  1.0
  H  H5  1  0.56766582  0.00915273  0.22399922  1.0
  H  H6  1  0.56766519  0.22399976  0.00915224  1.0
  H  H7  1  0.43233274  0.99084611  0.77600083  1.0
  H  H8  1  0.20236459  0.71532608  0.97681678  1.0
  H  H9  1  0.79763707  0.02318406  0.28467376  1.0
  H  H10  1  0.79763646  0.28467422  0.02318268  1.0
  H  H11  1  0.20236218  0.97681624  0.71532595  1.0
  H  H12  1  0.16695864  0.43481379  0.82499751  1.0
  H  H13  1  0.83304009  0.17500113  0.56518575  1.0
  H  H14  1  0.83304027  0.56518578  0.17500203  1.0
  H  H15  1  0.16695972  0.82499844  0.43481468  1.0
  H  H16  1  0.40149823  0.50855542  0.84631780  1.0
  H  H17  1  0.59850156  0.15368101  0.49144325  1.0
  H  H18  1  0.59850123  0.49144343  0.15368111  1.0
  H  H19  1  0.40149735  0.84631856  0.50855697  1.0
  H  H20  1  0.00008947  0.66338587  0.93099843  1.0
  H  H21  1  0.99991167  0.06900212  0.33661549  1.0
  H  H22  1  0.99991033  0.33661370  0.06900065  1.0
  H  H23  1  0.00008847  0.93099818  0.66338443  1.0
  H  H24  1  0.66525490  0.40364167  0.83680264  1.0
  H  H25  1  0.33474390  0.16319828  0.59635896  1.0
  H  H26  1  0.33474525  0.59635863  0.16319796  1.0
  H  H27  1  0.66525568  0.83680275  0.40364091  1.0
  H  H28  1  0.52363835  0.09775668  0.62813266  1.0
  H  H29  1  0.47636107  0.37186699  0.90224314  1.0
  H  H30  1  0.47636180  0.90224362  0.37186794  1.0
  H  H31  1  0.52363997  0.62813331  0.09775700  1.0
  H  H32  1  0.60789046  0.27843310  0.68860636  1.0
  H  H33  1  0.39210952  0.31139379  0.72156717  1.0
  H  H34  1  0.39211058  0.72156720  0.31139377  1.0
  H  H35  1  0.60789063  0.68860652  0.27843208  1.0
  H  H36  1  0.95411121  0.25503891  0.88209444  1.0
  H  H37  1  0.04588891  0.11790535  0.74496142  1.0
  H  H38  1  0.04588894  0.74496138  0.11790616  1.0
  H  H39  1  0.95411214  0.88209495  0.25503939  1.0
  H  H40  1  0.85054700  0.07273752  0.81801073  1.0
  H  H41  1  0.14945143  0.18198719  0.92726239  1.0
  H  H42  1  0.14945224  0.92726278  0.18198830  1.0
  H  H43  1  0.85054927  0.81801238  0.07273758  1.0
  C  C44  1  0.36970041  0.70079329  0.95486643  1.0
  C  C45  1  0.63030010  0.04513364  0.29920703  1.0
  C  C46  1  0.63029939  0.29920628  0.04513197  1.0
  C  C47  1  0.36969915  0.95486666  0.70079335  1.0
  C  C48  1  0.24090836  0.66615127  0.94578372  1.0
  C  C49  1  0.75909255  0.05421698  0.33384925  1.0
  C  C50  1  0.75909144  0.33384830  0.05421536  1.0
  C  C51  1  0.24090670  0.94578331  0.66615114  1.0
  C  C52  1  0.16399937  0.56887535  0.89814380  1.0
  C  C53  1  0.83600111  0.10185527  0.43112461  1.0
  C  C54  1  0.83600167  0.43112495  0.10185566  1.0
  C  C55  1  0.16399835  0.89814357  0.56887497  1.0
  C  C56  1  0.22295233  0.51077077  0.86193804  1.0
  C  C57  1  0.77704512  0.13805984  0.48922757  1.0
  C  C58  1  0.77704623  0.48922807  0.13806066  1.0
  C  C59  1  0.22295345  0.86193900  0.51077248  1.0
  C  C60  1  0.35198936  0.55075074  0.87365209  1.0
  C  C61  1  0.64800936  0.12634706  0.44924929  1.0
  C  C62  1  0.64800920  0.44924810  0.12634661  1.0
  C  C63  1  0.35198989  0.87365324  0.55075177  1.0
  C  C64  1  0.02565317  0.52703490  0.88441586  1.0
  C  C65  1  0.97434767  0.11558504  0.47296648  1.0
  C  C66  1  0.97434732  0.47296612  0.11558423  1.0
  C  C67  1  0.02565158  0.88441525  0.52703391  1.0
  C  C68  1  0.95616642  0.58464446  0.90410601  1.0
  C  C69  1  0.04383439  0.09589330  0.41535555  1.0
  C  C70  1  0.04383463  0.41535584  0.09589412  1.0
  C  C71  1  0.95616507  0.90410554  0.58464404  1.0
  C  C72  1  0.82544009  0.53985894  0.88793268  1.0
  C  C73  1  0.17455999  0.11206784  0.46014177  1.0
  C  C74  1  0.17456040  0.46014209  0.11206741  1.0
  C  C75  1  0.82544016  0.88793246  0.53985883  1.0
  C  C76  1  0.76706473  0.43964165  0.84957264  1.0
  C  C77  1  0.23293555  0.15042807  0.56035894  1.0
  C  C78  1  0.23293632  0.56035865  0.15042817  1.0
  C  C79  1  0.76706404  0.84957295  0.43964093  1.0
  C  C80  1  0.84308509  0.38756343  0.83129707  1.0
  C  C81  1  0.15691498  0.16870357  0.61243671  1.0
  C  C82  1  0.15691596  0.61243686  0.16870374  1.0
  C  C83  1  0.84308516  0.83129673  0.38756321  1.0
  C  C84  1  0.61712028  0.13506200  0.68627446  1.0
  C  C85  1  0.38287960  0.31372517  0.86493864  1.0
  C  C86  1  0.38288077  0.86493831  0.31372500  1.0
  C  C87  1  0.61712145  0.68627513  0.13506150  1.0
  C  C88  1  0.66458968  0.23562114  0.72030613  1.0
  C  C89  1  0.33540967  0.27969406  0.76437903  1.0
  C  C90  1  0.33541047  0.76437916  0.27969447  1.0
  C  C91  1  0.66459048  0.72030624  0.23562089  1.0
  C  C92  1  0.78736778  0.28098088  0.79239546  1.0
  C  C93  1  0.21263096  0.20760315  0.71901929  1.0
  C  C94  1  0.21263202  0.71901869  0.20760362  1.0
  C  C95  1  0.78736863  0.79239787  0.28098126  1.0
  C  C96  1  0.85746326  0.22213967  0.82717253  1.0
  C  C97  1  0.14253543  0.17282676  0.77786009  1.0
  C  C98  1  0.14253655  0.77785990  0.17282722  1.0
  C  C99  1  0.85746472  0.82717354  0.22213983  1.0
  C  C100  1  0.80164882  0.12194983  0.79157998  1.0
  C  C101  1  0.19835056  0.20841884  0.87805048  1.0
  C  C102  1  0.19835133  0.87805047  0.20841994  1.0
  C  C103  1  0.80164924  0.79158073  0.12194927  1.0
  C  C104  1  0.74881390  0.59833510  0.91093115  1.0
  C  C105  1  0.25118465  0.08906867  0.40166522  1.0
  C  C106  1  0.25118715  0.40166520  0.08906899  1.0
  C  C107  1  0.74881516  0.91093090  0.59833521  1.0
  C  C108  1  0.57537511  0.76529534  0.76529926  1.0
  C  C109  1  0.42462628  0.23470569  0.23470105  1.0
  C  C110  1  0.61690310  0.85238902  0.85239049  1.0
  C  C111  1  0.38309670  0.14761055  0.14760927  1.0
  N  N112  1  0.42488735  0.64409398  0.91964625  1.0
  N  N113  1  0.57511468  0.08035352  0.35590550  1.0
  N  N114  1  0.57511335  0.35590559  0.08035236  1.0
  N  N115  1  0.42488547  0.91964678  0.64409510  1.0
  N  N116  1  0.96965053  0.42986835  0.84996190  1.0
  N  N117  1  0.03034846  0.15003948  0.57013234  1.0
  N  N118  1  0.03034962  0.57013195  0.15003870  1.0
  N  N119  1  0.96965079  0.84996081  0.42986805  1.0
  N  N120  1  0.68347028  0.07878850  0.72209796  1.0
  N  N121  1  0.31652812  0.27790099  0.92121222  1.0
  N  N122  1  0.31653021  0.92121253  0.27790281  1.0
  N  N123  1  0.68347203  0.72209930  0.07878838  1.0
  O  O124  1  0.63463830  0.55345913  0.90813577  1.0
  O  O125  1  0.36536124  0.09186496  0.44653858  1.0
  O  O126  1  0.36536275  0.44654117  0.09186437  1.0
  O  O127  1  0.63463766  0.90813461  0.55346164  1.0
  O  O128  1  0.79862191  0.69088754  0.93197840  1.0
  O  O129  1  0.20137774  0.06802170  0.30911277  1.0
  O  O130  1  0.20137880  0.30911203  0.06802225  1.0
  O  O131  1  0.79862241  0.93197860  0.69088715  1.0
  O  O132  1  0.55896963  0.68173764  0.78404601  1.0
  O  O133  1  0.44102838  0.21595409  0.31826350  1.0
  O  O134  1  0.44103017  0.31826193  0.21595307  1.0
  O  O135  1  0.55897356  0.78404622  0.68173617  1.0
  O  O136  1  0.63161197  0.83413965  0.93620435  1.0
  O  O137  1  0.36838870  0.06379420  0.16586165  1.0
  O  O138  1  0.36838784  0.16585992  0.06379541  1.0
  O  O139  1  0.63161111  0.93620538  0.83413810  1.0
