# generated using pymatgen
data_AlH8C12SNO5
_symmetry_space_group_name_H-M   'P 1'
_cell_length_a   6.65654237
_cell_length_b   12.69831824
_cell_length_c   16.92432855
_cell_angle_alpha   84.04035776
_cell_angle_beta   82.82240484
_cell_angle_gamma   75.44429516
_symmetry_Int_Tables_number   1
_chemical_formula_structural   AlH8C12SNO5
_chemical_formula_sum   'Al2 H16 C24 S2 N2 O10'
_cell_volume   1369.88200929
_cell_formula_units_Z   2
loop_
 _symmetry_equiv_pos_site_id
 _symmetry_equiv_pos_as_xyz
  1  'x, y, z'
loop_
 _atom_site_type_symbol
 _atom_site_label
 _atom_site_symmetry_multiplicity
 _atom_site_fract_x
 _atom_site_fract_y
 _atom_site_fract_z
 _atom_site_occupancy
  Al  Al0  1  0.50021623  0.49984822  0.49988022  1.0
  Al  Al1  1  0.00024574  0.49993450  0.49981592  1.0
  H  H2  1  0.21460839  0.61905228  0.43300654  1.0
  H  H3  1  0.78390957  0.38354085  0.56980199  1.0
  H  H4  1  0.85531574  0.49332920  0.73621322  1.0
  H  H5  1  0.79291466  0.49246476  0.88634045  1.0
  H  H6  1  0.42539950  0.50997057  0.89519948  1.0
  H  H7  1  0.48641142  0.51318547  0.74435098  1.0
  H  H8  1  0.57473507  0.48993895  0.10464044  1.0
  H  H9  1  0.20726341  0.50737770  0.11357213  1.0
  H  H10  1  0.14467212  0.50656955  0.26372762  1.0
  H  H11  1  0.51361514  0.48672224  0.25550697  1.0
  H  H12  1  0.82670615  0.19582667  0.53214293  1.0
  H  H13  1  0.83657465  0.07942594  0.60104774  1.0
  H  H14  1  0.65204258  0.20498633  0.62039211  1.0
  H  H15  1  0.34735147  0.79478455  0.37977746  1.0
  H  H16  1  0.16341391  0.92061397  0.39889185  1.0
  H  H17  1  0.17251476  0.80460829  0.46805313  1.0
  C  C18  1  0.66277909  0.69563995  0.50188919  1.0
  C  C19  1  0.78943095  0.49784619  0.35637103  1.0
  C  C20  1  0.33747622  0.30431266  0.49785633  1.0
  C  C21  1  0.21072763  0.50186163  0.64349846  1.0
  C  C22  1  0.17445495  0.50299222  0.73224674  1.0
  C  C23  1  0.97827325  0.49718104  0.77197183  1.0
  C  C24  1  0.94348585  0.49670102  0.85442274  1.0
  C  C25  1  0.10660289  0.50126490  0.89860491  1.0
  C  C26  1  0.30260154  0.50679437  0.85910215  1.0
  C  C27  1  0.33605466  0.50826929  0.77627591  1.0
  C  C28  1  0.69750178  0.49309869  0.14076102  1.0
  C  C29  1  0.89356043  0.49859530  0.10129024  1.0
  C  C30  1  0.05668675  0.50312753  0.14549035  1.0
  C  C31  1  0.02183772  0.50264008  0.22793893  1.0
  C  C32  1  0.82560520  0.49682317  0.26761789  1.0
  C  C33  1  0.66399402  0.49158279  0.22358833  1.0
  C  C34  1  0.57667853  0.11661493  0.53097559  1.0
  C  C35  1  0.42321509  0.88335206  0.46900800  1.0
  C  C36  1  0.40369040  0.18519682  0.49820546  1.0
  C  C37  1  0.59628000  0.81474427  0.50171427  1.0
  C  C38  1  0.41793165  0.99314700  0.48001940  1.0
  C  C39  1  0.58197287  0.00680070  0.51997897  1.0
  C  C40  1  0.73140803  0.15084560  0.57349482  1.0
  C  C41  1  0.26828299  0.84917927  0.42656013  1.0
  S  S42  1  0.25195773  0.11697094  0.45576107  1.0
  S  S43  1  0.74795101  0.88297014  0.54419728  1.0
  N  N44  1  0.09003017  0.50045823  0.98267092  1.0
  N  N45  1  0.91017022  0.49940690  0.01722619  1.0
  O  O46  1  0.52710663  0.64679965  0.48719042  1.0
  O  O47  1  0.93336919  0.51752563  0.39155049  1.0
  O  O48  1  0.14987422  0.35048518  0.48390073  1.0
  O  O49  1  0.38321973  0.51851003  0.60970534  1.0
  O  O50  1  0.47311239  0.35308577  0.51266790  1.0
  O  O51  1  0.06666671  0.48230835  0.60829536  1.0
  O  O52  1  0.85064117  0.64958967  0.51560977  1.0
  O  O53  1  0.61710587  0.48104873  0.39019278  1.0
  O  O54  1  0.23779611  0.54938737  0.46396328  1.0
  O  O55  1  0.76259992  0.45066088  0.53578777  1.0
