# generated using pymatgen
data_Zn2H17C36S2N3(O5F2)2
_symmetry_space_group_name_H-M   'P 1'
_cell_length_a   12.78264871
_cell_length_b   16.37340988
_cell_length_c   17.74012813
_cell_angle_alpha   95.70969112
_cell_angle_beta   90.04462439
_cell_angle_gamma   91.72538679
_symmetry_Int_Tables_number   1
_chemical_formula_structural   Zn2H17C36S2N3(O5F2)2
_chemical_formula_sum   'Zn2 H17 C36 S2 N3 O10 F4'
_cell_volume   3692.80744986
_cell_formula_units_Z   1
loop_
 _symmetry_equiv_pos_site_id
 _symmetry_equiv_pos_as_xyz
  1  'x, y, z'
loop_
 _atom_site_type_symbol
 _atom_site_label
 _atom_site_symmetry_multiplicity
 _atom_site_fract_x
 _atom_site_fract_y
 _atom_site_fract_z
 _atom_site_occupancy
  Zn  Zn0  1  0.50044505  0.41336288  0.49449796  1.0
  Zn  Zn1  1  0.50409543  0.58580066  0.50358463  1.0
  H  H2  1  0.39501169  0.71110199  0.42577581  1.0
  H  H3  1  0.39539048  0.86278982  0.42643261  1.0
  H  H4  1  0.63804094  0.87485248  0.59870652  1.0
  H  H5  1  0.62575481  0.72168121  0.59009515  1.0
  H  H6  1  0.35704879  0.12548129  0.40509077  1.0
  H  H7  1  0.60605185  0.13690085  0.57267801  1.0
  H  H8  1  0.60883379  0.28837837  0.57163817  1.0
  H  H9  1  0.37054820  0.27826736  0.41283940  1.0
  H  H10  1  0.50598484  0.61889061  0.26468155  1.0
  H  H11  1  0.50547579  0.61359295  0.12513048  1.0
  H  H12  1  0.49197829  0.34834115  0.11114150  1.0
  H  H13  1  0.49474317  0.35595633  0.25157502  1.0
  H  H14  1  0.50832312  0.65234732  0.88719517  1.0
  H  H15  1  0.49302418  0.38711851  0.87319486  1.0
  H  H16  1  0.49271454  0.38176574  0.73366568  1.0
  H  H17  1  0.50943400  0.64466299  0.74672736  1.0
  H  H18  1  0.86633140  0.62919780  0.50469672  1.0
  C  C19  1  0.50124506  0.49162980  0.35155681  1.0
  C  C20  1  0.29735650  0.49864708  0.49899922  1.0
  C  C21  1  0.50199028  0.50884664  0.64671786  1.0
  C  C22  1  0.70732107  0.50022970  0.50030751  1.0
  C  C23  1  0.44727236  0.75039339  0.46320592  1.0
  C  C24  1  0.44812531  0.83525380  0.46388847  1.0
  C  C25  1  0.51744458  0.88319863  0.51327257  1.0
  C  C26  1  0.58286282  0.84128521  0.55956011  1.0
  C  C27  1  0.57665081  0.75621188  0.55511817  1.0
  C  C28  1  0.52550165  0.97248025  0.51937687  1.0
  C  C29  1  0.47294072  0.02752982  0.48205540  1.0
  C  C30  1  0.41437001  0.15872745  0.44270696  1.0
  C  C31  1  0.48123290  0.11681302  0.48786304  1.0
  C  C32  1  0.55247896  0.16450381  0.53587249  1.0
  C  C33  1  0.55450390  0.24927220  0.53574223  1.0
  C  C34  1  0.42148806  0.24376804  0.44649993  1.0
  C  C35  1  0.50001753  0.48786872  0.26694996  1.0
  C  C36  1  0.50290940  0.55989695  0.23029654  1.0
  C  C37  1  0.50255494  0.55673088  0.15177958  1.0
  C  C38  1  0.49844755  0.48024157  0.10700827  1.0
  C  C39  1  0.49520628  0.40788101  0.14443145  1.0
  C  C40  1  0.49645435  0.41186160  0.22295723  1.0
  C  C41  1  0.49768919  0.47173147  0.02461085  1.0
  C  C42  1  0.50105129  0.52895162  0.97370551  1.0
  C  C43  1  0.50542481  0.59281440  0.85388874  1.0
  C  C44  1  0.50099720  0.52046410  0.89132273  1.0
  C  C45  1  0.49666850  0.44397657  0.84653384  1.0
  C  C46  1  0.49680066  0.44077470  0.76801430  1.0
  C  C47  1  0.50182709  0.51279356  0.73134222  1.0
  C  C48  1  0.50610437  0.58877966  0.77535254  1.0
  C  C49  1  0.10989608  0.43048293  0.49963548  1.0
  C  C50  1  0.89221108  0.56632968  0.50228419  1.0
  C  C51  1  0.18129761  0.49639274  0.50268094  1.0
  C  C52  1  0.82305989  0.49968935  0.49983899  1.0
  C  C53  1  0.99683472  0.54055197  0.50121854  1.0
  C  C54  1  0.00462273  0.45460077  0.49749437  1.0
  S  S55  1  0.11882038  0.58896204  0.50444501  1.0
  S  S56  1  0.88373347  0.40561094  0.49513936  1.0
  N  N57  1  0.50999634  0.71138662  0.50783171  1.0
  N  N58  1  0.49086825  0.28830802  0.49175886  1.0
  N  N59  1  0.13523736  0.34416932  0.49984209  1.0
  O  O60  1  0.51167322  0.42420569  0.38051808  1.0
  O  O61  1  0.49186290  0.56211310  0.38841785  1.0
  O  O62  1  0.34129966  0.56969828  0.51117114  1.0
  O  O63  1  0.34159829  0.43090949  0.48306941  1.0
  O  O64  1  0.51341119  0.57668969  0.61750065  1.0
  O  O65  1  0.49049050  0.43816218  0.61002926  1.0
  O  O66  1  0.66077248  0.43061342  0.50369374  1.0
  O  O67  1  0.66506924  0.56920181  0.49740542  1.0
  O  O68  1  0.08713424  0.29546504  0.45257085  1.0
  O  O69  1  0.19810325  0.32463755  0.54728504  1.0
  F  F70  1  0.59811269  0.00485809  0.57143515  1.0
  F  F71  1  0.40024428  0.99497458  0.43020355  1.0
  F  F72  1  0.49315808  0.39142581  0.99359651  1.0
  F  F73  1  0.50550806  0.60927541  0.00474278  1.0
