# generated using pymatgen
data_ZnH10C16NO6
_symmetry_space_group_name_H-M   'P 1'
_cell_length_a   9.96365003
_cell_length_b   10.85703429
_cell_length_c   14.45178694
_cell_angle_alpha   89.81886884
_cell_angle_beta   88.24525742
_cell_angle_gamma   89.55868459
_symmetry_Int_Tables_number   1
_chemical_formula_structural   ZnH10C16NO6
_chemical_formula_sum   'Zn2 H20 C32 N2 O12'
_cell_volume   1562.54586975
_cell_formula_units_Z   2
loop_
 _symmetry_equiv_pos_site_id
 _symmetry_equiv_pos_as_xyz
  1  'x, y, z'
loop_
 _atom_site_type_symbol
 _atom_site_label
 _atom_site_symmetry_multiplicity
 _atom_site_fract_x
 _atom_site_fract_y
 _atom_site_fract_z
 _atom_site_occupancy
  Zn  Zn0  1  0.35996310  0.50046069  0.50886511  1.0
  Zn  Zn1  1  0.64663674  0.50660712  0.49976375  1.0
  H  H2  1  0.86252582  0.55373223  0.70911333  1.0
  H  H3  1  0.31964254  0.09533395  0.67433464  1.0
  H  H4  1  0.20651799  0.11172831  0.58132223  1.0
  H  H5  1  0.31838206  0.86799254  0.65559479  1.0
  H  H6  1  0.68093954  0.78610277  0.34487799  1.0
  H  H7  1  0.68280325  0.92351912  0.27883206  1.0
  H  H8  1  0.80259977  0.90061522  0.36501478  1.0
  H  H9  1  0.13831410  0.66334759  0.69995976  1.0
  H  H10  1  0.78143230  0.36404807  0.77415770  1.0
  H  H11  1  0.66347733  0.24139391  0.35324374  1.0
  H  H12  1  0.79577624  0.16147570  0.40536434  1.0
  H  H13  1  0.72599089  0.10219595  0.30350245  1.0
  H  H14  1  0.13671376  0.92033370  0.49035267  1.0
  H  H15  1  0.17871097  0.77190982  0.53090594  1.0
  H  H16  1  0.08043512  0.87454254  0.60339611  1.0
  H  H17  1  0.76899958  0.54862199  0.32500325  1.0
  H  H18  1  0.18112413  0.51764874  0.27806055  1.0
  H  H19  1  0.24032812  0.34333762  0.68733346  1.0
  H  H20  1  0.12120262  0.33563252  0.78186189  1.0
  H  H21  1  0.08465022  0.26704692  0.67288906  1.0
  C  C22  1  0.51784140  0.73632810  0.47811421  1.0
  C  C23  1  0.46943220  0.46319463  0.22446360  1.0
  C  C24  1  0.41242643  0.93507761  0.52486551  1.0
  C  C25  1  0.50913418  0.87314027  0.47080633  1.0
  C  C26  1  0.60148844  0.94594176  0.41801668  1.0
  C  C27  1  0.60221622  0.07608431  0.42754385  1.0
  C  C28  1  0.51037236  0.13582049  0.49072602  1.0
  C  C29  1  0.41406008  0.06224165  0.53508618  1.0
  C  C30  1  0.29686786  0.06336147  0.60447073  1.0
  C  C31  1  0.29282582  0.91834075  0.59209869  1.0
  C  C32  1  0.92870133  0.49373272  0.57042568  1.0
  C  C33  1  0.49103882  0.52174920  0.68593222  1.0
  C  C34  1  0.94244538  0.53323408  0.41771465  1.0
  C  C35  1  0.08399414  0.53800544  0.42101560  1.0
  C  C36  1  0.06814254  0.49308814  0.57367673  1.0
  C  C37  1  0.07161103  0.46691885  0.67666418  1.0
  C  C38  1  0.90575264  0.47314278  0.67281995  1.0
  C  C39  1  0.51255751  0.27006203  0.51062702  1.0
  C  C40  1  0.47545193  0.46908089  0.32379772  1.0
  C  C41  1  0.48857799  0.50956091  0.78527472  1.0
  C  C42  1  0.48265531  0.49633694  0.86969131  1.0
  C  C43  1  0.47670489  0.48317051  0.96190804  1.0
  C  C44  1  0.47227180  0.47295056  0.04698313  1.0
  C  C45  1  0.46962657  0.46611163  0.13956881  1.0
  C  C46  1  0.69690605  0.88540461  0.34851933  1.0
  C  C47  1  0.11974770  0.57446565  0.73653671  1.0
  C  C48  1  0.83294860  0.35721554  0.70488897  1.0
  C  C49  1  0.70132938  0.14907785  0.36890230  1.0
  C  C50  1  0.16445912  0.86806004  0.55231602  1.0
  C  C51  1  0.87928792  0.55812282  0.32739945  1.0
  C  C52  1  0.16380467  0.58316580  0.33542580  1.0
  C  C53  1  0.13296318  0.34472346  0.70637460  1.0
  N  N54  1  0.86118743  0.50979386  0.49364420  1.0
  N  N55  1  0.14983405  0.51460395  0.50072861  1.0
  O  O56  1  0.40840408  0.67674540  0.47929972  1.0
  O  O57  1  0.63451230  0.68855730  0.48798231  1.0
  O  O58  1  0.37777058  0.54009488  0.64898411  1.0
  O  O59  1  0.60535714  0.51205223  0.64446258  1.0
  O  O60  1  0.40276039  0.32124294  0.53919064  1.0
  O  O61  1  0.62415587  0.32613236  0.49875180  1.0
  O  O62  1  0.36930369  0.44342079  0.37114864  1.0
  O  O63  1  0.58722193  0.50066637  0.35604747  1.0
  O  O64  1  0.13026094  0.56382230  0.81962904  1.0
  O  O65  1  0.83390996  0.26257967  0.66002951  1.0
  O  O66  1  0.94822902  0.58710143  0.25903663  1.0
  O  O67  1  0.20654993  0.68801382  0.33679928  1.0
