# generated using pymatgen
data_ZnH6C17N5O6
_symmetry_space_group_name_H-M   'P 1'
_cell_length_a   10.99288906
_cell_length_b   13.14542283
_cell_length_c   14.31243973
_cell_angle_alpha   89.83406122
_cell_angle_beta   89.88529578
_cell_angle_gamma   89.32222083
_symmetry_Int_Tables_number   1
_chemical_formula_structural   ZnH6C17N5O6
_chemical_formula_sum   'Zn2 H12 C34 N10 O12'
_cell_volume   2068.07853079
_cell_formula_units_Z   2
loop_
 _symmetry_equiv_pos_site_id
 _symmetry_equiv_pos_as_xyz
  1  'x, y, z'
loop_
 _atom_site_type_symbol
 _atom_site_label
 _atom_site_symmetry_multiplicity
 _atom_site_fract_x
 _atom_site_fract_y
 _atom_site_fract_z
 _atom_site_occupancy
  Zn  Zn0  1  0.49995655  0.39128085  0.50862720  1.0
  Zn  Zn1  1  0.50052873  0.60599653  0.49501690  1.0
  H  H2  1  0.21600370  0.66990507  0.76465992  1.0
  H  H3  1  0.90520458  0.82410960  0.56375666  1.0
  H  H4  1  0.94721105  0.76007718  0.67027833  1.0
  H  H5  1  0.79190780  0.79656920  0.65058720  1.0
  H  H6  1  0.28598121  0.69372129  0.65299152  1.0
  H  H7  1  0.26955455  0.56629769  0.69617526  1.0
  H  H8  1  0.10592219  0.82741092  0.45760546  1.0
  H  H9  1  0.23807896  0.75417484  0.49014639  1.0
  H  H10  1  0.13846755  0.80609458  0.57889144  1.0
  H  H11  1  0.72880626  0.60264627  0.69650478  1.0
  H  H12  1  0.83375114  0.64137380  0.78529876  1.0
  H  H13  1  0.78662425  0.51126741  0.77930155  1.0
  C  C14  1  0.49674573  0.48675624  0.32508929  1.0
  C  C15  1  0.73443211  0.49809655  0.51070403  1.0
  C  C16  1  0.49929638  0.50674921  0.68092547  1.0
  C  C17  1  0.07507329  0.41087595  0.57602534  1.0
  C  C18  1  0.07212105  0.50727450  0.41779934  1.0
  C  C19  1  0.92847956  0.40008455  0.55861565  1.0
  C  C20  1  0.92585467  0.52652915  0.41776536  1.0
  C  C21  1  0.06518066  0.60905722  0.57091784  1.0
  C  C22  1  0.91949500  0.59015793  0.58907795  1.0
  C  C23  1  0.12115650  0.50891212  0.52280081  1.0
  C  C24  1  0.87551657  0.50400401  0.51948152  1.0
  C  C25  1  0.49870677  0.49853511  0.95999707  1.0
  C  C26  1  0.49732266  0.48179936  0.22493357  1.0
  C  C27  1  0.49767194  0.48559527  0.13933858  1.0
  C  C28  1  0.49815521  0.49138727  0.04595068  1.0
  C  C29  1  0.10433134  0.41930714  0.67628985  1.0
  C  C30  1  0.13293280  0.58324653  0.35874765  1.0
  C  C31  1  0.87083715  0.36888902  0.64724175  1.0
  C  C32  1  0.89507449  0.63057588  0.38557960  1.0
  C  C33  1  0.13470580  0.31301115  0.55138456  1.0
  C  C34  1  0.10181136  0.40984903  0.37182036  1.0
  C  C35  1  0.90300757  0.31388815  0.49613497  1.0
  C  C36  1  0.49948454  0.50502477  0.86664987  1.0
  C  C37  1  0.86743722  0.46195894  0.34708787  1.0
  C  C38  1  0.22807030  0.64228445  0.69302460  1.0
  C  C39  1  0.14356185  0.77319420  0.50853221  1.0
  C  C40  1  0.80788474  0.57934246  0.73824055  1.0
  C  C41  1  0.87623651  0.76943104  0.61717628  1.0
  C  C42  1  0.50036765  0.51016827  0.78100986  1.0
  C  C43  1  0.50982394  0.85043021  0.48813343  1.0
  C  C44  1  0.50168693  0.14846978  0.50154198  1.0
  C  C45  1  0.50889873  0.95324940  0.48954314  1.0
  C  C46  1  0.50542564  0.04595879  0.49410962  1.0
  C  C47  1  0.26237771  0.50840737  0.51319861  1.0
  N  N48  1  0.50830044  0.76176465  0.48920610  1.0
  N  N49  1  0.81698382  0.41688313  0.28924990  1.0
  N  N50  1  0.49870187  0.23656050  0.50957524  1.0
  N  N51  1  0.13888538  0.41821303  0.75316401  1.0
  N  N52  1  0.18390538  0.63484406  0.30555204  1.0
  N  N53  1  0.83026224  0.33185906  0.71436313  1.0
  N  N54  1  0.86970842  0.70727035  0.34922243  1.0
  N  N55  1  0.17175004  0.22996045  0.54437407  1.0
  N  N56  1  0.12717172  0.33630116  0.33063023  1.0
  N  N57  1  0.87972387  0.24164214  0.45315475  1.0
  O  O58  1  0.51863216  0.40456536  0.37012306  1.0
  O  O59  1  0.06849621  0.68548531  0.50117857  1.0
  O  O60  1  0.91076483  0.55223256  0.68066594  1.0
  O  O61  1  0.84820810  0.67487907  0.57166996  1.0
  O  O62  1  0.47408298  0.57424013  0.35954819  1.0
  O  O63  1  0.31118976  0.42281437  0.49813924  1.0
  O  O64  1  0.31380578  0.59366708  0.51619262  1.0
  O  O65  1  0.68555959  0.41559487  0.53511608  1.0
  O  O66  1  0.68244455  0.57554499  0.47644512  1.0
  O  O67  1  0.47355381  0.42101160  0.64528831  1.0
  O  O68  1  0.52327592  0.58885208  0.63640960  1.0
  O  O69  1  0.10582579  0.63894357  0.65748059  1.0
