# generated using pymatgen
data_ZnH11C19NO4
_symmetry_space_group_name_H-M   'P 1'
_cell_length_a   18.29473242
_cell_length_b   23.76060863
_cell_length_c   23.76060035
_cell_angle_alpha   61.62333626
_cell_angle_beta   67.36476495
_cell_angle_gamma   67.36479574
_symmetry_Int_Tables_number   1
_chemical_formula_structural   ZnH11C19NO4
_chemical_formula_sum   'Zn8 H88 C152 N8 O32'
_cell_volume   8124.05015715
_cell_formula_units_Z   8
loop_
 _symmetry_equiv_pos_site_id
 _symmetry_equiv_pos_as_xyz
  1  'x, y, z'
loop_
 _atom_site_type_symbol
 _atom_site_label
 _atom_site_symmetry_multiplicity
 _atom_site_fract_x
 _atom_site_fract_y
 _atom_site_fract_z
 _atom_site_occupancy
  Zn  Zn0  1  0.04622783  0.64177397  0.28255727  1.0
  Zn  Zn1  1  0.47058685  0.85819981  0.21742929  1.0
  Zn  Zn2  1  0.52941299  0.78257087  0.14180049  1.0
  Zn  Zn3  1  0.95377154  0.71744255  0.35822612  1.0
  Zn  Zn4  1  0.95377138  0.35822608  0.71744298  1.0
  Zn  Zn5  1  0.52941355  0.14180024  0.78257061  1.0
  Zn  Zn6  1  0.47058725  0.21742967  0.85819922  1.0
  Zn  Zn7  1  0.04622842  0.28255700  0.64177415  1.0
  H  H8  1  0.54281028  0.00729725  0.00729772  1.0
  H  H9  1  0.05735243  0.49271334  0.49271431  1.0
  H  H10  1  0.94264693  0.50728622  0.50728613  1.0
  H  H11  1  0.45719130  0.99270280  0.99270183  1.0
  H  H12  1  0.75402925  0.82481202  0.25365047  1.0
  H  H13  1  0.33247089  0.67519996  0.24635148  1.0
  H  H14  1  0.66752943  0.75364838  0.32479954  1.0
  H  H15  1  0.24597028  0.74634999  0.17518781  1.0
  H  H16  1  0.24596952  0.17518754  0.74635057  1.0
  H  H17  1  0.66752863  0.32479910  0.75364873  1.0
  H  H18  1  0.33246978  0.24635167  0.67520029  1.0
  H  H19  1  0.75403012  0.25365006  0.82481210  1.0
  H  H20  1  0.88514896  0.85201114  0.01923788  1.0
  H  H21  1  0.25643750  0.64795305  0.48077888  1.0
  H  H22  1  0.74356191  0.51922109  0.35204639  1.0
  H  H23  1  0.11485160  0.98076252  0.14798882  1.0
  H  H24  1  0.11485084  0.14798891  0.98076345  1.0
  H  H25  1  0.74356246  0.35204650  0.51922097  1.0
  H  H26  1  0.25643774  0.48077946  0.64795307  1.0
  H  H27  1  0.88514820  0.01923753  0.85201083  1.0
  H  H28  1  0.83607282  0.97665837  0.97665793  1.0
  H  H29  1  0.28939622  0.52333550  0.52333536  1.0
  H  H30  1  0.71060299  0.47666455  0.47666447  1.0
  H  H31  1  0.16392919  0.02334218  0.02334252  1.0
  H  H32  1  0.96030379  0.77283468  0.10647686  1.0
  H  H33  1  0.33966688  0.72714103  0.39354349  1.0
  H  H34  1  0.66033305  0.60645651  0.27285821  1.0
  H  H35  1  0.03969608  0.89352395  0.22716443  1.0
  H  H36  1  0.03969617  0.22716487  0.89352383  1.0
  H  H37  1  0.66033308  0.27285852  0.60645594  1.0
  H  H38  1  0.33966690  0.39354305  0.72714164  1.0
  H  H39  1  0.96030417  0.10647659  0.77283444  1.0
  H  H40  1  0.67671187  0.90196673  0.16793796  1.0
  H  H41  1  0.24657316  0.59804487  0.33204805  1.0
  H  H42  1  0.75342714  0.66795175  0.40195428  1.0
  H  H43  1  0.32328791  0.83206177  0.09803388  1.0
  H  H44  1  0.32328660  0.09803381  0.83206270  1.0
  H  H45  1  0.75342695  0.40195419  0.66795157  1.0
  H  H46  1  0.24657251  0.33204879  0.59804518  1.0
  H  H47  1  0.67671130  0.16793828  0.90196638  1.0
  H  H48  1  0.26583941  0.55014665  0.01721858  1.0
  H  H49  1  0.33323503  0.94983418  0.48275333  1.0
  H  H50  1  0.66676531  0.51724659  0.05016596  1.0
  H  H51  1  0.73415995  0.98278146  0.44985343  1.0
  H  H52  1  0.73416039  0.44985341  0.98278192  1.0
  H  H53  1  0.66676537  0.05016587  0.51724657  1.0
  H  H54  1  0.33323449  0.48275346  0.94983412  1.0
  H  H55  1  0.26583986  0.01721859  0.55014623  1.0
  H  H56  1  0.16075950  0.50847194  0.30330447  1.0
  H  H57  1  0.47256335  0.99151455  0.19664500  1.0
  H  H58  1  0.52743798  0.80335424  0.00848660  1.0
  H  H59  1  0.83924053  0.69669573  0.49152809  1.0
  H  H60  1  0.83924089  0.49152811  0.69669585  1.0
  H  H61  1  0.52743749  0.00848599  0.80335496  1.0
  H  H62  1  0.47256257  0.19664532  0.99151391  1.0
  H  H63  1  0.16075868  0.30330432  0.50847216  1.0
  H  H64  1  0.06793269  0.65738906  0.14624865  1.0
  H  H65  1  0.37161977  0.84258707  0.35370675  1.0
  H  H66  1  0.62837942  0.64629274  0.15741441  1.0
  H  H67  1  0.93206777  0.85375182  0.34261038  1.0
  H  H68  1  0.93206770  0.34261099  0.85375125  1.0
  H  H69  1  0.62837973  0.15741397  0.64629295  1.0
  H  H70  1  0.37162038  0.35370731  0.84258651  1.0
  H  H71  1  0.06793263  0.14624822  0.65738952  1.0
  H  H72  1  0.14402240  0.59199945  0.07456574  1.0
  H  H73  1  0.31063568  0.90800040  0.42536415  1.0
  H  H74  1  0.68936480  0.57463548  0.09199956  1.0
  H  H75  1  0.85597789  0.92543413  0.40800059  1.0
  H  H76  1  0.85597740  0.40800060  0.92543434  1.0
  H  H77  1  0.68936398  0.09200014  0.57463531  1.0
  H  H78  1  0.31063544  0.42536506  0.90800015  1.0
  H  H79  1  0.14402206  0.07456543  0.59199968  1.0
  H  H80  1  0.24288984  0.43654222  0.23865599  1.0
  H  H81  1  0.41811963  0.06345905  0.26129178  1.0
  H  H82  1  0.58188114  0.73870837  0.93654115  1.0
  H  H83  1  0.75711024  0.76134465  0.56345761  1.0
  H  H84  1  0.75710981  0.56345832  0.76134431  1.0
  H  H85  1  0.58188077  0.93654100  0.73870812  1.0
  H  H86  1  0.41811866  0.26129168  0.06345893  1.0
  H  H87  1  0.24289001  0.23865589  0.43654210  1.0
  H  H88  1  0.23828177  0.37430420  0.19308493  1.0
  H  H89  1  0.30567102  0.12569369  0.30689030  1.0
  H  H90  1  0.69432841  0.69310956  0.87430653  1.0
  H  H91  1  0.76171802  0.80691530  0.62569548  1.0
  H  H92  1  0.76171818  0.62569535  0.80691576  1.0
  H  H93  1  0.69432923  0.87430685  0.69310942  1.0
  H  H94  1  0.30567095  0.30689000  0.12569391  1.0
  H  H95  1  0.23828120  0.19308474  0.37430435  1.0
  C  C96  1  0.64881834  0.94407399  0.04430452  1.0
  C  C97  1  0.13718316  0.55592299  0.45568889  1.0
  C  C98  1  0.86281564  0.54431176  0.44407682  1.0
  C  C99  1  0.35118407  0.95569520  0.05592467  1.0
  C  C100  1  0.35118340  0.05592557  0.95569523  1.0
  C  C101  1  0.86281561  0.44407657  0.54431131  1.0
  C  C102  1  0.13718298  0.45568829  0.55592360  1.0
  C  C103  1  0.64881841  0.04430385  0.94407341  1.0
  C  C104  1  0.60815439  0.99927061  0.99927125  1.0
  C  C105  1  0.10667324  0.50072933  0.50073000  1.0
  C  C106  1  0.89332538  0.49927072  0.49927084  1.0
  C  C107  1  0.39184899  0.00072745  0.00072704  1.0
  C  C108  1  0.59941511  0.89627284  0.09816167  1.0
  C  C109  1  0.09385179  0.60371957  0.40182573  1.0
  C  C110  1  0.90614673  0.59817492  0.39628267  1.0
  C  C111  1  0.40059444  0.90183361  0.10371792  1.0
  C  C112  1  0.40059455  0.10371829  0.90183303  1.0
  C  C113  1  0.90614472  0.39628543  0.59817590  1.0
  C  C114  1  0.09385039  0.40182613  0.60372108  1.0
  C  C115  1  0.59941595  0.09816095  0.89627156  1.0
  C  C116  1  0.73258440  0.93473872  0.03602570  1.0
  C  C117  1  0.20334453  0.56525113  0.46396688  1.0
  C  C118  1  0.79665516  0.53603331  0.43474844  1.0
  C  C119  1  0.26741656  0.96397487  0.06526024  1.0
  C  C120  1  0.26741630  0.06526034  0.96397501  1.0
  C  C121  1  0.79665468  0.43474892  0.53603338  1.0
  C  C122  1  0.20334421  0.46396625  0.56525158  1.0
  C  C123  1  0.73258428  0.03602566  0.93473845  1.0
  C  C124  1  0.77584773  0.88311207  0.08725283  1.0
  C  C125  1  0.24622233  0.61686480  0.41274971  1.0
  C  C126  1  0.75377922  0.58724923  0.38313359  1.0
  C  C127  1  0.22415312  0.91274680  0.11688841  1.0
  C  C128  1  0.22415251  0.11688848  0.91274772  1.0
  C  C129  1  0.75377838  0.38313426  0.58724890  1.0
  C  C130  1  0.24622133  0.41275032  0.61686608  1.0
  C  C131  1  0.77584802  0.08725275  0.88311151  1.0
  C  C132  1  0.78171386  0.83043440  0.20228991  1.0
  C  C133  1  0.31443740  0.66955174  0.29771385  1.0
  C  C134  1  0.68556400  0.70228512  0.33044776  1.0
  C  C135  1  0.21828516  0.79771002  0.16956580  1.0
  C  C136  1  0.21828475  0.16956565  0.79771136  1.0
  C  C137  1  0.68556374  0.33044781  0.70228481  1.0
  C  C138  1  0.31443654  0.29771444  0.66955233  1.0
  C  C139  1  0.78171346  0.20229003  0.83043505  1.0
  C  C140  1  0.90947044  0.74955131  0.23655835  1.0
  C  C141  1  0.39559837  0.75041617  0.26345805  1.0
  C  C142  1  0.60440396  0.73653664  0.24958032  1.0
  C  C143  1  0.09052738  0.76344315  0.25044872  1.0
  C  C144  1  0.09052668  0.25044974  0.76344456  1.0
  C  C145  1  0.60440370  0.24958040  0.73653629  1.0
  C  C146  1  0.39559737  0.26345845  0.75041663  1.0
  C  C147  1  0.90947078  0.23655839  0.74955281  1.0
  C  C148  1  0.85601364  0.84595088  0.07070442  1.0
  C  C149  1  0.27271486  0.65401132  0.42930961  1.0
  C  C150  1  0.72728685  0.57068952  0.34598802  1.0
  C  C151  1  0.14398701  0.92929606  0.15404840  1.0
  C  C152  1  0.14398676  0.15404917  0.92929632  1.0
  C  C153  1  0.72728629  0.34598823  0.57068947  1.0
  C  C154  1  0.27271370  0.42931003  0.65401165  1.0
  C  C155  1  0.85601398  0.07070398  0.84595091  1.0
  C  C156  1  0.77263746  0.98104799  0.98104774  1.0
  C  C157  1  0.23473076  0.51894134  0.51894171  1.0
  C  C158  1  0.76526845  0.48105871  0.48105896  1.0
  C  C159  1  0.22736369  0.01895156  0.01895133  1.0
  C  C160  1  0.86187029  0.79402728  0.18543730  1.0
  C  C161  1  0.34137728  0.70593482  0.31457902  1.0
  C  C162  1  0.65862243  0.68542292  0.29406422  1.0
  C  C163  1  0.13812997  0.81456278  0.20597187  1.0
  C  C164  1  0.13813010  0.20597277  0.81456218  1.0
  C  C165  1  0.65862208  0.29406474  0.68542227  1.0
  C  C166  1  0.34137632  0.31457861  0.70593546  1.0
  C  C167  1  0.86187117  0.18543677  0.79402721  1.0
  C  C168  1  0.89805082  0.80155715  0.11922675  1.0
  C  C169  1  0.31889209  0.69839559  0.38079172  1.0
  C  C170  1  0.68110741  0.61920892  0.30160265  1.0
  C  C171  1  0.10194869  0.88077382  0.19844252  1.0
  C  C172  1  0.10194780  0.19844291  0.88077536  1.0
  C  C173  1  0.68110773  0.30160248  0.61920846  1.0
  C  C174  1  0.31889166  0.38079162  0.69839657  1.0
  C  C175  1  0.89805037  0.11922673  0.80155754  1.0
  C  C176  1  0.73893338  0.87368469  0.15406387  1.0
  C  C177  1  0.26666562  0.62631527  0.34593451  1.0
  C  C178  1  0.73333431  0.65406709  0.37368287  1.0
  C  C179  1  0.26106761  0.84593590  0.12631504  1.0
  C  C180  1  0.26106702  0.12631535  0.84593561  1.0
  C  C181  1  0.73333404  0.37368330  0.65406673  1.0
  C  C182  1  0.26666445  0.34593444  0.62631554  1.0
  C  C183  1  0.73893412  0.15406365  0.87368428  1.0
  C  C184  1  0.20090155  0.50814132  0.15030837  1.0
  C  C185  1  0.35939297  0.99184930  0.34964211  1.0
  C  C186  1  0.64060709  0.65035774  0.00815146  1.0
  C  C187  1  0.79909795  0.84969204  0.49185834  1.0
  C  C188  1  0.79909840  0.49185823  0.84969190  1.0
  C  C189  1  0.64060728  0.00815124  0.65035802  1.0
  C  C190  1  0.35939212  0.34964231  0.99184879  1.0
  C  C191  1  0.20090126  0.15030801  0.50814192  1.0
  C  C192  1  0.24575524  0.46746208  0.11022949  1.0
  C  C193  1  0.32349247  0.03252137  0.38972983  1.0
  C  C194  1  0.67650741  0.61026946  0.96747961  1.0
  C  C195  1  0.75424497  0.88977083  0.53253757  1.0
  C  C196  1  0.75424471  0.53253747  0.88977119  1.0
  C  C197  1  0.67650762  0.96747966  0.61026969  1.0
  C  C198  1  0.32349195  0.38973010  0.03252125  1.0
  C  C199  1  0.24575543  0.11022922  0.46746192  1.0
  C  C200  1  0.27335366  0.49683383  0.04122375  1.0
  C  C201  1  0.31145463  0.00314085  0.45874197  1.0
  C  C202  1  0.68854574  0.54125802  0.99685949  1.0
  C  C203  1  0.72664510  0.95877676  0.50316641  1.0
  C  C204  1  0.72664615  0.50316622  0.95877632  1.0
  C  C205  1  0.68854502  0.99685970  0.54125792  1.0
  C  C206  1  0.31145407  0.45874203  0.00314059  1.0
  C  C207  1  0.27335456  0.04122378  0.49683348  1.0
  C  C208  1  0.15965827  0.52439917  0.25228648  1.0
  C  C209  1  0.43637793  0.97559084  0.24766292  1.0
  C  C210  1  0.56362265  0.75233709  0.02441029  1.0
  C  C211  1  0.84034189  0.74771330  0.47560066  1.0
  C  C212  1  0.84034212  0.47560088  0.74771342  1.0
  C  C213  1  0.56362231  0.02440971  0.75233763  1.0
  C  C214  1  0.43637715  0.24766296  0.97559105  1.0
  C  C215  1  0.15965791  0.25228675  0.52439900  1.0
  C  C216  1  0.10816125  0.60828329  0.16387428  1.0
  C  C217  1  0.38035895  0.89169817  0.33608040  1.0
  C  C218  1  0.61964069  0.66391956  0.10830230  1.0
  C  C219  1  0.89183933  0.83612558  0.39171601  1.0
  C  C220  1  0.89183915  0.39171675  0.83612520  1.0
  C  C221  1  0.61964026  0.10830188  0.66392028  1.0
  C  C222  1  0.38035896  0.33608099  0.89169800  1.0
  C  C223  1  0.10816048  0.16387447  0.60828365  1.0
  C  C224  1  0.15109890  0.57164730  0.12458023  1.0
  C  C225  1  0.34737101  0.92834787  0.37536686  1.0
  C  C226  1  0.65263012  0.62463161  0.07165272  1.0
  C  C227  1  0.84890055  0.87542003  0.42835290  1.0
  C  C228  1  0.84890090  0.42835275  0.87542027  1.0
  C  C229  1  0.65262998  0.07165218  0.62463245  1.0
  C  C230  1  0.34737073  0.37536696  0.92834776  1.0
  C  C231  1  0.15109941  0.12457953  0.57164737  1.0
  C  C232  1  0.20443871  0.48491963  0.21596168  1.0
  C  C233  1  0.40535243  0.01508168  0.28399119  1.0
  C  C234  1  0.59464839  0.71600771  0.98491971  1.0
  C  C235  1  0.79556150  0.78403886  0.51507990  1.0
  C  C236  1  0.79556169  0.51508042  0.78403865  1.0
  C  C237  1  0.59464841  0.98491886  0.71600792  1.0
  C  C238  1  0.40535231  0.28399135  0.01508099  1.0
  C  C239  1  0.20443816  0.21596168  0.48491998  1.0
  C  C240  1  0.26007755  0.39829859  0.13977762  1.0
  C  C241  1  0.29818359  0.10168452  0.36019858  1.0
  C  C242  1  0.70181626  0.63980171  0.89831585  1.0
  C  C243  1  0.73992173  0.86022267  0.60170093  1.0
  C  C244  1  0.73992240  0.60170096  0.86022223  1.0
  C  C245  1  0.70181606  0.89831602  0.63980131  1.0
  C  C246  1  0.29818354  0.36019834  0.10168464  1.0
  C  C247  1  0.26007793  0.13977788  0.39829854  1.0
  N  N248  1  0.11231935  0.58510150  0.22668807  1.0
  N  N249  1  0.42415879  0.91488577  0.27326788  1.0
  N  N250  1  0.57584254  0.72673066  0.08511444  1.0
  N  N251  1  0.88768131  0.77331261  0.41489768  1.0
  N  N252  1  0.88768119  0.41489806  0.77331287  1.0
  N  N253  1  0.57584221  0.08511428  0.72673101  1.0
  N  N254  1  0.42415817  0.27326840  0.91488542  1.0
  N  N255  1  0.11231908  0.22668744  0.58510222  1.0
  O  O256  1  0.54024199  0.91850779  0.13919180  1.0
  O  O257  1  0.09794943  0.58148350  0.36079507  1.0
  O  O258  1  0.90205015  0.63920431  0.41851606  1.0
  O  O259  1  0.45975488  0.86081033  0.08149410  1.0
  O  O260  1  0.45975304  0.08149623  0.86081032  1.0
  O  O261  1  0.90204980  0.41851457  0.63920402  1.0
  O  O262  1  0.09794893  0.36079425  0.58148367  1.0
  O  O263  1  0.54024269  0.13919121  0.91850718  1.0
  O  O264  1  0.97814298  0.71215874  0.21851289  1.0
  O  O265  1  0.40875967  0.78786917  0.28148471  1.0
  O  O266  1  0.59124160  0.71851885  0.21213243  1.0
  O  O267  1  0.02185726  0.78148725  0.28784030  1.0
  O  O268  1  0.02185712  0.28784032  0.78148799  1.0
  O  O269  1  0.59124129  0.21213287  0.71851828  1.0
  O  O270  1  0.40875876  0.28148516  0.78786937  1.0
  O  O271  1  0.97814612  0.21851082  0.71215925  1.0
  O  O272  1  0.61675823  0.83998950  0.09669761  1.0
  O  O273  1  0.05346261  0.66001388  0.40328366  1.0
  O  O274  1  0.94653726  0.59671685  0.33998448  1.0
  O  O275  1  0.38323946  0.90330148  0.16001921  1.0
  O  O276  1  0.38323824  0.16002143  0.90330162  1.0
  O  O277  1  0.94653856  0.33998172  0.59671646  1.0
  O  O278  1  0.05346300  0.40328368  0.66001271  1.0
  O  O279  1  0.61675884  0.09669761  0.83998892  1.0
  O  O280  1  0.88009138  0.75245115  0.29340678  1.0
  O  O281  1  0.42601864  0.74745961  0.20663830  1.0
  O  O282  1  0.57397928  0.79336751  0.25254108  1.0
  O  O283  1  0.11990863  0.70659271  0.24754860  1.0
  O  O284  1  0.11990871  0.24754989  0.70659232  1.0
  O  O285  1  0.57397907  0.25254145  0.79336696  1.0
  O  O286  1  0.42601811  0.20663848  0.74745982  1.0
  O  O287  1  0.88009327  0.29340437  0.75245186  1.0
