# generated using pymatgen
data_ZnH20C33N2(O2F3)2
_symmetry_space_group_name_H-M   'P 1'
_cell_length_a   7.14767631
_cell_length_b   21.99578744
_cell_length_c   23.61826744
_cell_angle_alpha   89.99937923
_cell_angle_beta   90.00038991
_cell_angle_gamma   89.99935292
_symmetry_Int_Tables_number   1
_chemical_formula_structural   ZnH20C33N2(O2F3)2
_chemical_formula_sum   'Zn4 H80 C132 N8 O16 F24'
_cell_volume   3713.23492768
_cell_formula_units_Z   4
loop_
 _symmetry_equiv_pos_site_id
 _symmetry_equiv_pos_as_xyz
  1  'x, y, z'
loop_
 _atom_site_type_symbol
 _atom_site_label
 _atom_site_symmetry_multiplicity
 _atom_site_fract_x
 _atom_site_fract_y
 _atom_site_fract_z
 _atom_site_occupancy
  Zn  Zn0  1  0.48080861  0.29406479  0.17782929  1.0
  Zn  Zn1  1  0.48082829  0.70593762  0.82216661  1.0
  Zn  Zn2  1  0.51918064  0.20593402  0.67782708  1.0
  Zn  Zn3  1  0.51917070  0.79406416  0.32217060  1.0
  H  H4  1  0.26343695  0.64961442  0.44813076  1.0
  H  H5  1  0.26343208  0.35038197  0.55186807  1.0
  H  H6  1  0.73654388  0.85037953  0.94812924  1.0
  H  H7  1  0.73656973  0.14961512  0.05186846  1.0
  H  H8  1  0.50976470  0.57254591  0.46725855  1.0
  H  H9  1  0.50975535  0.42744911  0.53274630  1.0
  H  H10  1  0.49021516  0.92744736  0.96725150  1.0
  H  H11  1  0.49025024  0.07254683  0.03274060  1.0
  H  H12  1  0.54863688  0.48419475  0.40310192  1.0
  H  H13  1  0.54863011  0.51579786  0.59690217  1.0
  H  H14  1  0.45134061  0.01579915  0.90309893  1.0
  H  H15  1  0.45138343  0.98419973  0.09689987  1.0
  H  H16  1  0.09993629  0.55111128  0.29857185  1.0
  H  H17  1  0.09993416  0.44888572  0.70142664  1.0
  H  H18  1  0.90004959  0.94889214  0.79857730  1.0
  H  H19  1  0.90006680  0.05111099  0.20143217  1.0
  H  H20  1  0.16631669  0.72880872  0.39282985  1.0
  H  H21  1  0.16630320  0.27118121  0.60716498  1.0
  H  H22  1  0.83368249  0.77118587  0.89283017  1.0
  H  H23  1  0.83368306  0.22881342  0.10716943  1.0
  H  H24  1  0.90502945  0.80003201  0.37407147  1.0
  H  H25  1  0.90500625  0.19996837  0.62592997  1.0
  H  H26  1  0.09496931  0.69996644  0.87406674  1.0
  H  H27  1  0.09495385  0.30003376  0.12593175  1.0
  H  H28  1  0.57379612  0.66408244  0.30617479  1.0
  H  H29  1  0.57379213  0.33592053  0.69382723  1.0
  H  H30  1  0.42619413  0.83592407  0.80617700  1.0
  H  H31  1  0.42621147  0.16408309  0.19382344  1.0
  H  H32  1  0.81526359  0.58468804  0.32589577  1.0
  H  H33  1  0.81526761  0.41530449  0.67410845  1.0
  H  H34  1  0.18472150  0.91531278  0.82590091  1.0
  H  H35  1  0.18474253  0.08468981  0.17410115  1.0
  H  H36  1  0.65532006  0.45566504  0.31920313  1.0
  H  H37  1  0.65532817  0.54432809  0.68079652  1.0
  H  H38  1  0.34467095  0.04433394  0.81920260  1.0
  H  H39  1  0.34466627  0.95566670  0.18079471  1.0
  H  H40  1  0.69826204  0.36877325  0.25238160  1.0
  H  H41  1  0.69827424  0.63121835  0.74761771  1.0
  H  H42  1  0.30171908  0.13122195  0.75238011  1.0
  H  H43  1  0.30172728  0.86877430  0.24761753  1.0
  H  H44  1  0.13024633  0.36435504  0.21559045  1.0
  H  H45  1  0.13026620  0.63564458  0.78441150  1.0
  H  H46  1  0.86973396  0.13564060  0.71558247  1.0
  H  H47  1  0.86974454  0.86435355  0.28441381  1.0
  H  H48  1  0.06402967  0.44950927  0.28069422  1.0
  H  H49  1  0.06404682  0.55049241  0.71931013  1.0
  H  H50  1  0.93594929  0.05048925  0.78069316  1.0
  H  H51  1  0.93595687  0.94951012  0.21930961  1.0
  H  H52  1  0.28325766  0.16287404  0.34796035  1.0
  H  H53  1  0.28327461  0.83711637  0.65203472  1.0
  H  H54  1  0.71674518  0.33712824  0.84796103  1.0
  H  H55  1  0.71674017  0.66287876  0.15203959  1.0
  H  H56  1  0.13829939  0.24697619  0.29285158  1.0
  H  H57  1  0.13829389  0.75301703  0.70714657  1.0
  H  H58  1  0.86172041  0.25303128  0.79285045  1.0
  H  H59  1  0.86171232  0.74698018  0.20714624  1.0
  H  H60  1  0.64000250  0.14098054  0.27222284  1.0
  H  H61  1  0.64000780  0.85902310  0.72777254  1.0
  H  H62  1  0.36001823  0.35902444  0.77222722  1.0
  H  H63  1  0.36000168  0.64098024  0.22777139  1.0
  H  H64  1  0.78075100  0.05649197  0.32557407  1.0
  H  H65  1  0.78077736  0.94350797  0.67442711  1.0
  H  H66  1  0.21925134  0.44351056  0.82557985  1.0
  H  H67  1  0.21925190  0.55649054  0.17442737  1.0
  H  H68  1  0.49641823  0.02603883  0.42156911  1.0
  H  H69  1  0.49645119  0.97395397  0.57843741  1.0
  H  H70  1  0.50357926  0.47396213  0.92156163  1.0
  H  H71  1  0.50356054  0.52604611  0.07843601  1.0
  H  H72  1  0.63672134  0.07179547  0.50728446  1.0
  H  H73  1  0.63675396  0.92820136  0.49271811  1.0
  H  H74  1  0.36326269  0.42820577  0.00727619  1.0
  H  H75  1  0.36325304  0.57180298  0.99271947  1.0
  H  H76  1  0.14716202  0.18145496  0.53159721  1.0
  H  H77  1  0.14718669  0.81855596  0.46839673  1.0
  H  H78  1  0.85282395  0.31855510  0.03160333  1.0
  H  H79  1  0.85283097  0.68144685  0.96839799  1.0
  H  H80  1  0.00770386  0.13902078  0.44430764  1.0
  H  H81  1  0.00771643  0.86098474  0.55568897  1.0
  H  H82  1  0.99229694  0.36098219  0.94431628  1.0
  H  H83  1  0.99228779  0.63901560  0.05568830  1.0
  C  C84  1  0.16172691  0.60453323  0.37284213  1.0
  C  C85  1  0.16172357  0.39546399  0.62715862  1.0
  C  C86  1  0.83827322  0.89546841  0.87284586  1.0
  C  C87  1  0.83828833  0.10453313  0.12715882  1.0
  C  C88  1  0.28143195  0.61106172  0.41962550  1.0
  C  C89  1  0.28142779  0.38893461  0.58037507  1.0
  C  C90  1  0.71855103  0.88893256  0.91962524  1.0
  C  C91  1  0.71858445  0.11106396  0.08037327  1.0
  C  C92  1  0.41971132  0.56784994  0.43022994  1.0
  C  C93  1  0.41971523  0.43214224  0.56977388  1.0
  C  C94  1  0.58026491  0.93214285  0.93022642  1.0
  C  C95  1  0.58029958  0.06785283  0.06977138  1.0
  C  C96  1  0.44222958  0.51836700  0.39399343  1.0
  C  C97  1  0.44223538  0.48162464  0.60601001  1.0
  C  C98  1  0.55775283  0.98162712  0.89399318  1.0
  C  C99  1  0.55777604  0.01837000  0.10600839  1.0
  C  C100  1  0.32616487  0.51140207  0.34630314  1.0
  C  C101  1  0.32615612  0.48859318  0.65369667  1.0
  C  C102  1  0.67381787  0.98859170  0.84630094  1.0
  C  C103  1  0.67383119  0.01140408  0.15369959  1.0
  C  C104  1  0.18590445  0.55465658  0.33655312  1.0
  C  C105  1  0.18590020  0.44533919  0.66344810  1.0
  C  C106  1  0.81408787  0.94534095  0.83655588  1.0
  C  C107  1  0.81409991  0.05465659  0.16344706  1.0
  C  C108  1  0.01302593  0.64947536  0.36172832  1.0
  C  C109  1  0.01301320  0.35052332  0.63826789  1.0
  C  C110  1  0.98696975  0.85052369  0.86173239  1.0
  C  C111  1  0.98697936  0.14947549  0.13827133  1.0
  C  C112  1  0.03593876  0.71109886  0.37543352  1.0
  C  C113  1  0.03592645  0.28889974  0.62456908  1.0
  C  C114  1  0.96406143  0.78889731  0.87543393  1.0
  C  C115  1  0.96406160  0.21109741  0.12456593  1.0
  C  C116  1  0.89303606  0.75194698  0.36365561  1.0
  C  C117  1  0.89303381  0.24804936  0.63634496  1.0
  C  C118  1  0.10695687  0.74805114  0.86365381  1.0
  C  C119  1  0.10694751  0.25194856  0.13634555  1.0
  C  C120  1  0.70724091  0.67539289  0.32590324  1.0
  C  C121  1  0.70724666  0.32460278  0.67409948  1.0
  C  C122  1  0.29275397  0.82460885  0.82590487  1.0
  C  C123  1  0.29275229  0.17539470  0.17409572  1.0
  C  C124  1  0.84288027  0.63197699  0.33679221  1.0
  C  C125  1  0.84287588  0.36801818  0.66320740  1.0
  C  C126  1  0.15711766  0.86802281  0.83679862  1.0
  C  C127  1  0.15712283  0.13197807  0.16320762  1.0
  C  C128  1  0.35472564  0.46030837  0.30666927  1.0
  C  C129  1  0.35472720  0.53968359  0.69333483  1.0
  C  C130  1  0.64526229  0.03968620  0.80666349  1.0
  C  C131  1  0.64527171  0.96031287  0.19333360  1.0
  C  C132  1  0.53416889  0.43629031  0.29789121  1.0
  C  C133  1  0.53417261  0.56370599  0.70210734  1.0
  C  C134  1  0.46582304  0.06370891  0.79788904  1.0
  C  C135  1  0.46582929  0.93629401  0.20210767  1.0
  C  C136  1  0.56056249  0.38875547  0.26027102  1.0
  C  C137  1  0.56058080  0.61124210  0.73972674  1.0
  C  C138  1  0.43941461  0.11124282  0.76026874  1.0
  C  C139  1  0.43941635  0.88875746  0.23972665  1.0
  C  C140  1  0.24356836  0.38611568  0.23881316  1.0
  C  C141  1  0.24358986  0.61388124  0.76118733  1.0
  C  C142  1  0.75641105  0.11387741  0.73880855  1.0
  C  C143  1  0.75641057  0.88611488  0.26118919  1.0
  C  C144  1  0.20767097  0.43383921  0.27583507  1.0
  C  C145  1  0.20768489  0.56615375  0.72416958  1.0
  C  C146  1  0.79231207  0.06615118  0.77582933  1.0
  C  C147  1  0.79231611  0.93384372  0.22416976  1.0
  C  C148  1  0.14091849  0.05287354  0.37451732  1.0
  C  C149  1  0.14091426  0.94712376  0.62548719  1.0
  C  C150  1  0.85909054  0.44712843  0.87451719  1.0
  C  C151  1  0.85907614  0.55287668  0.12548966  1.0
  C  C152  1  0.04295394  0.10352498  0.34084895  1.0
  C  C153  1  0.04295220  0.89647268  0.65915070  1.0
  C  C154  1  0.95705574  0.39647647  0.84085081  1.0
  C  C155  1  0.95704874  0.60352554  0.15915201  1.0
  C  C156  1  0.14246915  0.15759430  0.33096830  1.0
  C  C157  1  0.14247930  0.84240254  0.66902944  1.0
  C  C158  1  0.85754590  0.34240818  0.83096795  1.0
  C  C159  1  0.85753026  0.65759330  0.16903127  1.0
  C  C160  1  0.06193413  0.20489004  0.30048013  1.0
  C  C161  1  0.06194239  0.79510664  0.69951575  1.0
  C  C162  1  0.93807325  0.29511506  0.80047746  1.0
  C  C163  1  0.93806505  0.70488975  0.19951642  1.0
  C  C164  1  0.88019712  0.19917983  0.27913609  1.0
  C  C165  1  0.88022106  0.80081246  0.72086445  1.0
  C  C166  1  0.11982097  0.30082688  0.77913802  1.0
  C  C167  1  0.11979526  0.69918141  0.22086518  1.0
  C  C168  1  0.78157170  0.14526737  0.28868819  1.0
  C  C169  1  0.78158377  0.85472848  0.71131215  1.0
  C  C170  1  0.21843402  0.35474196  0.78869401  1.0
  C  C171  1  0.21843234  0.64526960  0.21131193  1.0
  C  C172  1  0.86183811  0.09767611  0.31903875  1.0
  C  C173  1  0.86184645  0.90231944  0.68096133  1.0
  C  C174  1  0.13816129  0.40233014  0.81904181  1.0
  C  C175  1  0.13816337  0.59767899  0.18096058  1.0
  C  C176  1  0.79333967  0.25030225  0.24609987  1.0
  C  C177  1  0.79336191  0.74969400  0.75389964  1.0
  C  C178  1  0.20668888  0.24970667  0.74610165  1.0
  C  C179  1  0.20663696  0.75030357  0.25390172  1.0
  C  C180  1  0.24229840  0.07988459  0.42616671  1.0
  C  C181  1  0.24231074  0.92011552  0.57383377  1.0
  C  C182  1  0.75770059  0.42011587  0.92616368  1.0
  C  C183  1  0.75769390  0.57988688  0.07383575  1.0
  C  C184  1  0.41934808  0.06096098  0.44431693  1.0
  C  C185  1  0.41937055  0.93903847  0.55568943  1.0
  C  C186  1  0.58064992  0.43904289  0.94431080  1.0
  C  C187  1  0.58063368  0.56096597  0.05569039  1.0
  C  C188  1  0.49894189  0.08621994  0.49282086  1.0
  C  C189  1  0.49896414  0.91378013  0.50718270  1.0
  C  C190  1  0.50104881  0.41378292  0.99281525  1.0
  C  C191  1  0.50104320  0.58622396  0.00718323  1.0
  C  C192  1  0.40192675  0.12966189  0.52452397  1.0
  C  C193  1  0.40194419  0.87034309  0.47547727  1.0
  C  C194  1  0.59805767  0.37034189  0.02451931  1.0
  C  C195  1  0.59805543  0.62966145  0.97547641  1.0
  C  C196  1  0.22441119  0.14839318  0.50648554  1.0
  C  C197  1  0.22443948  0.85160836  0.49351364  1.0
  C  C198  1  0.77557142  0.35160671  0.00648482  1.0
  C  C199  1  0.77556895  0.64839324  0.99351254  1.0
  C  C200  1  0.14598278  0.12403531  0.45772883  1.0
  C  C201  1  0.14599873  0.87596516  0.54226935  1.0
  C  C202  1  0.85401553  0.37596751  0.95773152  1.0
  C  C203  1  0.85400800  0.62403489  0.04226896  1.0
  C  C204  1  0.48429077  0.15355554  0.57838817  1.0
  C  C205  1  0.48431063  0.84645458  0.42160985  1.0
  C  C206  1  0.51568506  0.34644988  0.07838443  1.0
  C  C207  1  0.51568779  0.65355195  0.92160985  1.0
  C  C208  1  0.00179466  0.00418979  0.39815421  1.0
  C  C209  1  0.00179242  0.99580757  0.60183985  1.0
  C  C210  1  0.99821910  0.49581099  0.89815599  1.0
  C  C211  1  0.99820445  0.50418860  0.10184564  1.0
  C  C212  1  0.27473129  0.02063327  0.33208987  1.0
  C  C213  1  0.27471430  0.97936717  0.66790857  1.0
  C  C214  1  0.72529078  0.47936964  0.83209041  1.0
  C  C215  1  0.72528963  0.52063823  0.16791362  1.0
  N  N216  1  0.41740278  0.36378522  0.23111051  1.0
  N  N217  1  0.41742648  0.63620834  0.76889161  1.0
  N  N218  1  0.58257227  0.13621115  0.73110448  1.0
  N  N219  1  0.58257832  0.86378679  0.26889036  1.0
  N  N220  1  0.73164097  0.73459046  0.33897717  1.0
  N  N221  1  0.73164288  0.26540829  0.66102179  1.0
  N  N222  1  0.26835001  0.76541067  0.83897596  1.0
  N  N223  1  0.26835159  0.23459298  0.16102289  1.0
  O  O224  1  0.88015718  0.29927923  0.24004296  1.0
  O  O225  1  0.88020084  0.70070852  0.75995715  1.0
  O  O226  1  0.11988662  0.20073794  0.74004421  1.0
  O  O227  1  0.11980376  0.79928671  0.25995348  1.0
  O  O228  1  0.62886382  0.23806124  0.22592978  1.0
  O  O229  1  0.62889589  0.76192562  0.77406981  1.0
  O  O230  1  0.37116567  0.26195610  0.72593136  1.0
  O  O231  1  0.37110623  0.73807035  0.27407278  1.0
  O  O232  1  0.37653938  0.18944153  0.60797938  1.0
  O  O233  1  0.37656402  0.81057081  0.39201588  1.0
  O  O234  1  0.62344131  0.31056718  0.10798088  1.0
  O  O235  1  0.62343514  0.68943697  0.89201743  1.0
  O  O236  1  0.64544987  0.13845453  0.59384340  1.0
  O  O237  1  0.64548426  0.86155318  0.40615792  1.0
  O  O238  1  0.35451371  0.36154843  0.09383452  1.0
  O  O239  1  0.35452361  0.63844899  0.90615562  1.0
  F  F240  1  0.42141034  0.05725874  0.31768234  1.0
  F  F241  1  0.42139214  0.94274071  0.68232360  1.0
  F  F242  1  0.57860862  0.44274525  0.81768210  1.0
  F  F243  1  0.57859394  0.55725907  0.18232332  1.0
  F  F244  1  0.18481504  0.00705613  0.28236985  1.0
  F  F245  1  0.18478890  0.99294555  0.71762925  1.0
  F  F246  1  0.81520872  0.49294873  0.78236875  1.0
  F  F247  1  0.81520916  0.50705881  0.21763589  1.0
  F  F248  1  0.34783263  0.96770801  0.35170897  1.0
  F  F249  1  0.34781432  0.03229035  0.64829089  1.0
  F  F250  1  0.65218381  0.53229252  0.85170962  1.0
  F  F251  1  0.65219385  0.46771107  0.14829468  1.0
  F  F252  1  0.92354704  0.96905581  0.35680773  1.0
  F  F253  1  0.92354825  0.03094633  0.64318866  1.0
  F  F254  1  0.07647511  0.53094421  0.85680678  1.0
  F  F255  1  0.07645840  0.46905879  0.14319124  1.0
  F  F256  1  0.08709851  0.96605314  0.43492057  1.0
  F  F257  1  0.08709507  0.03394254  0.56507240  1.0
  F  F258  1  0.91292540  0.53394914  0.93491794  1.0
  F  F259  1  0.91290425  0.46605076  0.06508055  1.0
  F  F260  1  0.85842956  0.03128869  0.42670574  1.0
  F  F261  1  0.85844160  0.96870915  0.57328967  1.0
  F  F262  1  0.14158344  0.46871131  0.92670857  1.0
  F  F263  1  0.14154903  0.53129145  0.07328960  1.0
