# generated using pymatgen
data_Al2H4C19IO10
_symmetry_space_group_name_H-M   'P 1'
_cell_length_a   6.70354854
_cell_length_b   19.55367802
_cell_length_c   21.37203719
_cell_angle_alpha   86.62149686
_cell_angle_beta   89.18719750
_cell_angle_gamma   89.49089744
_symmetry_Int_Tables_number   1
_chemical_formula_structural   Al2H4C19IO10
_chemical_formula_sum   'Al4 H8 C38 I2 O20'
_cell_volume   2796.18472836
_cell_formula_units_Z   2
loop_
 _symmetry_equiv_pos_site_id
 _symmetry_equiv_pos_as_xyz
  1  'x, y, z'
loop_
 _atom_site_type_symbol
 _atom_site_label
 _atom_site_symmetry_multiplicity
 _atom_site_fract_x
 _atom_site_fract_y
 _atom_site_fract_z
 _atom_site_occupancy
  Al  Al0  1  0.75606991  0.26505425  0.26230102  1.0
  Al  Al1  1  0.24393458  0.73494442  0.73769802  1.0
  Al  Al2  1  0.25541822  0.26508257  0.26234192  1.0
  Al  Al3  1  0.74458176  0.73491764  0.73765566  1.0
  H  H4  1  0.88369172  0.05381504  0.90037396  1.0
  H  H5  1  0.11629927  0.94618671  0.09962218  1.0
  H  H6  1  0.33446664  0.95060411  0.98578121  1.0
  H  H7  1  0.66553330  0.04939714  0.01421491  1.0
  H  H8  1  0.50783747  0.17548244  0.26086130  1.0
  H  H9  1  0.49215955  0.82451724  0.73914099  1.0
  H  H10  1  0.00292473  0.35352320  0.27212907  1.0
  H  H11  1  0.99707530  0.64647545  0.72787372  1.0
  C  C12  1  0.50775655  0.34861852  0.17457757  1.0
  C  C13  1  0.49226428  0.65138370  0.82542729  1.0
  C  C14  1  0.49968794  0.34521255  0.34447351  1.0
  C  C15  1  0.50032695  0.65478767  0.65552258  1.0
  C  C16  1  0.00404151  0.17794714  0.34776185  1.0
  C  C17  1  0.99595101  0.82205307  0.65223529  1.0
  C  C18  1  0.01167828  0.18515794  0.18053032  1.0
  C  C19  1  0.98831723  0.81484177  0.81946542  1.0
  C  C20  1  0.93481303  0.03023078  0.94496942  1.0
  C  C21  1  0.06518096  0.96976996  0.05502535  1.0
  C  C22  1  0.12630505  0.04995273  0.98033719  1.0
  C  C23  1  0.87368596  0.95004800  0.01965946  1.0
  C  C24  1  0.01354328  0.13795893  0.13138728  1.0
  C  C25  1  0.98646119  0.86204077  0.86861030  1.0
  C  C26  1  0.81365972  0.02696782  0.00788541  1.0
  C  C27  1  0.18633427  0.97303292  0.99210889  1.0
  C  C28  1  0.00403511  0.04806829  0.04483200  1.0
  C  C29  1  0.99596035  0.95193347  0.95516317  1.0
  C  C30  1  0.00999740  0.09648317  0.09113505  1.0
  C  C31  1  0.99000255  0.90351757  0.90886062  1.0
  C  C32  1  0.99664221  0.87551464  0.60293918  1.0
  C  C33  1  0.00335035  0.12448353  0.39705760  1.0
  C  C34  1  0.99776787  0.92325050  0.56306066  1.0
  C  C35  1  0.00224254  0.07675022  0.43693871  1.0
  C  C36  1  0.99914118  0.97573059  0.51978795  1.0
  C  C37  1  0.00086628  0.02426910  0.48021148  1.0
  C  C38  1  0.50784552  0.39500890  0.11967455  1.0
  C  C39  1  0.49217228  0.60499537  0.88033303  1.0
  C  C40  1  0.50501937  0.43518386  0.07339256  1.0
  C  C41  1  0.49497018  0.56481682  0.92661346  1.0
  C  C42  1  0.50171793  0.47947385  0.02305051  1.0
  C  C43  1  0.49825821  0.52052579  0.97695610  1.0
  C  C44  1  0.49735787  0.39251830  0.39365838  1.0
  C  C45  1  0.50264500  0.60748501  0.60633482  1.0
  C  C46  1  0.49783656  0.43388518  0.43464026  1.0
  C  C47  1  0.50216499  0.56611196  0.56535746  1.0
  C  C48  1  0.49903363  0.47917571  0.47940479  1.0
  C  C49  1  0.50096793  0.52082091  0.52059436  1.0
  I  I50  1  0.32178310  0.12982642  0.94968986  1.0
  I  I51  1  0.67821088  0.87017483  0.05030582  1.0
  O  O52  1  0.33060155  0.32694239  0.32513500  1.0
  O  O53  1  0.66940441  0.67305681  0.67486119  1.0
  O  O54  1  0.67774615  0.33067421  0.19600610  1.0
  O  O55  1  0.32226428  0.66932599  0.80399423  1.0
  O  O56  1  0.84055086  0.20327168  0.20061110  1.0
  O  O57  1  0.15945208  0.79672906  0.79938409  1.0
  O  O58  1  0.67113730  0.32712828  0.32465473  1.0
  O  O59  1  0.32887015  0.67287142  0.67534283  1.0
  O  O60  1  0.83377753  0.19839007  0.32825708  1.0
  O  O61  1  0.16621797  0.80161014  0.67174052  1.0
  O  O62  1  0.33704381  0.33101179  0.19657444  1.0
  O  O63  1  0.66296220  0.66898685  0.80342973  1.0
  O  O64  1  0.50668719  0.22474880  0.26357670  1.0
  O  O65  1  0.49331281  0.77525089  0.73642137  1.0
  O  O66  1  0.17484320  0.19817716  0.32794507  1.0
  O  O67  1  0.82514931  0.80182357  0.67205158  1.0
  O  O68  1  0.18028875  0.20357608  0.20015244  1.0
  O  O69  1  0.81970970  0.79642516  0.79984509  1.0
  O  O70  1  0.00468194  0.30586737  0.26204522  1.0
  O  O71  1  0.99532251  0.69413284  0.73795327  1.0
