# generated using pymatgen
data_AlH7C17Br3O5
_symmetry_space_group_name_H-M   'P 1'
_cell_length_a   6.65016486
_cell_length_b   22.51875093
_cell_length_c   26.81317325
_cell_angle_alpha   101.99783286
_cell_angle_beta   89.99932159
_cell_angle_gamma   89.99830038
_symmetry_Int_Tables_number   1
_chemical_formula_structural   AlH7C17Br3O5
_chemical_formula_sum   'Al4 H28 C68 Br12 O20'
_cell_volume   3927.65025699
_cell_formula_units_Z   4
loop_
 _symmetry_equiv_pos_site_id
 _symmetry_equiv_pos_as_xyz
  1  'x, y, z'
loop_
 _atom_site_type_symbol
 _atom_site_label
 _atom_site_symmetry_multiplicity
 _atom_site_fract_x
 _atom_site_fract_y
 _atom_site_fract_z
 _atom_site_occupancy
  Al  Al0  1  0.16246460  0.24971260  0.75203166  1.0
  Al  Al1  1  0.83752730  0.75028724  0.24796961  1.0
  Al  Al2  1  0.66246882  0.25028983  0.74797053  1.0
  Al  Al3  1  0.33753211  0.74971330  0.25203153  1.0
  H  H4  1  0.74697521  0.63229306  0.33766576  1.0
  H  H5  1  0.25303022  0.36771292  0.66233329  1.0
  H  H6  1  0.24694131  0.86771358  0.16233322  1.0
  H  H7  1  0.75302954  0.13228875  0.83765971  1.0
  H  H8  1  0.70956701  0.57086985  0.40433332  1.0
  H  H9  1  0.29043090  0.42913461  0.59566495  1.0
  H  H10  1  0.20953633  0.92913424  0.09566086  1.0
  H  H11  1  0.79045707  0.07087049  0.90433095  1.0
  H  H12  1  0.34111404  0.59512040  0.43939107  1.0
  H  H13  1  0.65889140  0.40487899  0.56061019  1.0
  H  H14  1  0.84109557  0.90487778  0.06060585  1.0
  H  H15  1  0.15891889  0.09512161  0.93939351  1.0
  H  H16  1  0.37716601  0.65465191  0.37109074  1.0
  H  H17  1  0.62284544  0.34534980  0.62890903  1.0
  H  H18  1  0.87715008  0.84535106  0.12890720  1.0
  H  H19  1  0.12284784  0.15464548  0.87109137  1.0
  H  H20  1  0.25837711  0.48555779  0.43241183  1.0
  H  H21  1  0.74162833  0.51444400  0.56758642  1.0
  H  H22  1  0.75835942  0.01443845  0.06758811  1.0
  H  H23  1  0.24165354  0.98556432  0.93240673  1.0
  H  H24  1  0.22211775  0.57503770  0.97355924  1.0
  H  H25  1  0.77787566  0.42496071  0.02644163  1.0
  H  H26  1  0.72213201  0.92495801  0.52643614  1.0
  H  H27  1  0.27787644  0.07504085  0.47357044  1.0
  H  H28  1  0.41499392  0.32614128  0.77968939  1.0
  H  H29  1  0.58501001  0.67386025  0.22031151  1.0
  H  H30  1  0.91500668  0.17386297  0.72031161  1.0
  H  H31  1  0.08498222  0.82613864  0.27968777  1.0
  C  C32  1  0.40811509  0.17421129  0.67115189  1.0
  C  C33  1  0.59189035  0.82578606  0.32885202  1.0
  C  C34  1  0.90809337  0.32579099  0.82885179  1.0
  C  C35  1  0.09190154  0.67421321  0.17114914  1.0
  C  C36  1  0.41819850  0.18239871  0.80940604  1.0
  C  C37  1  0.58180393  0.81760923  0.19059759  1.0
  C  C38  1  0.91819442  0.31760800  0.69059802  1.0
  C  C39  1  0.08180651  0.68239263  0.30940098  1.0
  C  C40  1  0.87585462  0.62368910  0.36025936  1.0
  C  C41  1  0.12415834  0.37631216  0.63973850  1.0
  C  C42  1  0.37581793  0.87631397  0.13973706  1.0
  C  C43  1  0.62416195  0.12368319  0.86025657  1.0
  C  C44  1  0.85558219  0.58989107  0.39781940  1.0
  C  C45  1  0.14442926  0.41011144  0.60218379  1.0
  C  C46  1  0.35555903  0.91011079  0.10217863  1.0
  C  C47  1  0.64443889  0.08988637  0.89781501  1.0
  C  C48  1  0.02295307  0.57881236  0.42660756  1.0
  C  C49  1  0.97704484  0.42119050  0.57339526  1.0
  C  C50  1  0.52295050  0.92119198  0.07338980  1.0
  C  C51  1  0.47706396  0.07881818  0.92660625  1.0
  C  C52  1  0.21097157  0.60251596  0.41665093  1.0
  C  C53  1  0.78903838  0.39748690  0.58334809  1.0
  C  C54  1  0.71094674  0.89748509  0.08334550  1.0
  C  C55  1  0.28904666  0.10251030  0.91664621  1.0
  C  C56  1  0.23176582  0.63602542  0.37876953  1.0
  C  C57  1  0.76825015  0.36397709  0.62123177  1.0
  C  C58  1  0.73174996  0.86397354  0.12123020  1.0
  C  C59  1  0.26824344  0.13602148  0.87876760  1.0
  C  C60  1  0.06424831  0.64673948  0.35023551  1.0
  C  C61  1  0.93575262  0.35326240  0.64976312  1.0
  C  C62  1  0.56424119  0.85326559  0.14976470  1.0
  C  C63  1  0.43576124  0.14673398  0.85023352  1.0
  C  C64  1  0.14585105  0.49270587  0.46259347  1.0
  C  C65  1  0.85415289  0.50729414  0.53740476  1.0
  C  C66  1  0.64584745  0.00729511  0.03740515  1.0
  C  C67  1  0.35417002  0.99271159  0.96259124  1.0
  C  C68  1  0.13968838  0.45357340  0.49647615  1.0
  C  C69  1  0.86030352  0.54642662  0.50352208  1.0
  C  C70  1  0.63970817  0.04642364  0.00352055  1.0
  C  C71  1  0.36031532  0.95357584  0.99647158  1.0
  C  C72  1  0.99342994  0.45979413  0.53514741  1.0
  C  C73  1  0.00657850  0.54021007  0.46485542  1.0
  C  C74  1  0.49344647  0.04020904  0.96485016  1.0
  C  C75  1  0.50655897  0.95979623  0.03514203  1.0
  C  C76  1  0.90462214  0.52610862  0.96544887  1.0
  C  C77  1  0.09536676  0.47388516  0.03455310  1.0
  C  C78  1  0.40464563  0.97388687  0.53455478  1.0
  C  C79  1  0.59537334  0.02610317  0.46544639  1.0
  C  C80  1  0.12340423  0.54163141  0.98515579  1.0
  C  C81  1  0.87659820  0.45836629  0.01484964  1.0
  C  C82  1  0.62340230  0.95836390  0.51484729  1.0
  C  C83  1  0.37659863  0.04163202  0.48515622  1.0
  C  C84  1  0.09597534  0.62914374  0.12428528  1.0
  C  C85  1  0.90400454  0.37085119  0.87571593  1.0
  C  C86  1  0.59596973  0.87084791  0.37571388  1.0
  C  C87  1  0.40404022  0.12914213  0.62428919  1.0
  C  C88  1  0.83048162  0.52741734  0.02129299  1.0
  C  C89  1  0.16953283  0.47258775  0.97871176  1.0
  C  C90  1  0.33045783  0.97259021  0.47871701  1.0
  C  C91  1  0.66952204  0.02741577  0.52129155  1.0
  C  C92  1  0.05100041  0.54455792  0.04181820  1.0
  C  C93  1  0.94899299  0.45544263  0.95818231  1.0
  C  C94  1  0.55100704  0.95544275  0.45818165  1.0
  C  C95  1  0.44901494  0.04456011  0.54182117  1.0
  C  C96  1  0.09022936  0.59008906  0.08540541  1.0
  C  C97  1  0.90977006  0.40991309  0.91460007  1.0
  C  C98  1  0.59021374  0.90990996  0.41459652  1.0
  C  C99  1  0.40977515  0.09008783  0.58540549  1.0
  Br  Br100  1  0.32957726  0.38845260  0.48510404  1.0
  Br  Br101  1  0.67041164  0.61154813  0.51489533  1.0
  Br  Br102  1  0.82959634  0.11154397  0.01489632  1.0
  Br  Br103  1  0.17042263  0.88845470  0.98509809  1.0
  Br  Br104  1  0.77206086  0.56322033  0.91713694  1.0
  Br  Br105  1  0.22794458  0.43678084  0.08286434  1.0
  Br  Br106  1  0.27205409  0.93678776  0.58286974  1.0
  Br  Br107  1  0.72793781  0.06320931  0.41713302  1.0
  Br  Br108  1  0.39954186  0.43145185  0.94668072  1.0
  Br  Br109  1  0.60046208  0.56854807  0.05332473  1.0
  Br  Br110  1  0.89952267  0.06854330  0.55332444  1.0
  Br  Br111  1  0.10047074  0.93146009  0.44668447  1.0
  O  O112  1  0.58308747  0.19537473  0.78999331  1.0
  O  O113  1  0.41691796  0.80462573  0.21000302  1.0
  O  O114  1  0.08308146  0.30462586  0.71000353  1.0
  O  O115  1  0.91691646  0.69537594  0.28999471  1.0
  O  O116  1  0.23988943  0.19066573  0.69202633  1.0
  O  O117  1  0.76010999  0.80933188  0.30797681  1.0
  O  O118  1  0.73986422  0.30933242  0.80797392  1.0
  O  O119  1  0.26012919  0.69066501  0.19202466  1.0
  O  O120  1  0.24290472  0.19666144  0.79646429  1.0
  O  O121  1  0.75708117  0.80334000  0.20353814  1.0
  O  O122  1  0.74291043  0.30333401  0.70353592  1.0
  O  O123  1  0.25709952  0.69666520  0.29646267  1.0
  O  O124  1  0.08120235  0.30717054  0.81247900  1.0
  O  O125  1  0.91880459  0.69283517  0.18752271  1.0
  O  O126  1  0.58121630  0.19283069  0.68752432  1.0
  O  O127  1  0.41877861  0.80716977  0.31247391  1.0
  O  O128  1  0.41199489  0.28713390  0.75611062  1.0
  O  O129  1  0.58799250  0.71286888  0.24388802  1.0
  O  O130  1  0.91201488  0.21286959  0.74389077  1.0
  O  O131  1  0.08798905  0.78713052  0.25610974  1.0
