# generated using pymatgen
data_AlH15C16(NO3)2
_symmetry_space_group_name_H-M   'P 1'
_cell_length_a   6.61872748
_cell_length_b   21.69847472
_cell_length_c   23.09757494
_cell_angle_alpha   78.02096680
_cell_angle_beta   90.23409968
_cell_angle_gamma   90.00110506
_symmetry_Int_Tables_number   1
_chemical_formula_structural   AlH15C16(NO3)2
_chemical_formula_sum   'Al4 H60 C64 N8 O24'
_cell_volume   3244.92343922
_cell_formula_units_Z   4
loop_
 _symmetry_equiv_pos_site_id
 _symmetry_equiv_pos_as_xyz
  1  'x, y, z'
loop_
 _atom_site_type_symbol
 _atom_site_label
 _atom_site_symmetry_multiplicity
 _atom_site_fract_x
 _atom_site_fract_y
 _atom_site_fract_z
 _atom_site_occupancy
  Al  Al0  1  0.74060117  0.74681780  0.24956866  1.0
  Al  Al1  1  0.23663688  0.25118205  0.74798424  1.0
  Al  Al2  1  0.24061588  0.75315383  0.25066290  1.0
  Al  Al3  1  0.73659647  0.24892974  0.75231091  1.0
  H  H4  1  0.29546204  0.39754249  0.97388830  1.0
  H  H5  1  0.78690277  0.62349943  0.00126748  1.0
  H  H6  1  0.80090170  0.10183020  0.52836669  1.0
  H  H7  1  0.29076109  0.87714009  0.49836988  1.0
  H  H8  1  0.70605340  0.50167066  0.95030893  1.0
  H  H9  1  0.42444325  0.53563916  0.89841468  1.0
  H  H10  1  0.42706771  0.47267696  0.86033288  1.0
  H  H11  1  0.59409520  0.53800727  0.83807969  1.0
  H  H12  1  0.24987831  0.47626575  0.08431609  1.0
  H  H13  1  0.57468285  0.46852984  0.12623633  1.0
  H  H14  1  0.53533077  0.53900957  0.15288130  1.0
  H  H15  1  0.56485641  0.54310628  0.07592828  1.0
  H  H16  1  0.20138568  0.00480865  0.54313730  1.0
  H  H17  1  0.12275680  0.95333031  0.65173862  1.0
  H  H18  1  0.92613252  0.96554073  0.59721952  1.0
  H  H19  1  0.95360533  0.01883768  0.64532251  1.0
  H  H20  1  0.74957185  0.02482837  0.41476534  1.0
  H  H21  1  0.07496532  0.03213953  0.37334378  1.0
  H  H22  1  0.03641231  0.96051425  0.34852202  1.0
  H  H23  1  0.06527645  0.95857896  0.42523213  1.0
  H  H24  1  0.81953314  0.41321188  0.75077903  1.0
  H  H25  1  0.77574876  0.48342369  0.77773930  1.0
  H  H26  1  0.40015248  0.47194714  0.76096767  1.0
  H  H27  1  0.54103409  0.47716695  0.69456210  1.0
  H  H28  1  0.44861529  0.40316964  0.73207399  1.0
  H  H29  1  0.21564389  0.50052170  0.21754611  1.0
  H  H30  1  0.07681248  0.55391444  0.25194935  1.0
  H  H31  1  0.39972726  0.58524501  0.29666901  1.0
  H  H32  1  0.35737032  0.50271084  0.31845795  1.0
  H  H33  1  0.53785097  0.53183069  0.26264325  1.0
  H  H34  1  0.31826886  0.08577849  0.74737862  1.0
  H  H35  1  0.26851414  0.01622596  0.71978564  1.0
  H  H36  1  0.89291866  0.03152130  0.73532648  1.0
  H  H37  1  0.03543156  0.02237452  0.80214118  1.0
  H  H38  1  0.95045450  0.09815826  0.76657999  1.0
  H  H39  1  0.71516351  0.99956130  0.28229148  1.0
  H  H40  1  0.57688584  0.94593045  0.24776632  1.0
  H  H41  1  0.89984846  0.91480774  0.20365721  1.0
  H  H42  1  0.85666997  0.99731737  0.18176684  1.0
  H  H43  1  0.03762762  0.96829842  0.23794546  1.0
  H  H44  1  0.44436702  0.32743545  0.93184272  1.0
  H  H45  1  0.44459317  0.22092850  0.93024282  1.0
  H  H46  1  0.19717768  0.22542102  0.90060306  1.0
  H  H47  1  0.23508541  0.23181184  0.97577901  1.0
  H  H48  1  0.67100040  0.71220033  0.02260577  1.0
  H  H49  1  0.71340964  0.81190103  0.03240805  1.0
  H  H50  1  0.97262128  0.78852549  0.04011145  1.0
  H  H51  1  0.82016888  0.78926212  0.10366139  1.0
  H  H52  1  0.94760838  0.17132842  0.57104198  1.0
  H  H53  1  0.95051027  0.27790176  0.57178405  1.0
  H  H54  1  0.70227737  0.27460318  0.60022918  1.0
  H  H55  1  0.74167399  0.26757214  0.52537546  1.0
  H  H56  1  0.17601218  0.78795065  0.47738600  1.0
  H  H57  1  0.21875788  0.68824364  0.46772253  1.0
  H  H58  1  0.47775569  0.71159911  0.45997481  1.0
  H  H59  1  0.32335848  0.71084902  0.39645782  1.0
  H  H60  1  0.47445441  0.68308449  0.22000017  1.0
  H  H61  1  0.48479642  0.31043211  0.78673994  1.0
  H  H62  1  0.97535433  0.81684028  0.28028977  1.0
  H  H63  1  0.98363417  0.19030839  0.71304394  1.0
  C  C64  1  0.49217106  0.84335442  0.17036326  1.0
  C  C65  1  0.48427851  0.15785202  0.83165032  1.0
  C  C66  1  0.99421423  0.65666334  0.32992279  1.0
  C  C67  1  0.98353611  0.34230805  0.66865019  1.0
  C  C68  1  0.50076207  0.80479365  0.33084909  1.0
  C  C69  1  0.48496899  0.18931681  0.67319833  1.0
  C  C70  1  0.99865110  0.69520935  0.16938283  1.0
  C  C71  1  0.98579101  0.31080236  0.82697271  1.0
  C  C72  1  0.83011883  0.43823398  0.91060500  1.0
  C  C73  1  0.15353775  0.55776716  0.10087301  1.0
  C  C74  1  0.33030533  0.06331874  0.58743753  1.0
  C  C75  1  0.65487488  0.94280828  0.39885964  1.0
  C  C76  1  0.83150551  0.39698914  0.87051760  1.0
  C  C77  1  0.14760937  0.60293586  0.13689776  1.0
  C  C78  1  0.33124683  0.10376336  0.62818387  1.0
  C  C79  1  0.64928170  0.89737273  0.36310871  1.0
  C  C80  1  0.99205508  0.35366111  0.86970520  1.0
  C  C81  1  0.01236133  0.65460466  0.12496524  1.0
  C  C82  1  0.49225496  0.14665424  0.63032881  1.0
  C  C83  1  0.51512930  0.84552134  0.37518689  1.0
  C  C84  1  0.16168452  0.35297031  0.90822231  1.0
  C  C85  1  0.88155939  0.66334167  0.07497762  1.0
  C  C86  1  0.66361240  0.14694128  0.59281131  1.0
  C  C87  1  0.38512725  0.83690315  0.42504289  1.0
  C  C88  1  0.16494685  0.39638785  0.94511880  1.0
  C  C89  1  0.88399007  0.61762186  0.04033853  1.0
  C  C90  1  0.66822279  0.10356352  0.55585280  1.0
  C  C91  1  0.38726063  0.88289431  0.45941589  1.0
  C  C92  1  0.00607030  0.43862650  0.94666190  1.0
  C  C93  1  0.01474726  0.56555171  0.05263429  1.0
  C  C94  1  0.50800437  0.06223927  0.55276759  1.0
  C  C95  1  0.51701686  0.93511667  0.44695498  1.0
  C  C96  1  0.01588566  0.48184846  0.98455638  1.0
  C  C97  1  0.01286685  0.52107462  0.01583632  1.0
  C  C98  1  0.51802543  0.01917953  0.51468011  1.0
  C  C99  1  0.51523910  0.97988658  0.48347384  1.0
  C  C100  1  0.97728112  0.39319257  0.61730669  1.0
  C  C101  1  0.99663886  0.60693306  0.38222516  1.0
  C  C102  1  0.47899702  0.10707067  0.88307991  1.0
  C  C103  1  0.49365720  0.89321746  0.11816791  1.0
  C  C104  1  0.97948781  0.43498526  0.57248583  1.0
  C  C105  1  0.99345196  0.56591691  0.42761388  1.0
  C  C106  1  0.47990305  0.06532971  0.92795506  1.0
  C  C107  1  0.49061980  0.93438328  0.07286219  1.0
  C  C108  1  0.98360430  0.48015508  0.52311330  1.0
  C  C109  1  0.98896583  0.52122964  0.47733081  1.0
  C  C110  1  0.48260086  0.02020737  0.97737462  1.0
  C  C111  1  0.48678728  0.97914094  0.02317995  1.0
  C  C112  1  0.52233144  0.50679034  0.87639293  1.0
  C  C113  1  0.50045161  0.51477692  0.11692285  1.0
  C  C114  1  0.03671707  0.98949968  0.62041971  1.0
  C  C115  1  0.00104492  0.98589633  0.38355609  1.0
  C  C116  1  0.70872443  0.43805881  0.77313381  1.0
  C  C117  1  0.51233728  0.44787419  0.73860390  1.0
  C  C118  1  0.22574563  0.54440436  0.23429188  1.0
  C  C119  1  0.39008602  0.54116259  0.28057372  1.0
  C  C120  1  0.20511389  0.06197270  0.72458754  1.0
  C  C121  1  0.00877650  0.05335259  0.75870857  1.0
  C  C122  1  0.72574943  0.95563029  0.26567639  1.0
  C  C123  1  0.88988753  0.95889049  0.21972479  1.0
  C  C124  1  0.29754163  0.24428259  0.93047566  1.0
  C  C125  1  0.82017407  0.77906234  0.05918213  1.0
  C  C126  1  0.80270604  0.25515157  0.57099193  1.0
  C  C127  1  0.32474623  0.72107693  0.44092473  1.0
  N  N128  1  0.66812666  0.47543011  0.92014027  1.0
  N  N129  1  0.28201391  0.50543972  0.11250817  1.0
  N  N130  1  0.16484644  0.02799135  0.57578079  1.0
  N  N131  1  0.78246237  0.99530038  0.38702211  1.0
  N  N132  1  0.32693094  0.31205628  0.91007320  1.0
  N  N133  1  0.75275816  0.71486973  0.05923809  1.0
  N  N134  1  0.82953758  0.18732777  0.59185420  1.0
  N  N135  1  0.25736858  0.78526377  0.44088088  1.0
  O  O136  1  0.32530713  0.79507481  0.31126871  1.0
  O  O137  1  0.65190563  0.20333315  0.69489282  1.0
  O  O138  1  0.82365992  0.70486078  0.18892853  1.0
  O  O139  1  0.15227897  0.29792953  0.80464071  1.0
  O  O140  1  0.66359560  0.82110453  0.18931918  1.0
  O  O141  1  0.31386275  0.17786412  0.80966181  1.0
  O  O142  1  0.16515401  0.67882082  0.31096315  1.0
  O  O143  1  0.81396781  0.32290241  0.69124019  1.0
  O  O144  1  0.66382063  0.78371571  0.31382145  1.0
  O  O145  1  0.31473499  0.20977680  0.68659097  1.0
  O  O146  1  0.16207496  0.71631308  0.18646780  1.0
  O  O147  1  0.81594750  0.28919939  0.81436113  1.0
  O  O148  1  0.82080025  0.67286674  0.30834160  1.0
  O  O149  1  0.15931925  0.32261785  0.68556309  1.0
  O  O150  1  0.31928297  0.82711871  0.19187048  1.0
  O  O151  1  0.65954293  0.17684813  0.81403464  1.0
  O  O152  1  0.48659780  0.71316700  0.24580963  1.0
  O  O153  1  0.48730134  0.28669050  0.75517403  1.0
  O  O154  1  0.98672598  0.78677971  0.25446416  1.0
  O  O155  1  0.98709536  0.21352263  0.74500828  1.0
  O  O156  1  0.66959822  0.40084801  0.83193961  1.0
  O  O157  1  0.27380248  0.59643337  0.18547916  1.0
  O  O158  1  0.16783390  0.09982837  0.66580397  1.0
  O  O159  1  0.77469602  0.90374317  0.31467874  1.0
