# generated using pymatgen
data_AlH15(C2O)12
_symmetry_space_group_name_H-M   'P 1'
_cell_length_a   3.96768498
_cell_length_b   28.49055591
_cell_length_c   28.49055808
_cell_angle_alpha   59.99897341
_cell_angle_beta   89.99992255
_cell_angle_gamma   89.99885992
_symmetry_Int_Tables_number   1
_chemical_formula_structural   AlH15(C2O)12
_chemical_formula_sum   'Al2 H30 C48 O24'
_cell_volume   2789.10716952
_cell_formula_units_Z   2
loop_
 _symmetry_equiv_pos_site_id
 _symmetry_equiv_pos_as_xyz
  1  'x, y, z'
loop_
 _atom_site_type_symbol
 _atom_site_label
 _atom_site_symmetry_multiplicity
 _atom_site_fract_x
 _atom_site_fract_y
 _atom_site_fract_z
 _atom_site_occupancy
  Al  Al0  1  0.98956596  0.50000146  0.99999626  1.0
  Al  Al1  1  0.98954827  0.16666787  0.66666571  1.0
  H  H2  1  0.80309829  0.34465592  0.41230741  1.0
  H  H3  1  0.22879553  0.21074295  0.42104404  1.0
  H  H4  1  0.22883702  0.45592956  0.24561791  1.0
  H  H5  1  0.80314863  0.32201287  0.25435669  1.0
  H  H6  1  0.49548320  0.27873366  0.33461087  1.0
  H  H7  1  0.49556871  0.38794418  0.33204666  1.0
  H  H8  1  0.80309596  0.24302968  0.84465711  1.0
  H  H9  1  0.22882848  0.36821941  0.71073958  1.0
  H  H10  1  0.22884472  0.29844777  0.95593371  1.0
  H  H11  1  0.80319162  0.42362101  0.82202279  1.0
  H  H12  1  0.49552136  0.38665515  0.77873544  1.0
  H  H13  1  0.49557121  0.27999900  0.88794557  1.0
  H  H14  1  0.80309178  0.91231605  0.74302988  1.0
  H  H15  1  0.22879842  0.92104310  0.86821708  1.0
  H  H16  1  0.22885159  0.74562044  0.79844341  1.0
  H  H17  1  0.80310708  0.75435855  0.92362425  1.0
  H  H18  1  0.49548642  0.83461071  0.88665423  1.0
  H  H19  1  0.49552750  0.83205597  0.78000061  1.0
  H  H20  1  0.14529185  0.15149896  0.56191643  1.0
  H  H21  1  0.83646404  0.28150241  0.55382840  1.0
  H  H22  1  0.83647416  0.38517040  0.11282887  1.0
  H  H23  1  0.14529618  0.51517496  0.10474457  1.0
  H  H24  1  0.14530697  0.28659323  0.65149483  1.0
  H  H25  1  0.83646608  0.16466521  0.78149728  1.0
  H  H26  1  0.83649229  0.50199622  0.88517012  1.0
  H  H27  1  0.14533651  0.38007600  0.01517063  1.0
  H  H28  1  0.14530206  0.06191856  0.78658706  1.0
  H  H29  1  0.83648215  0.05383488  0.66466582  1.0
  H  H30  1  0.83645858  0.61283374  0.00199631  1.0
  H  H31  1  0.14531623  0.60475351  0.88007273  1.0
  C  C32  1  0.49039001  0.58478034  0.95408930  1.0
  C  C33  1  0.49040817  0.46113004  0.08477940  1.0
  C  C34  1  0.49042446  0.45409089  0.96112697  1.0
  C  C35  1  0.49040099  0.20554395  0.58188095  1.0
  C  C36  1  0.49039730  0.21257524  0.70554067  1.0
  C  C37  1  0.49041412  0.08188837  0.71257389  1.0
  C  C38  1  0.49433878  0.23150432  0.52362286  1.0
  C  C39  1  0.66878472  0.28173596  0.49150856  1.0
  C  C40  1  0.66525221  0.30680817  0.43535110  1.0
  C  C41  1  0.51154489  0.28122234  0.40963004  1.0
  C  C42  1  0.35205983  0.23085696  0.44038459  1.0
  C  C43  1  0.32905284  0.20717919  0.49639974  1.0
  C  C44  1  0.51282376  0.30633268  0.35076320  1.0
  C  C45  1  0.51287808  0.36034013  0.31589799  1.0
  C  C46  1  0.35211194  0.43581813  0.22627432  1.0
  C  C47  1  0.51159627  0.38545093  0.25702953  1.0
  C  C48  1  0.66532010  0.35986289  0.23130993  1.0
  C  C49  1  0.66881941  0.38493523  0.17515289  1.0
  C  C50  1  0.49435659  0.43516775  0.14303710  1.0
  C  C51  1  0.32908202  0.45949499  0.17025832  1.0
  C  C52  1  0.49434428  0.24487270  0.73150026  1.0
  C  C53  1  0.66879748  0.22675425  0.78173278  1.0
  C  C54  1  0.66528679  0.25783682  0.80680599  1.0
  C  C55  1  0.51157400  0.30914725  0.78121991  1.0
  C  C56  1  0.35211213  0.32876038  0.73085364  1.0
  C  C57  1  0.32908098  0.29642571  0.70717624  1.0
  C  C58  1  0.51286945  0.34289926  0.80633566  1.0
  C  C59  1  0.51289069  0.32375354  0.86034094  1.0
  C  C60  1  0.35215575  0.33790375  0.93581945  1.0
  C  C61  1  0.51161033  0.35751124  0.88545303  1.0
  C  C62  1  0.66534634  0.40881800  0.85986922  1.0
  C  C63  1  0.66886746  0.43990106  0.88494285  1.0
  C  C64  1  0.49438890  0.42178978  0.93517185  1.0
  C  C65  1  0.32911470  0.37024092  0.95949478  1.0
  C  C66  1  0.49433725  0.02363117  0.74487039  1.0
  C  C67  1  0.66879634  0.99151365  0.72675679  1.0
  C  C68  1  0.66525906  0.93535831  0.75783656  1.0
  C  C69  1  0.51154377  0.90963523  0.80914617  1.0
  C  C70  1  0.35206561  0.94038824  0.82875630  1.0
  C  C71  1  0.32905595  0.99640442  0.79641968  1.0
  C  C72  1  0.51283820  0.85076539  0.84289889  1.0
  C  C73  1  0.51284582  0.81590610  0.82375395  1.0
  C  C74  1  0.35211859  0.72627778  0.83790277  1.0
  C  C75  1  0.51155436  0.75703473  0.85751113  1.0
  C  C76  1  0.66528031  0.73131461  0.90882099  1.0
  C  C77  1  0.66880508  0.67515652  0.93990765  1.0
  C  C78  1  0.49435561  0.64303833  0.92179119  1.0
  C  C79  1  0.32908377  0.67026423  0.87024056  1.0
  O  O80  1  0.25782576  0.44561225  0.99672631  1.0
  O  O81  1  0.25780799  0.55766027  0.94560698  1.0
  O  O82  1  0.25781676  0.49673109  0.05765613  1.0
  O  O83  1  0.71983779  0.49110902  0.94880825  1.0
  O  O84  1  0.71983768  0.44881417  0.06007945  1.0
  O  O85  1  0.71983266  0.56008238  0.99110447  1.0
  O  O86  1  0.25783068  0.10900974  0.72105420  1.0
  O  O87  1  0.25780930  0.16994015  0.60900749  1.0
  O  O88  1  0.25781290  0.22105795  0.66993730  1.0
  O  O89  1  0.71984610  0.10658741  0.67555949  1.0
  O  O90  1  0.71984097  0.17555946  0.71785692  1.0
  O  O91  1  0.71981588  0.21786080  0.60658047  1.0
  O  O92  1  0.15774203  0.16008215  0.52370925  1.0
  O  O93  1  0.83423445  0.30686951  0.51424870  1.0
  O  O94  1  0.83424775  0.35980226  0.15240856  1.0
  O  O95  1  0.15774717  0.50659228  0.14295137  1.0
  O  O96  1  0.15776549  0.31621845  0.66007583  1.0
  O  O97  1  0.83424954  0.17887768  0.80686451  1.0
  O  O98  1  0.83429820  0.48778029  0.85980491  1.0
  O  O99  1  0.15779681  0.35044842  0.00659289  1.0
  O  O100  1  0.15773756  0.02371045  0.81621044  1.0
  O  O101  1  0.83426949  0.01425404  0.67888437  1.0
  O  O102  1  0.83425052  0.65241310  0.98778425  1.0
  O  O103  1  0.15777686  0.64296030  0.85044490  1.0
