# generated using pymatgen
data_Zn2H17C34N2O8F5
_symmetry_space_group_name_H-M   'P 1'
_cell_length_a   9.93534432
_cell_length_b   10.98662893
_cell_length_c   24.06446754
_cell_angle_alpha   89.77969927
_cell_angle_beta   89.98657114
_cell_angle_gamma   89.70143282
_symmetry_Int_Tables_number   1
_chemical_formula_structural   Zn2H17C34N2O8F5
_chemical_formula_sum   'Zn4 H34 C68 N4 O16 F10'
_cell_volume   2626.72446598
_cell_formula_units_Z   2
loop_
 _symmetry_equiv_pos_site_id
 _symmetry_equiv_pos_as_xyz
  1  'x, y, z'
loop_
 _atom_site_type_symbol
 _atom_site_label
 _atom_site_symmetry_multiplicity
 _atom_site_fract_x
 _atom_site_fract_y
 _atom_site_fract_z
 _atom_site_occupancy
  Zn  Zn0  1  0.62475687  0.51557679  0.50618920  1.0
  Zn  Zn1  1  0.33776385  0.52111327  0.49962091  1.0
  Zn  Zn2  1  0.37960817  0.49610290  0.04814949  1.0
  Zn  Zn3  1  0.66601897  0.49727029  0.05072402  1.0
  H  H4  1  0.23080583  0.69227173  0.57476062  1.0
  H  H5  1  0.10774745  0.80449092  0.64814171  1.0
  H  H6  1  0.73327051  0.64292120  0.59577414  1.0
  H  H7  1  0.85918869  0.77899378  0.65908739  1.0
  H  H8  1  0.42588154  0.80260819  0.61306003  1.0
  H  H9  1  0.34280507  0.92330510  0.69240556  1.0
  H  H10  1  0.37030200  0.25249447  0.59539232  1.0
  H  H11  1  0.31171171  0.14895588  0.68304274  1.0
  H  H12  1  0.72871968  0.48454543  0.88272142  1.0
  H  H13  1  0.24105195  0.51389807  0.67017096  1.0
  H  H14  1  0.68358439  0.70401863  0.17294277  1.0
  H  H15  1  0.83593802  0.83807428  0.22513421  1.0
  H  H16  1  0.68363180  0.69787620  0.37987505  1.0
  H  H17  1  0.83753475  0.83340698  0.32892925  1.0
  H  H18  1  0.76902226  0.63791532  0.96409621  1.0
  H  H19  1  0.89256865  0.75879572  0.89353999  1.0
  H  H20  1  0.27175662  0.64319443  0.96409903  1.0
  H  H21  1  0.14408099  0.76044100  0.89330592  1.0
  H  H22  1  0.59534577  0.79005062  0.93573727  1.0
  H  H23  1  0.66412999  0.91778644  0.85585924  1.0
  H  H24  1  0.62716008  0.24039785  0.95585524  1.0
  H  H25  1  0.68061538  0.14400901  0.86641246  1.0
  H  H26  1  0.10546023  0.41068163  0.78125341  1.0
  H  H27  1  0.16247615  0.54560058  0.81289467  1.0
  H  H28  1  0.10800150  0.54752669  0.74260990  1.0
  H  H29  1  0.22330251  0.32167955  0.83902794  1.0
  H  H30  1  0.30454522  0.30952290  0.90448745  1.0
  H  H31  1  0.20930953  0.44008508  0.88914686  1.0
  H  H32  1  0.85865407  0.39116717  0.76526636  1.0
  H  H33  1  0.81660837  0.54125306  0.74523455  1.0
  H  H34  1  0.86949282  0.51001384  0.81427990  1.0
  H  H35  1  0.73999433  0.32452385  0.70187905  1.0
  H  H36  1  0.66495608  0.34910815  0.63603508  1.0
  H  H37  1  0.76452054  0.46372931  0.66558205  1.0
  C  C38  1  0.50068916  0.75357634  0.51110216  1.0
  C  C39  1  0.45771343  0.49003941  0.60993664  1.0
  C  C40  1  0.47628444  0.28384580  0.49947547  1.0
  C  C41  1  0.49139025  0.53973667  0.39703371  1.0
  C  C42  1  0.53220236  0.73298016  0.03733733  1.0
  C  C43  1  0.51048891  0.46144950  0.94183649  1.0
  C  C44  1  0.53837305  0.26251214  0.05605899  1.0
  C  C45  1  0.50847888  0.53146465  0.15454874  1.0
  C  C46  1  0.05351577  0.60139601  0.54443017  1.0
  C  C47  1  0.05208480  0.46660263  0.47134199  1.0
  C  C48  1  0.12319973  0.68003924  0.58045662  1.0
  C  C49  1  0.05316144  0.74286633  0.62090622  1.0
  C  C50  1  0.90952595  0.45600203  0.47602889  1.0
  C  C51  1  0.91028356  0.58980944  0.54948715  1.0
  C  C52  1  0.84146071  0.65419869  0.59152970  1.0
  C  C53  1  0.91278404  0.72895162  0.62680576  1.0
  C  C54  1  0.49498773  0.89007323  0.51091713  1.0
  C  C55  1  0.44686719  0.95758281  0.55757589  1.0
  C  C56  1  0.53163725  0.95143556  0.46332443  1.0
  C  C57  1  0.41335340  0.90088067  0.60888971  1.0
  C  C58  1  0.36665821  0.96857085  0.65319278  1.0
  C  C59  1  0.47582685  0.14718272  0.50334531  1.0
  C  C60  1  0.52328385  0.07937084  0.45970554  1.0
  C  C61  1  0.43467662  0.08763703  0.55325917  1.0
  C  C62  1  0.38397867  0.15429897  0.59927119  1.0
  C  C63  1  0.35022384  0.09604374  0.64816463  1.0
  C  C64  1  0.40490266  0.42594238  0.84672416  1.0
  C  C65  1  0.64455959  0.46567595  0.85511266  1.0
  C  C66  1  0.66666667  0.45636831  0.79877413  1.0
  C  C67  1  0.55163375  0.44442494  0.76273921  1.0
  C  C68  1  0.56445175  0.44003984  0.70317960  1.0
  C  C69  1  0.32494469  0.48699081  0.69679118  1.0
  C  C70  1  0.30398795  0.46958642  0.75285056  1.0
  C  C71  1  0.41873576  0.44422037  0.78765806  1.0
  C  C72  1  0.51728182  0.44798065  0.87996652  1.0
  C  C73  1  0.45150018  0.46949318  0.67135562  1.0
  C  C74  1  0.50389463  0.54425926  0.21651637  1.0
  C  C75  1  0.59455873  0.62143409  0.24619690  1.0
  C  C76  1  0.41266037  0.47540408  0.24604127  1.0
  C  C77  1  0.68389939  0.70144209  0.21816475  1.0
  C  C78  1  0.76923460  0.77626884  0.24743057  1.0
  C  C79  1  0.49793678  0.54630108  0.33487749  1.0
  C  C80  1  0.40917320  0.47705524  0.30458461  1.0
  C  C81  1  0.59312242  0.62098073  0.30600449  1.0
  C  C82  1  0.68380670  0.69806491  0.33469145  1.0
  C  C83  1  0.76988839  0.77387765  0.30607094  1.0
  C  C84  1  0.94934015  0.57222118  0.00424181  1.0
  C  C85  1  0.95186252  0.44625552  0.08099789  1.0
  C  C86  1  0.87823683  0.63942947  0.96361862  1.0
  C  C87  1  0.94821598  0.70567664  0.92432600  1.0
  C  C88  1  0.09531937  0.44516167  0.08019865  1.0
  C  C89  1  0.09368447  0.57285471  0.00400006  1.0
  C  C90  1  0.16254594  0.64153254  0.96341770  1.0
  C  C91  1  0.09018763  0.70687519  0.92430503  1.0
  C  C92  1  0.52926516  0.86982759  0.03869588  1.0
  C  C93  1  0.56952278  0.94184671  0.99228220  1.0
  C  C94  1  0.49174990  0.92596389  0.08724371  1.0
  C  C95  1  0.60252687  0.88860489  0.94029854  1.0
  C  C96  1  0.64095185  0.95991767  0.89574891  1.0
  C  C97  1  0.53650101  0.12658996  0.04928862  1.0
  C  C98  1  0.49379874  0.05382055  0.09238261  1.0
  C  C99  1  0.57585862  0.07185093  0.99792614  1.0
  C  C100  1  0.61818776  0.14217643  0.95148130  1.0
  C  C101  1  0.64957809  0.08765067  0.90153546  1.0
  C  C102  1  0.16329948  0.49417274  0.77390812  1.0
  C  C103  1  0.27784397  0.37253279  0.87081568  1.0
  C  C104  1  0.80962238  0.47531729  0.77948736  1.0
  C  C105  1  0.69074264  0.39278310  0.67543449  1.0
  N  N106  1  0.12173880  0.53610068  0.50423368  1.0
  N  N107  1  0.84085630  0.51572960  0.51330155  1.0
  N  N108  1  0.88141915  0.50661029  0.04436766  1.0
  N  N109  1  0.16371623  0.50628998  0.04337356  1.0
  O  O110  1  0.61467414  0.70357990  0.50377291  1.0
  O  O111  1  0.38910371  0.69946740  0.51826186  1.0
  O  O112  1  0.34839585  0.47701537  0.58275770  1.0
  O  O113  1  0.56932323  0.52369184  0.58885777  1.0
  O  O114  1  0.36678712  0.33652641  0.48689919  1.0
  O  O115  1  0.58861519  0.33297308  0.51078216  1.0
  O  O116  1  0.60056748  0.51511089  0.42242264  1.0
  O  O117  1  0.37678950  0.55824667  0.41919987  1.0
  O  O118  1  0.42233776  0.67869094  0.02810853  1.0
  O  O119  1  0.64631762  0.68401521  0.04634180  1.0
  O  O120  1  0.62126448  0.48365155  0.96677183  1.0
  O  O121  1  0.39629524  0.45544856  0.96576594  1.0
  O  O122  1  0.65338930  0.31236611  0.05289211  1.0
  O  O123  1  0.42561366  0.31503563  0.06283205  1.0
  O  O124  1  0.39732026  0.54182551  0.12859748  1.0
  O  O125  1  0.62301125  0.50939094  0.13311061  1.0
  F  F126  1  0.84636957  0.38246064  0.44119522  1.0
  F  F127  1  0.11456791  0.40295818  0.43225847  1.0
  F  F128  1  0.56365593  0.13363032  0.41199500  1.0
  F  F129  1  0.57436583  0.89066685  0.41778343  1.0
  F  F130  1  0.31866072  0.40352545  0.32972790  1.0
  F  F131  1  0.32625356  0.39926420  0.22039295  1.0
  F  F132  1  0.15970537  0.37879344  0.11796992  1.0
  F  F133  1  0.88944864  0.38344040  0.12043492  1.0
  F  F134  1  0.45579236  0.10223535  0.14152001  1.0
  F  F135  1  0.45422419  0.85901328  0.13198260  1.0
