# generated using pymatgen
data_ZnH4C8INO4
_symmetry_space_group_name_H-M   'P 1'
_cell_length_a   7.36906161
_cell_length_b   9.11044744
_cell_length_c   13.29781752
_cell_angle_alpha   86.48420523
_cell_angle_beta   77.29755748
_cell_angle_gamma   80.33133345
_symmetry_Int_Tables_number   1
_chemical_formula_structural   ZnH4C8INO4
_chemical_formula_sum   'Zn2 H8 C16 I2 N2 O8'
_cell_volume   858.25787319
_cell_formula_units_Z   2
loop_
 _symmetry_equiv_pos_site_id
 _symmetry_equiv_pos_as_xyz
  1  'x, y, z'
loop_
 _atom_site_type_symbol
 _atom_site_label
 _atom_site_symmetry_multiplicity
 _atom_site_fract_x
 _atom_site_fract_y
 _atom_site_fract_z
 _atom_site_occupancy
  Zn  Zn0  1  0.69970675  0.47595242  0.48043128  1.0
  Zn  Zn1  1  0.30772985  0.58166029  0.51954712  1.0
  H  H2  1  0.81538307  0.60086442  0.15998989  1.0
  H  H3  1  0.19476197  0.46220022  0.83989829  1.0
  H  H4  1  0.15619004  0.43758996  0.02834112  1.0
  H  H5  1  0.85361726  0.62721299  0.97152089  1.0
  H  H6  1  0.91558573  0.67426895  0.51853122  1.0
  H  H7  1  0.09185353  0.38409887  0.48153204  1.0
  H  H8  1  0.28619134  0.07243930  0.52166915  1.0
  H  H9  1  0.71842291  0.98601795  0.47804525  1.0
  C  C10  1  0.47150987  0.24320031  0.50576011  1.0
  C  C11  1  0.70603962  0.57678951  0.12295499  1.0
  C  C12  1  0.60564663  0.56744242  0.85860858  1.0
  C  C13  1  0.40473569  0.49548472  0.14100663  1.0
  C  C14  1  0.58814289  0.55675351  0.96819498  1.0
  C  C15  1  0.42230375  0.50696998  0.03139409  1.0
  C  C16  1  0.43326501  0.08801969  0.50725886  1.0
  C  C17  1  0.57136171  0.97031905  0.49189818  1.0
  C  C18  1  0.53300270  0.81504277  0.49397137  1.0
  C  C19  1  0.47671405  0.53126871  0.69867519  1.0
  C  C20  1  0.53493074  0.52794707  0.30092789  1.0
  C  C21  1  0.54319959  0.53097095  0.18698927  1.0
  C  C22  1  0.46759187  0.53101950  0.81267219  1.0
  C  C23  1  0.28283071  0.47363199  0.98185462  1.0
  C  C24  1  0.72732439  0.59043885  0.01788665  1.0
  C  C25  1  0.30421711  0.48635607  0.87678078  1.0
  I  I26  1  0.16269962  0.41551772  0.22961687  1.0
  I  I27  1  0.84765324  0.64697763  0.76945746  1.0
  N  N28  1  0.02739526  0.58579662  0.51395794  1.0
  N  N29  1  0.97992628  0.47254843  0.48587089  1.0
  O  O30  1  0.64156010  0.26452229  0.49125990  1.0
  O  O31  1  0.36299417  0.79413135  0.50719900  1.0
  O  O32  1  0.32683800  0.34572997  0.51955646  1.0
  O  O33  1  0.67729219  0.71214375  0.48208349  1.0
  O  O34  1  0.63336597  0.48373950  0.64003266  1.0
  O  O35  1  0.37774664  0.57188709  0.36028255  1.0
  O  O36  1  0.32133955  0.57472947  0.67021400  1.0
  O  O37  1  0.69082133  0.48524235  0.32897601  1.0
