# generated using pymatgen
data_Al4H33C68(O8F3)5
_symmetry_space_group_name_H-M   'P 1'
_cell_length_a   6.70214686
_cell_length_b   20.10022195
_cell_length_c   24.09956465
_cell_angle_alpha   89.56533933
_cell_angle_beta   85.15108365
_cell_angle_gamma   89.01909667
_symmetry_Int_Tables_number   1
_chemical_formula_structural   Al4H33C68(O8F3)5
_chemical_formula_sum   'Al4 H33 C68 O40 F15'
_cell_volume   3234.40942172
_cell_formula_units_Z   1
loop_
 _symmetry_equiv_pos_site_id
 _symmetry_equiv_pos_as_xyz
  1  'x, y, z'
loop_
 _atom_site_type_symbol
 _atom_site_label
 _atom_site_symmetry_multiplicity
 _atom_site_fract_x
 _atom_site_fract_y
 _atom_site_fract_z
 _atom_site_occupancy
  Al  Al0  1  0.13139260  0.49851433  0.50024595  1.0
  Al  Al1  1  0.63078467  0.50462262  0.50287665  1.0
  Al  Al2  1  0.72253919  0.00026198  0.99969469  1.0
  Al  Al3  1  0.22450461  0.99935833  0.99761334  1.0
  H  H4  1  0.73547515  0.28534478  0.48781044  1.0
  H  H5  1  0.65338243  0.13096541  0.34430194  1.0
  H  H6  1  0.67216626  0.18388208  0.43250639  1.0
  H  H7  1  0.21551438  0.66779983  0.24980176  1.0
  H  H8  1  0.98952305  0.86015259  0.26682255  1.0
  H  H9  1  0.62518414  0.75219936  0.20419977  1.0
  H  H10  1  0.36732127  0.20254824  0.65675695  1.0
  H  H11  1  0.53466583  0.63574864  0.64284672  1.0
  H  H12  1  0.94101056  0.82150138  0.70977031  1.0
  H  H13  1  0.29030953  0.83611113  0.17701010  1.0
  H  H14  1  0.10461978  0.70183999  0.14576174  1.0
  H  H15  1  0.20467722  0.76922579  0.32886871  1.0
  H  H16  1  0.57325567  0.84011578  0.26145471  1.0
  H  H17  1  0.02809193  0.40170207  0.30323642  1.0
  H  H18  1  0.90098188  0.84090677  0.36510033  1.0
  H  H19  1  0.69119529  0.36280714  0.68505524  1.0
  H  H20  1  0.04658833  0.32044599  0.73109290  1.0
  H  H21  1  0.44029852  0.37511974  0.81522977  1.0
  H  H22  1  0.31436775  0.28235729  0.89119867  1.0
  H  H23  1  0.03119428  0.28023593  0.81455084  1.0
  H  H24  1  0.01454146  0.19753004  0.70348193  1.0
  H  H25  1  0.85518152  0.63806194  0.84582628  1.0
  H  H26  1  0.88525734  0.70273379  0.93829790  1.0
  H  H27  1  0.75866531  0.83862471  0.98149025  1.0
  H  H28  1  0.36512797  0.89374718  0.79849559  1.0
  H  H29  1  0.78664875  0.60983060  0.73143509  1.0
  H  H30  1  0.11820836  0.85226980  0.83291957  1.0
  H  H31  1  0.91757572  0.33160857  0.01461795  1.0
  H  H32  1  0.89788535  0.09366805  0.19895595  1.0
  H  H33  1  0.40949595  0.48956409  0.42903746  1.0
  H  H34  1  0.87274126  0.54652092  0.56222507  1.0
  H  H35  1  0.44519986  0.03717749  0.06447379  1.0
  H  H36  1  0.99032699  0.01028310  0.92644288  1.0
  C  C37  1  0.36129879  0.42643172  0.58008824  1.0
  C  C38  1  0.35366863  0.60395697  0.55377934  1.0
  C  C39  1  0.90299122  0.57373878  0.42077431  1.0
  C  C40  1  0.89609274  0.39907059  0.45046779  1.0
  C  C41  1  0.93765096  0.16406077  0.08453714  1.0
  C  C42  1  0.87684001  0.33728850  0.41693619  1.0
  C  C43  1  0.90799485  0.28495540  0.08362642  1.0
  C  C44  1  0.92286677  0.22439064  0.05667671  1.0
  C  C45  1  0.93119631  0.16263486  0.14259053  1.0
  C  C46  1  0.89077894  0.22237251  0.17381433  1.0
  C  C47  1  0.89258442  0.28418126  0.14272558  1.0
  C  C48  1  0.85419969  0.22469770  0.23415344  1.0
  C  C49  1  0.87578962  0.28517449  0.26454831  1.0
  C  C50  1  0.88060060  0.34354139  0.23083159  1.0
  C  C51  1  0.87997704  0.34377493  0.17398605  1.0
  C  C52  1  0.77035132  0.17149716  0.26725234  1.0
  C  C53  1  0.72924746  0.17281964  0.32335383  1.0
  C  C54  1  0.78033139  0.22878901  0.35424501  1.0
  C  C55  1  0.86492777  0.28579710  0.32517861  1.0
  C  C56  1  0.73973065  0.22791490  0.41266762  1.0
  C  C57  1  0.77855875  0.28304874  0.44321595  1.0
  C  C58  1  0.93024695  0.33805551  0.35951641  1.0
  C  C59  1  0.78050613  0.73316839  0.19880731  1.0
  C  C60  1  0.15013375  0.76053602  0.20904272  1.0
  C  C61  1  0.15527601  0.71652053  0.26371810  1.0
  C  C62  1  0.91748061  0.62036815  0.37483588  1.0
  C  C63  1  0.93052485  0.78950537  0.20431890  1.0
  C  C64  1  0.81184495  0.67913048  0.24349244  1.0
  C  C65  1  0.93581925  0.70626222  0.29032901  1.0
  C  C66  1  0.84854510  0.77552451  0.30928443  1.0
  C  C67  1  0.86524732  0.82698967  0.26014052  1.0
  C  C68  1  0.92963935  0.65972080  0.33647082  1.0
  C  C69  1  0.93222004  0.83587773  0.15818973  1.0
  C  C70  1  0.95019647  0.87569478  0.12006615  1.0
  C  C71  1  0.62744842  0.27436184  0.71039847  1.0
  C  C72  1  0.30950213  0.32259737  0.76350563  1.0
  C  C73  1  0.31308671  0.26811033  0.81234798  1.0
  C  C74  1  0.49288713  0.12195001  0.87443165  1.0
  C  C75  1  0.40007092  0.29048250  0.70678268  1.0
  C  C76  1  0.65217507  0.23278308  0.76526111  1.0
  C  C77  1  0.44787977  0.20629660  0.79095126  1.0
  C  C78  1  0.34554334  0.17242428  0.74264683  1.0
  C  C79  1  0.29827369  0.22329373  0.69600544  1.0
  C  C80  1  0.47559431  0.16022182  0.83598438  1.0
  C  C81  1  0.37682209  0.33710324  0.66167972  1.0
  C  C82  1  0.36336720  0.37758613  0.62452852  1.0
  C  C83  1  0.52746797  0.84134919  0.90766237  1.0
  C  C84  1  0.31358592  0.66388773  0.58915713  1.0
  C  C85  1  0.68994699  0.73397405  0.89029630  1.0
  C  C86  1  0.65644053  0.78934989  0.92368666  1.0
  C  C87  1  0.43756290  0.83539500  0.85753935  1.0
  C  C88  1  0.45684780  0.77751205  0.82422750  1.0
  C  C89  1  0.60046957  0.72816531  0.83968863  1.0
  C  C90  1  0.35512822  0.76827889  0.77391042  1.0
  C  C91  1  0.43443167  0.72124941  0.73269300  1.0
  C  C92  1  0.59520733  0.67851329  0.74751344  1.0
  C  C93  1  0.66263368  0.67850556  0.80031981  1.0
  C  C94  1  0.16349248  0.79948282  0.76535012  1.0
  C  C95  1  0.08312180  0.79607508  0.71467656  1.0
  C  C96  1  0.17359888  0.75646175  0.67140275  1.0
  C  C97  1  0.34542644  0.71536140  0.68010282  1.0
  C  C98  1  0.08752355  0.75315695  0.61990362  1.0
  C  C99  1  0.15252571  0.70766918  0.57983746  1.0
  C  C100  1  0.41101870  0.66987568  0.63744437  1.0
  C  C101  1  0.50319593  0.90101521  0.94280799  1.0
  C  C102  1  0.48597329  0.07545575  0.92036272  1.0
  C  C103  1  0.94973640  0.10006636  0.05272367  1.0
  C  C104  1  0.96471661  0.92291052  0.07471682  1.0
  O  O105  1  0.53319171  0.58328523  0.54256349  1.0
  O  O106  1  0.19426722  0.44018964  0.56134248  1.0
  O  O107  1  0.06596761  0.42013017  0.46090929  1.0
  O  O108  1  0.19613324  0.57554086  0.54052654  1.0
  O  O109  1  0.06790669  0.55263120  0.43731098  1.0
  O  O110  1  0.53153573  0.45058350  0.56522863  1.0
  O  O111  1  0.39352674  0.49357322  0.46920550  1.0
  O  O112  1  0.72652506  0.55824407  0.43964643  1.0
  O  O113  1  0.72708001  0.42532550  0.46610997  1.0
  O  O114  1  0.87269425  0.51144825  0.53473546  1.0
  O  O115  1  0.30999556  0.06440324  0.94230978  1.0
  O  O116  1  0.65854081  0.91688702  0.96796084  1.0
  O  O117  1  0.80110643  0.94980046  0.06224700  1.0
  O  O118  1  0.64992901  0.04973707  0.93414767  1.0
  O  O119  1  0.78471105  0.08140459  0.03609099  1.0
  O  O120  1  0.33694428  0.93208968  0.94815085  1.0
  O  O121  1  0.46209758  0.00825478  0.03230838  1.0
  O  O122  1  0.11860696  0.07078911  0.04559714  1.0
  O  O123  1  0.13917710  0.93335910  0.05154454  1.0
  O  O124  1  0.98187117  0.99438058  0.96469558  1.0
  O  O125  1  0.28645361  0.81242179  0.21276946  1.0
  O  O126  1  0.21712736  0.72343448  0.16116451  1.0
  O  O127  1  0.28162497  0.74008395  0.30224554  1.0
  O  O128  1  0.69323497  0.86760064  0.25834981  1.0
  O  O129  1  0.04945806  0.38929886  0.34150321  1.0
  O  O130  1  0.94762693  0.79600026  0.35491448  1.0
  O  O131  1  0.74938305  0.32762220  0.70744598  1.0
  O  O132  1  0.10998695  0.34444991  0.76039945  1.0
  O  O133  1  0.42402910  0.37682444  0.77512121  1.0
  O  O134  1  0.39504713  0.29850763  0.85843514  1.0
  O  O135  1  0.12314920  0.24613609  0.82847761  1.0
  O  O136  1  0.09333624  0.23655695  0.69237146  1.0
  O  O137  1  0.80472881  0.63062513  0.80911905  1.0
  O  O138  1  0.82399276  0.68561894  0.90586945  1.0
  O  O139  1  0.75960394  0.79115143  0.97003806  1.0
  O  O140  1  0.34046739  0.89204695  0.83910983  1.0
  O  O141  1  0.68542017  0.63333285  0.71109366  1.0
  O  O142  1  0.03997330  0.82828673  0.80683908  1.0
  O  O143  1  0.90954035  0.34318160  0.05404090  1.0
  O  O144  1  0.98014965  0.10213233  0.16426241  1.0
  F  F145  1  0.86536957  0.40341070  0.14850249  1.0
  F  F146  1  0.91683882  0.62556609  0.21907474  1.0
  F  F147  1  0.80668929  0.70470204  0.14546577  1.0
  F  F148  1  0.64608449  0.76894948  0.32686173  1.0
  F  F149  1  0.63101893  0.65510480  0.26438409  1.0
  F  F150  1  0.73494759  0.27182198  0.80328589  1.0
  F  F151  1  0.47140448  0.12308676  0.71921167  1.0
  F  F152  1  0.68590399  0.23094184  0.66524659  1.0
  F  F153  1  0.78275799  0.17983298  0.75511018  1.0
  F  F154  1  0.17524881  0.14017122  0.76240347  1.0
  F  F155  1  0.06208873  0.70616795  0.53176257  1.0
  F  F156  1  0.93186860  0.79496730  0.61063842  1.0
  F  F157  1  0.93260565  0.22568536  0.99960038  1.0
  F  F158  1  0.85973344  0.40526923  0.25487468  1.0
  F  F159  1  0.70171463  0.11604414  0.24108615  1.0
