# generated using pymatgen
data_Zn2H22C46N2O18F
_symmetry_space_group_name_H-M   'P 1'
_cell_length_a   16.49802717
_cell_length_b   17.89664759
_cell_length_c   28.98047842
_cell_angle_alpha   90.24560698
_cell_angle_beta   89.70132152
_cell_angle_gamma   89.89761863
_symmetry_Int_Tables_number   1
_chemical_formula_structural   Zn2H22C46N2O18F
_chemical_formula_sum   'Zn4 H44 C92 N4 O36 F2'
_cell_volume   8556.54915463
_cell_formula_units_Z   2
loop_
 _symmetry_equiv_pos_site_id
 _symmetry_equiv_pos_as_xyz
  1  'x, y, z'
loop_
 _atom_site_type_symbol
 _atom_site_label
 _atom_site_symmetry_multiplicity
 _atom_site_fract_x
 _atom_site_fract_y
 _atom_site_fract_z
 _atom_site_occupancy
  Zn  Zn0  1  0.58216748  0.50045653  0.50139082  1.0
  Zn  Zn1  1  0.41466217  0.49856714  0.50018311  1.0
  Zn  Zn2  1  0.41553658  0.50341037  0.88559089  1.0
  Zn  Zn3  1  0.58348315  0.50115370  0.88233911  1.0
  H  H4  1  0.28479213  0.57478319  0.55315242  1.0
  H  H5  1  0.13274659  0.57890978  0.55461360  1.0
  H  H6  1  0.28606759  0.41981458  0.44631475  1.0
  H  H7  1  0.70833628  0.58314251  0.55318897  1.0
  H  H8  1  0.71476566  0.41447536  0.45481669  1.0
  H  H9  1  0.86713994  0.41380624  0.45382055  1.0
  H  H10  1  0.62685054  0.74019404  0.50509872  1.0
  H  H11  1  0.62397023  0.87942817  0.50246923  1.0
  H  H12  1  0.36713094  0.73617347  0.49462574  1.0
  H  H13  1  0.63230248  0.26347989  0.49290171  1.0
  H  H14  1  0.37205464  0.25872948  0.50005187  1.0
  H  H15  1  0.37571632  0.11950303  0.49766080  1.0
  H  H16  1  0.68890880  0.55225707  0.73203153  1.0
  H  H17  1  0.68711482  0.45251650  0.73244380  1.0
  H  H18  1  0.68226584  0.45139154  0.64547807  1.0
  H  H19  1  0.68525516  0.55113314  0.64552458  1.0
  H  H20  1  0.37498115  0.51019112  0.03371108  1.0
  H  H21  1  0.37984284  0.50465560  0.11969595  1.0
  H  H22  1  0.63503307  0.49645745  0.02831737  1.0
  H  H23  1  0.37071575  0.49096581  0.35495725  1.0
  H  H24  1  0.63085000  0.50433394  0.35261252  1.0
  H  H25  1  0.62884118  0.50181837  0.26646306  1.0
  H  H26  1  0.71493891  0.58370197  0.83471166  1.0
  H  H27  1  0.86698497  0.58780483  0.83511161  1.0
  H  H28  1  0.71046223  0.42088744  0.93603331  1.0
  H  H29  1  0.28900111  0.58846822  0.83534016  1.0
  H  H30  1  0.28349215  0.41385567  0.92888524  1.0
  H  H31  1  0.13113724  0.41369777  0.93033048  1.0
  H  H32  1  0.36850566  0.74565098  0.87819530  1.0
  H  H33  1  0.37457499  0.88472432  0.88087464  1.0
  H  H34  1  0.62825484  0.73611304  0.88757408  1.0
  H  H35  1  0.36575695  0.26518188  0.89351680  1.0
  H  H36  1  0.62595568  0.26259910  0.88502491  1.0
  H  H37  1  0.62423711  0.12334339  0.88604585  1.0
  H  H38  1  0.02840751  0.45158499  0.43501432  1.0
  H  H39  1  0.96979463  0.59689770  0.54101133  1.0
  H  H40  1  0.38146854  0.97740122  0.48771057  1.0
  H  H41  1  0.61968974  0.02187007  0.49129954  1.0
  H  H42  1  0.62394998  0.48379523  0.17741992  1.0
  H  H43  1  0.38657887  0.48288572  0.20588573  1.0
  H  H44  1  0.96825818  0.45128716  0.95076155  1.0
  H  H45  1  0.02597346  0.59610309  0.84547165  1.0
  H  H46  1  0.61952643  0.97764696  0.89478758  1.0
  H  H47  1  0.38165721  0.02381041  0.89333623  1.0
  C  C48  1  0.49854098  0.64560936  0.50022436  1.0
  C  C49  1  0.49456023  0.50285275  0.59040713  1.0
  C  C50  1  0.50039070  0.35363240  0.49888053  1.0
  C  C51  1  0.50156007  0.49781352  0.41084282  1.0
  C  C52  1  0.49540192  0.64831306  0.88233798  1.0
  C  C53  1  0.50395643  0.50211797  0.79441916  1.0
  C  C54  1  0.49665677  0.35654728  0.88764013  1.0
  C  C55  1  0.50216257  0.50462888  0.97394625  1.0
  C  C56  1  0.24864769  0.54168147  0.52923986  1.0
  C  C57  1  0.16468456  0.54344294  0.52987779  1.0
  C  C58  1  0.12134939  0.49844129  0.49851973  1.0
  C  C59  1  0.16533966  0.45206809  0.46748410  1.0
  C  C60  1  0.24995131  0.45449635  0.46964233  1.0
  C  C61  1  0.03549757  0.50046408  0.49995603  1.0
  C  C62  1  0.96155026  0.50332125  0.50291651  1.0
  C  C63  1  0.87569333  0.50329110  0.50458855  1.0
  C  C64  1  0.83011537  0.55137226  0.53385611  1.0
  C  C65  1  0.74564350  0.54685135  0.53147220  1.0
  C  C66  1  0.74984945  0.45266647  0.47623444  1.0
  C  C67  1  0.83384523  0.45268186  0.47588000  1.0
  C  C68  1  0.49726534  0.72943608  0.49972926  1.0
  C  C69  1  0.56961681  0.77019386  0.50222030  1.0
  C  C70  1  0.56778483  0.84757607  0.50082136  1.0
  C  C71  1  0.49338165  0.88648039  0.49727160  1.0
  C  C72  1  0.41965735  0.84538076  0.49540645  1.0
  C  C73  1  0.42358937  0.76743871  0.49647884  1.0
  C  C74  1  0.49669128  0.96548039  0.49582835  1.0
  C  C75  1  0.50378478  0.03374315  0.49474882  1.0
  C  C76  1  0.50662543  0.11280981  0.49462799  1.0
  C  C77  1  0.58020971  0.15416393  0.49302798  1.0
  C  C78  1  0.57586513  0.23209658  0.49401784  1.0
  C  C79  1  0.50195572  0.26987718  0.49686075  1.0
  C  C80  1  0.42959879  0.22893985  0.49803344  1.0
  C  C81  1  0.43185346  0.15153465  0.49674546  1.0
  C  C82  1  0.49942154  0.50476601  0.74298608  1.0
  C  C83  1  0.49451543  0.50475266  0.64193496  1.0
  C  C84  1  0.56885396  0.50434670  0.71515518  1.0
  C  C85  1  0.42399456  0.50674045  0.66958397  1.0
  C  C86  1  0.56652207  0.50393472  0.66712566  1.0
  C  C87  1  0.42629699  0.50660483  0.71804238  1.0
  C  C88  1  0.66067453  0.50257101  0.71663459  1.0
  C  C89  1  0.65796911  0.50202491  0.66207697  1.0
  C  C90  1  0.50458998  0.50318258  0.02566130  1.0
  C  C91  1  0.43268143  0.50585678  0.05160775  1.0
  C  C92  1  0.43560963  0.50287283  0.09934640  1.0
  C  C93  1  0.51074402  0.49784138  0.12245328  1.0
  C  C94  1  0.58393964  0.49585325  0.09628610  1.0
  C  C95  1  0.57892296  0.49833150  0.04823933  1.0
  C  C96  1  0.50854639  0.49579092  0.17125163  1.0
  C  C97  1  0.50166555  0.49516083  0.21342966  1.0
  C  C98  1  0.49811068  0.49545064  0.26221749  1.0
  C  C99  1  0.42401193  0.49274562  0.28753420  1.0
  C  C100  1  0.42745504  0.49327883  0.33566657  1.0
  C  C101  1  0.50103153  0.49713372  0.35911485  1.0
  C  C102  1  0.57377701  0.50059433  0.33401940  1.0
  C  C103  1  0.57245426  0.49937775  0.28621158  1.0
  C  C104  1  0.75040355  0.54841070  0.85761916  1.0
  C  C105  1  0.83430260  0.55030971  0.85807187  1.0
  C  C106  1  0.87667523  0.50275230  0.88824678  1.0
  C  C107  1  0.83179651  0.45460684  0.91742549  1.0
  C  C108  1  0.74729118  0.45706111  0.91424764  1.0
  C  C109  1  0.96250901  0.50410055  0.88735090  1.0
  C  C110  1  0.03645642  0.50661540  0.88436024  1.0
  C  C111  1  0.12226067  0.50641146  0.88231434  1.0
  C  C112  1  0.16747976  0.55634530  0.85443986  1.0
  C  C113  1  0.25199370  0.55106932  0.85620749  1.0
  C  C114  1  0.24823779  0.45348441  0.90869483  1.0
  C  C115  1  0.16425793  0.45376626  0.90930537  1.0
  C  C116  1  0.49801735  0.73211314  0.88293798  1.0
  C  C117  1  0.42648261  0.77433220  0.88088469  1.0
  C  C118  1  0.43008649  0.85169637  0.88234082  1.0
  C  C119  1  0.50532739  0.88907429  0.88568379  1.0
  C  C120  1  0.57814231  0.84640870  0.88725282  1.0
  C  C121  1  0.57250013  0.76859241  0.88597997  1.0
  C  C122  1  0.50364860  0.96815772  0.88725002  1.0
  C  C123  1  0.49701322  0.03646710  0.88870826  1.0
  C  C124  1  0.49344626  0.11553366  0.88959561  1.0
  C  C125  1  0.41935270  0.15636191  0.89196811  1.0
  C  C126  1  0.42263637  0.23434489  0.89173646  1.0
  C  C127  1  0.49601859  0.27272317  0.88894022  1.0
  C  C128  1  0.56884246  0.23231408  0.88699184  1.0
  C  C129  1  0.56766060  0.15486362  0.88752682  1.0
  C  C130  1  0.13040483  0.39781353  0.43298575  1.0
  C  C131  1  0.86291863  0.60660129  0.56846583  1.0
  C  C132  1  0.33550693  0.87811846  0.49248395  1.0
  C  C133  1  0.66460355  0.12183821  0.49036316  1.0
  C  C134  1  0.66857843  0.49158206  0.11560246  1.0
  C  C135  1  0.33995607  0.48997550  0.26725855  1.0
  C  C136  1  0.86581094  0.39840829  0.95081569  1.0
  C  C137  1  0.13442729  0.61528572  0.82244206  1.0
  C  C138  1  0.66305273  0.87716247  0.89012953  1.0
  C  C139  1  0.33541067  0.12336610  0.89487897  1.0
  N  N140  1  0.29016550  0.49818100  0.49930965  1.0
  N  N141  1  0.70683644  0.49970599  0.50328673  1.0
  N  N142  1  0.70800245  0.50240246  0.88529519  1.0
  N  N143  1  0.29101568  0.50198279  0.88288555  1.0
  O  O144  1  0.56652297  0.61433029  0.50820601  1.0
  O  O145  1  0.43186008  0.61253202  0.49241463  1.0
  O  O146  1  0.42802030  0.51399315  0.56951688  1.0
  O  O147  1  0.56300284  0.49002601  0.57127734  1.0
  O  O148  1  0.43228392  0.38456369  0.50698390  1.0
  O  O149  1  0.56759597  0.38708963  0.49242985  1.0
  O  O150  1  0.56890142  0.51083956  0.43054913  1.0
  O  O151  1  0.43415386  0.48517767  0.43088344  1.0
  O  O152  1  0.42650392  0.61773222  0.87671595  1.0
  O  O153  1  0.56254755  0.61447428  0.88782878  1.0
  O  O154  1  0.57394705  0.51227236  0.81190134  1.0
  O  O155  1  0.43909898  0.48910631  0.81682078  1.0
  O  O156  1  0.56407610  0.38760352  0.87814329  1.0
  O  O157  1  0.42986644  0.38983923  0.89595366  1.0
  O  O158  1  0.43379947  0.51767382  0.95534342  1.0
  O  O159  1  0.56862641  0.49221508  0.95282942  1.0
  O  O160  1  0.05268130  0.40832790  0.41923224  1.0
  O  O161  1  0.17054688  0.34637791  0.41765372  1.0
  O  O162  1  0.94245176  0.62485398  0.56593051  1.0
  O  O163  1  0.81927457  0.63448975  0.59782961  1.0
  O  O164  1  0.32780959  0.95325481  0.48814131  1.0
  O  O165  1  0.27511151  0.83904348  0.49386338  1.0
  O  O166  1  0.67311771  0.04641505  0.48996181  1.0
  O  O167  1  0.72457913  0.16147723  0.48860242  1.0
  O  O168  1  0.67729669  0.48475254  0.16194994  1.0
  O  O169  1  0.72844043  0.49396640  0.09084712  1.0
  O  O170  1  0.33269737  0.48410457  0.22074328  1.0
  O  O171  1  0.27935277  0.49275964  0.29141403  1.0
  O  O172  1  0.94331113  0.40747720  0.96525547  1.0
  O  O173  1  0.82506528  0.34658370  0.96465298  1.0
  O  O174  1  0.05350600  0.62861215  0.82304395  1.0
  O  O175  1  0.17887118  0.65034370  0.79695601  1.0
  O  O176  1  0.67256739  0.95218165  0.89436104  1.0
  O  O177  1  0.72251709  0.83665630  0.88880336  1.0
  O  O178  1  0.32790557  0.04789193  0.89508666  1.0
  O  O179  1  0.27494514  0.16252499  0.89709084  1.0
  F  F180  1  0.34913595  0.50802555  0.65059963  1.0
  F  F181  1  0.35348697  0.50888412  0.73973823  1.0
