# generated using pymatgen
data_Al3H34C51Br3O14
_symmetry_space_group_name_H-M   'P 1'
_cell_length_a   13.57794852
_cell_length_b   13.60415231
_cell_length_c   27.22193481
_cell_angle_alpha   89.65580411
_cell_angle_beta   89.34878608
_cell_angle_gamma   62.55940023
_symmetry_Int_Tables_number   1
_chemical_formula_structural   Al3H34C51Br3O14
_chemical_formula_sum   'Al6 H68 C102 Br6 O28'
_cell_volume   4462.30681812
_cell_formula_units_Z   2
loop_
 _symmetry_equiv_pos_site_id
 _symmetry_equiv_pos_as_xyz
  1  'x, y, z'
loop_
 _atom_site_type_symbol
 _atom_site_label
 _atom_site_symmetry_multiplicity
 _atom_site_fract_x
 _atom_site_fract_y
 _atom_site_fract_z
 _atom_site_occupancy
  Al  Al0  1  0.42762326  0.41214478  0.50576272  1.0
  Al  Al1  1  0.19673601  0.40153227  0.50298797  1.0
  Al  Al2  1  0.40673786  0.18731569  0.50610357  1.0
  Al  Al3  1  0.92209851  0.91087649  0.01542061  1.0
  Al  Al4  1  0.15255801  0.92163474  0.01541228  1.0
  Al  Al5  1  0.94218781  0.13597039  0.01960436  1.0
  H  H6  1  0.35434633  0.07265646  0.81587898  1.0
  H  H7  1  0.83807628  0.18156290  0.78937781  1.0
  H  H8  1  0.27654845  0.50440947  0.81297663  1.0
  H  H9  1  0.32884062  0.20205723  0.72916570  1.0
  H  H10  1  0.67805296  0.32160360  0.71487621  1.0
  H  H11  1  0.34526952  0.54028048  0.71695070  1.0
  H  H12  1  0.29533745  0.21824348  0.81222972  1.0
  H  H13  1  0.72267676  0.31224721  0.79763351  1.0
  H  H14  1  0.33726381  0.59119435  0.79832103  1.0
  H  H15  1  0.00217760  0.27088307  0.79893649  1.0
  H  H16  1  0.51461838  0.21271564  0.82226410  1.0
  H  H17  1  0.06868475  0.84697660  0.77927255  1.0
  H  H18  1  0.28299330  0.95957951  0.14523334  1.0
  H  H19  1  0.80517862  0.25160421  0.15279409  1.0
  H  H20  1  0.98548804  0.74442116  0.13934616  1.0
  H  H21  1  0.35291437  0.04844145  0.38365382  1.0
  H  H22  1  0.63360646  0.32144422  0.39041348  1.0
  H  H23  1  0.06472806  0.57702300  0.37697839  1.0
  H  H24  1  0.39014040  0.89658319  0.22202363  1.0
  H  H25  1  0.77318193  0.35244312  0.23144815  1.0
  H  H26  1  0.91616267  0.69791139  0.21599074  1.0
  H  H27  1  0.41428892  0.92703566  0.30958582  1.0
  H  H28  1  0.71353808  0.37674732  0.31879792  1.0
  H  H29  1  0.94302012  0.63962839  0.30313164  1.0
  H  H30  1  0.00090656  0.28167099  0.13683664  1.0
  H  H31  1  0.74746492  0.96783112  0.14146096  1.0
  H  H32  1  0.30986614  0.72530818  0.13337582  1.0
  H  H33  1  0.96810078  0.43908234  0.29827568  1.0
  H  H34  1  0.61218486  0.93213583  0.30234139  1.0
  H  H35  1  0.46247096  0.59830022  0.29463837  1.0
  H  H36  1  0.06871250  0.36943856  0.37712984  1.0
  H  H37  1  0.57180217  0.03994850  0.38027787  1.0
  H  H38  1  0.39144609  0.55239449  0.37156963  1.0
  H  H39  1  0.07700530  0.09714285  0.71734309  1.0
  H  H40  1  0.66236516  0.01492203  0.72645709  1.0
  H  H41  1  0.99085101  0.72797445  0.71730719  1.0
  H  H42  1  0.21599042  0.99260852  0.71304159  1.0
  H  H43  1  0.79364291  0.00880421  0.71757449  1.0
  H  H44  1  0.04301171  0.58322974  0.71851302  1.0
  H  H45  1  0.23633638  0.98123327  0.79861498  1.0
  H  H46  1  0.81484560  0.00531522  0.80207541  1.0
  H  H47  1  0.07637007  0.57394821  0.80380363  1.0
  H  H48  1  0.12926000  0.33871531  0.72836814  1.0
  H  H49  1  0.50241846  0.32467678  0.72957350  1.0
  H  H50  1  0.25917721  0.73630818  0.70821048  1.0
  H  H51  1  0.02739284  0.29712446  0.71539644  1.0
  H  H52  1  0.49140394  0.20140461  0.73813285  1.0
  H  H53  1  0.11608724  0.81561582  0.69605532  1.0
  H  H54  1  0.08521554  0.33598001  0.81198879  1.0
  H  H55  1  0.53630161  0.33043459  0.81344431  1.0
  H  H56  1  0.21031944  0.80400324  0.78941616  1.0
  H  H57  1  0.39836690  0.00763166  0.64795084  1.0
  H  H58  1  0.47103494  0.08094732  0.66546862  1.0
  H  H59  1  0.53340303  0.93541730  0.67271614  1.0
  H  H60  1  0.47402269  0.01404713  0.75382344  1.0
  H  H61  1  0.38783984  0.95661042  0.73677437  1.0
  H  H62  1  0.80877263  0.14918101  0.62416474  1.0
  H  H63  1  0.77863021  0.28913275  0.63201304  1.0
  H  H64  1  0.91871400  0.18458323  0.62815697  1.0
  H  H65  1  0.88413849  0.23154251  0.71437881  1.0
  H  H66  1  0.89021557  0.10098845  0.70816549  1.0
  H  H67  1  0.22955213  0.40975337  0.65348006  1.0
  H  H68  1  0.34064706  0.28980950  0.67741719  1.0
  H  H69  1  0.36304934  0.40185343  0.65811431  1.0
  H  H70  1  0.33760386  0.37391140  0.75442028  1.0
  H  H71  1  0.19631049  0.43369884  0.74172236  1.0
  H  H72  1  0.49375206  0.53813556  0.48326479  1.0
  H  H73  1  0.83362290  0.81224079  0.98434968  1.0
  C  C74  1  0.53078669  0.22798859  0.57760048  1.0
  C  C75  1  0.21406106  0.54580523  0.56668154  1.0
  C  C76  1  0.23217022  0.22440779  0.57258102  1.0
  C  C77  1  0.08350270  0.26727699  0.79169165  1.0
  C  C78  1  0.56226417  0.24529661  0.80098088  1.0
  C  C79  1  0.15182094  0.77805703  0.77383969  1.0
  C  C80  1  0.10359540  0.27471772  0.73626774  1.0
  C  C81  1  0.54406797  0.24121319  0.74534089  1.0
  C  C82  1  0.17601540  0.74877878  0.71917280  1.0
  C  C83  1  0.16512036  0.14778811  0.86476981  1.0
  C  C84  1  0.71431816  0.16983198  0.86315212  1.0
  C  C85  1  0.15251788  0.70521676  0.85542217  1.0
  C  C86  1  0.20148250  0.17436401  0.66324845  1.0
  C  C87  1  0.62336003  0.18220203  0.66536002  1.0
  C  C88  1  0.17309906  0.62351562  0.65605780  1.0
  C  C89  1  0.20450152  0.19580361  0.61993186  1.0
  C  C90  1  0.58499204  0.19695758  0.62427948  1.0
  C  C91  1  0.18006158  0.60642481  0.61204165  1.0
  C  C92  1  0.12054857  0.78749133  0.08203736  1.0
  C  C93  1  0.11552828  0.09327054  0.08654347  1.0
  C  C94  1  0.82092573  0.08962357  0.09115533  1.0
  C  C95  1  0.11270943  0.79767255  0.94351581  1.0
  C  C96  1  0.12240618  0.10134083  0.95349304  1.0
  C  C97  1  0.80399965  0.11805630  0.95130833  1.0
  C  C98  1  0.28490509  0.11053804  0.36243153  1.0
  C  C99  1  0.63713206  0.25287259  0.36861401  1.0
  C  C100  1  0.12887270  0.58637591  0.35607578  1.0
  C  C101  1  0.27293056  0.09149431  0.31283257  1.0
  C  C102  1  0.67604215  0.23760023  0.31994323  1.0
  C  C103  1  0.11070581  0.62143059  0.30695799  1.0
  C  C104  1  0.24514142  0.05630108  0.21204420  1.0
  C  C105  1  0.74574846  0.20906200  0.21971533  1.0
  C  C106  1  0.07910318  0.68944613  0.20680927  1.0
  C  C107  1  0.54698439  0.20869926  0.43937940  1.0
  C  C108  1  0.25144865  0.51675458  0.42973035  1.0
  C  C109  1  0.23139569  0.23192807  0.43647340  1.0
  C  C110  1  0.33370720  0.97381811  0.24018684  1.0
  C  C111  1  0.74609716  0.29643577  0.24886865  1.0
  C  C112  1  0.99391766  0.67871611  0.23439905  1.0
  C  C113  1  0.34699144  0.99068017  0.28848370  1.0
  C  C114  1  0.71304361  0.30995456  0.29694064  1.0
  C  C115  1  0.00892413  0.64647665  0.28243601  1.0
  C  C116  1  0.22863810  0.03809785  0.16287580  1.0
  C  C117  1  0.77839262  0.19539353  0.17014376  1.0
  C  C118  1  0.06332157  0.72459812  0.15778767  1.0
  C  C119  1  0.14032308  0.11884003  0.13653948  1.0
  C  C120  1  0.77855798  0.10882069  0.14273917  1.0
  C  C121  1  0.14609613  0.73784983  0.13207982  1.0
  C  C122  1  0.12397086  0.29224371  0.35877906  1.0
  C  C123  1  0.60210508  0.09339629  0.36298255  1.0
  C  C124  1  0.31364773  0.57290789  0.35302757  1.0
  C  C125  1  0.10993032  0.27696730  0.30895637  1.0
  C  C126  1  0.63981984  0.07565424  0.31410970  1.0
  C  C127  1  0.29888921  0.60765799  0.30392704  1.0
  C  C128  1  0.18457501  0.17565636  0.28548269  1.0
  C  C129  1  0.67634030  0.14879982  0.29188269  1.0
  C  C130  1  0.19690118  0.63176201  0.28022919  1.0
  C  C131  1  0.02354123  0.36108600  0.28055834  1.0
  C  C132  1  0.64021515  0.98767576  0.28532767  1.0
  C  C133  1  0.38434825  0.61804183  0.27653883  1.0
  C  C134  1  0.01145813  0.34440718  0.23209950  1.0
  C  C135  1  0.67404308  0.97399068  0.23736599  1.0
  C  C136  1  0.36872130  0.65093454  0.22859921  1.0
  C  C137  1  0.08257681  0.24244410  0.20717647  1.0
  C  C138  1  0.71075070  0.04599111  0.21314977  1.0
  C  C139  1  0.26712770  0.67713706  0.20309586  1.0
  C  C140  1  0.30838052  0.13637262  0.74108125  1.0
  C  C141  1  0.72815068  0.23465470  0.72620899  1.0
  C  C142  1  0.27007330  0.54388029  0.73443712  1.0
  C  C143  1  0.17078550  0.15867497  0.23509179  1.0
  C  C144  1  0.71108619  0.13415073  0.24185442  1.0
  C  C145  1  0.18155301  0.66572633  0.23025007  1.0
  C  C146  1  0.06884644  0.22045804  0.15828252  1.0
  C  C147  1  0.74542622  0.03464405  0.16398620  1.0
  C  C148  1  0.24718298  0.71381743  0.15431653  1.0
  C  C149  1  0.21106317  0.20973402  0.38524733  1.0
  C  C150  1  0.59951270  0.18212814  0.38974380  1.0
  C  C151  1  0.22951578  0.56176233  0.37880207  1.0
  C  C152  1  0.16125583  0.07185790  0.73066847  1.0
  C  C153  1  0.71268956  0.05599788  0.73578071  1.0
  C  C154  1  0.05914727  0.65094308  0.73102917  1.0
  C  C155  1  0.16613555  0.05899654  0.78697134  1.0
  C  C156  1  0.72821281  0.05643087  0.79161145  1.0
  C  C157  1  0.06331419  0.65280175  0.78738315  1.0
  C  C158  1  0.15464134  0.13322234  0.90818289  1.0
  C  C159  1  0.74780452  0.15424191  0.90510663  1.0
  C  C160  1  0.14293486  0.73961691  0.89722510  1.0
  C  C161  1  0.19529606  0.16243325  0.71618865  1.0
  C  C162  1  0.65518502  0.17612527  0.71643306  1.0
  C  C163  1  0.16909867  0.64040680  0.70863322  1.0
  C  C164  1  0.28968709  0.14587439  0.79758575  1.0
  C  C165  1  0.74898312  0.22925135  0.78230192  1.0
  C  C166  1  0.26771633  0.57424579  0.78960382  1.0
  C  C167  1  0.17445136  0.15701104  0.81203690  1.0
  C  C168  1  0.68678954  0.17570193  0.81144343  1.0
  C  C169  1  0.15836758  0.67802583  0.80359704  1.0
  C  C170  1  0.40790985  0.02468005  0.72796062  1.0
  C  C171  1  0.45430703  0.01167816  0.67565521  1.0
  C  C172  1  0.83968153  0.18901872  0.69846456  1.0
  C  C173  1  0.83594738  0.20367448  0.64271141  1.0
  C  C174  1  0.27507099  0.42961303  0.72845113  1.0
  C  C175  1  0.30316170  0.38044977  0.67663337  1.0
  Br  Br176  1  0.89621525  0.46129949  0.19637873  1.0
  Br  Br177  1  0.67000710  0.85602004  0.20127923  1.0
  Br  Br178  1  0.48738769  0.66111813  0.19442573  1.0
  Br  Br179  1  0.03604727  0.04657856  0.81364119  1.0
  Br  Br180  1  0.65172404  0.98186015  0.82671220  1.0
  Br  Br181  1  0.91670017  0.75917418  0.81377406  1.0
  O  O182  1  0.31038296  0.52029787  0.55091534  1.0
  O  O183  1  0.16743834  0.31864122  0.55428996  1.0
  O  O184  1  0.51174083  0.15507917  0.55541390  1.0
  O  O185  1  0.82667830  0.02148464  0.96530272  1.0
  O  O186  1  0.18486548  0.82129384  0.96353103  1.0
  O  O187  1  0.02667455  0.16665507  0.97077022  1.0
  O  O188  1  0.50386889  0.32542072  0.56303046  1.0
  O  O189  1  0.14490640  0.51564937  0.54781487  1.0
  O  O190  1  0.32489957  0.15384328  0.55369654  1.0
  O  O191  1  0.34522447  0.49316861  0.44787835  1.0
  O  O192  1  0.16062606  0.32289197  0.45651440  1.0
  O  O193  1  0.51586614  0.13945001  0.45812547  1.0
  O  O194  1  0.53126281  0.29832503  0.45925383  1.0
  O  O195  1  0.17463170  0.50158032  0.45137819  1.0
  O  O196  1  0.32080866  0.16238058  0.45696229  1.0
  O  O197  1  0.34249797  0.33299837  0.50519376  1.0
  O  O198  1  0.83767198  0.99983493  0.07104228  1.0
  O  O199  1  0.19476936  0.80863858  0.06095364  1.0
  O  O200  1  0.02615929  0.16524527  0.06645380  1.0
  O  O201  1  0.02710830  0.81040467  0.06429547  1.0
  O  O202  1  0.18085408  0.99956766  0.06767623  1.0
  O  O203  1  0.84105520  0.16483977  0.07111242  1.0
  O  O204  1  0.00661544  0.99041973  0.01626410  1.0
  O  O205  1  0.01620689  0.82380058  0.95967701  1.0
  O  O206  1  0.18949812  0.00659452  0.97115797  1.0
  O  O207  1  0.83071194  0.18615834  0.97346203  1.0
  O  O208  1  0.50781052  0.48270458  0.50828999  1.0
  O  O209  1  0.84293452  0.83923498  0.01584247  1.0
