# generated using pymatgen
data_AlH3C12O5F4
_symmetry_space_group_name_H-M   'P 1'
_cell_length_a   6.66471597
_cell_length_b   20.92057443
_cell_length_c   23.47102106
_cell_angle_alpha   76.76743676
_cell_angle_beta   89.99981031
_cell_angle_gamma   89.99986950
_symmetry_Int_Tables_number   1
_chemical_formula_structural   AlH3C12O5F4
_chemical_formula_sum   'Al4 H12 C48 O20 F16'
_cell_volume   3185.66733224
_cell_formula_units_Z   4
loop_
 _symmetry_equiv_pos_site_id
 _symmetry_equiv_pos_as_xyz
  1  'x, y, z'
loop_
 _atom_site_type_symbol
 _atom_site_label
 _atom_site_symmetry_multiplicity
 _atom_site_fract_x
 _atom_site_fract_y
 _atom_site_fract_z
 _atom_site_occupancy
  Al  Al0  1  0.28448704  0.24851703  0.25094689  1.0
  Al  Al1  1  0.71550806  0.75148463  0.74905173  1.0
  Al  Al2  1  0.78448585  0.25148536  0.24905225  1.0
  Al  Al3  1  0.21551676  0.74851685  0.75094419  1.0
  H  H4  1  0.66279462  0.51830632  0.60127610  1.0
  H  H5  1  0.33720648  0.48169322  0.39872341  1.0
  H  H6  1  0.16278384  0.98168372  0.89872957  1.0
  H  H7  1  0.83722027  0.01831497  0.10126951  1.0
  H  H8  1  0.75677865  0.40610548  0.46802711  1.0
  H  H9  1  0.24322545  0.59389676  0.53197500  1.0
  H  H10  1  0.25678303  0.09389969  0.03197247  1.0
  H  H11  1  0.74322708  0.90610155  0.96802790  1.0
  H  H12  1  0.52993756  0.33103528  0.25749187  1.0
  H  H13  1  0.47005754  0.66896510  0.74250807  1.0
  H  H14  1  0.02994386  0.16896783  0.24250707  1.0
  H  H15  1  0.97004974  0.83103288  0.75749156  1.0
  C  C16  1  0.53558008  0.17907773  0.18185828  1.0
  C  C17  1  0.46442402  0.82092148  0.81814254  1.0
  C  C18  1  0.03556064  0.32092436  0.31814284  1.0
  C  C19  1  0.96443296  0.67907507  0.68185710  1.0
  C  C20  1  0.53811060  0.16271091  0.33784131  1.0
  C  C21  1  0.46189200  0.83728963  0.66215994  1.0
  C  C22  1  0.03810160  0.33729064  0.16216200  1.0
  C  C23  1  0.96189500  0.66271070  0.83783793  1.0
  C  C24  1  0.95339192  0.61169267  0.89074012  1.0
  C  C25  1  0.04661819  0.38831215  0.10925542  1.0
  C  C26  1  0.45337410  0.88831774  0.60925375  1.0
  C  C27  1  0.54662250  0.11169002  0.39073958  1.0
  C  C28  1  0.92219314  0.51549750  0.98347618  1.0
  C  C29  1  0.07780346  0.48450199  0.01652158  1.0
  C  C30  1  0.42218763  0.98452154  0.51653119  1.0
  C  C31  1  0.57781798  0.01548237  0.48346610  1.0
  C  C32  1  0.06003969  0.43310088  0.06580550  1.0
  C  C33  1  0.93994191  0.56690181  0.93419093  1.0
  C  C34  1  0.56004686  0.06689184  0.43418126  1.0
  C  C35  1  0.43993924  0.93310559  0.56582482  1.0
  C  C36  1  0.96090128  0.63465134  0.64024732  1.0
  C  C37  1  0.03909682  0.36534872  0.35975393  1.0
  C  C38  1  0.46090664  0.86534205  0.85975541  1.0
  C  C39  1  0.53909296  0.13465657  0.14024586  1.0
  C  C40  1  0.11724213  0.63212880  0.60044544  1.0
  C  C41  1  0.88276048  0.36787365  0.39955579  1.0
  C  C42  1  0.61724018  0.86786717  0.89955760  1.0
  C  C43  1  0.38276393  0.13213156  0.10044322  1.0
  C  C44  1  0.11633919  0.59164895  0.56127568  1.0
  C  C45  1  0.88366642  0.40835361  0.43872512  1.0
  C  C46  1  0.61634559  0.90834761  0.93872693  1.0
  C  C47  1  0.38366001  0.09165347  0.06127214  1.0
  C  C48  1  0.95150770  0.54970776  0.56046754  1.0
  C  C49  1  0.04849640  0.45029315  0.43953415  1.0
  C  C50  1  0.45150572  0.95028499  0.93953783  1.0
  C  C51  1  0.54849689  0.04971635  0.06046210  1.0
  C  C52  1  0.79216988  0.55023133  0.59979751  1.0
  C  C53  1  0.20783272  0.44976847  0.40020288  1.0
  C  C54  1  0.29216979  0.94976082  0.90020889  1.0
  C  C55  1  0.70783881  0.05023835  0.09979018  1.0
  C  C56  1  0.79998085  0.59180176  0.63790999  1.0
  C  C57  1  0.20002176  0.40819856  0.36209214  1.0
  C  C58  1  0.29997240  0.90818872  0.86209729  1.0
  C  C59  1  0.70002720  0.09180899  0.13790573  1.0
  C  C60  1  0.93620206  0.50545701  0.52107503  1.0
  C  C61  1  0.06380654  0.49454188  0.47892711  1.0
  C  C62  1  0.43619940  0.99453842  0.97892727  1.0
  C  C63  1  0.56380620  0.00546287  0.02107091  1.0
  O  O64  1  0.70741869  0.18314318  0.31596291  1.0
  O  O65  1  0.29257942  0.81685445  0.68403662  1.0
  O  O66  1  0.20742761  0.31685303  0.18403635  1.0
  O  O67  1  0.79257050  0.68314631  0.81596010  1.0
  O  O68  1  0.36522910  0.19295322  0.20010185  1.0
  O  O69  1  0.63476900  0.80704445  0.79989942  1.0
  O  O70  1  0.86523604  0.30704387  0.29990686  1.0
  O  O71  1  0.13475306  0.69295523  0.70009441  1.0
  O  O72  1  0.36441982  0.18094667  0.31811488  1.0
  O  O73  1  0.63557828  0.81905383  0.68188462  1.0
  O  O74  1  0.86441735  0.31905926  0.18189289  1.0
  O  O75  1  0.13557025  0.68094015  0.81811099  1.0
  O  O76  1  0.20432565  0.30121026  0.30391664  1.0
  O  O77  1  0.79566795  0.69879108  0.69608329  1.0
  O  O78  1  0.70431332  0.19879639  0.19607904  1.0
  O  O79  1  0.29568328  0.80120469  0.80392002  1.0
  O  O80  1  0.53304516  0.28911194  0.24647812  1.0
  O  O81  1  0.46695294  0.71088983  0.75352006  1.0
  O  O82  1  0.03305258  0.21089106  0.25352126  1.0
  O  O83  1  0.96694552  0.78911093  0.74647605  1.0
  F  F84  1  0.26676877  0.50567466  0.00017805  1.0
  F  F85  1  0.73319783  0.49432106  0.99981756  1.0
  F  F86  1  0.76677251  0.99425153  0.49976234  1.0
  F  F87  1  0.23321059  0.00574966  0.50023629  1.0
  F  F88  1  0.27739287  0.67231657  0.59836710  1.0
  F  F89  1  0.72260373  0.32768402  0.40163589  1.0
  F  F90  1  0.77740166  0.82767915  0.90163841  1.0
  F  F91  1  0.22260844  0.17231835  0.09836549  1.0
  F  F92  1  0.35567448  0.41161444  0.32431242  1.0
  F  F93  1  0.64433113  0.58838173  0.67569105  1.0
  F  F94  1  0.85567507  0.08839068  0.17568706  1.0
  F  F95  1  0.14432603  0.91160608  0.82431597  1.0
  F  F96  1  0.23684159  0.53078075  0.47177170  1.0
  F  F97  1  0.76317302  0.46921717  0.52823045  1.0
  F  F98  1  0.73685317  0.96922622  0.02822095  1.0
  F  F99  1  0.26315243  0.03077258  0.97177770  1.0
