# generated using pymatgen
data_Al3H15C38N(ClO7)2
_symmetry_space_group_name_H-M   'P 1'
_cell_length_a   12.48481479
_cell_length_b   12.51666305
_cell_length_c   28.75787474
_cell_angle_alpha   90.07112467
_cell_angle_beta   90.05563205
_cell_angle_gamma   60.84144112
_symmetry_Int_Tables_number   1
_chemical_formula_structural   Al3H15C38N(ClO7)2
_chemical_formula_sum   'Al6 H30 C76 N2 Cl4 O28'
_cell_volume   3924.44243700
_cell_formula_units_Z   2
loop_
 _symmetry_equiv_pos_site_id
 _symmetry_equiv_pos_as_xyz
  1  'x, y, z'
loop_
 _atom_site_type_symbol
 _atom_site_label
 _atom_site_symmetry_multiplicity
 _atom_site_fract_x
 _atom_site_fract_y
 _atom_site_fract_z
 _atom_site_occupancy
  Al  Al0  1  0.59315314  0.58183739  0.49970859  1.0
  Al  Al1  1  0.33745872  0.57776486  0.49906672  1.0
  Al  Al2  1  0.57070364  0.33694784  0.50016709  1.0
  Al  Al3  1  0.07473333  0.07689558  0.00037307  1.0
  Al  Al4  1  0.08412483  0.32876003  0.00042402  1.0
  Al  Al5  1  0.32351224  0.09387202  0.00003853  1.0
  H  H6  1  0.17951290  0.53309482  0.21924232  1.0
  H  H7  1  0.67873367  0.51977905  0.28963242  1.0
  H  H8  1  0.51354305  0.80929150  0.29604790  1.0
  H  H9  1  0.50517383  0.84711753  0.21047235  1.0
  H  H10  1  0.15794986  0.83111213  0.28880597  1.0
  H  H11  1  0.36057855  0.14986372  0.78705770  1.0
  H  H12  1  0.29059649  0.52187204  0.80222818  1.0
  H  H13  1  0.30287314  0.53675558  0.71638884  1.0
  H  H14  1  0.63539596  0.40899615  0.71602806  1.0
  H  H15  1  0.12708783  0.40326049  0.28763047  1.0
  H  H16  1  0.66266586  0.41651253  0.80170426  1.0
  H  H17  1  0.16613431  0.81010505  0.71231939  1.0
  H  H18  1  0.16602072  0.84674524  0.79775674  1.0
  H  H19  1  0.49598703  0.83808826  0.69821300  1.0
  H  H20  1  0.52830046  0.25815433  0.21408313  1.0
  H  H21  1  0.47275828  0.12932782  0.28174502  1.0
  H  H22  1  0.25225232  0.18713753  0.23402150  1.0
  H  H23  1  0.94197880  0.13535839  0.29615884  1.0
  H  H24  1  0.97790704  0.13417590  0.21083986  1.0
  H  H25  1  0.71623621  0.51924471  0.20432628  1.0
  H  H26  1  0.13222402  0.15135637  0.71144402  1.0
  H  H27  1  0.04260785  0.04946870  0.65241140  1.0
  H  H28  1  0.15855288  0.08671115  0.63632755  1.0
  H  H29  1  0.00310194  0.18779147  0.62206559  1.0
  H  H30  1  0.37343012  0.55047566  0.29372160  1.0
  H  H31  1  0.47917429  0.59954275  0.23691047  1.0
  H  H32  1  0.35805157  0.59243666  0.20640296  1.0
  H  H33  1  0.51002913  0.46620050  0.20507202  1.0
  H  H34  1  0.69982936  0.67823282  0.52878469  1.0
  H  H35  1  0.95884089  0.98942268  0.97236230  1.0
  C  C36  1  0.38297566  0.71151266  0.43288936  1.0
  C  C37  1  0.35677315  0.36448619  0.38836665  1.0
  C  C38  1  0.28581642  0.25115548  0.24186746  1.0
  C  C39  1  0.31627598  0.32357528  0.20319554  1.0
  C  C40  1  0.40796753  0.21898402  0.26766543  1.0
  C  C41  1  0.33805289  0.33889115  0.29829372  1.0
  C  C42  1  0.43877697  0.29039511  0.23045150  1.0
  C  C43  1  0.36969366  0.41078679  0.25955654  1.0
  C  C44  1  0.30527188  0.31369592  0.15467182  1.0
  C  C45  1  0.34830695  0.35123535  0.34667424  1.0
  C  C46  1  0.76281908  0.33902498  0.38797900  1.0
  C  C47  1  0.37937909  0.38871235  0.43494190  1.0
  C  C48  1  0.89318464  0.21896355  0.27584646  1.0
  C  C49  1  0.91343515  0.21835601  0.22844606  1.0
  C  C50  1  0.76544706  0.43586384  0.22472008  1.0
  C  C51  1  0.74484654  0.43631554  0.27207371  1.0
  C  C52  1  0.80871103  0.32796858  0.29836365  1.0
  C  C53  1  0.85005037  0.32695874  0.20220849  1.0
  C  C54  1  0.87339165  0.32410453  0.15405402  1.0
  C  C55  1  0.78601762  0.33080883  0.34657485  1.0
  C  C56  1  0.89830091  0.31527098  0.11279157  1.0
  C  C57  1  0.35480375  0.76306074  0.38687545  1.0
  C  C58  1  0.71409634  0.36694097  0.43431288  1.0
  C  C59  1  0.43434742  0.82314847  0.27558106  1.0
  C  C60  1  0.42962699  0.84394399  0.22814303  1.0
  C  C61  1  0.22992668  0.85539684  0.22413999  1.0
  C  C62  1  0.23367958  0.83520261  0.27175401  1.0
  C  C63  1  0.33623805  0.81808880  0.29796952  1.0
  C  C64  1  0.32811845  0.86003590  0.20118312  1.0
  C  C65  1  0.32444875  0.88100474  0.15293697  1.0
  C  C66  1  0.34339100  0.79109961  0.34592189  1.0
  C  C67  1  0.31824463  0.90212559  0.11140422  1.0
  C  C68  1  0.35361351  0.37190371  0.61224607  1.0
  C  C69  1  0.37460183  0.71772159  0.56464443  1.0
  C  C70  1  0.35046967  0.24527719  0.72377127  1.0
  C  C71  1  0.34661837  0.23509711  0.77173953  1.0
  C  C72  1  0.30799606  0.44438682  0.78009464  1.0
  C  C73  1  0.31419935  0.45281222  0.73219563  1.0
  C  C74  1  0.33513600  0.35397142  0.70273898  1.0
  C  C75  1  0.32394157  0.33515127  0.80055540  1.0
  C  C76  1  0.31418623  0.32432582  0.84921693  1.0
  C  C77  1  0.34349390  0.36323961  0.65405365  1.0
  C  C78  1  0.30328255  0.31175679  0.89068801  1.0
  C  C79  1  0.76604266  0.33606979  0.61253702  1.0
  C  C80  1  0.37922782  0.39119137  0.56523221  1.0
  C  C81  1  0.72688255  0.36504407  0.73126552  1.0
  C  C82  1  0.74130533  0.37030836  0.77868924  1.0
  C  C83  1  0.96171467  0.25385594  0.76786861  1.0
  C  C84  1  0.95008074  0.24605885  0.71904095  1.0
  C  C85  1  0.82809699  0.30569459  0.70089986  1.0
  C  C86  1  0.86060602  0.31477456  0.79768733  1.0
  C  C87  1  0.87921239  0.31715216  0.84607035  1.0
  C  C88  1  0.80083487  0.31660057  0.65281599  1.0
  C  C89  1  0.89797565  0.31594208  0.88768317  1.0
  C  C90  1  0.34511899  0.77123419  0.61034084  1.0
  C  C91  1  0.71254834  0.36996009  0.56702087  1.0
  C  C92  1  0.23785483  0.82378447  0.72814155  1.0
  C  C93  1  0.23800656  0.84368851  0.77549643  1.0
  C  C94  1  0.42280816  0.86053783  0.76744529  1.0
  C  C95  1  0.42384513  0.83984044  0.71993603  1.0
  C  C96  1  0.33138380  0.82113868  0.69974674  1.0
  C  C97  1  0.33018500  0.86233610  0.79635244  1.0
  C  C98  1  0.32543954  0.88620526  0.84442989  1.0
  C  C99  1  0.33577332  0.79669501  0.65157662  1.0
  C  C100  1  0.31437960  0.91019990  0.88579587  1.0
  C  C101  1  0.94875702  0.28508366  0.06675103  1.0
  C  C102  1  0.21582781  0.37146784  0.27069192  1.0
  C  C103  1  0.26997931  0.28514215  0.06600050  1.0
  C  C104  1  0.29253046  0.95051379  0.06488781  1.0
  C  C105  1  0.94517763  0.29346862  0.93439412  1.0
  C  C106  1  0.27902321  0.28390923  0.93667305  1.0
  C  C107  1  0.28355426  0.95871071  0.93218713  1.0
  C  C108  1  0.24513387  0.44366005  0.23338631  1.0
  C  C109  1  0.29435166  0.30590900  0.11280910  1.0
  C  C110  1  0.06385161  0.12489063  0.64861390  1.0
  C  C111  1  0.44211602  0.53931493  0.22725874  1.0
  N  N112  1  0.05369755  0.18735800  0.69243391  1.0
  N  N113  1  0.42238454  0.48555148  0.26929816  1.0
  Cl  Cl114  1  0.10507375  0.87302733  0.19265396  1.0
  Cl  Cl115  1  0.37306565  0.12345773  0.68911054  1.0
  Cl  Cl116  1  0.10739738  0.18338933  0.79186132  1.0
  Cl  Cl117  1  0.53462944  0.88646544  0.79127976  1.0
  O  O118  1  0.69531524  0.46760860  0.45131914  1.0
  O  O119  1  0.30277701  0.49163979  0.54585887  1.0
  O  O120  1  0.47968954  0.30950638  0.54733952  1.0
  O  O121  1  0.68992383  0.29203013  0.54590195  1.0
  O  O122  1  0.49914263  0.49831777  0.49987083  1.0
  O  O123  1  0.19367743  0.96749034  0.04667212  1.0
  O  O124  1  0.98190893  0.17751126  0.05315352  1.0
  O  O125  1  0.96037760  0.36771976  0.04401435  1.0
  O  O126  1  0.16601829  0.36230591  0.04861601  1.0
  O  O127  1  0.35056828  0.18836569  0.04547576  1.0
  O  O128  1  0.37102023  0.97759577  0.04694206  1.0
  O  O129  1  0.48774555  0.68301613  0.44863533  1.0
  O  O130  1  0.17747812  0.98626670  0.94629192  1.0
  O  O131  1  0.96122292  0.19627990  0.95372012  1.0
  O  O132  1  0.97294433  0.37204321  0.95166871  1.0
  O  O133  1  0.17953422  0.36130816  0.95633992  1.0
  O  O134  1  0.35677246  0.17961280  0.95320675  1.0
  O  O135  1  0.36470998  0.97404921  0.95449370  1.0
  O  O136  1  0.16187983  0.16732397  0.99991258  1.0
  O  O137  1  0.29980073  0.69510935  0.45295327  1.0
  O  O138  1  0.30257637  0.49189037  0.45289817  1.0
  O  O139  1  0.47763482  0.30839761  0.45482575  1.0
  O  O140  1  0.68876350  0.28904788  0.45378611  1.0
  O  O141  1  0.68824917  0.47415281  0.55198241  1.0
  O  O142  1  0.47880213  0.69104772  0.54872759  1.0
  O  O143  1  0.29368512  0.69692168  0.54490684  1.0
  O  O144  1  0.67763430  0.65942820  0.49889546  1.0
  O  O145  1  0.99784709  0.99177438  0.00109178  1.0
