# generated using pymatgen
data_Al6H67C84IO28
_symmetry_space_group_name_H-M   'P 1'
_cell_length_a   13.29040102
_cell_length_b   13.33871542
_cell_length_c   28.25521830
_cell_angle_alpha   90.25940143
_cell_angle_beta   90.09173929
_cell_angle_gamma   60.51427265
_symmetry_Int_Tables_number   1
_chemical_formula_structural   Al6H67C84IO28
_chemical_formula_sum   'Al6 H67 C84 I1 O28'
_cell_volume   4360.17742278
_cell_formula_units_Z   1
loop_
 _symmetry_equiv_pos_site_id
 _symmetry_equiv_pos_as_xyz
  1  'x, y, z'
loop_
 _atom_site_type_symbol
 _atom_site_label
 _atom_site_symmetry_multiplicity
 _atom_site_fract_x
 _atom_site_fract_y
 _atom_site_fract_z
 _atom_site_occupancy
  Al  Al0  1  0.82322575  0.58924282  0.50130542  1.0
  Al  Al1  1  0.06756817  0.35522529  0.50034579  1.0
  Al  Al2  1  0.06994769  0.57855797  0.50136146  1.0
  Al  Al3  1  0.84064261  0.08855517  0.00050233  1.0
  Al  Al4  1  0.59751425  0.09001354  0.00013057  1.0
  Al  Al5  1  0.59181504  0.31752986  0.99953821  1.0
  H  H6  1  0.32322021  0.16043002  0.22167825  1.0
  H  H7  1  0.87664887  0.98412234  0.30698874  1.0
  H  H8  1  0.84436405  0.02878549  0.22633194  1.0
  H  H9  1  0.69632793  0.07337254  0.23404471  1.0
  H  H10  1  0.75470060  0.74100965  0.29011106  1.0
  H  H11  1  0.65671276  0.88552416  0.30475204  1.0
  H  H12  1  0.72201907  0.78604718  0.20948433  1.0
  H  H13  1  0.96790261  0.67606856  0.27921367  1.0
  H  H14  1  0.93669056  0.72064819  0.19856959  1.0
  H  H15  1  0.62475573  0.93098854  0.22400002  1.0
  H  H16  1  0.73975364  0.52420665  0.20383274  1.0
  H  H17  1  0.47595428  0.15554496  0.29298306  1.0
  H  H18  1  0.76755715  0.52945507  0.28554652  1.0
  H  H19  1  0.74752485  0.26113367  0.30141971  1.0
  H  H20  1  0.66690527  0.41309715  0.30084723  1.0
  H  H21  1  0.63759970  0.40906141  0.21914863  1.0
  H  H22  1  0.71794150  0.25693790  0.21989675  1.0
  H  H23  1  0.03465602  0.23955090  0.27792927  1.0
  H  H24  1  0.96420376  0.15912931  0.28829107  1.0
  H  H25  1  0.00544100  0.23330346  0.19626520  1.0
  H  H26  1  0.91841057  0.45892835  0.27654757  1.0
  H  H27  1  0.89082119  0.45211904  0.19491346  1.0
  H  H28  1  0.14007046  0.35779878  0.26530013  1.0
  H  H29  1  0.93411845  0.15387460  0.20665191  1.0
  H  H30  1  0.40012869  0.45574533  0.78565858  1.0
  H  H31  1  0.34597271  0.48625789  0.70566139  1.0
  H  H32  1  0.46902111  0.16882163  0.69458577  1.0
  H  H33  1  0.50198436  0.28192231  0.69805697  1.0
  H  H34  1  0.54158971  0.23675317  0.77853997  1.0
  H  H35  1  0.48273427  0.14382641  0.77677383  1.0
  H  H36  1  0.15327641  0.34860798  0.71851592  1.0
  H  H37  1  0.27098970  0.20773106  0.71582447  1.0
  H  H38  1  0.17747292  0.36585411  0.79932412  1.0
  H  H39  1  0.19303184  0.50106182  0.20870570  1.0
  H  H40  1  0.20384100  0.51918191  0.72012873  1.0
  H  H41  1  0.25378002  0.50511725  0.79991712  1.0
  H  H42  1  0.27355901  0.21555860  0.79884758  1.0
  H  H43  1  0.73766285  0.75781145  0.79452309  1.0
  H  H44  1  0.75339247  0.73407911  0.71245447  1.0
  H  H45  1  0.73565827  0.01558588  0.69521281  1.0
  H  H46  1  0.65668915  0.94126086  0.69754371  1.0
  H  H47  1  0.63334068  0.97286099  0.77945853  1.0
  H  H48  1  0.71048442  0.04892940  0.77692724  1.0
  H  H49  1  0.02604925  0.75890536  0.71583448  1.0
  H  H50  1  0.34589820  0.49604152  0.27998027  1.0
  H  H51  1  0.95187626  0.90875794  0.70589573  1.0
  H  H52  1  0.00205671  0.79063530  0.79756108  1.0
  H  H53  1  0.88955760  0.68368987  0.80052094  1.0
  H  H54  1  0.92931923  0.94062391  0.78799509  1.0
  H  H55  1  0.98383504  0.19326692  0.79505221  1.0
  H  H56  1  0.01139665  0.19448967  0.71299531  1.0
  H  H57  1  0.70411712  0.27590765  0.69108510  1.0
  H  H58  1  0.84603397  0.15928108  0.69800670  1.0
  H  H59  1  0.81300919  0.15972602  0.77955514  1.0
  H  H60  1  0.52885574  0.29873902  0.23639100  1.0
  H  H61  1  0.67309849  0.27919833  0.77274392  1.0
  H  H62  1  0.77989344  0.50827933  0.70803824  1.0
  H  H63  1  0.66534311  0.47908956  0.69923277  1.0
  H  H64  1  0.76144767  0.50360600  0.79008269  1.0
  H  H65  1  0.98830431  0.33625121  0.71774342  1.0
  H  H66  1  0.96012268  0.33550573  0.79900688  1.0
  H  H67  1  0.64095704  0.48321972  0.78172488  1.0
  H  H68  1  0.98568254  0.82109438  0.20555813  1.0
  H  H69  1  0.01777140  0.77585683  0.28625938  1.0
  H  H70  1  0.72859153  0.02919795  0.31465591  1.0
  H  H71  1  0.63387638  0.67405289  0.47241855  1.0
  H  H72  1  0.03014360  0.98657001  0.97167088  1.0
  C  C73  1  0.90350051  0.39000416  0.43203495  1.0
  C  C74  1  0.25799340  0.37204280  0.38947821  1.0
  C  C75  1  0.44227682  0.31201768  0.24331170  1.0
  C  C76  1  0.35753343  0.31448821  0.20290070  1.0
  C  C77  1  0.34097911  0.42147962  0.26667602  1.0
  C  C78  1  0.31146232  0.34224346  0.29876523  1.0
  C  C79  1  0.25568506  0.42450751  0.22787317  1.0
  C  C80  1  0.22674505  0.34451666  0.25834335  1.0
  C  C81  1  0.38382769  0.30167056  0.15393718  1.0
  C  C82  1  0.28446303  0.35696795  0.34766008  1.0
  C  C83  1  0.94565301  0.76584876  0.27274140  1.0
  C  C84  1  0.20706984  0.39849255  0.43586848  1.0
  C  C85  1  0.80546007  0.97238122  0.29358629  1.0
  C  C86  1  0.78422300  0.00178407  0.24017896  1.0
  C  C87  1  0.77297076  0.93923426  0.11912019  1.0
  C  C88  1  0.83555674  0.84587300  0.30171417  1.0
  C  C89  1  0.92475267  0.79531103  0.21955567  1.0
  C  C90  1  0.80000839  0.89540451  0.21155355  1.0
  C  C91  1  0.71277705  0.85987898  0.23032712  1.0
  C  C92  1  0.73390608  0.83031966  0.28354815  1.0
  C  C93  1  0.78304365  0.92116063  0.16144185  1.0
  C  C94  1  0.85744398  0.81344090  0.35114593  1.0
  C  C95  1  0.90411587  0.71583202  0.43555044  1.0
  C  C96  1  0.87818882  0.77671549  0.39133654  1.0
  C  C97  1  0.83999556  0.45356940  0.26901800  1.0
  C  C98  1  0.73966841  0.33817758  0.28397642  1.0
  C  C99  1  0.72023995  0.33536923  0.23013097  1.0
  C  C100  1  0.77973209  0.32556802  0.11050847  1.0
  C  C101  1  0.85175877  0.34382961  0.29310521  1.0
  C  C102  1  0.82145214  0.44980534  0.21513389  1.0
  C  C103  1  0.81919714  0.33810575  0.20211519  1.0
  C  C104  1  0.93552915  0.23281315  0.21678545  1.0
  C  C105  1  0.95494944  0.23648056  0.27062640  1.0
  C  C106  1  0.89990678  0.38317707  0.56507962  1.0
  C  C107  1  0.79868988  0.33368649  0.15200863  1.0
  C  C108  1  0.86879485  0.35081287  0.34336613  1.0
  C  C109  1  0.88223916  0.36243641  0.38515605  1.0
  C  C110  1  0.29526409  0.45556893  0.72537193  1.0
  C  C111  1  0.44698049  0.24977041  0.71304777  1.0
  C  C112  1  0.46605007  0.23024731  0.76709820  1.0
  C  C113  1  0.40948998  0.29195800  0.88734449  1.0
  C  C114  1  0.31884223  0.33901487  0.70356901  1.0
  C  C115  1  0.32663699  0.44169650  0.77856436  1.0
  C  C116  1  0.35837001  0.31925321  0.79516729  1.0
  C  C117  1  0.20592598  0.39731912  0.56643356  1.0
  C  C118  1  0.25698839  0.29741053  0.78308405  1.0
  C  C119  1  0.24413655  0.29516476  0.72880907  1.0
  C  C120  1  0.38427488  0.30522160  0.84552155  1.0
  C  C121  1  0.29121227  0.35307099  0.65332384  1.0
  C  C122  1  0.26085282  0.36962890  0.61207995  1.0
  C  C123  1  0.82804623  0.73620798  0.72781651  1.0
  C  C124  1  0.72993857  0.94584877  0.71332150  1.0
  C  C125  1  0.71429973  0.96737947  0.76729425  1.0
  C  C126  1  0.78424962  0.91190527  0.88687886  1.0
  C  C127  1  0.84294301  0.83133458  0.70280239  1.0
  C  C128  1  0.90208908  0.71574301  0.56685370  1.0
  C  C129  1  0.81738693  0.75443385  0.78179553  1.0
  C  C130  1  0.81552999  0.86841066  0.79434802  1.0
  C  C131  1  0.93048197  0.86035357  0.77801521  1.0
  C  C132  1  0.94614825  0.83910814  0.72405383  1.0
  C  C133  1  0.79907962  0.89012598  0.84483019  1.0
  C  C134  1  0.85800715  0.80735117  0.65241707  1.0
  C  C135  1  0.87467488  0.77704235  0.61125643  1.0
  C  C136  1  0.95127228  0.28112654  0.72650409  1.0
  C  C137  1  0.78514238  0.24644533  0.71081446  1.0
  C  C138  1  0.76489784  0.24697466  0.76481275  1.0
  C  C139  1  0.41331284  0.23212249  0.27379262  1.0
  C  C140  1  0.77202706  0.31174898  0.88334004  1.0
  C  C141  1  0.83469363  0.32708092  0.69987542  1.0
  C  C142  1  0.93293557  0.28025979  0.78039464  1.0
  C  C143  1  0.80343470  0.32508450  0.79107571  1.0
  C  C144  1  0.73212230  0.44929381  0.77207513  1.0
  C  C145  1  0.74758536  0.44978408  0.71797583  1.0
  C  C146  1  0.78580433  0.32031321  0.84136705  1.0
  C  C147  1  0.85457812  0.33314502  0.64983149  1.0
  C  C148  1  0.87346925  0.34803915  0.60916226  1.0
  C  C149  1  0.75890311  0.97586335  0.07059053  1.0
  C  C150  1  0.32805976  0.23507185  0.23493906  1.0
  C  C151  1  0.45788217  0.26785927  0.06525876  1.0
  C  C152  1  0.75600762  0.29576100  0.06450666  1.0
  C  C153  1  0.76298347  0.95875936  0.93415067  1.0
  C  C154  1  0.45880488  0.26806105  0.93404230  1.0
  C  C155  1  0.75432158  0.28417262  0.93060131  1.0
  C  C156  1  0.40876138  0.29055566  0.11195251  1.0
  I  I157  1  0.96925848  0.56529478  0.70983344  1.0
  O  O158  1  0.83210189  0.68749074  0.45037500  1.0
  O  O159  1  0.17868258  0.32563292  0.54851780  1.0
  O  O160  1  0.18344526  0.49370079  0.54803293  1.0
  O  O161  1  0.00073583  0.68989847  0.54839858  1.0
  O  O162  1  0.98875789  0.50684249  0.50077134  1.0
  O  O163  1  0.83112731  0.20083391  0.04725199  1.0
  O  O164  1  0.83233719  0.00030245  0.05416592  1.0
  O  O165  1  0.66995055  0.98424076  0.04845463  1.0
  O  O166  1  0.48083692  0.17184184  0.04594369  1.0
  O  O167  1  0.48022050  0.34260092  0.04731713  1.0
  O  O168  1  0.65744784  0.36623914  0.04578941  1.0
  O  O169  1  0.82937665  0.48549103  0.44944910  1.0
  O  O170  1  0.82935744  0.18773123  0.94659335  1.0
  O  O171  1  0.83610939  0.98283631  0.95142932  1.0
  O  O172  1  0.66786248  0.97708829  0.95395226  1.0
  O  O173  1  0.48539917  0.17026546  0.95199083  1.0
  O  O174  1  0.47767894  0.34432812  0.95334098  1.0
  O  O175  1  0.66101579  0.35828821  0.95187975  1.0
  O  O176  1  0.67454889  0.16609987  0.99974795  1.0
  O  O177  1  0.99944445  0.31608574  0.45143898  1.0
  O  O178  1  0.18478231  0.32471401  0.45489583  1.0
  O  O179  1  0.18281092  0.49611698  0.45384381  1.0
  O  O180  1  0.00119084  0.69151931  0.45531491  1.0
  O  O181  1  0.83017337  0.68811678  0.55120907  1.0
  O  O182  1  0.83035637  0.48357915  0.55098240  1.0
  O  O183  1  0.99550323  0.31038119  0.54469240  1.0
  O  O184  1  0.67187368  0.66517571  0.50253783  1.0
  O  O185  1  0.99190118  0.01620338  0.00167326  1.0
