# generated using pymatgen
data_Zn2H13C42N2O11F10
_symmetry_space_group_name_H-M   'P 1'
_cell_length_a   16.54721232
_cell_length_b   17.84377711
_cell_length_c   29.01304963
_cell_angle_alpha   90.22117698
_cell_angle_beta   89.85684886
_cell_angle_gamma   89.87396416
_symmetry_Int_Tables_number   1
_chemical_formula_structural   Zn2H13C42N2O11F10
_chemical_formula_sum   'Zn4 H26 C84 N4 O22 F20'
_cell_volume   8566.41990710
_cell_formula_units_Z   2
loop_
 _symmetry_equiv_pos_site_id
 _symmetry_equiv_pos_as_xyz
  1  'x, y, z'
loop_
 _atom_site_type_symbol
 _atom_site_label
 _atom_site_symmetry_multiplicity
 _atom_site_fract_x
 _atom_site_fract_y
 _atom_site_fract_z
 _atom_site_occupancy
  Zn  Zn0  1  0.58651326  0.50720603  0.49672362  1.0
  Zn  Zn1  1  0.41745117  0.50623183  0.49914466  1.0
  Zn  Zn2  1  0.41715173  0.50843007  0.88053210  1.0
  Zn  Zn3  1  0.58620606  0.50931235  0.88251057  1.0
  H  H4  1  0.28463653  0.58861718  0.55108160  1.0
  H  H5  1  0.29109462  0.41957701  0.45105005  1.0
  H  H6  1  0.71587633  0.58355642  0.55122781  1.0
  H  H7  1  0.71499009  0.42272071  0.44631147  1.0
  H  H8  1  0.62806543  0.74213204  0.49906942  1.0
  H  H9  1  0.36689587  0.74501781  0.49816070  1.0
  H  H10  1  0.62987179  0.26969898  0.49984580  1.0
  H  H11  1  0.36880635  0.26853740  0.50398320  1.0
  H  H12  1  0.36867463  0.50021728  0.02699770  1.0
  H  H13  1  0.62972008  0.50249310  0.02928523  1.0
  H  H14  1  0.36911183  0.49796402  0.35297070  1.0
  H  H15  1  0.63014422  0.50039706  0.34975425  1.0
  H  H16  1  0.71632330  0.58548341  0.82825430  1.0
  H  H17  1  0.71396895  0.42534321  0.93278817  1.0
  H  H18  1  0.28475288  0.59046924  0.82861982  1.0
  H  H19  1  0.29044587  0.42208613  0.92825670  1.0
  H  H20  1  0.36668059  0.74733625  0.87993542  1.0
  H  H21  1  0.62785097  0.74408438  0.87957511  1.0
  H  H22  1  0.36872085  0.27053026  0.87549668  1.0
  H  H23  1  0.62978512  0.27181668  0.87883728  1.0
  H  H24  1  0.39303620  0.55112927  0.61150547  1.0
  H  H25  1  0.39303561  0.55156083  0.76838915  1.0
  H  H26  1  0.60466378  0.41441089  0.57891838  1.0
  H  H27  1  0.69529493  0.28943531  0.60884963  1.0
  H  H28  1  0.69556415  0.29006289  0.76953798  1.0
  H  H29  1  0.60492438  0.41535412  0.80002971  1.0
  C  C30  1  0.49738849  0.65110114  0.49804682  1.0
  C  C31  1  0.50950258  0.49966547  0.59090714  1.0
  C  C32  1  0.49944676  0.36151758  0.50194484  1.0
  C  C33  1  0.50190299  0.49946834  0.40826197  1.0
  C  C34  1  0.49703049  0.65325228  0.88092733  1.0
  C  C35  1  0.50959098  0.50037062  0.78852243  1.0
  C  C36  1  0.49926268  0.36354597  0.87754910  1.0
  C  C37  1  0.50128457  0.50232018  0.97120541  1.0
  C  C38  1  0.25112875  0.55003188  0.52913950  1.0
  C  C39  1  0.16740502  0.54867913  0.52971024  1.0
  C  C40  1  0.12327873  0.49956687  0.50109255  1.0
  C  C41  1  0.17080010  0.45273265  0.47258268  1.0
  C  C42  1  0.25446942  0.45564920  0.47319357  1.0
  C  C43  1  0.03855540  0.49812507  0.50085884  1.0
  C  C44  1  0.96494884  0.49790049  0.50066830  1.0
  C  C45  1  0.88023450  0.49906652  0.50021990  1.0
  C  C46  1  0.83468799  0.54601711  0.52970849  1.0
  C  C47  1  0.75099538  0.54742931  0.52834502  1.0
  C  C48  1  0.75055299  0.45733038  0.46967349  1.0
  C  C49  1  0.83420072  0.45413398  0.47005029  1.0
  C  C50  1  0.49750766  0.73487870  0.49873799  1.0
  C  C51  1  0.57137584  0.77307968  0.49934898  1.0
  C  C52  1  0.57087020  0.85049700  0.49999678  1.0
  C  C53  1  0.49907140  0.89346286  0.50042493  1.0
  C  C54  1  0.42641289  0.85200901  0.50002500  1.0
  C  C55  1  0.42431536  0.77456181  0.49887311  1.0
  C  C56  1  0.49991886  0.97218839  0.50084837  1.0
  C  C57  1  0.50063570  0.04050856  0.50089690  1.0
  C  C58  1  0.50047648  0.11923602  0.50099626  1.0
  C  C59  1  0.57244244  0.16166086  0.50022606  1.0
  C  C60  1  0.57314327  0.23907576  0.50037804  1.0
  C  C61  1  0.49940825  0.27777716  0.50176894  1.0
  C  C62  1  0.42611278  0.23861332  0.50268362  1.0
  C  C63  1  0.42797226  0.16115403  0.50196125  1.0
  C  C64  1  0.50483515  0.48126060  0.73895573  1.0
  C  C65  1  0.56100752  0.43239051  0.71463435  1.0
  C  C66  1  0.44266142  0.51722122  0.71446132  1.0
  C  C67  1  0.61098866  0.37908047  0.73734377  1.0
  C  C68  1  0.66138954  0.32919637  0.71327869  1.0
  C  C69  1  0.50477599  0.48091480  0.64045437  1.0
  C  C70  1  0.44265382  0.51707970  0.66521449  1.0
  C  C71  1  0.56093818  0.43220034  0.66451613  1.0
  C  C72  1  0.61086129  0.37871074  0.64153570  1.0
  C  C73  1  0.66132406  0.32901800  0.66531470  1.0
  C  C74  1  0.49935668  0.50103760  0.02281419  1.0
  C  C75  1  0.42511533  0.50064196  0.04613543  1.0
  C  C76  1  0.42492951  0.50185120  0.09378608  1.0
  C  C77  1  0.49633036  0.50247136  0.12035526  1.0
  C  C78  1  0.56934821  0.50210917  0.09501861  1.0
  C  C79  1  0.57212449  0.50178368  0.04742283  1.0
  C  C80  1  0.49527428  0.50304226  0.16876532  1.0
  C  C81  1  0.49534177  0.50271801  0.21077892  1.0
  C  C82  1  0.49656010  0.50138683  0.25917204  1.0
  C  C83  1  0.42521750  0.50044658  0.28598826  1.0
  C  C84  1  0.42550043  0.49870406  0.33362562  1.0
  C  C85  1  0.49981453  0.49880687  0.35666161  1.0
  C  C86  1  0.57252599  0.49987620  0.33179793  1.0
  C  C87  1  0.56965191  0.50074944  0.28422465  1.0
  C  C88  1  0.75112932  0.54952517  0.85112041  1.0
  C  C89  1  0.83484055  0.54813122  0.84987474  1.0
  C  C90  1  0.87996732  0.50133601  0.87931748  1.0
  C  C91  1  0.83350637  0.45666046  0.90933307  1.0
  C  C92  1  0.74984933  0.45984404  0.90958734  1.0
  C  C93  1  0.96468714  0.50005067  0.87895799  1.0
  C  C94  1  0.03829108  0.50019098  0.87870023  1.0
  C  C95  1  0.12301697  0.50166791  0.87843116  1.0
  C  C96  1  0.16735999  0.55053209  0.84987604  1.0
  C  C97  1  0.25108177  0.55198146  0.85045608  1.0
  C  C98  1  0.25399406  0.45798043  0.90618700  1.0
  C  C99  1  0.17032657  0.45507357  0.90683487  1.0
  C  C100  1  0.49728473  0.73700329  0.87971153  1.0
  C  C101  1  0.42415593  0.77678835  0.87917920  1.0
  C  C102  1  0.42637974  0.85420554  0.87780717  1.0
  C  C103  1  0.49911380  0.89553721  0.87748389  1.0
  C  C104  1  0.57084882  0.85250944  0.87813689  1.0
  C  C105  1  0.57121957  0.77510771  0.87906860  1.0
  C  C106  1  0.50005656  0.97424322  0.87705823  1.0
  C  C107  1  0.50069418  0.04256049  0.87722852  1.0
  C  C108  1  0.50046304  0.12127893  0.87740068  1.0
  C  C109  1  0.42792934  0.16317121  0.87683116  1.0
  C  C110  1  0.42603046  0.24061954  0.87651195  1.0
  C  C111  1  0.49931001  0.27979208  0.87740167  1.0
  C  C112  1  0.57307950  0.24115615  0.87833020  1.0
  C  C113  1  0.57240771  0.16374524  0.87809133  1.0
  N  N114  1  0.29305989  0.50391795  0.50118329  1.0
  N  N115  1  0.71061467  0.50365326  0.49847835  1.0
  N  N116  1  0.71031823  0.50594437  0.88080906  1.0
  N  N117  1  0.29280229  0.50608639  0.87831699  1.0
  O  O118  1  0.56530447  0.61846056  0.50347267  1.0
  O  O119  1  0.42960547  0.61864188  0.49212607  1.0
  O  O120  1  0.44536365  0.52394149  0.57041678  1.0
  O  O121  1  0.57730266  0.49506873  0.56917668  1.0
  O  O122  1  0.43253411  0.39459479  0.51030714  1.0
  O  O123  1  0.56647610  0.39385722  0.49357887  1.0
  O  O124  1  0.57039110  0.51112544  0.42692993  1.0
  O  O125  1  0.43531266  0.48899507  0.42946335  1.0
  O  O126  1  0.42916001  0.62104047  0.88702677  1.0
  O  O127  1  0.56497883  0.62041083  0.87571257  1.0
  O  O128  1  0.57739258  0.49602200  0.81005489  1.0
  O  O129  1  0.44541977  0.52474727  0.80923177  1.0
  O  O130  1  0.56630505  0.39598782  0.88569803  1.0
  O  O131  1  0.43228065  0.39654099  0.86960826  1.0
  O  O132  1  0.43456537  0.49235457  0.95017902  1.0
  O  O133  1  0.56974875  0.51395395  0.95237089  1.0
  O  O134  1  0.38345923  0.55753388  0.64573219  1.0
  O  O135  1  0.38341678  0.55773383  0.73420711  1.0
  O  O136  1  0.61225395  0.36512812  0.59500622  1.0
  O  O137  1  0.70787531  0.27938208  0.64135448  1.0
  O  O138  1  0.70802993  0.27976149  0.73696642  1.0
  O  O139  1  0.61256896  0.36593416  0.78384681  1.0
  F  F140  1  0.13357183  0.40429732  0.44404791  1.0
  F  F141  1  0.12685013  0.59542331  0.55796692  1.0
  F  F142  1  0.87286804  0.40740901  0.44086030  1.0
  F  F143  1  0.87393059  0.59059954  0.55966252  1.0
  F  F144  1  0.35593823  0.89084995  0.50068794  1.0
  F  F145  1  0.64215613  0.88773155  0.50021040  1.0
  F  F146  1  0.35738387  0.12275229  0.50224685  1.0
  F  F147  1  0.64358128  0.12388611  0.49923043  1.0
  F  F148  1  0.63950312  0.50235580  0.11904918  1.0
  F  F149  1  0.35332255  0.50252133  0.11659771  1.0
  F  F150  1  0.63974910  0.50142602  0.25994990  1.0
  F  F151  1  0.35356750  0.50143456  0.26342879  1.0
  F  F152  1  0.87181104  0.41009304  0.93844084  1.0
  F  F153  1  0.87447616  0.59251239  0.82007702  1.0
  F  F154  1  0.13291422  0.40690436  0.93533436  1.0
  F  F155  1  0.12698041  0.59702144  0.82171375  1.0
  F  F156  1  0.64219436  0.88965799  0.87794488  1.0
  F  F157  1  0.35597931  0.89312107  0.87694262  1.0
  F  F158  1  0.64356936  0.12600573  0.87863404  1.0
  F  F159  1  0.35736488  0.12473746  0.87648761  1.0
