# generated using pymatgen
data_Zr3H14C39N3O16
_symmetry_space_group_name_H-M   'P 1'
_cell_length_a   15.11390185
_cell_length_b   15.12752173
_cell_length_c   15.13082334
_cell_angle_alpha   90.42956836
_cell_angle_beta   90.66405951
_cell_angle_gamma   90.60471063
_symmetry_Int_Tables_number   1
_chemical_formula_structural   Zr3H14C39N3O16
_chemical_formula_sum   'Zr6 H28 C78 N6 O32'
_cell_volume   3458.92363978
_cell_formula_units_Z   2
loop_
 _symmetry_equiv_pos_site_id
 _symmetry_equiv_pos_as_xyz
  1  'x, y, z'
loop_
 _atom_site_type_symbol
 _atom_site_label
 _atom_site_symmetry_multiplicity
 _atom_site_fract_x
 _atom_site_fract_y
 _atom_site_fract_z
 _atom_site_occupancy
  Zr  Zr0  1  0.97583931  0.83632549  0.77990904  1.0
  Zr  Zr1  1  0.82918732  0.01996224  0.74317709  1.0
  Zr  Zr2  1  0.00992601  0.90982972  0.99913414  1.0
  Zr  Zr3  1  0.79221122  0.87248591  0.92623366  1.0
  Zr  Zr4  1  0.04859479  0.05388308  0.81797274  1.0
  Zr  Zr5  1  0.86661974  0.09174154  0.96098133  1.0
  H  H6  1  0.14282823  0.58507321  0.14394266  1.0
  H  H7  1  0.12060729  0.40685205  0.15693623  1.0
  H  H8  1  0.69676319  0.38430098  0.63788890  1.0
  H  H9  1  0.68704958  0.56355530  0.63656505  1.0
  H  H10  1  0.54324873  0.23448464  0.09001984  1.0
  H  H11  1  0.36498981  0.24863062  0.06762866  1.0
  H  H12  1  0.33981788  0.73293648  0.64914270  1.0
  H  H13  1  0.51927889  0.73182185  0.63977421  1.0
  H  H14  1  0.19322683  0.18509770  0.49188563  1.0
  H  H15  1  0.20513005  0.16384373  0.31360570  1.0
  H  H16  1  0.68800652  0.74222244  0.29100459  1.0
  H  H17  1  0.68705401  0.73275840  0.47030492  1.0
  H  H18  1  0.78664423  0.83078259  0.73703997  1.0
  H  H19  1  0.13676664  0.90007405  0.86185623  1.0
  H  H20  1  0.85651844  0.95353660  0.08747162  1.0
  H  H21  1  0.91083178  0.18042630  0.80747254  1.0
  H  H22  1  0.05332433  0.42903857  0.48964063  1.0
  H  H23  1  0.92302870  0.34412027  0.24770229  1.0
  H  H24  1  0.83566849  0.48116127  0.24885109  1.0
  H  H25  1  0.96670363  0.56510557  0.49037834  1.0
  H  H26  1  0.53673885  0.09966810  0.33669349  1.0
  H  H27  1  0.29752242  0.96582455  0.24889884  1.0
  H  H28  1  0.29833161  0.87909203  0.38661100  1.0
  H  H29  1  0.53712244  0.01366157  0.47364487  1.0
  H  H30  1  0.29807748  0.34213926  0.87222314  1.0
  H  H31  1  0.38790870  0.57968794  0.00687144  1.0
  H  H32  1  0.52420202  0.58024816  0.92009423  1.0
  H  H33  1  0.43521447  0.34309791  0.78486785  1.0
  C  C34  1  0.22696404  0.54984892  0.03140921  1.0
  C  C35  1  0.17623762  0.53397308  0.10679440  1.0
  C  C36  1  0.16446219  0.44246772  0.11309818  1.0
  C  C37  1  0.20838191  0.40235673  0.04230851  1.0
  C  C38  1  0.60410124  0.39510047  0.74862767  1.0
  C  C39  1  0.65461764  0.42582168  0.67780286  1.0
  C  C40  1  0.64978850  0.51813207  0.67739640  1.0
  C  C41  1  0.59472838  0.54377418  0.74664819  1.0
  C  C42  1  0.50685947  0.12324189  0.17588623  1.0
  C  C43  1  0.49172819  0.19812358  0.12393964  1.0
  C  C44  1  0.40023017  0.20501296  0.11210128  1.0
  C  C45  1  0.35936767  0.13516423  0.15727021  1.0
  C  C46  1  0.35082060  0.84293846  0.55533643  1.0
  C  C47  1  0.38153109  0.77260897  0.60672185  1.0
  C  C48  1  0.47391077  0.77238123  0.60206949  1.0
  C  C49  1  0.49963271  0.84125227  0.54628722  1.0
  C  C50  1  0.08075566  0.27000183  0.45704723  1.0
  C  C51  1  0.15586481  0.21893854  0.44094500  1.0
  C  C52  1  0.16161648  0.20765445  0.34943216  1.0
  C  C53  1  0.09080860  0.25225729  0.30951507  1.0
  C  C54  1  0.79792218  0.64840663  0.30240141  1.0
  C  C55  1  0.72767980  0.69979507  0.33281541  1.0
  C  C56  1  0.72748406  0.69507553  0.42511151  1.0
  C  C57  1  0.79629903  0.63930298  0.45106902  1.0
  C  C58  1  0.11029572  0.74263913  0.91429324  1.0
  C  C59  1  0.90382754  0.71454475  0.67414026  1.0
  C  C60  1  0.67017437  0.76671458  0.85400893  1.0
  C  C61  1  0.13956403  0.92653179  0.67667672  1.0
  C  C62  1  0.72554647  0.18340228  0.83288931  1.0
  C  C63  1  0.98193757  0.09853696  0.12761094  1.0
  C  C64  1  0.72307672  0.94852298  0.62110852  1.0
  C  C65  1  0.96370224  0.15441166  0.65021164  1.0
  C  C66  1  0.17604658  0.02613291  0.00495081  1.0
  C  C67  1  0.88209700  0.76855256  0.09020314  1.0
  C  C68  1  0.69902771  0.00580701  0.06064487  1.0
  C  C69  1  0.05427315  0.22016636  0.93338363  1.0
  C  C70  1  0.86549768  0.70200888  0.15534287  1.0
  C  C71  1  0.83866671  0.66507070  0.22162847  1.0
  C  C72  1  0.86043043  0.65619081  0.61052501  1.0
  C  C73  1  0.83123179  0.63642323  0.53705267  1.0
  C  C74  1  0.02507464  0.16977139  0.17477975  1.0
  C  C75  1  0.05239124  0.22362163  0.22977923  1.0
  C  C76  1  0.98718745  0.22444850  0.59133542  1.0
  C  C77  1  0.02859585  0.25923153  0.53163660  1.0
  C  C78  1  0.00411257  0.43913316  0.43769140  1.0
  C  C79  1  0.99260429  0.37515221  0.37046005  1.0
  C  C80  1  0.93306043  0.39215641  0.30103558  1.0
  C  C81  1  0.88397657  0.47002416  0.30153117  1.0
  C  C82  1  0.89348982  0.53213598  0.37065819  1.0
  C  C83  1  0.95554333  0.51654509  0.43795386  1.0
  C  C84  1  0.26999261  0.88356944  0.57221459  1.0
  C  C85  1  0.20407153  0.91036260  0.60964933  1.0
  C  C86  1  0.58569322  0.87600635  0.54309665  1.0
  C  C87  1  0.65931328  0.90520091  0.56269089  1.0
  C  C88  1  0.22375256  0.07006880  0.07524766  1.0
  C  C89  1  0.27916914  0.09760271  0.12869671  1.0
  C  C90  1  0.58097096  0.07016607  0.16577342  1.0
  C  C91  1  0.64057429  0.02876112  0.13100793  1.0
  C  C92  1  0.48536363  0.04983227  0.34646434  1.0
  C  C93  1  0.41904703  0.03707698  0.28148092  1.0
  C  C94  1  0.35014402  0.97678707  0.29776626  1.0
  C  C95  1  0.35046521  0.92806205  0.37596495  1.0
  C  C96  1  0.41884443  0.93868277  0.43905746  1.0
  C  C97  1  0.48545466  0.00161558  0.42423804  1.0
  C  C98  1  0.65880851  0.24835142  0.81637386  1.0
  C  C99  1  0.62141473  0.31441894  0.78952548  1.0
  C  C100  1  0.61167101  0.70312825  0.81057869  1.0
  C  C101  1  0.59192159  0.62965460  0.78147841  1.0
  C  C102  1  0.17896184  0.32284987  0.00420229  1.0
  C  C103  1  0.12507219  0.26784059  0.97676352  1.0
  C  C104  1  0.21593329  0.62427462  0.97877506  1.0
  C  C105  1  0.18047052  0.68379724  0.93753599  1.0
  C  C106  1  0.34722772  0.39445912  0.88316530  1.0
  C  C107  1  0.33164421  0.46286555  0.94386663  1.0
  C  C108  1  0.39703209  0.52874713  0.95670784  1.0
  C  C109  1  0.47443818  0.52894666  0.90808619  1.0
  C  C110  1  0.48849688  0.46285835  0.84476174  1.0
  C  C111  1  0.42507296  0.39485407  0.83410007  1.0
  N  N112  1  0.25407384  0.46877390  0.99625691  1.0
  N  N113  1  0.56319476  0.46741223  0.78835034  1.0
  N  N114  1  0.42538450  0.08905511  0.20352385  1.0
  N  N115  1  0.42324077  0.88259277  0.51417030  1.0
  N  N116  1  0.04522258  0.29769914  0.37609408  1.0
  N  N117  1  0.83746194  0.60713339  0.37490641  1.0
  O  O118  1  0.08390442  0.78799072  0.98042633  1.0
  O  O119  1  0.92702794  0.79087424  0.64478593  1.0
  O  O120  1  0.74654751  0.73742123  0.87724711  1.0
  O  O121  1  0.08615492  0.86215128  0.69010171  1.0
  O  O122  1  0.14292181  0.99933985  0.72037030  1.0
  O  O123  1  0.65177402  0.84783125  0.86726444  1.0
  O  O124  1  0.91696489  0.69611926  0.75535527  1.0
  O  O125  1  0.07822268  0.74512989  0.83579529  1.0
  O  O126  1  0.95510625  0.97040065  0.75544374  1.0
  O  O127  1  0.92631989  0.84795153  0.90571978  1.0
  O  O128  1  0.82405586  0.86806994  0.77462372  1.0
  O  O129  1  0.07492097  0.91671764  0.86217830  1.0
  O  O130  1  0.73897651  0.13020961  0.76860288  1.0
  O  O131  1  0.01775290  0.02355398  0.12300811  1.0
  O  O132  1  0.69380994  0.97137876  0.69737060  1.0
  O  O133  1  0.02979792  0.12776687  0.69589609  1.0
  O  O134  1  0.17085059  0.06110612  0.92938882  1.0
  O  O135  1  0.81792738  0.78183644  0.03644926  1.0
  O  O136  1  0.74418429  0.07214623  0.03392971  1.0
  O  O137  1  0.97904342  0.21473138  0.96879121  1.0
  O  O138  1  0.70130672  0.92736990  0.02869755  1.0
  O  O139  1  0.07458391  0.18684595  0.85724487  1.0
  O  O140  1  0.80430356  0.96190118  0.60285863  1.0
  O  O141  1  0.95525394  0.81206693  0.09342079  1.0
  O  O142  1  0.14257327  0.95004833  0.02589186  1.0
  O  O143  1  0.88505426  0.12256331  0.65234073  1.0
  O  O144  1  0.76900598  0.18616372  0.90605618  1.0
  O  O145  1  0.90546162  0.11823240  0.09386628  1.0
  O  O146  1  0.98791565  0.03132713  0.93901802  1.0
  O  O147  1  0.80443324  0.99852989  0.87705655  1.0
  O  O148  1  0.87316259  0.95424451  0.02571277  1.0
  O  O149  1  0.91117776  0.11861045  0.82419491  1.0
