# generated using pymatgen
data_AlH4C7BrO5
_symmetry_space_group_name_H-M   'P 1'
_cell_length_a   6.69192567
_cell_length_b   12.60447654
_cell_length_c   17.55659492
_cell_angle_alpha   90.00101160
_cell_angle_beta   90.00106207
_cell_angle_gamma   98.51312828
_symmetry_Int_Tables_number   1
_chemical_formula_structural   AlH4C7BrO5
_chemical_formula_sum   'Al4 H16 C28 Br4 O20'
_cell_volume   1464.55128869
_cell_formula_units_Z   4
loop_
 _symmetry_equiv_pos_site_id
 _symmetry_equiv_pos_as_xyz
  1  'x, y, z'
loop_
 _atom_site_type_symbol
 _atom_site_label
 _atom_site_symmetry_multiplicity
 _atom_site_fract_x
 _atom_site_fract_y
 _atom_site_fract_z
 _atom_site_occupancy
  Al  Al0  1  0.18362872  0.76496098  0.74999372  1.0
  Al  Al1  1  0.81580034  0.23502235  0.24999299  1.0
  Al  Al2  1  0.68155336  0.76023853  0.74999143  1.0
  Al  Al3  1  0.31771072  0.23886762  0.24999243  1.0
  H  H4  1  0.18015243  0.97962075  0.92563846  1.0
  H  H5  1  0.82227452  0.02381788  0.07309120  1.0
  H  H6  1  0.82227335  0.02381989  0.42691380  1.0
  H  H7  1  0.18013167  0.97959478  0.57432546  1.0
  H  H8  1  0.20788628  0.08010305  0.05004339  1.0
  H  H9  1  0.79469455  0.92326424  0.94872159  1.0
  H  H10  1  0.79468323  0.92326405  0.55127778  1.0
  H  H11  1  0.20788472  0.08010494  0.44994041  1.0
  H  H12  1  0.27291672  0.45278691  0.05608415  1.0
  H  H13  1  0.72627698  0.54796208  0.94442658  1.0
  H  H14  1  0.72627956  0.54796276  0.55555106  1.0
  H  H15  1  0.27290404  0.45279268  0.44391334  1.0
  H  H16  1  0.38722980  0.62054972  0.75010116  1.0
  H  H17  1  0.61038698  0.37935867  0.25010597  1.0
  H  H18  1  0.96611095  0.90459245  0.75003091  1.0
  H  H19  1  0.03207168  0.09480027  0.25004863  1.0
  C  C20  1  0.46793783  0.88437357  0.85722582  1.0
  C  C21  1  0.53270178  0.11606801  0.14249889  1.0
  C  C22  1  0.53270618  0.11605991  0.35748363  1.0
  C  C23  1  0.46788788  0.88433849  0.64275143  1.0
  C  C24  1  0.51607819  0.05650437  0.06875579  1.0
  C  C25  1  0.48591089  0.94604379  0.93018689  1.0
  C  C26  1  0.48587754  0.94602658  0.56979183  1.0
  C  C27  1  0.51608442  0.05649523  0.43123724  1.0
  C  C28  1  0.31976428  0.98979507  0.95850016  1.0
  C  C29  1  0.68266920  0.01348772  0.04021696  1.0
  C  C30  1  0.68267252  0.01348425  0.45977725  1.0
  C  C31  1  0.31973400  0.98977780  0.54147682  1.0
  C  C32  1  0.89934888  0.63338686  0.64655162  1.0
  C  C33  1  0.09806382  0.35910014  0.35700577  1.0
  C  C34  1  0.09806227  0.35910261  0.14299332  1.0
  C  C35  1  0.89938047  0.63340584  0.85344538  1.0
  C  C36  1  0.33478881  0.04488883  0.02737577  1.0
  C  C37  1  0.66763406  0.95837312  0.97134079  1.0
  C  C38  1  0.66761947  0.95837067  0.52865187  1.0
  C  C39  1  0.33477984  0.04487696  0.47260903  1.0
  C  C40  1  0.87708153  0.55979909  0.91943144  1.0
  C  C41  1  0.11762789  0.42074780  0.07110740  1.0
  C  C42  1  0.11763933  0.42073134  0.42889659  1.0
  C  C43  1  0.87707441  0.55978288  0.58056675  1.0
  C  C44  1  0.01532211  0.50670562  0.95274893  1.0
  C  C45  1  0.97217875  0.44038042  0.02175011  1.0
  C  C46  1  0.97217883  0.44033735  0.47825492  1.0
  C  C47  1  0.01531456  0.50667317  0.54726142  1.0
  Br  Br48  1  0.69413989  0.38591466  0.03746483  1.0
  Br  Br49  1  0.28377655  0.51480366  0.91458932  1.0
  Br  Br50  1  0.28375487  0.51478284  0.58542755  1.0
  Br  Br51  1  0.69415037  0.38583334  0.46255239  1.0
  O  O52  1  0.62936996  0.85796107  0.67056416  1.0
  O  O53  1  0.37068034  0.14137463  0.32940033  1.0
  O  O54  1  0.37069311  0.14139070  0.17058366  1.0
  O  O55  1  0.62941320  0.85795761  0.82943836  1.0
  O  O56  1  0.29189377  0.86263713  0.82828780  1.0
  O  O57  1  0.70824080  0.13717370  0.17188801  1.0
  O  O58  1  0.70824594  0.13715269  0.32809370  1.0
  O  O59  1  0.29181478  0.86254922  0.67165150  1.0
  O  O60  1  0.07450169  0.66553263  0.82722808  1.0
  O  O61  1  0.92446389  0.33345271  0.17240206  1.0
  O  O62  1  0.92445879  0.33344779  0.32759445  1.0
  O  O63  1  0.07444978  0.66546552  0.67280747  1.0
  O  O64  1  0.41334036  0.69816347  0.75000264  1.0
  O  O65  1  0.58564268  0.30176154  0.25000116  1.0
  O  O66  1  0.73378212  0.65938663  0.67180383  1.0
  O  O67  1  0.26447274  0.33740264  0.32947696  1.0
  O  O68  1  0.26446917  0.33739871  0.17051618  1.0
  O  O69  1  0.73380376  0.65936073  0.82816273  1.0
  O  O70  1  0.94867804  0.82700329  0.74999163  1.0
  O  O71  1  0.05048171  0.17239888  0.24998994  1.0
