# generated using pymatgen
data_Ni2MoH60C32(N5O)4
_symmetry_space_group_name_H-M   'P 1'
_cell_length_a   14.81402589
_cell_length_b   14.81710849
_cell_length_c   16.69325497
_cell_angle_alpha   105.37595552
_cell_angle_beta   105.37943044
_cell_angle_gamma   112.66548898
_symmetry_Int_Tables_number   1
_chemical_formula_structural   Ni2MoH60C32(N5O)4
_chemical_formula_sum   'Ni4 Mo2 H120 C64 N40 O8'
_cell_volume   2969.27378914
_cell_formula_units_Z   2
loop_
 _symmetry_equiv_pos_site_id
 _symmetry_equiv_pos_as_xyz
  1  'x, y, z'
loop_
 _atom_site_type_symbol
 _atom_site_label
 _atom_site_symmetry_multiplicity
 _atom_site_fract_x
 _atom_site_fract_y
 _atom_site_fract_z
 _atom_site_occupancy
  Ni  Ni0  1  0.00001173  0.50000770  0.00000225  1.0
  Ni  Ni1  1  0.50000116  0.00000830  0.49999927  1.0
  Ni  Ni2  1  0.99999285  0.00001872  0.50002166  1.0
  Ni  Ni3  1  0.00001733  0.99999150  0.00001821  1.0
  Mo  Mo4  1  0.87288954  0.12706702  0.75001393  1.0
  Mo  Mo5  1  0.12707123  0.87289802  0.25000664  1.0
  H  H6  1  0.12721227  0.41834937  0.90351406  1.0
  H  H7  1  0.25990500  0.52660454  0.97211334  1.0
  H  H8  1  0.09366431  0.34404658  0.01232070  1.0
  H  H9  1  0.23162070  0.43036726  0.08951179  1.0
  H  H10  1  0.99714068  0.37905466  0.18651196  1.0
  H  H11  1  0.96116277  0.31507099  0.06679432  1.0
  H  H12  1  0.18706664  0.65668232  0.97447125  1.0
  H  H13  1  0.16853166  0.57960610  0.86310478  1.0
  H  H14  1  0.80010048  0.99951016  0.37477721  1.0
  H  H15  1  0.79265215  0.93297257  0.26504924  1.0
  H  H16  1  0.74821039  0.85559245  0.41785675  1.0
  H  H17  1  0.71577460  0.76329505  0.30767825  1.0
  H  H18  1  0.86368283  0.73400397  0.53744718  1.0
  H  H19  1  0.83470000  0.84157433  0.54894776  1.0
  H  H20  1  0.93193566  0.12647178  0.33305342  1.0
  H  H21  1  0.99341638  0.04426185  0.32395432  1.0
  H  H22  1  0.15751383  0.53530940  0.27578920  1.0
  H  H23  1  0.23507111  0.59749333  0.22313802  1.0
  H  H24  1  0.25685039  0.43985446  0.30344401  1.0
  H  H25  1  0.32462598  0.48034137  0.23467676  1.0
  H  H26  1  0.86019520  0.63755439  0.40633522  1.0
  H  H27  1  0.92216891  0.73351671  0.36612056  1.0
  H  H28  1  0.68664678  0.55647990  0.26916427  1.0
  H  H29  1  0.75655736  0.64710012  0.22628008  1.0
  H  H30  1  0.20337559  0.57931653  0.08747730  1.0
  H  H31  1  0.98909032  0.46352778  0.83473048  1.0
  H  H32  1  0.89520992  0.86469667  0.32847968  1.0
  H  H33  1  0.98361233  0.16098775  0.49048165  1.0
  H  H34  1  0.42117412  0.59031975  0.39500140  1.0
  H  H35  1  0.87986124  0.57447466  0.25538701  1.0
  H  H36  1  0.58165453  0.87281667  0.59648161  1.0
  H  H37  1  0.47340144  0.74011526  0.52788846  1.0
  H  H38  1  0.65594952  0.90635211  0.48767274  1.0
  H  H39  1  0.56963172  0.76839551  0.41047563  1.0
  H  H40  1  0.62092911  0.00286789  0.31346895  1.0
  H  H41  1  0.68491150  0.03885542  0.43319159  1.0
  H  H42  1  0.34330703  0.81293187  0.52552027  1.0
  H  H43  1  0.42040291  0.83149185  0.63689342  1.0
  H  H44  1  0.00050676  0.19990897  0.12522674  1.0
  H  H45  1  0.06704018  0.20735761  0.23495365  1.0
  H  H46  1  0.14441166  0.25179730  0.08214884  1.0
  H  H47  1  0.23670815  0.28424112  0.19232419  1.0
  H  H48  1  0.26600261  0.13634447  0.96254859  1.0
  H  H49  1  0.15843006  0.16531958  0.95105660  1.0
  H  H50  1  0.87353981  0.06807538  0.16695079  1.0
  H  H51  1  0.95575210  0.00659174  0.17604649  1.0
  H  H52  1  0.46468100  0.84248810  0.22419830  1.0
  H  H53  1  0.40249977  0.76492690  0.27684796  1.0
  H  H54  1  0.56015329  0.74316352  0.19655036  1.0
  H  H55  1  0.51966673  0.67538676  0.26532095  1.0
  H  H56  1  0.36244533  0.13981769  0.09365858  1.0
  H  H57  1  0.26648341  0.07783625  0.13386611  1.0
  H  H58  1  0.44352719  0.31335317  0.23083733  1.0
  H  H59  1  0.35289396  0.24344696  0.27371643  1.0
  H  H60  1  0.42067931  0.79662095  0.41250962  1.0
  H  H61  1  0.53646341  0.01092378  0.66525154  1.0
  H  H62  1  0.13532575  0.10480413  0.17153412  1.0
  H  H63  1  0.83903649  0.01639508  0.00951755  1.0
  H  H64  1  0.40969920  0.57883252  0.10499511  1.0
  H  H65  1  0.42550357  0.12012901  0.24460718  1.0
  H  H66  1  0.87281180  0.58164812  0.09647913  1.0
  H  H67  1  0.74011219  0.47339915  0.02788388  1.0
  H  H68  1  0.90635402  0.65594922  0.98767186  1.0
  H  H69  1  0.76839880  0.56963513  0.91047609  1.0
  H  H70  1  0.00287621  0.62094526  0.81347646  1.0
  H  H71  1  0.03885716  0.68491933  0.93319429  1.0
  H  H72  1  0.81293513  0.34330834  0.02552197  1.0
  H  H73  1  0.83148629  0.42039765  0.13689084  1.0
  H  H74  1  0.19990935  0.00051022  0.62522231  1.0
  H  H75  1  0.20736231  0.06704299  0.73495322  1.0
  H  H76  1  0.25178990  0.14440994  0.58214738  1.0
  H  H77  1  0.28423710  0.23670913  0.69232673  1.0
  H  H78  1  0.13633780  0.26600536  0.46255167  1.0
  H  H79  1  0.16531171  0.15842986  0.45105662  1.0
  H  H80  1  0.06808102  0.87353821  0.66694822  1.0
  H  H81  1  0.00659503  0.95575038  0.67605017  1.0
  H  H82  1  0.84249658  0.46468307  0.72420239  1.0
  H  H83  1  0.76494010  0.40250800  0.77685355  1.0
  H  H84  1  0.74317447  0.56015494  0.69655530  1.0
  H  H85  1  0.67540238  0.51967680  0.76532737  1.0
  H  H86  1  0.13980863  0.36244611  0.59365253  1.0
  H  H87  1  0.07783445  0.26649013  0.63387043  1.0
  H  H88  1  0.31334702  0.44354921  0.73082926  1.0
  H  H89  1  0.24345362  0.35292112  0.77371813  1.0
  H  H90  1  0.79663207  0.42068320  0.91251181  1.0
  H  H91  1  0.01092059  0.53646409  0.16525449  1.0
  H  H92  1  0.10480415  0.13532725  0.67153972  1.0
  H  H93  1  0.01639846  0.83903747  0.50951809  1.0
  H  H94  1  0.57884725  0.40970562  0.60499978  1.0
  H  H95  1  0.12011453  0.42550854  0.74459798  1.0
  H  H96  1  0.41833563  0.12720923  0.40350963  1.0
  H  H97  1  0.52659934  0.25990248  0.47211357  1.0
  H  H98  1  0.34404165  0.09366729  0.51232134  1.0
  H  H99  1  0.43037299  0.23162420  0.58951587  1.0
  H  H100  1  0.37905677  0.99713735  0.68651076  1.0
  H  H101  1  0.31506742  0.96116162  0.56679291  1.0
  H  H102  1  0.65667635  0.18706420  0.47446915  1.0
  H  H103  1  0.57959394  0.16852766  0.36310029  1.0
  H  H104  1  0.99950793  0.80010264  0.87477302  1.0
  H  H105  1  0.93297303  0.79265086  0.76504257  1.0
  H  H106  1  0.85559688  0.74821026  0.91784840  1.0
  H  H107  1  0.76329987  0.71576815  0.80766915  1.0
  H  H108  1  0.73399560  0.86366890  0.03743556  1.0
  H  H109  1  0.84157272  0.83469196  0.04893841  1.0
  H  H110  1  0.12647184  0.93193861  0.83304820  1.0
  H  H111  1  0.04426015  0.99341911  0.82395067  1.0
  H  H112  1  0.53531983  0.15751329  0.77578474  1.0
  H  H113  1  0.59749730  0.23506811  0.72313079  1.0
  H  H114  1  0.43986625  0.25685225  0.80344801  1.0
  H  H115  1  0.48035163  0.32462810  0.73467990  1.0
  H  H116  1  0.63755629  0.86018532  0.90632445  1.0
  H  H117  1  0.73351662  0.92216046  0.86611139  1.0
  H  H118  1  0.55649163  0.68663214  0.76915697  1.0
  H  H119  1  0.64711173  0.75654719  0.72626963  1.0
  H  H120  1  0.57931459  0.20337061  0.58747529  1.0
  H  H121  1  0.46351861  0.98908636  0.33472304  1.0
  H  H122  1  0.86469088  0.89520734  0.82847206  1.0
  H  H123  1  0.16098293  0.98361904  0.99048218  1.0
  H  H124  1  0.59033387  0.42117632  0.89500069  1.0
  H  H125  1  0.57446654  0.87983811  0.75537366  1.0
  C  C126  1  0.90055631  0.26469573  0.85526343  1.0
  C  C127  1  0.93297438  0.26628864  0.72133979  1.0
  C  C128  1  0.89331171  0.07015678  0.62702538  1.0
  C  C129  1  0.82129840  0.95882123  0.70531236  1.0
  C  C130  1  0.17450723  0.50146743  0.95560989  1.0
  C  C131  1  0.15090011  0.42279645  0.06931959  1.0
  C  C132  1  0.01004139  0.39203463  0.12730620  1.0
  C  C133  1  0.14474328  0.57529428  0.91960746  1.0
  C  C134  1  0.84417436  0.97381129  0.33888134  1.0
  C  C135  1  0.77951080  0.81541872  0.37706015  1.0
  C  C136  1  0.86864522  0.79841780  0.51436409  1.0
  C  C137  1  0.94887458  0.07070123  0.35868044  1.0
  C  C138  1  0.19924492  0.52217329  0.23209737  1.0
  C  C139  1  0.28933809  0.50460329  0.28123673  1.0
  C  C140  1  0.84513315  0.68436653  0.36825108  1.0
  C  C141  1  0.76569911  0.60465923  0.27063942  1.0
  C  C142  1  0.73527213  0.09944267  0.64482878  1.0
  C  C143  1  0.73360212  0.06695041  0.77871995  1.0
  C  C144  1  0.92981247  0.10664062  0.87305656  1.0
  C  C145  1  0.04106404  0.17859191  0.79471024  1.0
  C  C146  1  0.49853261  0.82550687  0.54438065  1.0
  C  C147  1  0.57720253  0.84911205  0.43066996  1.0
  C  C148  1  0.60794718  0.98996746  0.37267491  1.0
  C  C149  1  0.42470195  0.85527061  0.58038467  1.0
  C  C150  1  0.02620198  0.15583192  0.16112201  1.0
  C  C151  1  0.18458718  0.22049643  0.12294383  1.0
  C  C152  1  0.20158217  0.13136602  0.98563279  1.0
  C  C153  1  0.92931128  0.05113387  0.14132322  1.0
  C  C154  1  0.47782318  0.80075889  0.26788839  1.0
  C  C155  1  0.49540646  0.71067369  0.21875946  1.0
  C  C156  1  0.31563355  0.15487652  0.13174453  1.0
  C  C157  1  0.39534076  0.23430231  0.22935833  1.0
  C  C158  1  0.09945084  0.73528084  0.14480494  1.0
  C  C159  1  0.06696802  0.73363208  0.27870072  1.0
  C  C160  1  0.10666009  0.92981926  0.37303957  1.0
  C  C161  1  0.17860583  0.04110419  0.29470853  1.0
  C  C162  1  0.82550880  0.49853079  0.04438091  1.0
  C  C163  1  0.84911878  0.57720339  0.93067290  1.0
  C  C164  1  0.98997554  0.60795810  0.87268047  1.0
  C  C165  1  0.85526724  0.42469984  0.08038277  1.0
  C  C166  1  0.15583648  0.02620413  0.66112380  1.0
  C  C167  1  0.22049536  0.18458855  0.62294601  1.0
  C  C168  1  0.13136568  0.20158892  0.48563592  1.0
  C  C169  1  0.05113822  0.92931100  0.64132499  1.0
  C  C170  1  0.80077018  0.47782887  0.76789596  1.0
  C  C171  1  0.71068331  0.49540765  0.71876270  1.0
  C  C172  1  0.15487373  0.31564188  0.63174357  1.0
  C  C173  1  0.23429942  0.39535945  0.72935629  1.0
  C  C174  1  0.26469062  0.90054781  0.35523150  1.0
  C  C175  1  0.26631192  0.93299715  0.22132019  1.0
  C  C176  1  0.07016699  0.89331901  0.12699604  1.0
  C  C177  1  0.95887068  0.82135726  0.20531441  1.0
  C  C178  1  0.50145882  0.17450709  0.45560677  1.0
  C  C179  1  0.42279313  0.15090350  0.56932069  1.0
  C  C180  1  0.39203427  0.01004169  0.62730587  1.0
  C  C181  1  0.57528422  0.14473686  0.41960165  1.0
  C  C182  1  0.97380940  0.84417570  0.83887475  1.0
  C  C183  1  0.81542017  0.77950715  0.87705094  1.0
  C  C184  1  0.79841874  0.86864158  0.01435839  1.0
  C  C185  1  0.07069771  0.94887609  0.85867472  1.0
  C  C186  1  0.52217770  0.19924408  0.73209565  1.0
  C  C187  1  0.50461257  0.28933809  0.78123721  1.0
  C  C188  1  0.68437076  0.84512487  0.86824056  1.0
  C  C189  1  0.60466518  0.76568375  0.77062939  1.0
  N  N190  1  0.92189963  0.34228920  0.91609130  1.0
  N  N191  1  0.96981806  0.34599998  0.71098850  1.0
  N  N192  1  0.90672209  0.03705087  0.56145859  1.0
  N  N193  1  0.79488718  0.86716832  0.68522036  1.0
  N  N194  1  0.14894423  0.50517780  0.03565979  1.0
  N  N195  1  0.12185804  0.42882440  0.14597759  1.0
  N  N196  1  0.02831337  0.53423513  0.89234378  1.0
  N  N197  1  0.87069191  0.90109882  0.37307944  1.0
  N  N198  1  0.80750937  0.74945365  0.41704765  1.0
  N  N199  1  0.01656351  0.12315937  0.45734213  1.0
  N  N200  1  0.65771377  0.07813600  0.58396833  1.0
  N  N201  1  0.65385185  0.03011190  0.78903725  1.0
  N  N202  1  0.96297762  0.09325249  0.93862713  1.0
  N  N203  1  0.13272890  0.20502808  0.81474529  1.0
  N  N204  1  0.49481681  0.85106270  0.46432874  1.0
  N  N205  1  0.57117051  0.87815771  0.35401130  1.0
  N  N206  1  0.46575241  0.97169124  0.60763627  1.0
  N  N207  1  0.09891904  0.12931924  0.12693264  1.0
  N  N208  1  0.25054998  0.19249989  0.08294892  1.0
  N  N209  1  0.87685399  0.98343873  0.04266259  1.0
  N  N210  1  0.07813423  0.65772139  0.08395666  1.0
  N  N211  1  0.03013246  0.65390063  0.28902869  1.0
  N  N212  1  0.09327856  0.96297451  0.43861420  1.0
  N  N213  1  0.20503766  0.13275474  0.31475469  1.0
  N  N214  1  0.85106895  0.49482035  0.96433148  1.0
  N  N215  1  0.87816119  0.57117466  0.85401419  1.0
  N  N216  1  0.97169569  0.46575586  0.10764232  1.0
  N  N217  1  0.12931563  0.09892025  0.62693657  1.0
  N  N218  1  0.19250158  0.25055465  0.58295336  1.0
  N  N219  1  0.98344418  0.87685679  0.54266301  1.0
  N  N220  1  0.34228267  0.92188852  0.41607564  1.0
  N  N221  1  0.34604369  0.96984320  0.21098102  1.0
  N  N222  1  0.03704574  0.90672082  0.06142465  1.0
  N  N223  1  0.86720233  0.79492859  0.18523960  1.0
  N  N224  1  0.50517177  0.14894245  0.53565581  1.0
  N  N225  1  0.42882153  0.12185464  0.64597647  1.0
  N  N226  1  0.53422635  0.02831231  0.39234187  1.0
  N  N227  1  0.90109492  0.87068664  0.87307031  1.0
  N  N228  1  0.74945771  0.80750863  0.91704235  1.0
  N  N229  1  0.12315654  0.01656720  0.95733653  1.0
  O  O230  1  0.36917282  0.60391000  0.35827779  1.0
  O  O231  1  0.80170931  0.53211315  0.23709436  1.0
  O  O232  1  0.39610016  0.63082705  0.14171021  1.0
  O  O233  1  0.46787737  0.19827374  0.26290115  1.0
  O  O234  1  0.63083847  0.39610323  0.64171972  1.0
  O  O235  1  0.19826492  0.46789005  0.76289337  1.0
  O  O236  1  0.60392456  0.36917609  0.85828273  1.0
  O  O237  1  0.53210955  0.80169043  0.73708130  1.0
