# generated using pymatgen
data_Zn4H20(C8O5)5
_symmetry_space_group_name_H-M   'P 1'
_cell_length_a   23.78628086
_cell_length_b   23.78644513
_cell_length_c   23.78477580
_cell_angle_alpha   66.51871685
_cell_angle_beta   72.49278883
_cell_angle_gamma   107.50352978
_symmetry_Int_Tables_number   1
_chemical_formula_structural   Zn4H20(C8O5)5
_chemical_formula_sum   'Zn8 H40 C80 O50'
_cell_volume   10320.73448970
_cell_formula_units_Z   2
loop_
 _symmetry_equiv_pos_site_id
 _symmetry_equiv_pos_as_xyz
  1  'x, y, z'
loop_
 _atom_site_type_symbol
 _atom_site_label
 _atom_site_symmetry_multiplicity
 _atom_site_fract_x
 _atom_site_fract_y
 _atom_site_fract_z
 _atom_site_occupancy
  Zn  Zn0  1  0.05766131  0.09976558  0.45788485  1.0
  Zn  Zn1  1  0.05765935  0.95789334  0.48444311  1.0
  Zn  Zn2  1  0.94233407  0.95788384  0.59977677  1.0
  Zn  Zn3  1  0.94235139  0.98445833  0.45788094  1.0
  Zn  Zn4  1  0.94233808  0.40023387  0.04211472  1.0
  Zn  Zn5  1  0.05766796  0.54211561  0.90022200  1.0
  Zn  Zn6  1  0.94234058  0.54210623  0.01555319  1.0
  Zn  Zn7  1  0.05764657  0.51554433  0.04211960  1.0
  H  H8  1  0.92296432  0.27061220  0.96480551  1.0
  H  H9  1  0.07703315  0.46481107  0.77057693  1.0
  H  H10  1  0.92296461  0.03519153  0.72942020  1.0
  H  H11  1  0.07698413  0.22940201  0.53517708  1.0
  H  H12  1  0.07704593  0.61226468  0.15233447  1.0
  H  H13  1  0.92297447  0.65239174  0.11220532  1.0
  H  H14  1  0.07698634  0.84757917  0.38782185  1.0
  H  H15  1  0.92296538  0.88777053  0.34763260  1.0
  H  H16  1  0.73540364  0.27060266  0.15239682  1.0
  H  H17  1  0.73540220  0.46481301  0.11220645  1.0
  H  H18  1  0.26459900  0.03518549  0.38779957  1.0
  H  H19  1  0.26459719  0.22938162  0.34767424  1.0
  H  H20  1  0.26460707  0.65242374  0.77059420  1.0
  H  H21  1  0.26458772  0.61220196  0.96483262  1.0
  H  H22  1  0.73541493  0.88780226  0.53516630  1.0
  H  H23  1  0.73539253  0.84764427  0.72939377  1.0
  H  H24  1  0.91944184  0.08210833  0.33733309  1.0
  H  H25  1  0.08056228  0.41789431  0.16266391  1.0
  H  H26  1  0.91943777  0.25677204  0.16266776  1.0
  H  H27  1  0.08056606  0.24322903  0.33732911  1.0
  H  H28  1  0.91943637  0.83732664  0.74324293  1.0
  H  H29  1  0.08056511  0.66267343  0.75675523  1.0
  H  H30  1  0.91943762  0.66265875  0.91790951  1.0
  H  H31  1  0.08056382  0.83734028  0.58208866  1.0
  H  H32  1  0.08023786  0.37980628  0.67757440  1.0
  H  H33  1  0.91974911  0.17760035  0.87981035  1.0
  H  H34  1  0.08017861  0.32241861  0.62016525  1.0
  H  H35  1  0.91978171  0.12019104  0.82242749  1.0
  H  H36  1  0.91975840  0.74217857  0.20042629  1.0
  H  H37  1  0.08024762  0.70046835  0.24213998  1.0
  H  H38  1  0.91978398  0.79959354  0.25780029  1.0
  H  H39  1  0.08018189  0.75776515  0.29962753  1.0
  H  H40  1  0.55739355  0.37981595  0.20039418  1.0
  H  H41  1  0.55739535  0.17759054  0.24222094  1.0
  H  H42  1  0.44260610  0.32238741  0.25787430  1.0
  H  H43  1  0.44260655  0.12018782  0.29958569  1.0
  H  H44  1  0.44259316  0.70038702  0.87983658  1.0
  H  H45  1  0.44261373  0.74224785  0.67757943  1.0
  H  H46  1  0.55738373  0.75784789  0.82239987  1.0
  H  H47  1  0.55740912  0.79959262  0.62016632  1.0
  C  C48  1  0.18251820  0.09124813  0.40875534  1.0
  C  C49  1  0.99999621  0.86036035  0.63963950  1.0
  C  C50  1  0.99998124  0.09124986  0.59126385  1.0
  C  C51  1  0.81748432  0.90875690  0.59124003  1.0
  C  C52  1  0.00000842  0.13964258  0.36035480  1.0
  C  C53  1  0.99999123  0.90873204  0.40874807  1.0
  C  C54  1  0.00000294  0.40875484  0.90873023  1.0
  C  C55  1  0.00000503  0.63963921  0.86035768  1.0
  C  C56  1  0.81748210  0.40874459  0.09126627  1.0
  C  C57  1  0.99999883  0.59127427  0.09124529  1.0
  C  C58  1  0.99999595  0.36036060  0.13964149  1.0
  C  C59  1  0.18251610  0.59126249  0.90875523  1.0
  C  C60  1  0.00000434  0.19575384  0.30424520  1.0
  C  C61  1  0.00000091  0.30424949  0.19575036  1.0
  C  C62  1  0.95607761  0.17917327  0.27690228  1.0
  C  C63  1  0.04392715  0.32082886  0.22309390  1.0
  C  C64  1  0.95607575  0.23297887  0.22309679  1.0
  C  C65  1  0.04392838  0.26702378  0.27689979  1.0
  C  C66  1  0.99999917  0.80424858  0.69575091  1.0
  C  C67  1  0.00000344  0.69575203  0.80424586  1.0
  C  C68  1  0.95607460  0.77689904  0.76703043  1.0
  C  C69  1  0.04392689  0.72310105  0.73296773  1.0
  C  C70  1  0.95607510  0.72309239  0.82083632  1.0
  C  C71  1  0.04392707  0.77690821  0.67916100  1.0
  C  C72  1  0.99999809  0.37122489  0.87120331  1.0
  C  C73  1  0.95646243  0.29920490  0.90885219  1.0
  C  C74  1  0.95644123  0.26429496  0.87392655  1.0
  C  C75  1  0.99999099  0.30088782  0.80087230  1.0
  C  C76  1  0.04354690  0.37393264  0.76426943  1.0
  C  C77  1  0.04353408  0.40886149  0.79917554  1.0
  C  C78  1  0.99998428  0.26547954  0.76546699  1.0
  C  C79  1  0.99997774  0.23453239  0.73451870  1.0
  C  C80  1  0.99997255  0.19912358  0.69911272  1.0
  C  C81  1  0.95643552  0.12607207  0.73572224  1.0
  C  C82  1  0.95644834  0.09114322  0.70081739  1.0
  C  C83  1  0.99997216  0.12878388  0.62878620  1.0
  C  C84  1  0.04349499  0.20080771  0.59113295  1.0
  C  C85  1  0.04351231  0.23571975  0.62605556  1.0
  C  C86  1  0.00000925  0.62881626  0.12875945  1.0
  C  C87  1  0.04354612  0.63471321  0.15724156  1.0
  C  C88  1  0.04356460  0.66965824  0.19213055  1.0
  C  C89  1  0.00000635  0.69914602  0.19909385  1.0
  C  C90  1  0.95645415  0.69218914  0.16960087  1.0
  C  C91  1  0.95647305  0.65730008  0.13465527  1.0
  C  C92  1  0.99999790  0.73453951  0.23451590  1.0
  C  C93  1  0.99998790  0.76546523  0.26548021  1.0
  C  C94  1  0.99997716  0.80085678  0.30090373  1.0
  C  C95  1  0.04351536  0.80779484  0.33041513  1.0
  C  C96  1  0.04349758  0.84268441  0.36535977  1.0
  C  C97  1  0.99997643  0.87118550  0.37123831  1.0
  C  C98  1  0.95644991  0.86530423  0.34274138  1.0
  C  C99  1  0.95643605  0.83036443  0.30784682  1.0
  C  C100  1  0.74242558  0.37121822  0.12879257  1.0
  C  C101  1  0.70804687  0.29919760  0.15729003  1.0
  C  C102  1  0.63821269  0.26428892  0.19218444  1.0
  C  C103  1  0.60176123  0.30088577  0.19912745  1.0
  C  C104  1  0.63821032  0.37393526  0.16961183  1.0
  C  C105  1  0.70804524  0.40886179  0.13467059  1.0
  C  C106  1  0.53094808  0.26547404  0.23454330  1.0
  C  C107  1  0.46905288  0.23451341  0.26550628  1.0
  C  C108  1  0.39823953  0.19910220  0.30091988  1.0
  C  C109  1  0.36179095  0.12605956  0.33040866  1.0
  C  C110  1  0.29195623  0.09113250  0.36535131  1.0
  C  C111  1  0.25757503  0.12877134  0.37124703  1.0
  C  C112  1  0.29195321  0.20078984  0.34276822  1.0
  C  C113  1  0.36178725  0.23569535  0.30788353  1.0
  C  C114  1  0.25757243  0.62879986  0.87122505  1.0
  C  C115  1  0.29195792  0.65731018  0.79919471  1.0
  C  C116  1  0.36179304  0.69220477  0.76428459  1.0
  C  C117  1  0.39823924  0.69913856  0.80088988  1.0
  C  C118  1  0.36178294  0.66961555  0.87394849  1.0
  C  C119  1  0.29194741  0.63467442  0.90887426  1.0
  C  C120  1  0.46905269  0.73454714  0.76547730  1.0
  C  C121  1  0.53094819  0.76549891  0.73451102  1.0
  C  C122  1  0.60176175  0.80090488  0.69909859  1.0
  C  C123  1  0.63821864  0.83040539  0.62604706  1.0
  C  C124  1  0.70805330  0.86534654  0.59112071  1.0
  C  C125  1  0.74242802  0.87123575  0.62876796  1.0
  C  C126  1  0.70804175  0.84274372  0.70079464  1.0
  C  C127  1  0.63820645  0.80785540  0.73570274  1.0
  O  O128  1  0.00000030  0.99999951  0.49999932  1.0
  O  O129  1  0.15335647  0.12781288  0.41253910  1.0
  O  O130  1  0.04024334  0.88420054  0.57555260  1.0
  O  O131  1  0.95963028  0.02552261  0.62783519  1.0
  O  O132  1  0.15335743  0.02552603  0.43411132  1.0
  O  O133  1  0.04034477  0.12781244  0.52553293  1.0
  O  O134  1  0.95974883  0.88419234  0.65605370  1.0
  O  O135  1  0.84664285  0.91253897  0.62780946  1.0
  O  O136  1  0.95976506  0.07556307  0.38418945  1.0
  O  O137  1  0.84665056  0.93412856  0.52550848  1.0
  O  O138  1  0.04025332  0.15604888  0.38419077  1.0
  O  O139  1  0.04035068  0.91252826  0.43411299  1.0
  O  O140  1  0.95964763  0.93411645  0.41252531  1.0
  O  O141  1  0.99999963  0.50000005  0.99999950  1.0
  O  O142  1  0.95964329  0.37219017  0.97446166  1.0
  O  O143  1  0.04025265  0.61580773  0.84394446  1.0
  O  O144  1  0.84664364  0.47446934  0.06589556  1.0
  O  O145  1  0.04036547  0.47447946  0.87216149  1.0
  O  O146  1  0.84664251  0.37217986  0.08747786  1.0
  O  O147  1  0.95975562  0.61579694  0.92444524  1.0
  O  O148  1  0.95963953  0.58747663  0.06588132  1.0
  O  O149  1  0.04023559  0.42444063  0.11580944  1.0
  O  O150  1  0.04034657  0.56589419  0.08746382  1.0
  O  O151  1  0.95975277  0.34395325  0.11580458  1.0
  O  O152  1  0.15335874  0.58747152  0.87218687  1.0
  O  O153  1  0.15334791  0.56588091  0.97448877  1.0
  O  O154  1  0.91294126  0.11300977  0.29993388  1.0
  O  O155  1  0.08706418  0.38699288  0.20006147  1.0
  O  O156  1  0.91294018  0.21287348  0.20006856  1.0
  O  O157  1  0.08706390  0.28712812  0.29992886  1.0
  O  O158  1  0.91293905  0.79992671  0.78714293  1.0
  O  O159  1  0.08706219  0.70007284  0.71285551  1.0
  O  O160  1  0.91293800  0.70005934  0.88700991  1.0
  O  O161  1  0.08706393  0.79994074  0.61298769  1.0
  O  O162  1  0.08631992  0.41151673  0.69421431  1.0
  O  O163  1  0.91366627  0.19424589  0.91151929  1.0
  O  O164  1  0.08626811  0.30577411  0.58845641  1.0
  O  O165  1  0.91368244  0.08848533  0.80578291  1.0
  O  O166  1  0.91368057  0.71946189  0.17479136  1.0
  O  O167  1  0.08633880  0.67485047  0.21940537  1.0
  O  O168  1  0.91368165  0.82519781  0.28054787  1.0
  O  O169  1  0.08627295  0.78049804  0.32524658  1.0
  O  O170  1  0.60574550  0.41152227  0.17478278  1.0
  O  O171  1  0.60574771  0.19423552  0.21947979  1.0
  O  O172  1  0.39425309  0.30574296  0.28061208  1.0
  O  O173  1  0.39425527  0.08847625  0.32521957  1.0
  O  O174  1  0.39424089  0.67477288  0.91154447  1.0
  O  O175  1  0.39426226  0.71951384  0.69422225  1.0
  O  O176  1  0.60573509  0.78057405  0.80575851  1.0
  O  O177  1  0.60576211  0.82522925  0.58845392  1.0
