# generated using pymatgen
data_ZnH7C7(NO)3
_symmetry_space_group_name_H-M   'P 1'
_cell_length_a   10.11961107
_cell_length_b   16.51544592
_cell_length_c   16.51577860
_cell_angle_alpha   115.93774358
_cell_angle_beta   101.80212278
_cell_angle_gamma   101.77908049
_symmetry_Int_Tables_number   1
_chemical_formula_structural   ZnH7C7(NO)3
_chemical_formula_sum   'Zn6 H42 C42 N18 O18'
_cell_volume   2290.62549812
_cell_formula_units_Z   6
loop_
 _symmetry_equiv_pos_site_id
 _symmetry_equiv_pos_as_xyz
  1  'x, y, z'
loop_
 _atom_site_type_symbol
 _atom_site_label
 _atom_site_symmetry_multiplicity
 _atom_site_fract_x
 _atom_site_fract_y
 _atom_site_fract_z
 _atom_site_occupancy
  Zn  Zn0  1  0.52084662  0.69472710  0.31657233  1.0
  Zn  Zn1  1  0.20454772  0.68336275  0.37832437  1.0
  Zn  Zn2  1  0.82613399  0.62184047  0.30532619  1.0
  Zn  Zn3  1  0.71084309  0.37778056  0.68114999  1.0
  Zn  Zn4  1  0.02973859  0.31888050  0.69655913  1.0
  Zn  Zn5  1  0.33311000  0.30337683  0.62217270  1.0
  H  H6  1  0.63723233  0.34351551  0.37116167  1.0
  H  H7  1  0.26578511  0.62884867  0.97244045  1.0
  H  H8  1  0.29391371  0.02774922  0.65651630  1.0
  H  H9  1  0.79969470  0.66462911  0.02506644  1.0
  H  H10  1  0.77488125  0.97497561  0.63953189  1.0
  H  H11  1  0.13506279  0.36034612  0.33509875  1.0
  H  H12  1  0.36825180  0.21077951  0.34940842  1.0
  H  H13  1  0.01866936  0.65074475  0.86145189  1.0
  H  H14  1  0.15770731  0.13865652  0.78931065  1.0
  H  H15  1  0.78631263  0.55994725  0.87982262  1.0
  H  H16  1  0.90658064  0.12012859  0.67993457  1.0
  H  H17  1  0.22634539  0.31971456  0.43994615  1.0
  H  H18  1  0.72389508  0.44456760  0.32611059  1.0
  H  H19  1  0.39758807  0.67417789  0.11853540  1.0
  H  H20  1  0.27964078  0.88160795  0.55548478  1.0
  H  H21  1  0.86515080  0.78972931  0.16773376  1.0
  H  H22  1  0.69806263  0.83248376  0.62238796  1.0
  H  H23  1  0.07485306  0.37773053  0.20984220  1.0
  H  H24  1  0.32774112  0.46608579  0.82274576  1.0
  H  H25  1  0.50500261  0.17714116  0.64314858  1.0
  H  H26  1  0.86194496  0.35711141  0.53394715  1.0
  H  H27  1  0.34085794  0.52242272  0.33942189  1.0
  H  H28  1  0.00119572  0.66007014  0.18305630  1.0
  H  H29  1  0.81868067  0.81690553  0.47752535  1.0
  H  H30  1  0.53169583  0.13557041  0.27254350  1.0
  H  H31  1  0.25915785  0.72749369  0.86321217  1.0
  H  H32  1  0.39642340  0.13696982  0.86443167  1.0
  H  H33  1  0.52832533  0.11676517  0.37065161  1.0
  H  H34  1  0.15765326  0.62943811  0.74628642  1.0
  H  H35  1  0.41186427  0.25389513  0.88330799  1.0
  H  H36  1  0.67726935  0.20534673  0.38246167  1.0
  H  H37  1  0.29462480  0.61752989  0.82311032  1.0
  H  H38  1  0.47210004  0.17710712  0.79465030  1.0
  H  H39  1  0.71150110  0.86386054  0.10791055  1.0
  H  H40  1  0.60390103  0.89221215  0.75612492  1.0
  H  H41  1  0.84689182  0.24395147  0.13604469  1.0
  H  H42  1  0.71989556  0.89095903  0.22642779  1.0
  H  H43  1  0.49383938  0.77366645  0.66471073  1.0
  H  H44  1  0.82821161  0.33538467  0.10892875  1.0
  H  H45  1  0.56397907  0.80492502  0.12792002  1.0
  H  H46  1  0.43637766  0.87209517  0.67698880  1.0
  H  H47  1  0.75867050  0.32312598  0.19514597  1.0
  C  C48  1  0.48456981  0.24469545  0.38438918  1.0
  C  C49  1  0.09988690  0.61566311  0.86036183  1.0
  C  C50  1  0.24007419  0.13976324  0.75538312  1.0
  C  C51  1  0.51435178  0.28696632  0.49244236  1.0
  C  C52  1  0.02147232  0.50764916  0.79444050  1.0
  C  C53  1  0.22756088  0.20565784  0.71322878  1.0
  C  C54  1  0.67095600  0.52422535  0.85023473  1.0
  C  C55  1  0.82078262  0.14969484  0.67377024  1.0
  C  C56  1  0.14677868  0.32596131  0.47569930  1.0
  C  C57  1  0.57868080  0.62344086  0.98446796  1.0
  C  C58  1  0.59439842  0.01548872  0.63892150  1.0
  C  C59  1  0.95540302  0.36105531  0.37644960  1.0
  C  C60  1  0.63947556  0.47611603  0.32661720  1.0
  C  C61  1  0.31270443  0.67351023  0.14958686  1.0
  C  C62  1  0.16364978  0.85052107  0.52395097  1.0
  C  C63  1  0.44329694  0.36818656  0.34865279  1.0
  C  C64  1  0.09430890  0.65121544  0.01957786  1.0
  C  C65  1  0.07531935  0.98052239  0.63179862  1.0
  C  C66  1  0.74773866  0.75660645  0.14175265  1.0
  C  C67  1  0.60649187  0.85830103  0.61504505  1.0
  C  C68  1  0.99081228  0.38500347  0.24315553  1.0
  C  C69  1  0.56461199  0.54648533  0.89027689  1.0
  C  C70  1  0.67440081  0.10963186  0.65600804  1.0
  C  C71  1  0.01828594  0.34389393  0.45347058  1.0
  C  C72  1  0.43610261  0.47588534  0.82042648  1.0
  C  C73  1  0.61569296  0.17946230  0.65526487  1.0
  C  C74  1  0.96040114  0.34480758  0.52410493  1.0
  C  C75  1  0.50545331  0.44840423  0.33609578  1.0
  C  C76  1  0.16907083  0.66375122  0.11236588  1.0
  C  C77  1  0.05731153  0.88770651  0.55160940  1.0
  C  C78  1  0.44365312  0.51629976  0.33301893  1.0
  C  C79  1  0.11042585  0.66666667  0.18330860  1.0
  C  C80  1  0.92764437  0.81667958  0.48370383  1.0
  C  C81  1  0.56047386  0.17104238  0.35053574  1.0
  C  C82  1  0.20983475  0.64951600  0.82068322  1.0
  C  C83  1  0.38968686  0.17950710  0.82899576  1.0
  C  C84  1  0.68083159  0.83374119  0.15154049  1.0
  C  C85  1  0.52966248  0.84853399  0.68233975  1.0
  C  C86  1  0.84651054  0.31774743  0.16616208  1.0
  C  C87  1  0.72141026  0.71318469  0.20551489  1.0
  C  C88  1  0.51647023  0.79434169  0.50782986  1.0
  C  C89  1  0.00803085  0.49220451  0.28657300  1.0
  N  N90  1  0.53064358  0.31939882  0.36222260  1.0
  N  N91  1  0.16808107  0.63773768  0.95724297  1.0
  N  N92  1  0.21141895  0.04291573  0.68060003  1.0
  N  N93  1  0.71383506  0.68103017  0.04360366  1.0
  N  N94  1  0.67051590  0.95641852  0.63744167  1.0
  N  N95  1  0.03275782  0.36244800  0.31873918  1.0
  N  N96  1  0.53513164  0.57960673  0.32239791  1.0
  N  N97  1  0.21275212  0.67746179  0.25726619  1.0
  N  N98  1  0.95585148  0.74274222  0.42044102  1.0
  N  N99  1  0.60969762  0.44631850  0.76328787  1.0
  N  N100  1  0.84644176  0.23664099  0.68283563  1.0
  N  N101  1  0.16340351  0.31697731  0.55362847  1.0
  N  N102  1  0.65535283  0.55424100  0.31831864  1.0
  N  N103  1  0.33709095  0.68183736  0.23603562  1.0
  N  N104  1  0.10145660  0.76405708  0.44585775  1.0
  N  N105  1  0.46462140  0.41620708  0.74449158  1.0
  N  N106  1  0.72012828  0.25541612  0.67151754  1.0
  N  N107  1  0.04853620  0.32849025  0.58379109  1.0
  O  O108  1  0.65150229  0.74504197  0.26095444  1.0
  O  O109  1  0.39110436  0.73882021  0.48420013  1.0
  O  O110  1  0.90634417  0.51586456  0.25467619  1.0
  O  O111  1  0.77946301  0.65007598  0.19978780  1.0
  O  O112  1  0.58024272  0.80010722  0.45047281  1.0
  O  O113  1  0.12919429  0.54953508  0.34976178  1.0
  O  O114  1  0.63608638  0.35027081  0.54744529  1.0
  O  O115  1  0.08816696  0.45259015  0.80265147  1.0
  O  O116  1  0.28613705  0.19744340  0.65002307  1.0
  O  O117  1  0.41756157  0.25342673  0.51877815  1.0
  O  O118  1  0.89839626  0.48142835  0.73455633  1.0
  O  O119  1  0.16414981  0.26545581  0.74670029  1.0
  O  O120  1  0.31604501  0.34537811  0.34678908  1.0
  O  O121  1  0.96886363  0.65299101  0.99855528  1.0
  O  O122  1  0.97085572  0.00147996  0.65454669  1.0
  O  O123  1  0.47019942  0.63400528  0.00769448  1.0
  O  O124  1  0.46272997  0.99228400  0.62638179  1.0
  O  O125  1  0.83638346  0.37378427  0.36595665  1.0
