# generated using pymatgen
data_AlH3C17O7F6
_symmetry_space_group_name_H-M   'P 1'
_cell_length_a   6.64539819
_cell_length_b   23.62229862
_cell_length_c   26.19192098
_cell_angle_alpha   78.48254278
_cell_angle_beta   89.61048572
_cell_angle_gamma   89.50764023
_symmetry_Int_Tables_number   1
_chemical_formula_structural   AlH3C17O7F6
_chemical_formula_sum   'Al4 H12 C68 O28 F24'
_cell_volume   4028.60235331
_cell_formula_units_Z   4
loop_
 _symmetry_equiv_pos_site_id
 _symmetry_equiv_pos_as_xyz
  1  'x, y, z'
loop_
 _atom_site_type_symbol
 _atom_site_label
 _atom_site_symmetry_multiplicity
 _atom_site_fract_x
 _atom_site_fract_y
 _atom_site_fract_z
 _atom_site_occupancy
  Al  Al0  1  0.73220140  0.74604446  0.25110837  1.0
  Al  Al1  1  0.25604070  0.24992249  0.74891935  1.0
  Al  Al2  1  0.23181593  0.75115877  0.24977968  1.0
  Al  Al3  1  0.75672028  0.24764153  0.75002721  1.0
  H  H4  1  0.00301604  0.60588625  0.96589255  1.0
  H  H5  1  0.00804722  0.39358800  0.03263461  1.0
  H  H6  1  0.50753404  0.89429591  0.53478485  1.0
  H  H7  1  0.49476300  0.10577094  0.46394385  1.0
  H  H8  1  0.68567477  0.21346641  0.91250291  1.0
  H  H9  1  0.58140205  0.63569991  0.19341151  1.0
  H  H10  1  0.91644024  0.13903517  0.69286153  1.0
  H  H11  1  0.08184043  0.85904175  0.30820655  1.0
  H  H12  1  0.46958874  0.67542711  0.27722190  1.0
  H  H13  1  0.50717898  0.31671448  0.76507388  1.0
  H  H14  1  0.96632910  0.82257921  0.22504919  1.0
  H  H15  1  0.01652927  0.17583586  0.77844083  1.0
  C  C16  1  0.48715761  0.82603982  0.17505233  1.0
  C  C17  1  0.50543314  0.17049835  0.82540449  1.0
  C  C18  1  0.98869343  0.67145555  0.32600084  1.0
  C  C19  1  0.99915342  0.32440020  0.67335574  1.0
  C  C20  1  0.48412643  0.80802529  0.31640112  1.0
  C  C21  1  0.50572595  0.19067901  0.68343008  1.0
  C  C22  1  0.98843988  0.68949155  0.18447228  1.0
  C  C23  1  0.00754996  0.30995328  0.81369122  1.0
  C  C24  1  0.15118756  0.39121574  0.85013666  1.0
  C  C25  1  0.86209962  0.65886262  0.10377520  1.0
  C  C26  1  0.63716861  0.16037051  0.60235580  1.0
  C  C27  1  0.35858680  0.83940417  0.39748936  1.0
  C  C28  1  0.15024445  0.42774814  0.88593452  1.0
  C  C29  1  0.86631171  0.62131243  0.06893484  1.0
  C  C30  1  0.63488535  0.12310132  0.56724865  1.0
  C  C31  1  0.36347136  0.87703180  0.43224577  1.0
  C  C32  1  0.00614960  0.42306086  0.92567258  1.0
  C  C33  1  0.01013053  0.57707293  0.07241222  1.0
  C  C34  1  0.49270334  0.07909909  0.57085183  1.0
  C  C35  1  0.50678803  0.92081047  0.42798012  1.0
  C  C36  1  0.86301225  0.37930843  0.92758165  1.0
  C  C37  1  0.15420612  0.57386395  0.11199380  1.0
  C  C38  1  0.34725599  0.07609252  0.61051025  1.0
  C  C39  1  0.65044142  0.92320523  0.38798151  1.0
  C  C40  1  0.85964938  0.34206768  0.89262780  1.0
  C  C41  1  0.15307872  0.61019105  0.14769106  1.0
  C  C42  1  0.34607298  0.11217010  0.64634953  1.0
  C  C43  1  0.64892170  0.88676832  0.35241753  1.0
  C  C44  1  0.00724798  0.34796987  0.85302404  1.0
  C  C45  1  0.00020991  0.65246694  0.14441765  1.0
  C  C46  1  0.49822248  0.15393957  0.64319118  1.0
  C  C47  1  0.49547323  0.84525734  0.35622277  1.0
  C  C48  1  0.00296341  0.52197714  0.94687213  1.0
  C  C49  1  0.00964361  0.47751671  0.05177951  1.0
  C  C50  1  0.49953669  0.97903728  0.55203004  1.0
  C  C51  1  0.50310856  0.02100995  0.44666968  1.0
  C  C52  1  0.00535671  0.55952701  0.98126251  1.0
  C  C53  1  0.00785762  0.43994459  0.01733932  1.0
  C  C54  1  0.50386226  0.94044677  0.51855141  1.0
  C  C55  1  0.49872853  0.05961427  0.48015724  1.0
  C  C56  1  0.01045596  0.53771487  0.03514279  1.0
  C  C57  1  0.00620688  0.46178768  0.96347185  1.0
  C  C58  1  0.50625168  0.96099633  0.46448126  1.0
  C  C59  1  0.49589528  0.03905991  0.53422502  1.0
  C  C60  1  0.16556985  0.50590574  0.46685448  1.0
  C  C61  1  0.82972066  0.49010584  0.53223300  1.0
  C  C62  1  0.66379534  0.99190306  0.03481795  1.0
  C  C63  1  0.33269875  0.00814231  0.96863495  1.0
  C  C64  1  0.99933508  0.54363736  0.45491342  1.0
  C  C65  1  0.99572025  0.45224816  0.54412028  1.0
  C  C66  1  0.49814617  0.95449078  0.04648809  1.0
  C  C67  1  0.49835689  0.04556338  0.95695932  1.0
  C  C68  1  0.83156045  0.53465116  0.48877442  1.0
  C  C69  1  0.16359579  0.46130037  0.51027839  1.0
  C  C70  1  0.33274231  0.96376749  0.01226501  1.0
  C  C71  1  0.66355638  0.03632487  0.99124584  1.0
  C  C72  1  0.99919737  0.58832774  0.41052923  1.0
  C  C73  1  0.99503095  0.40737723  0.58838946  1.0
  C  C74  1  0.49685274  0.90973058  0.09082461  1.0
  C  C75  1  0.49982485  0.08994010  0.91227314  1.0
  C  C76  1  0.99654144  0.36887246  0.62690842  1.0
  C  C77  1  0.99560229  0.62669830  0.37193573  1.0
  C  C78  1  0.50088638  0.12749340  0.87297183  1.0
  C  C79  1  0.49347703  0.87116971  0.12927824  1.0
  C  C80  1  0.70337085  0.29551682  0.89926279  1.0
  C  C81  1  0.31345191  0.60659467  0.18897159  1.0
  C  C82  1  0.18443434  0.10854424  0.68780816  1.0
  C  C83  1  0.81157247  0.88918664  0.31131513  1.0
  O  O84  1  0.31081674  0.80041119  0.29816963  1.0
  O  O85  1  0.67609705  0.19743235  0.70336745  1.0
  O  O86  1  0.81413342  0.69768680  0.20256869  1.0
  O  O87  1  0.17802450  0.29385638  0.79975552  1.0
  O  O88  1  0.65495385  0.80559755  0.19355115  1.0
  O  O89  1  0.33720611  0.18604693  0.80433362  1.0
  O  O90  1  0.15629347  0.69216790  0.30763037  1.0
  O  O91  1  0.82992526  0.30352659  0.69005226  1.0
  O  O92  1  0.65017546  0.78903577  0.30280877  1.0
  O  O93  1  0.33890904  0.21024155  0.69590336  1.0
  O  O94  1  0.15369498  0.70761896  0.19832778  1.0
  O  O95  1  0.83685612  0.29774028  0.79705373  1.0
  O  O96  1  0.81536822  0.68639991  0.30740290  1.0
  O  O97  1  0.16995429  0.31069283  0.69385982  1.0
  O  O98  1  0.31360669  0.81065957  0.19324913  1.0
  O  O99  1  0.67954691  0.18860458  0.80936525  1.0
  O  O100  1  0.47941150  0.71285570  0.25374468  1.0
  O  O101  1  0.50703907  0.28299518  0.74907489  1.0
  O  O102  1  0.97784630  0.78440953  0.24727107  1.0
  O  O103  1  0.00834976  0.21239187  0.75360099  1.0
  O  O104  1  0.52248968  0.30397508  0.89657999  1.0
  O  O105  1  0.79178559  0.24252726  0.91049052  1.0
  O  O106  1  0.28512622  0.58898578  0.23541601  1.0
  O  O107  1  0.48789815  0.62729112  0.16681953  1.0
  O  O108  1  0.21191229  0.08990199  0.73408673  1.0
  O  O109  1  0.01069238  0.13038754  0.66607963  1.0
  O  O110  1  0.78595545  0.90596886  0.26468367  1.0
  O  O111  1  0.98498813  0.86861630  0.33407287  1.0
  F  F112  1  0.29146136  0.40059159  0.81196224  1.0
  F  F113  1  0.72637375  0.70245879  0.09605467  1.0
  F  F114  1  0.77153010  0.20370956  0.59481326  1.0
  F  F115  1  0.22370101  0.79617017  0.40587621  1.0
  F  F116  1  0.29585227  0.46777939  0.88200057  1.0
  F  F117  1  0.72431446  0.62813541  0.03142144  1.0
  F  F118  1  0.77718730  0.12984840  0.52943023  1.0
  F  F119  1  0.22261736  0.87077001  0.47040634  1.0
  F  F120  1  0.72235077  0.37270014  0.96613515  1.0
  F  F121  1  0.30381271  0.53396308  0.11481433  1.0
  F  F122  1  0.19871939  0.03654157  0.61329601  1.0
  F  F123  1  0.80012471  0.96246871  0.38460554  1.0
  F  F124  1  0.99277678  0.54491293  0.89500018  1.0
  F  F125  1  0.00579952  0.45466845  0.10368942  1.0
  F  F126  1  0.50427173  0.95739115  0.60415140  1.0
  F  F127  1  0.49826980  0.04265400  0.39454100  1.0
  F  F128  1  0.32423362  0.42589478  0.52009659  1.0
  F  F129  1  0.67096417  0.57012176  0.47893528  1.0
  F  F130  1  0.82360120  0.07147307  0.98160368  1.0
  F  F131  1  0.17268498  0.92873540  0.02181872  1.0
  F  F132  1  0.32797662  0.51285688  0.43539559  1.0
  F  F133  1  0.66745325  0.48335267  0.56378166  1.0
  F  F134  1  0.82390349  0.98472650  0.06659851  1.0
  F  F135  1  0.17288848  0.01518271  0.93675197  1.0
