# generated using pymatgen
data_Zn4H58C51N20O
_symmetry_space_group_name_H-M   'P 1'
_cell_length_a   14.86032221
_cell_length_b   15.15164921
_cell_length_c   14.88052018
_cell_angle_alpha   112.96464297
_cell_angle_beta   110.85224768
_cell_angle_gamma   103.60741936
_symmetry_Int_Tables_number   1
_chemical_formula_structural   Zn4H58C51N20O
_chemical_formula_sum   'Zn4 H58 C51 N20 O1'
_cell_volume   2596.05687460
_cell_formula_units_Z   1
loop_
 _symmetry_equiv_pos_site_id
 _symmetry_equiv_pos_as_xyz
  1  'x, y, z'
loop_
 _atom_site_type_symbol
 _atom_site_label
 _atom_site_symmetry_multiplicity
 _atom_site_fract_x
 _atom_site_fract_y
 _atom_site_fract_z
 _atom_site_occupancy
  Zn  Zn0  1  0.48826903  0.13035015  0.14980250  1.0
  Zn  Zn1  1  0.49890240  0.85875124  0.86970150  1.0
  Zn  Zn2  1  0.36645062  0.00236661  0.87548709  1.0
  Zn  Zn3  1  0.63986373  0.00866826  0.14360566  1.0
  H  H4  1  0.29925256  0.20118733  0.18511337  1.0
  H  H5  1  0.44869496  0.76403311  0.60120222  1.0
  H  H6  1  0.51518596  0.15545924  0.83601924  1.0
  H  H7  1  0.82386363  0.20377625  0.17232645  1.0
  H  H8  1  0.64588807  0.34912492  0.19605240  1.0
  H  H9  1  0.86078789  0.19505332  0.38448277  1.0
  H  H10  1  0.44644329  0.75190514  0.27602948  1.0
  H  H11  1  0.30678129  0.69982706  0.21514372  1.0
  H  H12  1  0.33418527  0.69395178  0.37749157  1.0
  H  H13  1  0.51258612  0.63091797  0.84903075  1.0
  H  H14  1  0.47247160  0.77927374  0.45118461  1.0
  H  H15  1  0.55584436  0.95142343  0.41875847  1.0
  H  H16  1  0.54048740  0.97302261  0.57694643  1.0
  H  H17  1  0.30142853  0.96711729  0.33048875  1.0
  H  H18  1  0.20815315  0.76991582  0.33472106  1.0
  H  H19  1  0.23582884  0.90105648  0.42560029  1.0
  H  H20  1  0.49757572  0.03969597  0.41790300  1.0
  H  H21  1  0.45624435  0.03548370  0.55427572  1.0
  H  H22  1  0.14699643  0.83488542  0.83010831  1.0
  H  H23  1  0.68343260  0.42618642  0.99776645  1.0
  H  H24  1  0.47131618  0.51314401  0.93068535  1.0
  H  H25  1  0.70855298  0.62669080  0.11302922  1.0
  H  H26  1  0.04633150  0.59229910  0.77432054  1.0
  H  H27  1  0.00500345  0.35643158  0.52910799  1.0
  H  H28  1  0.87707259  0.48383155  0.57551504  1.0
  H  H29  1  0.83761420  0.08171378  0.82323721  1.0
  H  H30  1  0.96085484  0.21323593  0.08237507  1.0
  H  H31  1  0.01241025  0.12645414  0.83694181  1.0
  H  H32  1  0.53379584  0.83932748  0.20027921  1.0
  H  H33  1  0.09035657  0.16710041  0.07657942  1.0
  H  H34  1  0.34325749  0.66549513  0.85648363  1.0
  H  H35  1  0.31643346  0.98678034  0.17948788  1.0
  H  H36  1  0.74402397  0.85208970  0.20323518  1.0
  H  H37  1  0.16149830  0.06954996  0.82573203  1.0
  H  H38  1  0.65593035  0.35311992  0.41256555  1.0
  H  H39  1  0.65656229  0.81754299  0.67823419  1.0
  H  H40  1  0.59664279  0.80407516  0.75938946  1.0
  H  H41  1  0.83799207  0.89463955  0.84612427  1.0
  H  H42  1  0.77789983  0.88551660  0.92760819  1.0
  H  H43  1  0.68045841  0.68632673  0.79984334  1.0
  H  H44  1  0.82033991  0.72986563  0.85725498  1.0
  H  H45  1  0.73922077  0.69247283  0.71569078  1.0
  H  H46  1  0.25117415  0.00232100  0.67821023  1.0
  H  H47  1  0.27647301  0.12729295  0.63200578  1.0
  H  H48  1  0.31939623  0.06197429  0.53964780  1.0
  H  H49  1  0.40851293  0.13708665  0.68808432  1.0
  H  H50  1  0.17950142  0.74459715  0.14630822  1.0
  H  H51  1  0.02906140  0.78137445  0.09383541  1.0
  H  H52  1  0.10705459  0.91223052  0.21433700  1.0
  H  H53  1  0.06851561  0.80171884  0.23117882  1.0
  H  H54  1  0.44510307  0.31033650  0.00126754  1.0
  H  H55  1  0.34195982  0.37762015  0.05485217  1.0
  H  H56  1  0.33909025  0.44567202  0.98109395  1.0
  H  H57  1  0.44861049  0.50495902  0.11946251  1.0
  H  H58  1  0.23286466  0.60392459  0.67415037  1.0
  H  H59  1  0.20703572  0.51758080  0.49444439  1.0
  H  H60  1  0.09112844  0.54128990  0.47386305  1.0
  H  H61  1  0.08418779  0.41355287  0.44547005  1.0
  C  C62  1  0.28090967  0.16640317  0.09794414  1.0
  C  C63  1  0.63199745  0.70279211  0.03201402  1.0
  C  C64  1  0.20303796  0.70655142  0.81860741  1.0
  C  C65  1  0.40722049  0.89325551  0.21445849  1.0
  C  C66  1  0.69149929  0.29900729  0.38966860  1.0
  C  C67  1  0.41364173  0.81829667  0.62500312  1.0
  C  C68  1  0.54018790  0.18769645  0.92460653  1.0
  C  C69  1  0.77379209  0.13744098  0.08555821  1.0
  C  C70  1  0.70006664  0.01789454  0.90471434  1.0
  C  C71  1  0.60648614  0.28630054  0.10810231  1.0
  C  C72  1  0.79617170  0.21890938  0.37550017  1.0
  C  C73  1  0.56633191  0.69941296  0.93408707  1.0
  C  C74  1  0.33697328  0.92775270  0.63764612  1.0
  C  C75  1  0.79872923  0.31628984  0.44376576  1.0
  C  C76  1  0.36912465  0.86501630  0.56767467  1.0
  C  C77  1  0.59878258  0.29415551  0.01465859  1.0
  C  C78  1  0.79200414  0.11384826  0.99377964  1.0
  C  C79  1  0.38206251  0.76653965  0.28967695  1.0
  C  C80  1  0.39229013  0.76944938  0.39883995  1.0
  C  C81  1  0.48478525  0.96383904  0.41477304  1.0
  C  C82  1  0.28529914  0.88251325  0.29868336  1.0
  C  C83  1  0.38672560  0.87265957  0.29817125  1.0
  C  C84  1  0.20989882  0.80839335  0.84326903  1.0
  C  C85  1  0.37291881  0.86264306  0.46724394  1.0
  C  C86  1  0.46917410  0.96616030  0.51186420  1.0
  C  C87  1  0.26864426  0.85326217  0.38241068  1.0
  C  C88  1  0.54085310  0.42734736  0.99883049  1.0
  C  C89  1  0.61744687  0.39036978  0.00738146  1.0
  C  C90  1  0.54714052  0.52034546  0.98848448  1.0
  C  C91  1  0.63438267  0.61422146  0.04730367  1.0
  C  C92  1  0.09080452  0.52486732  0.65266591  1.0
  C  C93  1  0.10744764  0.60476117  0.75039783  1.0
  C  C94  1  0.99273546  0.42588461  0.57221949  1.0
  C  C95  1  0.48794359  0.88411362  0.18856788  1.0
  C  C96  1  0.89123906  0.41435146  0.53751728  1.0
  C  C97  1  0.90751645  0.12873067  0.90788307  1.0
  C  C98  1  0.89114827  0.15881837  0.99753515  1.0
  C  C99  1  0.00941532  0.14106508  0.91369709  1.0
  C  C100  1  0.09551267  0.15567364  0.00160325  1.0
  C  C101  1  0.30981678  0.72172663  0.85483396  1.0
  C  C102  1  0.37807199  0.96031186  0.17865054  1.0
  C  C103  1  0.68581425  0.81207707  0.11414325  1.0
  C  C104  1  0.21093804  0.10048011  0.91500309  1.0
  C  C105  1  0.19038571  0.14560558  0.00381036  1.0
  C  C106  1  0.66936699  0.85124954  0.76432125  1.0
  C  C107  1  0.76617511  0.84749916  0.84184125  1.0
  C  C108  1  0.75057012  0.73267159  0.80115391  1.0
  C  C109  1  0.32443911  0.08312683  0.62130890  1.0
  C  C110  1  0.09481496  0.82888946  0.18170942  1.0
  C  C111  1  0.39203109  0.42884166  0.03911168  1.0
  C  C112  1  0.13533474  0.49947743  0.50253530  1.0
  N  N113  1  0.34890327  0.13650864  0.06777230  1.0
  N  N114  1  0.40911552  0.84848070  0.72079268  1.0
  N  N115  1  0.51291788  0.12274569  0.96152729  1.0
  N  N116  1  0.68126213  0.06130583  0.05366008  1.0
  N  N117  1  0.63490994  0.98801700  0.94143702  1.0
  N  N118  1  0.55436019  0.18371711  0.07459447  1.0
  N  N119  1  0.69666834  0.15084159  0.28870330  1.0
  N  N120  1  0.36233899  0.91766954  0.72882900  1.0
  N  N121  1  0.57956229  0.79808509  0.95670136  1.0
  N  N122  1  0.31186019  0.87620468  0.88668135  1.0
  N  N123  1  0.50636762  0.94340425  0.14317296  1.0
  N  N124  1  0.37354695  0.82325664  0.89378441  1.0
  N  N125  1  0.43905885  0.99064102  0.13761552  1.0
  N  N126  1  0.65339515  0.86849810  0.06933614  1.0
  N  N127  1  0.30501780  0.09478157  0.95347715  1.0
  N  N128  1  0.63093209  0.20037176  0.29729060  1.0
  N  N129  1  0.27952034  0.98743308  0.62352099  1.0
  N  N130  1  0.19216981  0.82230502  0.18516411  1.0
  N  N131  1  0.44586899  0.37286310  0.99087876  1.0
  N  N132  1  0.16882839  0.53093154  0.61984067  1.0
  O  O133  1  0.67989385  0.95842835  0.79777449  1.0
