# generated using pymatgen
data_Zn4H55C64NO18
_symmetry_space_group_name_H-M   'P 1'
_cell_length_a   15.82728679
_cell_length_b   17.85183211
_cell_length_c   18.10394332
_cell_angle_alpha   62.70410801
_cell_angle_beta   79.42141820
_cell_angle_gamma   74.73770343
_symmetry_Int_Tables_number   1
_chemical_formula_structural   Zn4H55C64NO18
_chemical_formula_sum   'Zn4 H55 C64 N1 O18'
_cell_volume   4373.49460870
_cell_formula_units_Z   1
loop_
 _symmetry_equiv_pos_site_id
 _symmetry_equiv_pos_as_xyz
  1  'x, y, z'
loop_
 _atom_site_type_symbol
 _atom_site_label
 _atom_site_symmetry_multiplicity
 _atom_site_fract_x
 _atom_site_fract_y
 _atom_site_fract_z
 _atom_site_occupancy
  Zn  Zn0  1  0.41461440  0.42510776  0.58560568  1.0
  Zn  Zn1  1  0.57805838  0.43167046  0.44926410  1.0
  Zn  Zn2  1  0.53127343  0.55525252  0.55034710  1.0
  Zn  Zn3  1  0.43044097  0.59643919  0.40225568  1.0
  H  H4  1  0.97856963  0.60751913  0.39936952  1.0
  H  H5  1  0.41851650  0.17180257  0.42222043  1.0
  H  H6  1  0.54683313  0.82305724  0.61138822  1.0
  H  H7  1  0.59537418  0.97784259  0.74892451  1.0
  H  H8  1  0.52371211  0.43997090  0.20735578  1.0
  H  H9  1  0.57505963  0.68477021  0.15489929  1.0
  H  H10  1  0.59161842  0.68862892  0.88744940  1.0
  H  H11  1  0.46762951  0.24171407  0.99314227  1.0
  H  H12  1  0.71767797  0.76990549  0.92756419  1.0
  H  H13  1  0.72768315  0.68607662  0.03073136  1.0
  H  H14  1  0.64020793  0.87489632  0.98771656  1.0
  H  H15  1  0.51823451  0.35900383  0.16289535  1.0
  H  H16  1  0.66000105  0.79236893  0.08887776  1.0
  H  H17  1  0.82422520  0.77461914  0.05063717  1.0
  H  H18  1  0.77631192  0.88160122  0.03639375  1.0
  H  H19  1  0.80435193  0.85774206  0.94896572  1.0
  H  H20  1  0.37514214  0.81941066  0.22696267  1.0
  H  H21  1  0.47061229  0.81894807  0.26505639  1.0
  H  H22  1  0.35397296  0.97700515  0.13994419  1.0
  H  H23  1  0.43838876  0.98361285  0.18740901  1.0
  H  H24  1  0.55026638  0.89162565  0.13006198  1.0
  H  H25  1  0.49502003  0.98298875  0.04784149  1.0
  H  H26  1  0.54857367  0.60040585  0.83453309  1.0
  H  H27  1  0.46819685  0.88104920  0.08275814  1.0
  H  H28  1  0.68600543  0.75942067  0.53194593  1.0
  H  H29  1  0.64523896  0.86708762  0.45933874  1.0
  H  H30  1  0.67346834  0.70398808  0.43243281  1.0
  H  H31  1  0.62634203  0.80868397  0.36041016  1.0
  H  H32  1  0.76628945  0.85892410  0.34454614  1.0
  H  H33  1  0.78693681  0.76966295  0.32035587  1.0
  H  H34  1  0.81419077  0.75473044  0.41764171  1.0
  H  H35  1  0.49886378  0.21477639  0.23880160  1.0
  H  H36  1  0.59967208  0.21932737  0.17482964  1.0
  H  H37  1  0.35221455  0.12863387  0.33954857  1.0
  H  H38  1  0.48272105  0.08804027  0.22514202  1.0
  H  H39  1  0.57428768  0.09678207  0.15152559  1.0
  H  H40  1  0.67487430  0.05997888  0.26066204  1.0
  H  H41  1  0.61195751  0.97937886  0.29482616  1.0
  H  H42  1  0.58402201  0.05682554  0.33544776  1.0
  H  H43  1  0.35567355  0.25571705  0.80948815  1.0
  H  H44  1  0.35479421  0.24584132  0.91229281  1.0
  H  H45  1  0.47808419  0.12537474  0.84231265  1.0
  H  H46  1  0.47444451  0.11449943  0.94488193  1.0
  H  H47  1  0.31702855  0.09377730  0.97011918  1.0
  H  H48  1  0.48957153  0.20514143  0.47637373  1.0
  H  H49  1  0.38867218  0.01570980  0.94054015  1.0
  H  H50  1  0.32126231  0.10526247  0.86678380  1.0
  H  H51  1  0.46014830  0.58134820  0.72383632  1.0
  H  H52  1  0.38411341  0.69515616  0.75494641  1.0
  H  H53  1  0.39427967  0.63067128  0.86327251  1.0
  H  H54  1  0.32009186  0.61404690  0.81148418  1.0
  H  H55  1  0.57334635  0.13323933  0.71651991  1.0
  H  H56  1  0.58511900  0.86543711  0.70978877  1.0
  H  H57  1  0.33243339  0.02063978  0.30274985  1.0
  H  H58  1  0.00112340  0.42981806  0.55227400  1.0
  C  C59  1  0.53519317  0.53875333  0.27879113  1.0
  C  C60  1  0.48606443  0.45242892  0.92420504  1.0
  C  C61  1  0.47982157  0.36535641  0.97928598  1.0
  C  C62  1  0.46058645  0.45087572  0.71873714  1.0
  C  C63  1  0.51484766  0.50276636  0.95553129  1.0
  C  C64  1  0.52131924  0.47065068  0.04265360  1.0
  C  C65  1  0.50984491  0.38514521  0.09673710  1.0
  C  C66  1  0.49296417  0.33347985  0.06604217  1.0
  C  C67  1  0.54484995  0.58053673  0.90131053  1.0
  C  C68  1  0.56946866  0.62945797  0.93050350  1.0
  C  C69  1  0.56363221  0.60567960  0.01725046  1.0
  C  C70  1  0.10058594  0.54310595  0.45684018  1.0
  C  C71  1  0.54163167  0.52456612  0.07473016  1.0
  C  C72  1  0.57929881  0.66117005  0.04775888  1.0
  C  C73  1  0.56886464  0.63989435  0.13193151  1.0
  C  C74  1  0.52130483  0.27085282  0.56901707  1.0
  C  C75  1  0.53890530  0.50135582  0.16094426  1.0
  C  C76  1  0.44602394  0.82090230  0.42358649  1.0
  C  C77  1  0.53024945  0.17719393  0.59356911  1.0
  C  C78  1  0.37469919  0.97094804  0.35097048  1.0
  C  C79  1  0.39034046  0.88713345  0.36089309  1.0
  C  C80  1  0.48982086  0.84456759  0.46837365  1.0
  C  C81  1  0.87909528  0.49072641  0.49625947  1.0
  C  C82  1  0.46884439  0.92918257  0.46390829  1.0
  C  C83  1  0.41171871  0.99311443  0.40140466  1.0
  C  C84  1  0.49946025  0.95323755  0.51950687  1.0
  C  C85  1  0.48374158  0.04174147  0.50196470  1.0
  C  C86  1  0.45483746  0.72803361  0.44559200  1.0
  C  C87  1  0.43235524  0.10425577  0.43440006  1.0
  C  C88  1  0.39512922  0.08059633  0.38809550  1.0
  C  C89  1  0.53778292  0.89097577  0.59574093  1.0
  C  C90  1  0.55927621  0.91476729  0.65074716  1.0
  C  C91  1  0.54847674  0.00287177  0.63317618  1.0
  C  C92  1  0.17786790  0.53647299  0.46341954  1.0
  C  C93  1  0.51368195  0.06721209  0.55629870  1.0
  C  C94  1  0.56993942  0.02795966  0.69005559  1.0
  C  C95  1  0.55853299  0.11379105  0.67211702  1.0
  C  C96  1  0.50930369  0.15419571  0.53682753  1.0
  C  C97  1  0.71080042  0.49561668  0.49049046  1.0
  C  C98  1  0.26869389  0.52675717  0.47348909  1.0
  C  C99  1  0.80256507  0.49187499  0.49234393  1.0
  C  C100  1  0.96712698  0.48720110  0.50225307  1.0
  C  C101  1  0.01193387  0.54999077  0.44960024  1.0
  C  C102  1  0.68794517  0.74894240  0.99212265  1.0
  C  C103  1  0.46459677  0.42298061  0.80916892  1.0
  C  C104  1  0.68617826  0.81530752  0.02330762  1.0
  C  C105  1  0.77771401  0.83326813  0.01438788  1.0
  C  C106  1  0.40628845  0.85801299  0.24258121  1.0
  C  C107  1  0.41734389  0.94206312  0.16737981  1.0
  C  C108  1  0.48621621  0.92359142  0.10337433  1.0
  C  C109  1  0.64369155  0.79892060  0.47989155  1.0
  C  C110  1  0.67386081  0.77271910  0.40870774  1.0
  C  C111  1  0.76529664  0.79003078  0.37076863  1.0
  C  C112  1  0.53563578  0.20041761  0.18714363  1.0
  C  C113  1  0.54752070  0.10561933  0.20825434  1.0
  C  C114  1  0.54965666  0.55879344  0.18867944  1.0
  C  C115  1  0.60797250  0.04741759  0.27873801  1.0
  C  C116  1  0.39627459  0.23198764  0.86228471  1.0
  C  C117  1  0.43386080  0.13613972  0.89262030  1.0
  C  C118  1  0.36126605  0.08491006  0.91897103  1.0
  C  C119  1  0.38465795  0.63009049  0.80508326  1.0
  C  C120  1  0.46787533  0.30850361  0.94974435  1.0
  C  C121  1  0.46461292  0.33591653  0.86526834  1.0
  C  C122  1  0.46967895  0.48271871  0.83845214  1.0
  N  N123  1  0.45626894  0.57015489  0.78455459  1.0
  O  O124  1  0.48881653  0.49889233  0.49794607  1.0
  O  O125  1  0.69291030  0.44702358  0.46407056  1.0
  O  O126  1  0.30843387  0.58352151  0.41586688  1.0
  O  O127  1  0.65793062  0.54811416  0.51580250  1.0
  O  O128  1  0.29941467  0.46229264  0.53903469  1.0
  O  O129  1  0.60109463  0.73822125  0.98969686  1.0
  O  O130  1  0.34983033  0.87056519  0.31076901  1.0
  O  O131  1  0.55614929  0.78386095  0.51556502  1.0
  O  O132  1  0.48857131  0.24878928  0.11296868  1.0
  O  O133  1  0.46546720  0.28022091  0.83229948  1.0
  O  O134  1  0.46716002  0.30260062  0.61385766  1.0
  O  O135  1  0.44625559  0.70739418  0.38898541  1.0
  O  O136  1  0.56516618  0.46226260  0.33196066  1.0
  O  O137  1  0.51622109  0.49735562  0.67128636  1.0
  O  O138  1  0.49314187  0.60106492  0.29628117  1.0
  O  O139  1  0.40480575  0.42922187  0.69369142  1.0
  O  O140  1  0.56773064  0.31071881  0.50387501  1.0
  O  O141  1  0.46771400  0.67400173  0.52137314  1.0
