# generated using pymatgen
data_La2H10C14S(NO7)2
_symmetry_space_group_name_H-M   'P 1'
_cell_length_a   8.94612225
_cell_length_b   13.21911301
_cell_length_c   13.21912911
_cell_angle_alpha   65.54849479
_cell_angle_beta   73.06235128
_cell_angle_gamma   73.06197397
_symmetry_Int_Tables_number   1
_chemical_formula_structural   La2H10C14S(NO7)2
_chemical_formula_sum   'La4 H20 C28 S2 N4 O28'
_cell_volume   1334.92712473
_cell_formula_units_Z   2
loop_
 _symmetry_equiv_pos_site_id
 _symmetry_equiv_pos_as_xyz
  1  'x, y, z'
loop_
 _atom_site_type_symbol
 _atom_site_label
 _atom_site_symmetry_multiplicity
 _atom_site_fract_x
 _atom_site_fract_y
 _atom_site_fract_z
 _atom_site_occupancy
  La  La0  1  0.10483384  0.92073180  0.80920883  1.0
  La  La1  1  0.39516002  0.19079659  0.07926520  1.0
  La  La2  1  0.89516088  0.07927152  0.19079524  1.0
  La  La3  1  0.60483998  0.80920055  0.92073146  1.0
  H  H4  1  0.09194742  0.16522065  0.73039358  1.0
  H  H5  1  0.40805845  0.26960479  0.83477323  1.0
  H  H6  1  0.90806068  0.83477651  0.26960532  1.0
  H  H7  1  0.59194916  0.73038982  0.16522612  1.0
  H  H8  1  0.99695304  0.15169563  0.65348155  1.0
  H  H9  1  0.50304560  0.34652103  0.84829525  1.0
  H  H10  1  0.00305020  0.84830454  0.34651647  1.0
  H  H11  1  0.49695400  0.65348207  0.15170043  1.0
  H  H12  1  0.82468591  0.49475798  0.18536560  1.0
  H  H13  1  0.67531727  0.81463384  0.50524788  1.0
  H  H14  1  0.17531971  0.50523998  0.81463041  1.0
  H  H15  1  0.32467908  0.18536713  0.49476447  1.0
  H  H16  1  0.39764793  0.47587528  0.02713569  1.0
  H  H17  1  0.10235049  0.97286141  0.52412815  1.0
  H  H18  1  0.60236506  0.52412038  0.97287202  1.0
  H  H19  1  0.89764471  0.02713588  0.47587390  1.0
  H  H20  1  0.93754747  0.67135101  0.11894464  1.0
  H  H21  1  0.56244930  0.88106525  0.32865488  1.0
  H  H22  1  0.06245454  0.32864643  0.88106438  1.0
  H  H23  1  0.43755599  0.11893303  0.67135391  1.0
  C  C24  1  0.25064877  0.68885706  0.02578494  1.0
  C  C25  1  0.24934761  0.97421360  0.31115483  1.0
  C  C26  1  0.74934874  0.31114947  0.97421116  1.0
  C  C27  1  0.75065527  0.02578539  0.68884805  1.0
  C  C28  1  0.17717205  0.58585755  0.07149552  1.0
  C  C29  1  0.32282349  0.92850633  0.41414481  1.0
  C  C30  1  0.82282849  0.41413716  0.92850663  1.0
  C  C31  1  0.67717449  0.07149355  0.58585862  1.0
  C  C32  1  0.05281011  0.39680175  0.13661213  1.0
  C  C33  1  0.44718104  0.86338671  0.60320566  1.0
  C  C34  1  0.94719695  0.60319959  0.86338290  1.0
  C  C35  1  0.55280826  0.13661067  0.39679897  1.0
  C  C36  1  0.99285141  0.29155495  0.16457834  1.0
  C  C37  1  0.50714614  0.83541704  0.70845289  1.0
  C  C38  1  0.00715354  0.70845048  0.83540926  1.0
  C  C39  1  0.49284147  0.16458212  0.29155433  1.0
  C  C40  1  0.95114601  0.49437647  0.15092449  1.0
  C  C41  1  0.54884805  0.84907685  0.50562564  1.0
  C  C42  1  0.04886312  0.50562145  0.84907087  1.0
  C  C43  1  0.45114310  0.15092226  0.49438017  1.0
  C  C44  1  0.27044289  0.48345881  0.06268080  1.0
  C  C45  1  0.22955335  0.93731661  0.51654297  1.0
  C  C46  1  0.72956474  0.51654009  0.93731896  1.0
  C  C47  1  0.77044617  0.06268226  0.48345455  1.0
  C  C48  1  0.01387555  0.59129241  0.11549100  1.0
  C  C49  1  0.48611659  0.88451557  0.40870371  1.0
  C  C50  1  0.98613276  0.40870393  0.88450898  1.0
  C  C51  1  0.51388081  0.11548678  0.59129574  1.0
  S  S52  1  0.75000164  0.96899523  0.03100338  1.0
  S  S53  1  0.25000143  0.03100787  0.96899316  1.0
  N  N54  1  0.21009229  0.39167021  0.09230779  1.0
  N  N55  1  0.28989831  0.90769409  0.60833140  1.0
  N  N56  1  0.78991814  0.60832695  0.90769144  1.0
  N  N57  1  0.71008829  0.09230923  0.39167119  1.0
  O  O58  1  0.84809824  0.28627031  0.20362644  1.0
  O  O59  1  0.65189992  0.79637221  0.71373443  1.0
  O  O60  1  0.15190656  0.71374513  0.79635157  1.0
  O  O61  1  0.34809153  0.20362598  0.28626870  1.0
  O  O62  1  0.15819920  0.78382412  0.99218725  1.0
  O  O63  1  0.34179399  0.00781763  0.21617761  1.0
  O  O64  1  0.84179040  0.21617234  0.00781470  1.0
  O  O65  1  0.65820595  0.99218323  0.78383107  1.0
  O  O66  1  0.09736612  0.20808790  0.14344575  1.0
  O  O67  1  0.40261482  0.85654427  0.79192370  1.0
  O  O68  1  0.90263283  0.79192266  0.85654077  1.0
  O  O69  1  0.59736691  0.14345990  0.20807792  1.0
  O  O70  1  0.70131052  0.86319237  0.04872945  1.0
  O  O71  1  0.79869471  0.95126333  0.13680883  1.0
  O  O72  1  0.29869347  0.13680300  0.95126571  1.0
  O  O73  1  0.20131081  0.04873472  0.86319093  1.0
  O  O74  1  0.88391849  0.99212297  0.93274655  1.0
  O  O75  1  0.61607882  0.06725357  0.00788277  1.0
  O  O76  1  0.11607960  0.00788109  0.06725354  1.0
  O  O77  1  0.38391605  0.93274038  0.99212229  1.0
  O  O78  1  0.39922837  0.67365283  0.02244089  1.0
  O  O79  1  0.10077051  0.97756380  0.32634648  1.0
  O  O80  1  0.60076710  0.32635280  0.97755297  1.0
  O  O81  1  0.89923457  0.02243594  0.67365264  1.0
  O  O82  1  0.10288553  0.13929706  0.66866989  1.0
  O  O83  1  0.39711503  0.33132834  0.86069737  1.0
  O  O84  1  0.89711785  0.86070018  0.33133139  1.0
  O  O85  1  0.60288561  0.66866627  0.13930103  1.0
