# generated using pymatgen
data_Zn2H11C41SN2(OF)10
_symmetry_space_group_name_H-M   'P 1'
_cell_length_a   16.53928416
_cell_length_b   17.87908217
_cell_length_c   30.62909849
_cell_angle_alpha   90.25700646
_cell_angle_beta   90.11838129
_cell_angle_gamma   89.96368977
_symmetry_Int_Tables_number   1
_chemical_formula_structural   Zn2H11C41SN2(OF)10
_chemical_formula_sum   'Zn4 H22 C82 S2 N4 O20 F20'
_cell_volume   9057.13336471
_cell_formula_units_Z   2
loop_
 _symmetry_equiv_pos_site_id
 _symmetry_equiv_pos_as_xyz
  1  'x, y, z'
loop_
 _atom_site_type_symbol
 _atom_site_label
 _atom_site_symmetry_multiplicity
 _atom_site_fract_x
 _atom_site_fract_y
 _atom_site_fract_z
 _atom_site_occupancy
  Zn  Zn0  1  0.58607158  0.50105924  0.50199331  1.0
  Zn  Zn1  1  0.41719138  0.50051541  0.50208109  1.0
  Zn  Zn2  1  0.41401980  0.50350589  0.91788954  1.0
  Zn  Zn3  1  0.58291939  0.50298194  0.91762211  1.0
  H  H4  1  0.28857641  0.56729170  0.55938999  1.0
  H  H5  1  0.28849192  0.42668818  0.45030570  1.0
  H  H6  1  0.71524574  0.58556781  0.54941262  1.0
  H  H7  1  0.71507307  0.41839730  0.45401305  1.0
  H  H8  1  0.63185894  0.74146184  0.50387395  1.0
  H  H9  1  0.37121385  0.73582152  0.49426548  1.0
  H  H10  1  0.63527689  0.25926474  0.49702564  1.0
  H  H11  1  0.37491456  0.26684456  0.50788811  1.0
  H  H12  1  0.37345058  0.50970160  0.05596774  1.0
  H  H13  1  0.63418200  0.49412389  0.05767894  1.0
  H  H14  1  0.36607937  0.49117103  0.36205832  1.0
  H  H15  1  0.62678877  0.50678706  0.36377179  1.0
  H  H16  1  0.71150417  0.56962102  0.86064028  1.0
  H  H17  1  0.71159757  0.42908865  0.96902439  1.0
  H  H18  1  0.28475111  0.58767047  0.87093558  1.0
  H  H19  1  0.28503235  0.42054466  0.96548696  1.0
  H  H20  1  0.36801287  0.74372847  0.91476235  1.0
  H  H21  1  0.62869871  0.73857948  0.92413944  1.0
  H  H22  1  0.36491762  0.26207278  0.92220225  1.0
  H  H23  1  0.62523086  0.26899765  0.91092139  1.0
  H  H24  1  0.33784766  0.58966929  0.67724732  1.0
  H  H25  1  0.66182490  0.58979687  0.74267036  1.0
  C  C26  1  0.50315911  0.64610017  0.50076122  1.0
  C  C27  1  0.50049797  0.50117322  0.58709221  1.0
  C  C28  1  0.50771106  0.35553618  0.50299128  1.0
  C  C29  1  0.49588684  0.49765548  0.41694463  1.0
  C  C30  1  0.49681234  0.64857980  0.91849779  1.0
  C  C31  1  0.49927459  0.50216752  0.83267689  1.0
  C  C32  1  0.49262632  0.35798710  0.91667822  1.0
  C  C33  1  0.50444692  0.50127563  0.00280626  1.0
  C  C34  1  0.25317077  0.53666681  0.53522663  1.0
  C  C35  1  0.16932215  0.53726479  0.53584208  1.0
  C  C36  1  0.12360985  0.49655393  0.50499377  1.0
  C  C37  1  0.16920619  0.45562305  0.47424879  1.0
  C  C38  1  0.25295996  0.45712439  0.47447839  1.0
  C  C39  1  0.03868142  0.49724559  0.50458729  1.0
  C  C40  1  0.96511087  0.49840756  0.50389436  1.0
  C  C41  1  0.88023653  0.49976694  0.50307689  1.0
  C  C42  1  0.83454974  0.54778344  0.53005810  1.0
  C  C43  1  0.75073699  0.54824895  0.52875053  1.0
  C  C44  1  0.75064405  0.45499271  0.47512384  1.0
  C  C45  1  0.83447530  0.45315098  0.47522417  1.0
  C  C46  1  0.50164639  0.72989406  0.49950725  1.0
  C  C47  1  0.57410690  0.77032627  0.50161123  1.0
  C  C48  1  0.57094622  0.84754370  0.50058263  1.0
  C  C49  1  0.49782933  0.88821808  0.49798997  1.0
  C  C50  1  0.42676628  0.84459387  0.49580665  1.0
  C  C51  1  0.42737155  0.76730351  0.49630402  1.0
  C  C52  1  0.49657658  0.96681848  0.49804674  1.0
  C  C53  1  0.49745274  0.03500181  0.49875958  1.0
  C  C54  1  0.49979574  0.11355562  0.49987449  1.0
  C  C55  1  0.57331628  0.15359084  0.49788880  1.0
  C  C56  1  0.57727570  0.23079390  0.49882682  1.0
  C  C57  1  0.50528340  0.27174950  0.50228266  1.0
  C  C58  1  0.43065242  0.23495169  0.50476342  1.0
  C  C59  1  0.42924118  0.15770943  0.50329264  1.0
  C  C60  1  0.43246252  0.49427329  0.66280764  1.0
  C  C61  1  0.56714987  0.49463926  0.75692623  1.0
  C  C62  1  0.49897480  0.49499972  0.63528062  1.0
  C  C63  1  0.50066549  0.49556115  0.78447310  1.0
  C  C64  1  0.54214360  0.49400030  0.71249081  1.0
  C  C65  1  0.45744531  0.49397148  0.70724982  1.0
  C  C66  1  0.50384289  0.50153897  0.05173114  1.0
  C  C67  1  0.43002840  0.50589573  0.07397781  1.0
  C  C68  1  0.43041144  0.50527779  0.11907690  1.0
  C  C69  1  0.50204812  0.50118614  0.14412441  1.0
  C  C70  1  0.57467142  0.49750118  0.12002932  1.0
  C  C71  1  0.57682592  0.49729142  0.07491491  1.0
  C  C72  1  0.50084026  0.50080045  0.18998099  1.0
  C  C73  1  0.49909817  0.50047027  0.22976377  1.0
  C  C74  1  0.49800709  0.49995873  0.27561969  1.0
  C  C75  1  0.42544696  0.49579591  0.29972462  1.0
  C  C76  1  0.42339622  0.49461241  0.34482929  1.0
  C  C77  1  0.49642540  0.49841792  0.36801158  1.0
  C  C78  1  0.57017581  0.50322055  0.34576689  1.0
  C  C79  1  0.56969264  0.50353255  0.30066996  1.0
  C  C80  1  0.74690409  0.53897928  0.88465601  1.0
  C  C81  1  0.83075377  0.53950385  0.88405679  1.0
  C  C82  1  0.87646631  0.49877289  0.91470375  1.0
  C  C83  1  0.83089584  0.45789001  0.94523763  1.0
  C  C84  1  0.74713078  0.45948225  0.94501194  1.0
  C  C85  1  0.96139139  0.49940123  0.91511586  1.0
  C  C86  1  0.03495869  0.50049108  0.91585726  1.0
  C  C87  1  0.11983489  0.50183098  0.91672402  1.0
  C  C88  1  0.16548997  0.54985341  0.89001212  1.0
  C  C89  1  0.24928958  0.55034770  0.89138318  1.0
  C  C90  1  0.24944643  0.45713048  0.94454581  1.0
  C  C91  1  0.16561511  0.45521749  0.94435207  1.0
  C  C92  1  0.49823832  0.73239943  0.91910861  1.0
  C  C93  1  0.42570679  0.77273272  0.91677526  1.0
  C  C94  1  0.42871032  0.84997815  0.91727563  1.0
  C  C95  1  0.50176701  0.89074322  0.91959263  1.0
  C  C96  1  0.57292603  0.84723297  0.92194936  1.0
  C  C97  1  0.57246215  0.76993630  0.92195052  1.0
  C  C98  1  0.50293087  0.96931342  0.91932922  1.0
  C  C99  1  0.50228416  0.03748631  0.91873552  1.0
  C  C100  1  0.50010030  0.11603503  0.91803281  1.0
  C  C101  1  0.42666409  0.15624194  0.92043522  1.0
  C  C102  1  0.42285321  0.23345225  0.92009782  1.0
  C  C103  1  0.49491269  0.27421421  0.91681986  1.0
  C  C104  1  0.56945702  0.23723392  0.91391002  1.0
  C  C105  1  0.57073919  0.15998339  0.91479565  1.0
  C  C106  1  0.34577680  0.49352898  0.64843310  1.0
  C  C107  1  0.65384080  0.49393214  0.77128306  1.0
  S  S108  1  0.59080245  0.49313098  0.66273909  1.0
  S  S109  1  0.40881593  0.49347104  0.75701701  1.0
  N  N110  1  0.29306723  0.49748364  0.50461571  1.0
  N  N111  1  0.71062611  0.50212500  0.50162744  1.0
  N  N112  1  0.70701831  0.49986064  0.91507027  1.0
  N  N113  1  0.28943513  0.50429708  0.91831530  1.0
  O  O114  1  0.57082977  0.61475975  0.50883215  1.0
  O  O115  1  0.43636115  0.61274397  0.49370405  1.0
  O  O116  1  0.43437867  0.51819978  0.56847595  1.0
  O  O117  1  0.56871658  0.48969717  0.56893702  1.0
  O  O118  1  0.44123449  0.38921345  0.51048040  1.0
  O  O119  1  0.57572430  0.38669918  0.49600810  1.0
  O  O120  1  0.56316216  0.50953020  0.43611068  1.0
  O  O121  1  0.42835422  0.48542665  0.43557094  1.0
  O  O122  1  0.42912561  0.61701992  0.91071683  1.0
  O  O123  1  0.56364300  0.61543480  0.92574831  1.0
  O  O124  1  0.56546373  0.51940646  0.85123887  1.0
  O  O125  1  0.43118163  0.49084411  0.85090100  1.0
  O  O126  1  0.55912532  0.39151140  0.90930345  1.0
  O  O127  1  0.42469228  0.38928772  0.92395442  1.0
  O  O128  1  0.43720409  0.51330002  0.98370479  1.0
  O  O129  1  0.57201153  0.48906613  0.98412049  1.0
  O  O130  1  0.30204706  0.55452903  0.66213127  1.0
  O  O131  1  0.31309432  0.44389558  0.62803285  1.0
  O  O132  1  0.69758551  0.55474100  0.75772814  1.0
  O  O133  1  0.68650521  0.44439447  0.79154775  1.0
  F  F134  1  0.13007010  0.41490356  0.44378500  1.0
  F  F135  1  0.13033147  0.57784009  0.56626743  1.0
  F  F136  1  0.87343919  0.40569695  0.44831335  1.0
  F  F137  1  0.87356008  0.59419215  0.55764983  1.0
  F  F138  1  0.35497226  0.88102418  0.49319141  1.0
  F  F139  1  0.64088444  0.88698128  0.50240216  1.0
  F  F140  1  0.35717854  0.12178693  0.50530890  1.0
  F  F141  1  0.64278692  0.11359113  0.49480968  1.0
  F  F142  1  0.64508651  0.49379986  0.14268147  1.0
  F  F143  1  0.35915483  0.50883077  0.14080977  1.0
  F  F144  1  0.64090754  0.50761427  0.27896361  1.0
  F  F145  1  0.35497398  0.49270543  0.27708596  1.0
  F  F146  1  0.87004061  0.41713077  0.97548725  1.0
  F  F147  1  0.86976507  0.58000737  0.85384328  1.0
  F  F148  1  0.12665357  0.40768579  0.97094628  1.0
  F  F149  1  0.12646210  0.59622445  0.86262498  1.0
  F  F150  1  0.64463400  0.88381599  0.92431103  1.0
  F  F151  1  0.35870922  0.88933894  0.91524167  1.0
  F  F152  1  0.64270267  0.12383373  0.91240523  1.0
  F  F153  1  0.35714972  0.11640788  0.92334482  1.0
