# generated using pymatgen
data_AlH10C15(NO3)2
_symmetry_space_group_name_H-M   'P 1'
_cell_length_a   6.70559604
_cell_length_b   16.87987929
_cell_length_c   17.68296285
_cell_angle_alpha   86.69460472
_cell_angle_beta   80.33352941
_cell_angle_gamma   83.56928535
_symmetry_Int_Tables_number   1
_chemical_formula_structural   AlH10C15(NO3)2
_chemical_formula_sum   'Al2 H20 C30 N4 O12'
_cell_volume   1959.15307323
_cell_formula_units_Z   2
loop_
 _symmetry_equiv_pos_site_id
 _symmetry_equiv_pos_as_xyz
  1  'x, y, z'
loop_
 _atom_site_type_symbol
 _atom_site_label
 _atom_site_symmetry_multiplicity
 _atom_site_fract_x
 _atom_site_fract_y
 _atom_site_fract_z
 _atom_site_occupancy
  Al  Al0  1  0.50127339  0.49946143  0.49753793  1.0
  Al  Al1  1  0.00322226  0.49815802  0.49530765  1.0
  H  H2  1  0.76526752  0.57261961  0.42025565  1.0
  H  H3  1  0.22118307  0.45246625  0.58734904  1.0
  H  H4  1  0.13457409  0.26525757  0.45374488  1.0
  H  H5  1  0.20295527  0.11556918  0.45524073  1.0
  H  H6  1  0.56406421  0.09873272  0.52930710  1.0
  H  H7  1  0.39097282  0.89930038  0.53808872  1.0
  H  H8  1  0.82443467  0.88401397  0.45901107  1.0
  H  H9  1  0.89737449  0.73473431  0.46057250  1.0
  H  H10  1  0.68646883  0.48813030  0.27444388  1.0
  H  H11  1  0.77852368  0.49139163  0.13168335  1.0
  H  H12  1  0.05448462  0.48713258  0.25647506  1.0
  H  H13  1  0.95913572  0.50969844  0.73652658  1.0
  H  H14  1  0.32354716  0.51446423  0.72163421  1.0
  H  H15  1  0.23593061  0.51260606  0.86407155  1.0
  H  H16  1  0.41865363  0.31320254  0.52369749  1.0
  H  H17  1  0.33718770  0.21830408  0.54417073  1.0
  H  H18  1  0.53838734  0.68504229  0.54210907  1.0
  H  H19  1  0.60381346  0.77957738  0.55876282  1.0
  H  H20  1  0.17762202  0.49281176  0.05138531  1.0
  H  H21  1  0.84128126  0.50680289  0.94155289  1.0
  C  C22  1  0.31445914  0.49146307  0.35852849  1.0
  C  C23  1  0.21109780  0.64427099  0.49924487  1.0
  C  C24  1  0.69305114  0.50643309  0.63564024  1.0
  C  C25  1  0.79050509  0.35445351  0.49351170  1.0
  C  C26  1  0.81447274  0.26668469  0.49251279  1.0
  C  C27  1  0.01188636  0.22764313  0.47176658  1.0
  C  C28  1  0.05108760  0.14557803  0.47261569  1.0
  C  C29  1  0.88530302  0.09980722  0.49520279  1.0
  C  C30  1  0.68781920  0.13646007  0.51362035  1.0
  C  C31  1  0.64602005  0.22052476  0.51311629  1.0
  C  C32  1  0.28293763  0.86194515  0.52221974  1.0
  C  C33  1  0.10400132  0.89899352  0.50059493  1.0
  C  C34  1  0.96023803  0.85364050  0.47816534  1.0
  C  C35  1  0.00210529  0.77169394  0.47898649  1.0
  C  C36  1  0.18063851  0.73197123  0.50175992  1.0
  C  C37  1  0.32588437  0.77792132  0.52441441  1.0
  C  C38  1  0.36584139  0.48873292  0.27327267  1.0
  C  C39  1  0.56999191  0.48899092  0.23821708  1.0
  C  C40  1  0.62055581  0.49078456  0.15894819  1.0
  C  C41  1  0.46725187  0.49263560  0.11311402  1.0
  C  C42  1  0.26183107  0.49032089  0.14908512  1.0
  C  C43  1  0.21199014  0.48829047  0.22877077  1.0
  C  C44  1  0.50564917  0.49796182  0.03217770  1.0
  C  C45  1  0.51240658  0.50402232  0.96227601  1.0
  C  C46  1  0.54901802  0.50887156  0.88133697  1.0
  C  C47  1  0.75405137  0.50939025  0.84441707  1.0
  C  C48  1  0.80162107  0.51025506  0.76465819  1.0
  C  C49  1  0.64574713  0.51066643  0.72093173  1.0
  C  C50  1  0.44201531  0.51270983  0.75705125  1.0
  C  C51  1  0.39372101  0.51185943  0.83632486  1.0
  N  N52  1  0.90387213  0.01541224  0.49882390  1.0
  N  N53  1  0.08311725  0.98332618  0.50066542  1.0
  N  N54  1  0.45158083  0.25376636  0.53437466  1.0
  N  N55  1  0.49900526  0.74438029  0.54895655  1.0
  O  O56  1  0.46102128  0.49968850  0.39393198  1.0
  O  O57  1  0.06084320  0.60774136  0.48939170  1.0
  O  O58  1  0.87729873  0.50777360  0.60284742  1.0
  O  O59  1  0.61193859  0.39055941  0.49226248  1.0
  O  O60  1  0.54203669  0.50037112  0.60181123  1.0
  O  O61  1  0.94759147  0.38961694  0.49704415  1.0
  O  O62  1  0.13041448  0.48694627  0.38985102  1.0
  O  O63  1  0.38827028  0.60917408  0.50597143  1.0
  O  O64  1  0.75648317  0.53465371  0.46352301  1.0
  O  O65  1  0.24573727  0.46369595  0.53234518  1.0
  O  O66  1  0.11202826  0.49088791  0.10538422  1.0
  O  O67  1  0.90560658  0.50804897  0.88737053  1.0
