# generated using pymatgen
data_AlH9C24N3(ClO2)3
_symmetry_space_group_name_H-M   'P 1'
_cell_length_a   3.95076839
_cell_length_b   15.71076455
_cell_length_c   15.82441584
_cell_angle_alpha   119.48744084
_cell_angle_beta   90.63757208
_cell_angle_gamma   96.65948275
_symmetry_Int_Tables_number   1
_chemical_formula_structural   AlH9C24N3(ClO2)3
_chemical_formula_sum   'Al1 H9 C24 N3 Cl3 O6'
_cell_volume   846.56681579
_cell_formula_units_Z   1
loop_
 _symmetry_equiv_pos_site_id
 _symmetry_equiv_pos_as_xyz
  1  'x, y, z'
loop_
 _atom_site_type_symbol
 _atom_site_label
 _atom_site_symmetry_multiplicity
 _atom_site_fract_x
 _atom_site_fract_y
 _atom_site_fract_z
 _atom_site_occupancy
  Al  Al0  1  0.98249829  0.99855104  0.50172019  1.0
  H  H1  1  0.51739955  0.08971506  0.95756514  1.0
  H  H2  1  0.40680058  0.36187941  0.40534563  1.0
  H  H3  1  0.36603603  0.54125841  0.12917047  1.0
  H  H4  1  0.45244307  0.73000578  0.49057026  1.0
  H  H5  1  0.44116869  0.54655300  0.40314372  1.0
  H  H6  1  0.60749642  0.01206825  0.24767472  1.0
  H  H7  1  0.56870299  0.09488384  0.14759107  1.0
  H  H8  1  0.49716430  0.26100716  0.76455759  1.0
  H  H9  1  0.46162362  0.35529504  0.94533873  1.0
  C  C10  1  0.51639958  0.06780790  0.65127414  1.0
  C  C11  1  0.41630913  0.84733618  0.41792498  1.0
  C  C12  1  0.51421008  0.08195547  0.43394796  1.0
  C  C13  1  0.51895446  0.12263135  0.75978444  1.0
  C  C14  1  0.51565348  0.13862927  0.38123528  1.0
  C  C15  1  0.39494132  0.73771979  0.35959450  1.0
  C  C16  1  0.52529925  0.07468478  0.81464665  1.0
  C  C17  1  0.50960323  0.12686541  0.91507990  1.0
  C  C18  1  0.45787133  0.23787470  0.42555099  1.0
  C  C19  1  0.44564832  0.28473303  0.37060998  1.0
  C  C20  1  0.36661812  0.68391064  0.25733977  1.0
  C  C21  1  0.37512359  0.58233274  0.20832226  1.0
  C  C22  1  0.42468146  0.68717227  0.41124690  1.0
  C  C23  1  0.42095316  0.58570410  0.36297397  1.0
  C  C24  1  0.56136127  0.08871341  0.28108363  1.0
  C  C25  1  0.54008417  0.13437112  0.22552411  1.0
  C  C26  1  0.50029788  0.22418447  0.80764731  1.0
  C  C27  1  0.48007242  0.27661851  0.90783566  1.0
  C  C28  1  0.48407111  0.22809820  0.96222158  1.0
  C  C29  1  0.46586113  0.28265134  0.06892270  1.0
  C  C30  1  0.48246172  0.23328842  0.27036566  1.0
  C  C31  1  0.46432974  0.28472528  0.21367336  1.0
  C  C32  1  0.40067651  0.53260450  0.26073374  1.0
  C  C33  1  0.41993955  0.42537786  0.20882895  1.0
  N  N34  1  0.48625436  0.23241114  0.11703437  1.0
  N  N35  1  0.42958947  0.38111897  0.26289513  1.0
  N  N36  1  0.43260926  0.37910198  0.11154633  1.0
  Cl  Cl37  1  0.56609750  0.95049984  0.75861866  1.0
  Cl  Cl38  1  0.34155305  0.74210714  0.18937443  1.0
  Cl  Cl39  1  0.41565716  0.30741350  0.54902099  1.0
  O  O40  1  0.72631961  0.02027936  0.41149329  1.0
  O  O41  1  0.76729746  0.09048636  0.61318420  1.0
  O  O42  1  0.66582137  0.89026832  0.48318564  1.0
  O  O43  1  0.29329971  0.09630144  0.49593036  1.0
  O  O44  1  0.19104330  0.89037023  0.40220820  1.0
  O  O45  1  0.25538841  0.00436315  0.60496385  1.0
