# generated using pymatgen
data_ZnH10(C7N2)2
_symmetry_space_group_name_H-M   'P 1'
_cell_length_a   16.42725747
_cell_length_b   16.58873836
_cell_length_c   20.55710426
_cell_angle_alpha   90.00051288
_cell_angle_beta   90.00165528
_cell_angle_gamma   89.99198387
_symmetry_Int_Tables_number   1
_chemical_formula_structural   ZnH10(C7N2)2
_chemical_formula_sum   'Zn8 H80 C112 N32'
_cell_volume   5601.96454130
_cell_formula_units_Z   8
loop_
 _symmetry_equiv_pos_site_id
 _symmetry_equiv_pos_as_xyz
  1  'x, y, z'
loop_
 _atom_site_type_symbol
 _atom_site_label
 _atom_site_symmetry_multiplicity
 _atom_site_fract_x
 _atom_site_fract_y
 _atom_site_fract_z
 _atom_site_occupancy
  Zn  Zn0  1  0.48962925  0.64663549  0.00134054  1.0
  Zn  Zn1  1  0.64713358  0.48908793  0.99885734  1.0
  Zn  Zn2  1  0.51038916  0.35335853  0.00137058  1.0
  Zn  Zn3  1  0.35286873  0.51090515  0.99886726  1.0
  Zn  Zn4  1  0.01037708  0.14664610  0.49863908  1.0
  Zn  Zn5  1  0.14712941  0.01092791  0.50112443  1.0
  Zn  Zn6  1  0.98960317  0.85335836  0.49864159  1.0
  Zn  Zn7  1  0.85286104  0.98908550  0.50111220  1.0
  H  H8  1  0.41033661  0.74236340  0.12801444  1.0
  H  H9  1  0.24306802  0.09092716  0.62853042  1.0
  H  H10  1  0.99979968  0.83159365  0.65093558  1.0
  H  H11  1  0.75686311  0.90899712  0.62849744  1.0
  H  H12  1  0.91033982  0.75764303  0.37195753  1.0
  H  H13  1  0.16836216  0.99983024  0.34812509  1.0
  H  H14  1  0.08960919  0.24234806  0.37195769  1.0
  H  H15  1  0.83165905  0.00016173  0.34810491  1.0
  H  H16  1  0.89909174  0.66717035  0.27761801  1.0
  H  H17  1  0.70428935  0.01632045  0.24707822  1.0
  H  H18  1  0.10084006  0.33266751  0.27750068  1.0
  H  H19  1  0.66833574  0.50015725  0.15187901  1.0
  H  H20  1  0.29564215  0.98373316  0.24703236  1.0
  H  H21  1  0.98498024  0.29526211  0.75214479  1.0
  H  H22  1  0.66731799  0.89724020  0.72260572  1.0
  H  H23  1  0.01499737  0.70473112  0.75215379  1.0
  H  H24  1  0.33236370  0.10266914  0.72285773  1.0
  H  H25  1  0.48499932  0.20468356  0.74783809  1.0
  H  H26  1  0.16766637  0.60270832  0.77713069  1.0
  H  H27  1  0.51481676  0.79501385  0.74755944  1.0
  H  H28  1  0.83233361  0.39730808  0.77712338  1.0
  H  H29  1  0.39909282  0.83273099  0.22238058  1.0
  H  H30  1  0.58965337  0.25765183  0.12803488  1.0
  H  H31  1  0.20420928  0.48368651  0.25288830  1.0
  H  H32  1  0.60090403  0.16736874  0.22244290  1.0
  H  H33  1  0.79561681  0.51620834  0.25299826  1.0
  H  H34  1  0.87026919  0.59517788  0.33818605  1.0
  H  H35  1  0.67307804  0.08755724  0.30731785  1.0
  H  H36  1  0.12955899  0.40472406  0.33805671  1.0
  H  H37  1  0.32693971  0.91253029  0.30726885  1.0
  H  H38  1  0.91295372  0.32639915  0.69202774  1.0
  H  H39  1  0.59442561  0.86877001  0.66219714  1.0
  H  H40  1  0.08701558  0.67359510  0.69203309  1.0
  H  H41  1  0.33162040  0.49983057  0.15186332  1.0
  H  H42  1  0.40538896  0.13089441  0.66249346  1.0
  H  H43  1  0.41299875  0.17355504  0.80795807  1.0
  H  H44  1  0.09462631  0.63093279  0.83749265  1.0
  H  H45  1  0.58671119  0.82633485  0.80769765  1.0
  H  H46  1  0.90538021  0.36906871  0.83748708  1.0
  H  H47  1  0.37026849  0.90476015  0.16182880  1.0
  H  H48  1  0.17299751  0.41247348  0.19263836  1.0
  H  H49  1  0.62963352  0.09530084  0.16189689  1.0
  H  H50  1  0.82690547  0.58737598  0.19274728  1.0
  H  H51  1  0.44729916  0.26659629  0.13496400  1.0
  H  H52  1  0.50017623  0.33156065  0.84905608  1.0
  H  H53  1  0.19027560  0.61161668  0.07948409  1.0
  H  H54  1  0.55268787  0.73339819  0.13493894  1.0
  H  H55  1  0.80972531  0.38834490  0.07946547  1.0
  H  H56  1  0.38897252  0.80851977  0.92115012  1.0
  H  H57  1  0.26561750  0.44824790  0.86447731  1.0
  H  H58  1  0.61105650  0.19148163  0.92116057  1.0
  H  H59  1  0.73441542  0.55176706  0.86449640  1.0
  H  H60  1  0.88902373  0.69145002  0.57881984  1.0
  H  H61  1  0.76565706  0.05169608  0.63551801  1.0
  H  H62  1  0.11102159  0.30852312  0.57883118  1.0
  H  H63  1  0.74305901  0.40907914  0.87144858  1.0
  H  H64  1  0.23435088  0.94825687  0.63553615  1.0
  H  H65  1  0.94731349  0.23338123  0.36502919  1.0
  H  H66  1  0.69027442  0.88839058  0.42050378  1.0
  H  H67  1  0.05268778  0.76662157  0.36504070  1.0
  H  H68  1  0.30970690  0.11164874  0.42051072  1.0
  H  H69  1  0.19697338  0.38146267  0.65224538  1.0
  H  H70  1  0.22866726  0.94968602  0.76145879  1.0
  H  H71  1  0.80320634  0.61850170  0.65235678  1.0
  H  H72  1  0.77130419  0.05032373  0.76143482  1.0
  H  H73  1  0.04891107  0.77147507  0.23897454  1.0
  H  H74  1  0.49980143  0.66834940  0.84901347  1.0
  H  H75  1  0.38240803  0.19742477  0.34715595  1.0
  H  H76  1  0.95113092  0.22844260  0.23891926  1.0
  H  H77  1  0.61758438  0.80266369  0.34708642  1.0
  H  H78  1  0.54889911  0.72856814  0.26101122  1.0
  H  H79  1  0.88244103  0.30254457  0.15282260  1.0
  H  H80  1  0.45107399  0.27151629  0.26107802  1.0
  H  H81  1  0.11758591  0.69737208  0.15288206  1.0
  H  H82  1  0.69700862  0.11854301  0.84774241  1.0
  H  H83  1  0.72889937  0.55033267  0.73865346  1.0
  H  H84  1  0.30297670  0.88147740  0.84777182  1.0
  H  H85  1  0.25689670  0.59094641  0.87147603  1.0
  H  H86  1  0.27126805  0.44966224  0.73855083  1.0
  H  H87  1  0.00016855  0.16844433  0.65093468  1.0
  C  C88  1  0.36433913  0.70128797  0.10969761  1.0
  C  C89  1  0.20179455  0.13641735  0.60982738  1.0
  C  C90  1  0.78704253  0.11275692  0.77271914  1.0
  C  C91  1  0.11180680  0.78727246  0.22737164  1.0
  C  C92  1  0.34874738  0.24490564  0.32209234  1.0
  C  C93  1  0.88821839  0.21267819  0.22733504  1.0
  C  C94  1  0.65122142  0.75514336  0.32205446  1.0
  C  C95  1  0.61179370  0.71275389  0.27261769  1.0
  C  C96  1  0.84879463  0.25506732  0.17788678  1.0
  C  C97  1  0.38815846  0.28728369  0.27264747  1.0
  C  C98  1  0.15122365  0.74487974  0.17792319  1.0
  C  C99  1  0.74463698  0.15190005  0.82232719  1.0
  C  C100  1  0.05410689  0.86423204  0.63652337  1.0
  C  C101  1  0.71307095  0.61272574  0.72730784  1.0
  C  C102  1  0.25534780  0.84811950  0.82235011  1.0
  C  C103  1  0.28701032  0.38722680  0.72727021  1.0
  C  C104  1  0.79816532  0.86351606  0.60981632  1.0
  C  C105  1  0.86434020  0.79871421  0.39027390  1.0
  C  C106  1  0.13609222  0.94578537  0.36288414  1.0
  C  C107  1  0.13562201  0.20128765  0.39027148  1.0
  C  C108  1  0.86392874  0.05420484  0.36286607  1.0
  C  C109  1  0.84839187  0.63062053  0.29645891  1.0
  C  C110  1  0.69759282  0.08094771  0.25779475  1.0
  C  C111  1  0.15149601  0.36926487  0.29635867  1.0
  C  C112  1  0.63607391  0.55421037  0.13712237  1.0
  C  C113  1  0.30237906  0.91910851  0.25775513  1.0
  C  C114  1  0.91971591  0.30181962  0.74143718  1.0
  C  C115  1  0.63020450  0.84706278  0.70393570  1.0
  C  C116  1  0.08026394  0.69818063  0.74144399  1.0
  C  C117  1  0.36960516  0.15274295  0.70417569  1.0
  C  C118  1  0.41973425  0.19814566  0.75854910  1.0
  C  C119  1  0.13040409  0.65277835  0.79581515  1.0
  C  C120  1  0.58005889  0.80166951  0.75830914  1.0
  C  C121  1  0.86959212  0.34723314  0.79580848  1.0
  C  C122  1  0.34840023  0.86931642  0.20354687  1.0
  C  C123  1  0.63565469  0.29871649  0.10970940  1.0
  C  C124  1  0.19752561  0.41905901  0.24216108  1.0
  C  C125  1  0.65156202  0.13074423  0.20359767  1.0
  C  C126  1  0.80235324  0.58082901  0.24226282  1.0
  C  C127  1  0.42384559  0.32725852  0.12853031  1.0
  C  C128  1  0.25151667  0.63506483  0.08534252  1.0
  C  C129  1  0.57613171  0.67273138  0.12851186  1.0
  C  C130  1  0.74848047  0.36491762  0.08533096  1.0
  C  C131  1  0.36518270  0.74792445  0.91514558  1.0
  C  C132  1  0.32666645  0.42467018  0.87123088  1.0
  C  C133  1  0.63482692  0.25208139  0.91515368  1.0
  C  C134  1  0.36388553  0.44577378  0.13711921  1.0
  C  C135  1  0.67335192  0.57532705  0.87122186  1.0
  C  C136  1  0.86521583  0.75204092  0.58484171  1.0
  C  C137  1  0.82670031  0.07529097  0.62876378  1.0
  C  C138  1  0.13480688  0.24792296  0.58484262  1.0
  C  C139  1  0.17330209  0.92468875  0.62877096  1.0
  C  C140  1  0.92387123  0.17271753  0.37146511  1.0
  C  C141  1  0.75152001  0.86494509  0.41463787  1.0
  C  C142  1  0.07613370  0.82728080  0.37147965  1.0
  C  C143  1  0.24845715  0.13508359  0.41464735  1.0
  C  C144  1  0.27944936  0.70299442  0.11988852  1.0
  C  C145  1  0.44586746  0.36420208  0.86346543  1.0
  C  C146  1  0.61950793  0.62475031  0.17276263  1.0
  C  C147  1  0.72054882  0.29699459  0.11988128  1.0
  C  C148  1  0.38043876  0.37523311  0.17276428  1.0
  C  C149  1  0.37483894  0.38040859  0.82757374  1.0
  C  C150  1  0.70308938  0.27946018  0.88011853  1.0
  C  C151  1  0.62516023  0.61954083  0.82754569  1.0
  C  C152  1  0.29690023  0.72055360  0.88012661  1.0
  C  C153  1  0.87485979  0.11956433  0.67241199  1.0
  C  C154  1  0.20308334  0.22053679  0.61987415  1.0
  C  C155  1  0.12512955  0.88043848  0.67242055  1.0
  C  C156  1  0.70179101  0.36358764  0.89016101  1.0
  C  C157  1  0.79691859  0.77939685  0.61986479  1.0
  C  C158  1  0.77945605  0.79700728  0.38009174  1.0
  C  C159  1  0.11952120  0.87524901  0.32724072  1.0
  C  C160  1  0.22050485  0.20301003  0.38009426  1.0
  C  C161  1  0.88050033  0.12473650  0.32722221  1.0
  C  C162  1  0.72871990  0.63261974  0.25784074  1.0
  C  C163  1  0.73117261  0.17605559  0.19358688  1.0
  C  C164  1  0.27118442  0.36733280  0.25779330  1.0
  C  C165  1  0.26881210  0.82395660  0.19357527  1.0
  C  C166  1  0.82419220  0.26831761  0.80586599  1.0
  C  C167  1  0.55412449  0.63573877  0.86343016  1.0
  C  C168  1  0.63230789  0.72857852  0.74284543  1.0
  C  C169  1  0.17579190  0.73169713  0.80587720  1.0
  C  C170  1  0.36761684  0.27129449  0.74295444  1.0
  C  C171  1  0.32419137  0.23167103  0.69412302  1.0
  C  C172  1  0.13235494  0.77132924  0.75704488  1.0
  C  C173  1  0.67575032  0.76819113  0.69402642  1.0
  C  C174  1  0.86762116  0.22867887  0.75703475  1.0
  C  C175  1  0.22873827  0.86735849  0.24216567  1.0
  C  C176  1  0.23111650  0.32394449  0.30637959  1.0
  C  C177  1  0.77125076  0.13265310  0.24217408  1.0
  C  C178  1  0.29818832  0.63642637  0.89017207  1.0
  C  C179  1  0.76880126  0.67601769  0.30642037  1.0
  C  C180  1  0.65107779  0.65232523  0.23534084  1.0
  C  C181  1  0.76602057  0.24197311  0.16147436  1.0
  C  C182  1  0.34884602  0.34765768  0.23533356  1.0
  C  C183  1  0.23398060  0.75800893  0.16148663  1.0
  C  C184  1  0.75796928  0.23394060  0.83838502  1.0
  C  C185  1  0.65248781  0.65158647  0.76508027  1.0
  C  C186  1  0.24201550  0.76607654  0.83840041  1.0
  C  C187  1  0.34750747  0.34833694  0.76511787  1.0
  C  C188  1  0.25795518  0.26605513  0.66160260  1.0
  C  C189  1  0.94587749  0.13578658  0.63651841  1.0
  C  C190  1  0.15245138  0.84836782  0.73488686  1.0
  C  C191  1  0.74206621  0.73384802  0.66158292  1.0
  C  C192  1  0.84752905  0.15163990  0.73487281  1.0
  C  C193  1  0.15109700  0.84767679  0.26465627  1.0
  C  C194  1  0.26596977  0.25801595  0.33849633  1.0
  C  C195  1  0.84891453  0.15230502  0.26464020  1.0
  C  C196  1  0.73398327  0.74199628  0.33849799  1.0
  C  C197  1  0.24460926  0.34809819  0.67766239  1.0
  C  C198  1  0.21293593  0.88725362  0.77273991  1.0
  C  C199  1  0.75549491  0.65183932  0.67770859  1.0
  N  N200  1  0.38526919  0.63773079  0.07250894  1.0
  N  N201  1  0.13817072  0.11543729  0.57216986  1.0
  N  N202  1  0.05997279  0.89593317  0.57610621  1.0
  N  N203  1  0.86177898  0.88452525  0.57216217  1.0
  N  N204  1  0.88526923  0.86226537  0.42745663  1.0
  N  N205  1  0.10530626  0.93979684  0.42370842  1.0
  N  N206  1  0.11470914  0.13774173  0.42746158  1.0
  N  N207  1  0.89468906  0.06020377  0.42369803  1.0
  N  N208  1  0.43088256  0.36557966  0.07116960  1.0
  N  N209  1  0.31524667  0.59745093  0.05762346  1.0
  N  N210  1  0.56911617  0.63440996  0.07114873  1.0
  N  N211  1  0.60530364  0.56019969  0.07629307  1.0
  N  N212  1  0.68475254  0.40254643  0.05762442  1.0
  N  N213  1  0.40256290  0.68463193  0.94304378  1.0
  N  N214  1  0.36541243  0.43251443  0.92854117  1.0
  N  N215  1  0.59744165  0.31536564  0.94305663  1.0
  N  N216  1  0.63460824  0.56749634  0.92853327  1.0
  N  N217  1  0.90255900  0.81532989  0.55693489  1.0
  N  N218  1  0.86544809  0.06746286  0.57145013  1.0
  N  N219  1  0.09742739  0.18465311  0.55693759  1.0
  N  N220  1  0.13456418  0.93252984  0.57145417  1.0
  N  N221  1  0.93086825  0.13440142  0.42883454  1.0
  N  N222  1  0.61472918  0.36227927  0.07252426  1.0
  N  N223  1  0.81523490  0.90256071  0.44235073  1.0
  N  N224  1  0.06911586  0.86560503  0.42884427  1.0
  N  N225  1  0.18474993  0.09745971  0.44236253  1.0
  N  N226  1  0.39468265  0.43978551  0.07630005  1.0
  N  N227  1  0.44001428  0.39590481  0.92388187  1.0
  N  N228  1  0.63816171  0.38456839  0.92782473  1.0
  N  N229  1  0.55999152  0.60407298  0.92385759  1.0
  N  N230  1  0.36182596  0.61543458  0.92782440  1.0
  N  N231  1  0.94002635  0.10408167  0.57610290  1.0
