# generated using pymatgen
data_Zn4H11C24S4N4O13F
_symmetry_space_group_name_H-M   'P 1'
_cell_length_a   19.66559407
_cell_length_b   19.66921535
_cell_length_c   33.37396141
_cell_angle_alpha   79.21488745
_cell_angle_beta   79.23039828
_cell_angle_gamma   63.94063039
_symmetry_Int_Tables_number   1
_chemical_formula_structural   Zn4H11C24S4N4O13F
_chemical_formula_sum   'Zn16 H44 C96 S16 N16 O52 F4'
_cell_volume   11311.66593649
_cell_formula_units_Z   4
loop_
 _symmetry_equiv_pos_site_id
 _symmetry_equiv_pos_as_xyz
  1  'x, y, z'
loop_
 _atom_site_type_symbol
 _atom_site_label
 _atom_site_symmetry_multiplicity
 _atom_site_fract_x
 _atom_site_fract_y
 _atom_site_fract_z
 _atom_site_occupancy
  Zn  Zn0  1  0.59915608  0.94487066  0.52185462  1.0
  Zn  Zn1  1  0.51650208  0.01621732  0.43973060  1.0
  Zn  Zn2  1  0.43993747  0.94047751  0.51769411  1.0
  Zn  Zn3  1  0.44365676  0.09899255  0.52070704  1.0
  Zn  Zn4  1  0.65072281  0.30663174  0.72835913  1.0
  Zn  Zn5  1  0.81051859  0.31019455  0.73329438  1.0
  Zn  Zn6  1  0.73262697  0.23204640  0.80963191  1.0
  Zn  Zn7  1  0.80533821  0.15184146  0.72820971  1.0
  Zn  Zn8  1  0.23285671  0.73318932  0.30960203  1.0
  Zn  Zn9  1  0.30445938  0.65149128  0.22811601  1.0
  Zn  Zn10  1  0.15043271  0.80759194  0.22872132  1.0
  Zn  Zn11  1  0.31047118  0.80994308  0.23259254  1.0
  Zn  Zn12  1  0.93993737  0.44026460  0.01697782  1.0
  Zn  Zn13  1  0.94479466  0.59823526  0.02133097  1.0
  Zn  Zn14  1  0.09959888  0.44382340  0.02136664  1.0
  Zn  Zn15  1  0.01711957  0.51731382  0.93973082  1.0
  H  H16  1  0.75114552  0.04520188  0.64845542  1.0
  H  H17  1  0.54557192  0.25315545  0.64995309  1.0
  H  H18  1  0.70013703  0.00050105  0.60003228  1.0
  H  H19  1  0.40300632  0.90299973  0.29981873  1.0
  H  H20  1  0.29935480  0.79787590  0.40205940  1.0
  H  H21  1  0.44971547  0.94979536  0.34937679  1.0
  H  H22  1  0.95017591  0.45003385  0.84671510  1.0
  H  H23  1  0.84690692  0.34898668  0.95122078  1.0
  H  H24  1  0.90100980  0.39996039  0.80006257  1.0
  H  H25  1  0.20453015  0.49848519  0.10157116  1.0
  H  H26  1  0.99646164  0.70394215  0.10057854  1.0
  H  H27  1  0.24965869  0.54948507  0.14977494  1.0
  H  H28  1  0.44521311  0.68469661  0.60451123  1.0
  H  H29  1  0.44776363  0.76628925  0.57393029  1.0
  H  H30  1  0.79733806  0.57458931  0.65502072  1.0
  H  H31  1  0.80066885  0.48597915  0.67821139  1.0
  H  H32  1  0.47667497  0.23481867  0.31437796  1.0
  H  H33  1  0.48299828  0.16518218  0.35623009  1.0
  H  H34  1  0.29625064  0.51567407  0.43544073  1.0
  H  H35  1  0.27238880  0.58489634  0.39305541  1.0
  H  H36  1  0.73399212  0.95353639  0.31435373  1.0
  H  H37  1  0.66497777  0.97747921  0.35675282  1.0
  H  H38  1  0.01487063  0.77437886  0.43550298  1.0
  H  H39  1  0.08477144  0.76704164  0.39360393  1.0
  H  H40  1  0.19568453  0.25662289  0.61507682  1.0
  H  H41  1  0.27429481  0.20465198  0.58201046  1.0
  H  H42  1  0.06509900  0.98477508  0.64495300  1.0
  H  H43  1  0.97802827  0.04405216  0.66972840  1.0
  H  H44  1  0.51526560  0.27621263  0.93533028  1.0
  H  H45  1  0.58535995  0.26694400  0.89318149  1.0
  H  H46  1  0.23381584  0.45613499  0.81403673  1.0
  H  H47  1  0.16457013  0.47909491  0.85663278  1.0
  H  H48  1  0.91366248  0.85426992  0.77385322  1.0
  H  H49  1  0.88217883  0.95239886  0.76067204  1.0
  H  H50  1  0.81523391  0.89580493  0.97497073  1.0
  H  H51  1  0.86312548  0.79773080  0.98894388  1.0
  H  H52  1  0.56477028  0.48420071  0.14477758  1.0
  H  H53  1  0.47817686  0.54315472  0.17014406  1.0
  H  H54  1  0.69633655  0.75510110  0.11594833  1.0
  H  H55  1  0.77441018  0.70353383  0.08265540  1.0
  H  H56  1  0.29715297  0.07557742  0.15492815  1.0
  H  H57  1  0.30097537  0.98676826  0.17795770  1.0
  H  H58  1  0.94489669  0.18429985  0.10483035  1.0
  H  H59  1  0.94713417  0.26600975  0.07428793  1.0
  C  C60  1  0.68410545  0.93986237  0.43761393  1.0
  C  C61  1  0.43038237  0.93054279  0.43105899  1.0
  C  C62  1  0.56139180  0.81507062  0.56149402  1.0
  C  C63  1  0.31484784  0.06288012  0.56167131  1.0
  C  C64  1  0.56753613  0.07058743  0.56916393  1.0
  C  C65  1  0.43767909  0.18407992  0.43695716  1.0
  C  C66  1  0.68966270  0.43497356  0.68805495  1.0
  C  C67  1  0.81953020  0.31797698  0.81944233  1.0
  C  C68  1  0.56539531  0.31159111  0.81203922  1.0
  C  C69  1  0.81224344  0.06386675  0.81060968  1.0
  C  C70  1  0.68094962  0.17971389  0.68111259  1.0
  C  C71  1  0.93490179  0.18757206  0.68807084  1.0
  C  C72  1  0.31048975  0.56578353  0.31206244  1.0
  C  C73  1  0.17958903  0.68175580  0.18101053  1.0
  C  C74  1  0.06564993  0.81285042  0.31268952  1.0
  C  C75  1  0.19005286  0.93556016  0.18822433  1.0
  C  C76  1  0.32015099  0.81874295  0.31885543  1.0
  C  C77  1  0.43488923  0.68697623  0.18821600  1.0
  C  C78  1  0.81474729  0.56303324  0.06140502  1.0
  C  C79  1  0.06917598  0.56870819  0.06951323  1.0
  C  C80  1  0.06061789  0.31489049  0.06123282  1.0
  C  C81  1  0.18461359  0.43946296  0.93762219  1.0
  C  C82  1  0.93068255  0.43166949  0.93032132  1.0
  C  C83  1  0.93829668  0.68579198  0.93891439  1.0
  C  C84  1  0.59498705  0.10042615  0.59793902  1.0
  C  C85  1  0.65157599  0.15163752  0.65235917  1.0
  C  C86  1  0.55265905  0.17170855  0.61266215  1.0
  C  C87  1  0.69531399  0.08026768  0.63822751  1.0
  C  C88  1  0.57993348  0.19751188  0.63937681  1.0
  C  C89  1  0.66705696  0.05562714  0.61144472  1.0
  C  C90  1  0.40115708  0.90091703  0.40307172  1.0
  C  C91  1  0.34842110  0.84754014  0.34778108  1.0
  C  C92  1  0.35835333  0.85775304  0.41701671  1.0
  C  C93  1  0.39082393  0.89057350  0.33285322  1.0
  C  C94  1  0.33224222  0.83116281  0.39010861  1.0
  C  C95  1  0.41657000  0.91642044  0.36029049  1.0
  C  C96  1  0.54578916  0.69588415  0.59841997  1.0
  C  C97  1  0.70582726  0.55351560  0.65046619  1.0
  C  C98  1  0.58663243  0.74123120  0.58563459  1.0
  C  C99  1  0.66507376  0.50813161  0.66319012  1.0
  C  C100  1  0.66128694  0.62238992  0.62700008  1.0
  C  C101  1  0.58991025  0.62754233  0.62242782  1.0
  C  C102  1  0.42317578  0.27350788  0.36977826  1.0
  C  C103  1  0.32467031  0.47640544  0.37921121  1.0
  C  C104  1  0.41258483  0.25798805  0.41277835  1.0
  C  C105  1  0.33486637  0.49190013  0.33618611  1.0
  C  C106  1  0.35793552  0.39619261  0.39116201  1.0
  C  C107  1  0.39137771  0.35374427  0.35788985  1.0
  C  C108  1  0.77348286  0.92566606  0.37045854  1.0
  C  C109  1  0.97638421  0.82698709  0.37987990  1.0
  C  C110  1  0.75804365  0.91551782  0.41347948  1.0
  C  C111  1  0.99182641  0.83775692  0.33686660  1.0
  C  C112  1  0.89614447  0.85888648  0.39176835  1.0
  C  C113  1  0.85365972  0.89244021  0.35849356  1.0
  C  C114  1  0.19922440  0.15710375  0.60208544  1.0
  C  C115  1  0.04998663  0.09421735  0.64689144  1.0
  C  C116  1  0.24105958  0.08724706  0.58581050  1.0
  C  C117  1  0.00803066  0.16397837  0.66323564  1.0
  C  C118  1  0.12035070  0.09200504  0.62502992  1.0
  C  C119  1  0.12972571  0.15850832  0.62485800  1.0
  C  C120  1  0.84706139  0.34652786  0.84883586  1.0
  C  C121  1  0.90184236  0.40256436  0.90181181  1.0
  C  C122  1  0.83265185  0.33321056  0.89181477  1.0
  C  C123  1  0.91709263  0.41705010  0.85907556  1.0
  C  C124  1  0.85929000  0.36047797  0.91812761  1.0
  C  C125  1  0.88984845  0.38933471  0.83332196  1.0
  C  C126  1  0.47659611  0.32640291  0.87936666  1.0
  C  C127  1  0.27345495  0.42554968  0.87035030  1.0
  C  C128  1  0.49170848  0.33691932  0.83629537  1.0
  C  C129  1  0.25832594  0.41525132  0.91342286  1.0
  C  C130  1  0.35362739  0.39220263  0.85825088  1.0
  C  C131  1  0.39635054  0.35862723  0.89141026  1.0
  C  C132  1  0.87739781  0.91851876  0.82172258  1.0
  C  C133  1  0.87527123  0.83124467  0.92784972  1.0
  C  C134  1  0.83765582  0.99074659  0.83549668  1.0
  C  C135  1  0.91486709  0.75890952  0.91409103  1.0
  C  C136  1  0.86116316  0.88920215  0.89367460  1.0
  C  C137  1  0.89014853  0.86049425  0.85582394  1.0
  C  C138  1  0.14960061  0.65442037  0.15225361  1.0
  C  C139  1  0.09771179  0.59784311  0.09813901  1.0
  C  C140  1  0.07812958  0.69682326  0.13770668  1.0
  C  C141  1  0.16940483  0.55415823  0.11194906  1.0
  C  C142  1  0.05209439  0.66949178  0.11114803  1.0
  C  C143  1  0.19431742  0.58247911  0.13858644  1.0
  C  C144  1  0.55003241  0.59350070  0.14703364  1.0
  C  C145  1  0.69883391  0.65689031  0.10195937  1.0
  C  C146  1  0.50811886  0.66322162  0.16341144  1.0
  C  C147  1  0.74082708  0.58724571  0.08553264  1.0
  C  C148  1  0.62943465  0.65816823  0.12474177  1.0
  C  C149  1  0.62019414  0.59158323  0.12491249  1.0
  C  C150  1  0.20591415  0.05409658  0.15038258  1.0
  C  C151  1  0.04538604  0.19571818  0.09848242  1.0
  C  C152  1  0.16531983  0.00860484  0.16330862  1.0
  C  C153  1  0.08596235  0.24124374  0.08551332  1.0
  C  C154  1  0.08973952  0.12761076  0.12252519  1.0
  C  C155  1  0.16109410  0.12279219  0.12692739  1.0
  S  S156  1  0.67710033  0.70013820  0.60228497  1.0
  S  S157  1  0.57485374  0.54894454  0.64628556  1.0
  S  S158  1  0.36400598  0.33999415  0.43777192  1.0
  S  S159  1  0.38330843  0.40984992  0.31119982  1.0
  S  S160  1  0.84008229  0.86705542  0.43845334  1.0
  S  S161  1  0.90976818  0.88657467  0.31187618  1.0
  S  S162  1  0.19555048  0.02571833  0.59772948  1.0
  S  S163  1  0.05358749  0.22549560  0.65131843  1.0
  S  S164  1  0.40940634  0.38593652  0.81151201  1.0
  S  S165  1  0.34063593  0.36662634  0.93820550  1.0
  S  S166  1  0.81761280  0.98727268  0.88897619  1.0
  S  S167  1  0.93521150  0.76245856  0.86058340  1.0
  S  S168  1  0.55338841  0.72498787  0.15133924  1.0
  S  S169  1  0.69541417  0.52560990  0.09741356  1.0
  S  S170  1  0.07500585  0.04897028  0.14658727  1.0
  S  S171  1  0.17652001  0.20062772  0.10200501  1.0
  N  N172  1  0.47561277  0.71321376  0.58845857  1.0
  N  N173  1  0.77806181  0.53372442  0.65824870  1.0
  N  N174  1  0.45647965  0.21983318  0.34317937  1.0
  N  N175  1  0.28636350  0.52990703  0.40567625  1.0
  N  N176  1  0.71983227  0.96411999  0.34400315  1.0
  N  N177  1  0.03000099  0.79341752  0.40646359  1.0
  N  N178  1  0.22059462  0.21564017  0.59604397  1.0
  N  N179  1  0.02615571  0.03782825  0.65020035  1.0
  N  N180  1  0.53031842  0.29260225  0.90576155  1.0
  N  N181  1  0.21974213  0.46376717  0.84409411  1.0
  N  N182  1  0.90237451  0.90574574  0.78170042  1.0
  N  N183  1  0.85538489  0.84432598  0.96790165  1.0
  N  N184  1  0.52625921  0.53707501  0.15059915  1.0
  N  N185  1  0.72002862  0.71574132  0.09593190  1.0
  N  N186  1  0.27824298  0.03447109  0.15798266  1.0
  N  N187  1  0.97519678  0.21277825  0.08858799  1.0
  O  O188  1  0.50050791  0.00000899  0.49959691  1.0
  O  O189  1  0.68251834  0.92402806  0.47672994  1.0
  O  O190  1  0.47161934  0.96564659  0.41367965  1.0
  O  O191  1  0.49431517  0.84250409  0.54967001  1.0
  O  O192  1  0.62514359  0.97581315  0.41769297  1.0
  O  O193  1  0.60700203  0.84794039  0.55363474  1.0
  O  O194  1  0.41196481  0.91880100  0.46942410  1.0
  O  O195  1  0.34473985  0.99519757  0.55123787  1.0
  O  O196  1  0.50144864  0.11207590  0.55835171  1.0
  O  O197  1  0.34517295  0.11118054  0.55248401  1.0
  O  O198  1  0.61320638  0.00543665  0.55793413  1.0
  O  O199  1  0.47289315  0.12485260  0.41724174  1.0
  O  O200  1  0.42318262  0.18292666  0.47610538  1.0
  O  O201  1  0.75020172  0.25013102  0.74956825  1.0
  O  O202  1  0.64305042  0.40328175  0.69665379  1.0
  O  O203  1  0.83428116  0.33778851  0.78126784  1.0
  O  O204  1  0.62457422  0.27579101  0.83175981  1.0
  O  O205  1  0.75682975  0.40711771  0.69983038  1.0
  O  O206  1  0.56673146  0.32632040  0.77282178  1.0
  O  O207  1  0.78411797  0.27659088  0.83464329  1.0
  O  O208  1  0.77395749  0.12310559  0.82939623  1.0
  O  O209  1  0.74606187  0.13477197  0.69262287  1.0
  O  O210  1  0.82995530  0.06387201  0.77124229  1.0
  O  O211  1  0.63848378  0.24596558  0.69155960  1.0
  O  O212  1  0.90693549  0.25326233  0.70086792  1.0
  O  O213  1  0.90322453  0.14030640  0.69562397  1.0
  O  O214  1  0.25015695  0.75015194  0.24980389  1.0
  O  O215  1  0.27375037  0.62475787  0.33187243  1.0
  O  O216  1  0.24516373  0.63613924  0.19191817  1.0
  O  O217  1  0.06705636  0.82787464  0.27354853  1.0
  O  O218  1  0.32714162  0.56738985  0.27293366  1.0
  O  O219  1  0.12490103  0.77707499  0.33245567  1.0
  O  O220  1  0.13800427  0.74740598  0.19220194  1.0
  O  O221  1  0.14317544  0.90424073  0.19731823  1.0
  O  O222  1  0.33453090  0.83728969  0.28059989  1.0
  O  O223  1  0.25762085  0.90738265  0.19954655  1.0
  O  O224  1  0.28407609  0.77810345  0.33508819  1.0
  O  O225  1  0.40309547  0.63988784  0.19602863  1.0
  O  O226  1  0.40711126  0.75297738  0.20065016  1.0
  O  O227  1  0.00028081  0.50008063  0.99982627  1.0
  O  O228  1  0.84432751  0.49585444  0.05037317  1.0
  O  O229  1  0.00254466  0.61157739  0.05929958  1.0
  O  O230  1  0.10641058  0.34749820  0.05319700  1.0
  O  O231  1  0.84551724  0.61106215  0.05285342  1.0
  O  O232  1  0.99343080  0.34245147  0.04946795  1.0
  O  O233  1  0.11357219  0.50383333  0.05785733  1.0
  O  O234  1  0.18323202  0.42341852  0.97677168  1.0
  O  O235  1  0.97045606  0.46846591  0.91378420  1.0
  O  O236  1  0.12543816  0.47547664  0.91787781  1.0
  O  O237  1  0.91295305  0.41707290  0.96869017  1.0
  O  O238  1  0.92273561  0.68597357  0.97838386  1.0
  O  O239  1  0.97254791  0.62624496  0.92002470  1.0
  F  F240  1  0.48278323  0.21901584  0.60124009  1.0
  F  F241  1  0.34079353  0.83964419  0.45764808  1.0
  F  F242  1  0.79152114  0.29307711  0.90968630  1.0
  F  F243  1  0.03097030  0.76670309  0.14904848  1.0
