# generated using pymatgen
data_Zr3H10(C9O8)2
_symmetry_space_group_name_H-M   'P 1'
_cell_length_a   12.92186417
_cell_length_b   15.11206866
_cell_length_c   15.14753321
_cell_angle_alpha   90.04374985
_cell_angle_beta   89.91209621
_cell_angle_gamma   89.94757769
_symmetry_Int_Tables_number   1
_chemical_formula_structural   Zr3H10(C9O8)2
_chemical_formula_sum   'Zr6 H20 C36 O32'
_cell_volume   2957.94560315
_cell_formula_units_Z   2
loop_
 _symmetry_equiv_pos_site_id
 _symmetry_equiv_pos_as_xyz
  1  'x, y, z'
loop_
 _atom_site_type_symbol
 _atom_site_label
 _atom_site_symmetry_multiplicity
 _atom_site_fract_x
 _atom_site_fract_y
 _atom_site_fract_z
 _atom_site_occupancy
  Zr  Zr0  1  0.00696864  0.98819609  0.83538080  1.0
  Zr  Zr1  1  0.00755123  0.83088991  0.00766552  1.0
  Zr  Zr2  1  0.00974116  0.16635546  0.98867360  1.0
  Zr  Zr3  1  0.00358642  0.00689108  0.16236525  1.0
  Zr  Zr4  1  0.81182718  0.99868156  0.99720186  1.0
  Zr  Zr5  1  0.20178908  0.99699023  0.99855175  1.0
  H  H6  1  0.15626053  0.85965955  0.86745493  1.0
  H  H7  1  0.85515208  0.86996660  0.13455401  1.0
  H  H8  1  0.15656912  0.13325473  0.12894104  1.0
  H  H9  1  0.86880839  0.13440235  0.85634847  1.0
  H  H10  1  0.95247728  0.71063311  0.13395032  1.0
  H  H11  1  0.00671576  0.82321824  0.20100607  1.0
  H  H12  1  0.95092584  0.13021852  0.27754630  1.0
  H  H13  1  0.00359929  0.20231927  0.17042692  1.0
  H  H14  1  0.05424136  0.28828920  0.87258622  1.0
  H  H15  1  0.95250433  0.07196915  0.67400329  1.0
  H  H16  1  0.95315489  0.86516822  0.71883161  1.0
  H  H17  1  0.00220707  0.79507598  0.82515297  1.0
  H  H18  1  0.93738640  0.27509908  0.11491585  1.0
  H  H19  1  0.07447824  0.07739931  0.69116635  1.0
  H  H20  1  0.93349239  0.72166808  0.87910255  1.0
  H  H21  1  0.07524570  0.87843117  0.27233546  1.0
  H  H22  1  0.69859963  0.99822935  0.49545667  1.0
  H  H23  1  0.31456425  0.99807359  0.49904034  1.0
  H  H24  1  0.69832894  0.49732781  0.99897070  1.0
  H  H25  1  0.31385230  0.49727354  0.99732284  1.0
  C  C26  1  0.75747571  0.98692290  0.78767515  1.0
  C  C27  1  0.25537304  0.78876559  0.00755440  1.0
  C  C28  1  0.75578255  0.78908852  0.99712657  1.0
  C  C29  1  0.25964999  0.00146713  0.79077056  1.0
  C  C30  1  0.26007783  0.20356997  0.98761645  1.0
  C  C31  1  0.75538746  0.01008415  0.20551487  1.0
  C  C32  1  0.25494480  0.99367843  0.20702755  1.0
  C  C33  1  0.75344736  0.20369479  0.00274581  1.0
  C  C34  1  0.56265467  0.99700756  0.57783745  1.0
  C  C35  1  0.45225612  0.99843886  0.57885529  1.0
  C  C36  1  0.39880187  0.99820926  0.49832928  1.0
  C  C37  1  0.45045932  0.99821022  0.41678943  1.0
  C  C38  1  0.56087102  0.99985142  0.41584844  1.0
  C  C39  1  0.61434761  0.99834733  0.49637827  1.0
  C  C40  1  0.56116546  0.57839978  0.99875301  1.0
  C  C41  1  0.45071445  0.57838549  0.99950277  1.0
  C  C42  1  0.39811595  0.49722574  0.99762977  1.0
  C  C43  1  0.45107594  0.41618442  0.99629794  1.0
  C  C44  1  0.56145119  0.41615848  0.99819106  1.0
  C  C45  1  0.61406254  0.49728103  0.99870408  1.0
  C  C46  1  0.39341447  0.33696390  0.99303403  1.0
  C  C47  1  0.33730261  0.27237658  0.98935097  1.0
  C  C48  1  0.67578743  0.27240725  0.00221032  1.0
  C  C49  1  0.61940049  0.33697382  0.99976416  1.0
  C  C50  1  0.39183136  0.65714220  0.00242864  1.0
  C  C51  1  0.33279968  0.71991944  0.00595878  1.0
  C  C52  1  0.67835318  0.72043315  0.99659136  1.0
  C  C53  1  0.61982426  0.65726719  0.99790510  1.0
  C  C54  1  0.39088180  0.99643255  0.33868274  1.0
  C  C55  1  0.33191924  0.99396604  0.27606186  1.0
  C  C56  1  0.61911295  0.00341808  0.33696240  1.0
  C  C57  1  0.67784183  0.00782320  0.27414741  1.0
  C  C58  1  0.33675332  0.00214944  0.72172895  1.0
  C  C59  1  0.39440053  0.00000361  0.65805255  1.0
  C  C60  1  0.68032897  0.98974089  0.71897691  1.0
  C  C61  1  0.62197252  0.99389677  0.65601702  1.0
  O  O62  1  0.85130126  0.98349455  0.75978572  1.0
  O  O63  1  0.72770120  0.98893500  0.86741985  1.0
  O  O64  1  0.16197826  0.76176579  0.00887167  1.0
  O  O65  1  0.28630430  0.86896601  0.00634234  1.0
  O  O66  1  0.84965693  0.76116491  0.99616511  1.0
  O  O67  1  0.72594150  0.86923510  0.99968753  1.0
  O  O68  1  0.16586165  0.00705751  0.76385018  1.0
  O  O69  1  0.28959591  0.99370828  0.87017614  1.0
  O  O70  1  0.01039657  0.86932912  0.76025802  1.0
  O  O71  1  0.00562492  0.08835995  0.71657614  1.0
  O  O72  1  0.00061588  0.75112107  0.87931688  1.0
  O  O73  1  0.00290728  0.75752317  0.12610185  1.0
  O  O74  1  0.92413301  0.92584949  0.93211554  1.0
  O  O75  1  0.11562120  0.89834882  0.90525369  1.0
  O  O76  1  0.16714286  0.23150699  0.98265921  1.0
  O  O77  1  0.28994763  0.12322814  0.99222036  1.0
  O  O78  1  0.84881046  0.01442311  0.23306195  1.0
  O  O79  1  0.72529248  0.00626032  0.12561427  1.0
  O  O80  1  0.16110455  0.98960654  0.23350146  1.0
  O  O81  1  0.28631276  0.99886651  0.12753813  1.0
  O  O82  1  0.84582514  0.23043131  0.01310950  1.0
  O  O83  1  0.72395563  0.12377526  0.99139241  1.0
  O  O84  1  0.00513256  0.24642136  0.11719131  1.0
  O  O85  1  0.99462428  0.25302733  0.88932590  1.0
  O  O86  1  0.00786764  0.12576995  0.23570057  1.0
  O  O87  1  0.00751038  0.87794211  0.24388214  1.0
  O  O88  1  0.11513597  0.09608964  0.09041114  1.0
  O  O89  1  0.92414202  0.06787459  0.06128382  1.0
  O  O90  1  0.09150306  0.06370951  0.92622149  1.0
  O  O91  1  0.89622597  0.90757167  0.09625879  1.0
  O  O92  1  0.90268121  0.09201527  0.89502567  1.0
  O  O93  1  0.08795620  0.93079618  0.06845722  1.0
