# generated using pymatgen
data_ZnH16C18N3O5
_symmetry_space_group_name_H-M   'P 1'
_cell_length_a   10.87062723
_cell_length_b   15.88447709
_cell_length_c   16.83448663
_cell_angle_alpha   87.48798084
_cell_angle_beta   89.73566405
_cell_angle_gamma   87.50761710
_symmetry_Int_Tables_number   1
_chemical_formula_structural   ZnH16C18N3O5
_chemical_formula_sum   'Zn2 H32 C36 N6 O10'
_cell_volume   2901.33072337
_cell_formula_units_Z   2
loop_
 _symmetry_equiv_pos_site_id
 _symmetry_equiv_pos_as_xyz
  1  'x, y, z'
loop_
 _atom_site_type_symbol
 _atom_site_label
 _atom_site_symmetry_multiplicity
 _atom_site_fract_x
 _atom_site_fract_y
 _atom_site_fract_z
 _atom_site_occupancy
  Zn  Zn0  1  0.51007916  0.59200911  0.50637102  1.0
  Zn  Zn1  1  0.52148209  0.41739042  0.49782854  1.0
  H  H2  1  0.90058212  0.62429296  0.44009802  1.0
  H  H3  1  0.89447515  0.53639107  0.38002895  1.0
  H  H4  1  0.41270449  0.38494247  0.27282401  1.0
  H  H5  1  0.69318531  0.72706849  0.49591687  1.0
  H  H6  1  0.69003530  0.88740312  0.49183565  1.0
  H  H7  1  0.69443275  0.13371462  0.39962984  1.0
  H  H8  1  0.67128525  0.29324642  0.40618053  1.0
  H  H9  1  0.31685988  0.72387189  0.52879066  1.0
  H  H10  1  0.39581515  0.11656675  0.56853311  1.0
  H  H11  1  0.29744339  0.88448055  0.52931657  1.0
  H  H12  1  0.38834249  0.27624609  0.57009197  1.0
  H  H13  1  0.13047515  0.38412342  0.55876070  1.0
  H  H14  1  0.10925505  0.52230456  0.37378844  1.0
  H  H15  1  0.11468413  0.61879905  0.42178758  1.0
  H  H16  1  0.89730970  0.60527611  0.59081144  1.0
  H  H17  1  0.10955876  0.61878828  0.57116656  1.0
  H  H18  1  0.91628415  0.37522213  0.55059560  1.0
  H  H19  1  0.92087432  0.38859920  0.44636491  1.0
  H  H20  1  0.13610033  0.38378799  0.45434348  1.0
  H  H21  1  0.30321490  0.72659181  0.70146842  1.0
  H  H22  1  0.45600808  0.68126974  0.71713167  1.0
  H  H23  1  0.35684963  0.70272617  0.80087968  1.0
  H  H24  1  0.92153842  0.50290983  0.63476227  1.0
  H  H25  1  0.15866527  0.31205652  0.10438185  1.0
  H  H26  1  0.24957562  0.35682500  0.02441832  1.0
  H  H27  1  0.15751169  0.42439932  0.08568234  1.0
  H  H28  1  0.13291163  0.52489147  0.62914858  1.0
  H  H29  1  0.29143341  0.58090364  0.88893112  1.0
  H  H30  1  0.39797280  0.64606020  0.10050249  1.0
  H  H31  1  0.46924836  0.65061329  0.24274632  1.0
  H  H32  1  0.53055802  0.35207311  0.75665224  1.0
  H  H33  1  0.49084851  0.34097768  0.90455666  1.0
  C  C34  1  0.50130021  0.51461494  0.34767961  1.0
  C  C35  1  0.44153747  0.59224789  0.21789330  1.0
  C  C36  1  0.34560987  0.53160057  0.85997648  1.0
  C  C37  1  0.75453280  0.50608593  0.50952997  1.0
  C  C38  1  0.36660249  0.53705517  0.77827665  1.0
  C  C39  1  0.39382337  0.46172887  0.90546068  1.0
  C  C40  1  0.43845154  0.47367333  0.74105720  1.0
  C  C41  1  0.47907020  0.40189582  0.78668124  1.0
  C  C42  1  0.45706156  0.39537264  0.86798798  1.0
  C  C43  1  0.45309723  0.24132962  0.53282843  1.0
  C  C44  1  0.45773058  0.15403450  0.53205293  1.0
  C  C45  1  0.13521382  0.50815844  0.50147675  1.0
  C  C46  1  0.54599450  0.11446549  0.48347924  1.0
  C  C47  1  0.62533112  0.16375673  0.43737754  1.0
  C  C48  1  0.61322458  0.25111256  0.44099153  1.0
  C  C49  1  0.47529918  0.48097879  0.65513864  1.0
  C  C50  1  0.60613994  0.85302649  0.50013798  1.0
  C  C51  1  0.60829004  0.76549413  0.50228137  1.0
  C  C52  1  0.49222890  0.89664087  0.50922742  1.0
  C  C53  1  0.39601518  0.76349518  0.52145856  1.0
  C  C54  1  0.38594633  0.85105092  0.52126615  1.0
  C  C55  1  0.27501677  0.51184837  0.49718375  1.0
  C  C56  1  0.08571960  0.55224505  0.57581361  1.0
  C  C57  1  0.93652006  0.55918677  0.43394210  1.0
  C  C58  1  0.07868829  0.55516522  0.42711088  1.0
  C  C59  1  0.94461598  0.54365971  0.58273979  1.0
  C  C60  1  0.95193281  0.41529396  0.50167439  1.0
  C  C61  1  0.89507202  0.50513624  0.50706496  1.0
  C  C62  1  0.36038583  0.68253099  0.73904290  1.0
  C  C63  1  0.21405582  0.36526468  0.08490135  1.0
  C  C64  1  0.09398252  0.41675777  0.50428217  1.0
  C  C65  1  0.45209175  0.51664583  0.26444991  1.0
  C  C66  1  0.41056713  0.44231752  0.23487483  1.0
  C  C67  1  0.36221906  0.44011682  0.15819960  1.0
  C  C68  1  0.36704767  0.51402752  0.10709520  1.0
  C  C69  1  0.39977235  0.59010080  0.14046691  1.0
  N  N70  1  0.35873863  0.52019510  0.02387574  1.0
  N  N71  1  0.38738133  0.45242875  0.98914364  1.0
  N  N72  1  0.52949585  0.28862108  0.48824862  1.0
  N  N73  1  0.56303828  0.02557812  0.47919558  1.0
  N  N74  1  0.47525892  0.98546149  0.50937131  1.0
  N  N75  1  0.50517025  0.72184656  0.51219399  1.0
  O  O76  1  0.49878890  0.58387598  0.38312764  1.0
  O  O77  1  0.31327414  0.36576962  0.14048853  1.0
  O  O78  1  0.53957179  0.44288314  0.37706919  1.0
  O  O79  1  0.69774145  0.57818330  0.50545526  1.0
  O  O80  1  0.70316742  0.43559007  0.51498020  1.0
  O  O81  1  0.50259885  0.55326272  0.62672363  1.0
  O  O82  1  0.48012907  0.41258044  0.61802687  1.0
  O  O83  1  0.32124719  0.58277196  0.50829962  1.0
  O  O84  1  0.33632178  0.44431947  0.48218717  1.0
  O  O85  1  0.30975824  0.60142610  0.73239432  1.0
