# generated using pymatgen
data_ZnH2C11N(OF)4
_symmetry_space_group_name_H-M   'P 1'
_cell_length_a   10.63771377
_cell_length_b   11.87339902
_cell_length_c   16.08970680
_cell_angle_alpha   90.00015669
_cell_angle_beta   89.99990697
_cell_angle_gamma   89.99932611
_symmetry_Int_Tables_number   1
_chemical_formula_structural   ZnH2C11N(OF)4
_chemical_formula_sum   'Zn2 H4 C22 N2 O8 F8'
_cell_volume   2032.22361483
_cell_formula_units_Z   2
loop_
 _symmetry_equiv_pos_site_id
 _symmetry_equiv_pos_as_xyz
  1  'x, y, z'
loop_
 _atom_site_type_symbol
 _atom_site_label
 _atom_site_symmetry_multiplicity
 _atom_site_fract_x
 _atom_site_fract_y
 _atom_site_fract_z
 _atom_site_occupancy
  Zn  Zn0  1  0.62919138  0.50029851  0.50000029  1.0
  Zn  Zn1  1  0.37075615  0.50025196  0.50000105  1.0
  H  H2  1  0.61624172  0.64233116  0.92826804  1.0
  H  H3  1  0.39805287  0.65074447  0.92826381  1.0
  H  H4  1  0.61624653  0.64232873  0.07173844  1.0
  H  H5  1  0.39805298  0.65074541  0.07173733  1.0
  C  C6  1  0.49998841  0.71911358  0.49999996  1.0
  C  C7  1  0.49997021  0.49963022  0.33848779  1.0
  C  C8  1  0.49996981  0.49963334  0.66151418  1.0
  C  C9  1  0.49998705  0.94354973  0.49999708  1.0
  C  C10  1  0.49997921  0.84052953  0.49999884  1.0
  C  C11  1  0.06428899  0.49966498  0.49999749  1.0
  C  C12  1  0.93568206  0.49967185  0.49999640  1.0
  C  C13  1  0.49994220  0.28161797  0.49999828  1.0
  C  C14  1  0.61860380  0.55500069  0.04866087  1.0
  C  C15  1  0.38736327  0.56392025  0.04865914  1.0
  C  C16  1  0.61860363  0.55500236  0.95134233  1.0
  C  C17  1  0.49991143  0.49771915  0.75150650  1.0
  C  C18  1  0.38736310  0.56392023  0.95134184  1.0
  C  C19  1  0.49999057  0.05718771  0.49999929  1.0
  C  C20  1  0.50000217  0.16019275  0.49999878  1.0
  C  C21  1  0.49991205  0.49771063  0.24849609  1.0
  C  C22  1  0.49984271  0.49390350  0.08320904  1.0
  C  C23  1  0.49984357  0.49390420  0.91679291  1.0
  C  C24  1  0.49393793  0.37133114  0.95075860  1.0
  C  C25  1  0.49393434  0.37133115  0.04924124  1.0
  C  C26  1  0.49979573  0.49453907  0.82678506  1.0
  C  C27  1  0.49979278  0.49453533  0.17321752  1.0
  N  N28  1  0.17342428  0.49996419  0.49999992  1.0
  N  N29  1  0.82654770  0.49995209  0.49999832  1.0
  O  O30  1  0.60736234  0.67140970  0.50000048  1.0
  O  O31  1  0.39262447  0.67138733  0.50000059  1.0
  O  O32  1  0.60725919  0.50041294  0.37357476  1.0
  O  O33  1  0.39269711  0.50026760  0.37360160  1.0
  O  O34  1  0.60725888  0.50041172  0.62642772  1.0
  O  O35  1  0.39269680  0.50026976  0.62640049  1.0
  O  O36  1  0.60727512  0.32934759  0.49999702  1.0
  O  O37  1  0.39255981  0.32926205  0.50000025  1.0
  F  F38  1  0.59449387  0.31079953  0.07759715  1.0
  F  F39  1  0.38796167  0.31877988  0.07760535  1.0
  F  F40  1  0.59450130  0.31080194  0.92240496  1.0
  F  F41  1  0.38796815  0.31877723  0.92239203  1.0
  F  F42  1  0.27385319  0.52417664  0.07863733  1.0
  F  F43  1  0.72786814  0.50668624  0.07868430  1.0
  F  F44  1  0.27385309  0.52417567  0.92136306  1.0
  F  F45  1  0.72786710  0.50668949  0.92131681  1.0
