# generated using pymatgen
data_Zn2H18C37(NO3)6
_symmetry_space_group_name_H-M   'P 1'
_cell_length_a   9.72469000
_cell_length_b   11.12085173
_cell_length_c   23.84648176
_cell_angle_alpha   89.38240297
_cell_angle_beta   89.92993928
_cell_angle_gamma   88.23820874
_symmetry_Int_Tables_number   1
_chemical_formula_structural   Zn2H18C37(NO3)6
_chemical_formula_sum   'Zn2 H18 C37 N6 O18'
_cell_volume   2577.55167370
_cell_formula_units_Z   1
loop_
 _symmetry_equiv_pos_site_id
 _symmetry_equiv_pos_as_xyz
  1  'x, y, z'
loop_
 _atom_site_type_symbol
 _atom_site_label
 _atom_site_symmetry_multiplicity
 _atom_site_fract_x
 _atom_site_fract_y
 _atom_site_fract_z
 _atom_site_occupancy
  Zn  Zn0  1  0.36049434  0.50434435  0.49829125  1.0
  Zn  Zn1  1  0.64323445  0.49521423  0.49794475  1.0
  H  H2  1  0.62121013  0.21071024  0.94665413  1.0
  H  H3  1  0.61958831  0.20791791  0.05283205  1.0
  H  H4  1  0.39376494  0.78589892  0.05303539  1.0
  H  H5  1  0.39730469  0.78969146  0.94683499  1.0
  H  H6  1  0.71531700  0.52839934  0.21405673  1.0
  H  H7  1  0.71387286  0.52716679  0.31959354  1.0
  H  H8  1  0.28315773  0.45823103  0.31842009  1.0
  H  H9  1  0.35316341  0.36598614  0.78672549  1.0
  H  H10  1  0.66025660  0.63911585  0.78158874  1.0
  H  H11  1  0.71173244  0.88628630  0.51646380  1.0
  H  H12  1  0.40684160  0.90563089  0.48183470  1.0
  H  H13  1  0.71078057  0.10682190  0.49727034  1.0
  H  H14  1  0.39945487  0.10074673  0.52046478  1.0
  H  H15  1  0.12407256  0.58450752  0.57730572  1.0
  H  H16  1  0.09933156  0.49464297  0.46283957  1.0
  H  H17  1  0.86548579  0.63348214  0.55759466  1.0
  H  H18  1  0.90991548  0.42098167  0.48751667  1.0
  H  H19  1  0.05890887  0.42462804  0.21563205  1.0
  C  C20  1  0.50572591  0.26805752  0.50497610  1.0
  C  C21  1  0.49581533  0.49473328  0.38805320  1.0
  C  C22  1  0.51188970  0.73234643  0.49665243  1.0
  C  C23  1  0.49137385  0.50522881  0.60928087  1.0
  C  C24  1  0.46891405  0.61090552  0.87869769  1.0
  C  C25  1  0.55166452  0.39337517  0.87864075  1.0
  C  C26  1  0.55034565  0.39413352  0.94070289  1.0
  C  C27  1  0.50888251  0.49954015  0.96979316  1.0
  C  C28  1  0.46859599  0.60666388  0.94076211  1.0
  C  C29  1  0.58985928  0.29031981  0.97027872  1.0
  C  C30  1  0.58897653  0.28875774  0.02917034  1.0
  C  C31  1  0.54852778  0.39093064  0.05867987  1.0
  C  C32  1  0.50772161  0.49779214  0.02955946  1.0
  C  C33  1  0.46544742  0.60284890  0.05870597  1.0
  C  C34  1  0.42603778  0.70672932  0.02928771  1.0
  C  C35  1  0.42781741  0.70871663  0.97040093  1.0
  C  C36  1  0.54798169  0.38735737  0.12091627  1.0
  C  C37  1  0.46223190  0.60247525  0.12087897  1.0
  C  C38  1  0.62129569  0.51208004  0.23748155  1.0
  C  C39  1  0.62053963  0.51183344  0.29583787  1.0
  C  C40  1  0.49801120  0.49282749  0.32498928  1.0
  C  C41  1  0.37748738  0.47302940  0.29516580  1.0
  C  C42  1  0.37677660  0.47157522  0.23639428  1.0
  C  C43  1  0.50103205  0.49213453  0.20793446  1.0
  C  C44  1  0.41867486  0.42687069  0.76370047  1.0
  C  C45  1  0.41772016  0.42706521  0.70540185  1.0
  C  C46  1  0.49617037  0.50460811  0.67273805  1.0
  C  C47  1  0.58122072  0.58035051  0.70263368  1.0
  C  C48  1  0.59027596  0.57947324  0.76085250  1.0
  C  C49  1  0.50644903  0.50317954  0.79131168  1.0
  C  C50  1  0.61438812  0.93299125  0.50607623  1.0
  C  C51  1  0.50584533  0.86508289  0.49429090  1.0
  C  C52  1  0.61267404  0.06333834  0.50407648  1.0
  C  C53  1  0.50016529  0.13587399  0.51047758  1.0
  C  C54  1  0.07403651  0.55516356  0.53881952  1.0
  C  C55  1  0.92182071  0.56227485  0.53486813  1.0
  C  C56  1  0.24791772  0.44798568  0.20540817  1.0
  N  N57  1  0.50980528  0.50268819  0.85150872  1.0
  N  N58  1  0.50794979  0.49509259  0.14757034  1.0
  N  N59  1  0.15059991  0.51733808  0.49871892  1.0
  N  N60  1  0.85278250  0.48901703  0.50602934  1.0
  N  N61  1  0.33209306  0.33679451  0.67816459  1.0
  N  N62  1  0.66607658  0.66741282  0.67193208  1.0
  O  O63  1  0.39068301  0.32593672  0.50979787  1.0
  O  O64  1  0.62176561  0.31519383  0.49553750  1.0
  O  O65  1  0.37979314  0.48340832  0.41192964  1.0
  O  O66  1  0.61081781  0.50822520  0.41239072  1.0
  O  O67  1  0.39664486  0.68165961  0.49018786  1.0
  O  O68  1  0.62774775  0.67752692  0.50430528  1.0
  O  O69  1  0.37460697  0.52531954  0.58720746  1.0
  O  O70  1  0.60578774  0.48529239  0.58543839  1.0
  O  O71  1  0.43553393  0.70122347  0.85130549  1.0
  O  O72  1  0.58628536  0.30478252  0.85114906  1.0
  O  O73  1  0.58085903  0.29699471  0.14842494  1.0
  O  O74  1  0.42344641  0.68985475  0.14839983  1.0
  O  O75  1  0.38416510  0.28052292  0.63871864  1.0
  O  O76  1  0.21572049  0.32271811  0.69799999  1.0
  O  O77  1  0.60977837  0.72784300  0.63422178  1.0
  O  O78  1  0.78780608  0.67401218  0.68685606  1.0
  O  O79  1  0.23722067  0.43337170  0.15478742  1.0
  O  O80  1  0.13613817  0.44290663  0.24011530  1.0
