# generated using pymatgen
data_Zn6H28C51(NO13)2
_symmetry_space_group_name_H-M   'P 1'
_cell_length_a   18.57031809
_cell_length_b   18.61462451
_cell_length_c   18.70150114
_cell_angle_alpha   70.60711816
_cell_angle_beta   70.65138189
_cell_angle_gamma   109.68247149
_symmetry_Int_Tables_number   1
_chemical_formula_structural   Zn6H28C51(NO13)2
_chemical_formula_sum   'Zn6 H28 C51 N2 O26'
_cell_volume   4975.87734372
_cell_formula_units_Z   1
loop_
 _symmetry_equiv_pos_site_id
 _symmetry_equiv_pos_as_xyz
  1  'x, y, z'
loop_
 _atom_site_type_symbol
 _atom_site_label
 _atom_site_symmetry_multiplicity
 _atom_site_fract_x
 _atom_site_fract_y
 _atom_site_fract_z
 _atom_site_occupancy
  Zn  Zn0  1  0.56480732  0.49878272  0.44510165  1.0
  Zn  Zn1  1  0.43487096  0.50101806  0.56295459  1.0
  Zn  Zn2  1  0.99715736  0.06354685  0.44079494  1.0
  Zn  Zn3  1  0.00203308  0.93872115  0.56008111  1.0
  Zn  Zn4  1  0.43981295  0.93165031  0.99935877  1.0
  Zn  Zn5  1  0.56146027  0.05557100  0.00506361  1.0
  H  H6  1  0.66754296  0.84174004  0.57956217  1.0
  H  H7  1  0.61842324  0.66111653  0.66064437  1.0
  H  H8  1  0.80009697  0.71182997  0.57372178  1.0
  H  H9  1  0.78369917  0.70029418  0.43086789  1.0
  H  H10  1  0.83097392  0.88102329  0.35083023  1.0
  H  H11  1  0.64901010  0.82837270  0.43923614  1.0
  H  H12  1  0.36739395  0.24294226  0.75005358  1.0
  H  H13  1  0.35213811  0.11192792  0.86442553  1.0
  H  H14  1  0.63512190  0.23364468  0.73912184  1.0
  H  H15  1  0.64951585  0.35655936  0.61636162  1.0
  H  H16  1  0.19691599  0.35969393  0.54462220  1.0
  H  H17  1  0.10502679  0.26068807  0.50761765  1.0
  H  H18  1  0.38729236  0.27811845  0.47295504  1.0
  H  H19  1  0.58849145  0.76808214  0.29596928  1.0
  H  H20  1  0.57042757  0.87647880  0.19241256  1.0
  H  H21  1  0.43132034  0.67711093  0.14434795  1.0
  H  H22  1  0.89354795  0.98198512  0.79684418  1.0
  H  H23  1  0.79100358  0.00866612  0.89735470  1.0
  H  H24  1  0.64978549  0.00658090  0.75540898  1.0
  H  H25  1  0.76120547  0.99505698  0.64674194  1.0
  H  H26  1  0.14605597  0.84526724  0.39929097  1.0
  H  H27  1  0.26880709  0.85826209  0.27754047  1.0
  H  H28  1  0.36444905  0.13552714  0.12741037  1.0
  H  H29  1  0.23229205  0.11821330  0.24235400  1.0
  H  H30  1  0.36714923  0.18359034  0.42649012  1.0
  H  H31  1  0.34385429  0.13470155  0.33710696  1.0
  H  H32  1  0.26712155  0.17203369  0.33955410  1.0
  H  H33  1  0.23106346  0.06409998  0.42048260  1.0
  C  C34  1  0.51768461  0.38345282  0.60684451  1.0
  C  C35  1  0.58997841  0.62945175  0.51676059  1.0
  C  C36  1  0.52434562  0.59948534  0.35103837  1.0
  C  C37  1  0.35890804  0.38426636  0.52574224  1.0
  C  C38  1  0.66666667  0.71005143  0.59179167  1.0
  C  C39  1  0.69223862  0.80910829  0.54702957  1.0
  C  C40  1  0.79318211  0.83650566  0.49847510  1.0
  C  C41  1  0.76630236  0.73718636  0.54345221  1.0
  C  C42  1  0.75868839  0.73222829  0.46406178  1.0
  C  C43  1  0.78358062  0.83121857  0.41958507  1.0
  C  C44  1  0.68387939  0.80349654  0.46830876  1.0
  C  C45  1  0.65883445  0.70321245  0.51250118  1.0
  C  C46  1  0.42551740  0.23895715  0.74676596  1.0
  C  C47  1  0.41708383  0.16655879  0.81092693  1.0
  C  C48  1  0.49281773  0.16535829  0.80859099  1.0
  C  C49  1  0.57671989  0.23474321  0.73950493  1.0
  C  C50  1  0.58484311  0.30373665  0.67198138  1.0
  C  C51  1  0.50930369  0.30715370  0.67653569  1.0
  C  C52  1  0.21707247  0.31895470  0.52247031  1.0
  C  C53  1  0.16692275  0.26446335  0.50125778  1.0
  C  C54  1  0.19163456  0.21018057  0.47424086  1.0
  C  C55  1  0.27254214  0.21406840  0.46364961  1.0
  C  C56  1  0.32355190  0.27147040  0.48313077  1.0
  C  C57  1  0.29668293  0.32223415  0.51263859  1.0
  C  C58  1  0.55498993  0.74894842  0.26179624  1.0
  C  C59  1  0.54449195  0.80911740  0.20480211  1.0
  C  C60  1  0.49788532  0.78351355  0.16372598  1.0
  C  C61  1  0.46605406  0.69820815  0.17677579  1.0
  C  C62  1  0.47794017  0.63880800  0.23373918  1.0
  C  C63  1  0.52011065  0.66179277  0.27892004  1.0
  C  C64  1  0.89753654  0.98170641  0.64755990  1.0
  C  C65  1  0.86772817  0.90653198  0.49214455  1.0
  C  C66  1  0.10893227  0.97530722  0.39887130  1.0
  C  C67  1  0.12486979  0.14251625  0.46986090  1.0
  C  C68  1  0.64722055  0.01758261  0.89380091  1.0
  C  C69  1  0.48610488  0.09352064  0.88145447  1.0
  C  C70  1  0.39787077  0.00458021  0.12435214  1.0
  C  C71  1  0.48399055  0.84954216  0.10718791  1.0
  C  C72  1  0.84117819  0.98931552  0.78712433  1.0
  C  C73  1  0.78379698  0.00372697  0.84336436  1.0
  C  C74  1  0.71490839  0.00979830  0.83175417  1.0
  C  C75  1  0.70477520  0.00362473  0.76254444  1.0
  C  C76  1  0.76534796  0.99538808  0.70337676  1.0
  C  C77  1  0.83315060  0.98702002  0.71596482  1.0
  C  C78  1  0.19295597  0.90797851  0.33873410  1.0
  C  C79  1  0.26218353  0.91567457  0.27162085  1.0
  C  C80  1  0.32474782  0.99793535  0.19612811  1.0
  C  C81  1  0.31553826  0.07173151  0.18623644  1.0
  C  C82  1  0.24250486  0.06235941  0.25055851  1.0
  C  C83  1  0.18213139  0.98110235  0.32795947  1.0
  C  C84  1  0.28552461  0.13258063  0.38062526  1.0
  N  N85  1  0.30650166  0.16807193  0.43372733  1.0
  N  N86  1  0.44090356  0.54829168  0.24845383  1.0
  O  O87  1  0.57806986  0.41522629  0.52779575  1.0
  O  O88  1  0.46506747  0.41108151  0.63001368  1.0
  O  O89  1  0.61744289  0.59886408  0.46888397  1.0
  O  O90  1  0.50783547  0.60050134  0.56792260  1.0
  O  O91  1  0.58069737  0.57392741  0.33213098  1.0
  O  O92  1  0.47475931  0.58375951  0.42613574  1.0
  O  O93  1  0.43888644  0.40261272  0.48908472  1.0
  O  O94  1  0.33050755  0.41701176  0.57228472  1.0
  O  O95  1  0.91703387  0.02929487  0.56973937  1.0
  O  O96  1  0.92827299  0.93061833  0.66950002  1.0
  O  O97  1  0.89651225  0.98763126  0.43824429  1.0
  O  O98  1  0.89878375  0.88119418  0.54048784  1.0
  O  O99  1  0.08196792  0.02861151  0.37594492  1.0
  O  O100  1  0.08032254  0.91859948  0.47843229  1.0
  O  O101  1  0.08933471  0.16726495  0.42489793  1.0
  O  O102  1  0.10388742  0.06285226  0.51459359  1.0
  O  O103  1  0.56891918  0.97560196  0.90906931  1.0
  O  O104  1  0.67029951  0.06503505  0.92770826  1.0
  O  O105  1  0.42859587  0.01328397  0.91128017  1.0
  O  O106  1  0.53878890  0.11798113  0.90891196  1.0
  O  O107  1  0.37483825  0.95076986  0.09787863  1.0
  O  O108  1  0.47757906  0.06342736  0.09459911  1.0
  O  O109  1  0.43380939  0.82472849  0.07628377  1.0
  O  O110  1  0.52328543  0.92728518  0.09359192  1.0
  O  O111  1  0.42619371  0.48982429  0.31680652  1.0
  O  O112  1  0.42655449  0.53657011  0.19194891  1.0
