# generated using pymatgen
data_ZnH7C20Br4N3O8
_symmetry_space_group_name_H-M   'P 1'
_cell_length_a   13.34780389
_cell_length_b   16.59306789
_cell_length_c   17.53815915
_cell_angle_alpha   95.13232069
_cell_angle_beta   90.46608595
_cell_angle_gamma   92.52706553
_symmetry_Int_Tables_number   1
_chemical_formula_structural   ZnH7C20Br4N3O8
_chemical_formula_sum   'Zn2 H14 C40 Br8 N6 O16'
_cell_volume   3864.74877022
_cell_formula_units_Z   2
loop_
 _symmetry_equiv_pos_site_id
 _symmetry_equiv_pos_as_xyz
  1  'x, y, z'
loop_
 _atom_site_type_symbol
 _atom_site_label
 _atom_site_symmetry_multiplicity
 _atom_site_fract_x
 _atom_site_fract_y
 _atom_site_fract_z
 _atom_site_occupancy
  Zn  Zn0  1  0.51033498  0.40858826  0.50777561  1.0
  Zn  Zn1  1  0.50930089  0.58883183  0.51299777  1.0
  H  H2  1  0.38485039  0.70747862  0.45599919  1.0
  H  H3  1  0.37283843  0.85586558  0.45308776  1.0
  H  H4  1  0.35521721  0.12347767  0.39468005  1.0
  H  H5  1  0.58502973  0.11916470  0.57005492  1.0
  H  H6  1  0.56357752  0.00383024  0.56058542  1.0
  H  H7  1  0.40278674  0.99016138  0.43233029  1.0
  H  H8  1  0.44117772  0.59497679  0.27598003  1.0
  H  H9  1  0.42980836  0.58904424  0.13413134  1.0
  H  H10  1  0.47867187  0.65021029  0.89298729  1.0
  H  H11  1  0.46552020  0.39019907  0.89254205  1.0
  H  H12  1  0.49729720  0.40813496  0.00448560  1.0
  H  H13  1  0.48570480  0.59368678  0.01442420  1.0
  H  H14  1  0.80676536  0.64379402  0.49149035  1.0
  H  H15  1  0.21012448  0.37056409  0.49954849  1.0
  C  C16  1  0.50942856  0.49199811  0.36485534  1.0
  C  C17  1  0.31422754  0.50874888  0.50578951  1.0
  C  C18  1  0.49393504  0.49731045  0.65426770  1.0
  C  C19  1  0.70320488  0.50714374  0.50049291  1.0
  C  C20  1  0.44195256  0.74938502  0.48368935  1.0
  C  C21  1  0.43651812  0.83219080  0.48171557  1.0
  C  C22  1  0.51147014  0.88502709  0.51773304  1.0
  C  C23  1  0.58989097  0.84899082  0.55534090  1.0
  C  C24  1  0.58814825  0.76440498  0.55707234  1.0
  C  C25  1  0.51052603  0.97260988  0.51933071  1.0
  C  C26  1  0.45577343  0.01795669  0.47582521  1.0
  C  C27  1  0.41016465  0.15224955  0.43579009  1.0
  C  C28  1  0.46678083  0.10636094  0.48229111  1.0
  C  C29  1  0.53627376  0.14923920  0.53280658  1.0
  C  C30  1  0.54613598  0.23286513  0.53472157  1.0
  C  C31  1  0.42529338  0.23629069  0.44152600  1.0
  C  C32  1  0.51180657  0.48232663  0.27867594  1.0
  C  C33  1  0.47026496  0.54421741  0.24056631  1.0
  C  C34  1  0.46467793  0.54080843  0.16162246  1.0
  C  C35  1  0.50045125  0.47452374  0.11560943  1.0
  C  C36  1  0.54298741  0.41209388  0.15351401  1.0
  C  C37  1  0.55025661  0.41564763  0.23393416  1.0
  C  C38  1  0.49301613  0.46919949  0.03250909  1.0
  C  C39  1  0.48484772  0.53130847  0.98819727  1.0
  C  C40  1  0.47826755  0.58979871  0.86298501  1.0
  C  C41  1  0.47878727  0.52154395  0.90478454  1.0
  C  C42  1  0.47125532  0.44520935  0.86320542  1.0
  C  C43  1  0.46960401  0.43758641  0.78376178  1.0
  C  C44  1  0.47814252  0.50547915  0.73959652  1.0
  C  C45  1  0.47645976  0.58174272  0.78323688  1.0
  C  C46  1  0.88164876  0.45241293  0.48577253  1.0
  C  C47  1  0.85769236  0.59427501  0.48893654  1.0
  C  C48  1  0.95905978  0.60978847  0.48465144  1.0
  C  C49  1  0.02985190  0.54779902  0.48439967  1.0
  C  C50  1  0.13646457  0.56057601  0.48826412  1.0
  C  C51  1  0.15937833  0.41957692  0.49572733  1.0
  C  C52  1  0.05860155  0.40305359  0.48537175  1.0
  C  C53  1  0.98808651  0.46525763  0.48371431  1.0
  C  C54  1  0.81621419  0.51512479  0.49028327  1.0
  C  C55  1  0.20095420  0.49898716  0.49710214  1.0
  Br  Br56  1  0.68702785  0.71686401  0.61304583  1.0
  Br  Br57  1  0.69836732  0.91319374  0.60165578  1.0
  Br  Br58  1  0.64551239  0.28387397  0.60074128  1.0
  Br  Br59  1  0.34870197  0.29175362  0.37371684  1.0
  Br  Br60  1  0.61742842  0.33211276  0.27758496  1.0
  Br  Br61  1  0.59450327  0.32256542  0.09268794  1.0
  Br  Br62  1  0.45041653  0.32743104  0.74241389  1.0
  Br  Br63  1  0.46236324  0.68199048  0.73939266  1.0
  N  N64  1  0.51641249  0.71576179  0.52106771  1.0
  N  N65  1  0.49136717  0.27807117  0.49058349  1.0
  N  N66  1  0.03317890  0.31536336  0.46843806  1.0
  N  N67  1  0.83867909  0.36897291  0.48861845  1.0
  N  N68  1  0.98562951  0.69643090  0.47714593  1.0
  N  N69  1  0.18312536  0.64274548  0.48379047  1.0
  O  O70  1  0.53252010  0.43138110  0.39971200  1.0
  O  O71  1  0.48311816  0.55980433  0.39661246  1.0
  O  O72  1  0.35312012  0.57871537  0.52564015  1.0
  O  O73  1  0.35902266  0.44360482  0.49262359  1.0
  O  O74  1  0.52616019  0.55969047  0.62330455  1.0
  O  O75  1  0.47734902  0.42746692  0.61892865  1.0
  O  O76  1  0.66618201  0.44344502  0.52544442  1.0
  O  O77  1  0.65703043  0.56896391  0.48467427  1.0
  O  O78  1  0.98467586  0.29632301  0.40848928  1.0
  O  O79  1  0.06836408  0.26822771  0.51106175  1.0
  O  O80  1  0.78575633  0.33964606  0.43469927  1.0
  O  O81  1  0.86149577  0.33564595  0.54649121  1.0
  O  O82  1  0.02903953  0.71196620  0.41772129  1.0
  O  O83  1  0.95637772  0.74624271  0.52763768  1.0
  O  O84  1  0.22686515  0.65485255  0.42391819  1.0
  O  O85  1  0.17451911  0.69193265  0.54019124  1.0
