# generated using pymatgen
data_AlH13C18O5
_symmetry_space_group_name_H-M   'P 1'
_cell_length_a   6.60905393
_cell_length_b   23.84341393
_cell_length_c   25.31699686
_cell_angle_alpha   90.03411382
_cell_angle_beta   90.29007814
_cell_angle_gamma   89.98939970
_symmetry_Int_Tables_number   1
_chemical_formula_structural   AlH13C18O5
_chemical_formula_sum   'Al4 H52 C72 O20'
_cell_volume   3989.46143920
_cell_formula_units_Z   4
loop_
 _symmetry_equiv_pos_site_id
 _symmetry_equiv_pos_as_xyz
  1  'x, y, z'
loop_
 _atom_site_type_symbol
 _atom_site_label
 _atom_site_symmetry_multiplicity
 _atom_site_fract_x
 _atom_site_fract_y
 _atom_site_fract_z
 _atom_site_occupancy
  Al  Al0  1  0.88892812  0.99762253  0.49875495  1.0
  Al  Al1  1  0.38810793  0.00281019  0.49823707  1.0
  Al  Al2  1  0.11435891  0.49766258  0.00208075  1.0
  Al  Al3  1  0.61363670  0.50348273  0.00111296  1.0
  H  H4  1  0.12782212  0.06802106  0.52422153  1.0
  H  H5  1  0.62546257  0.92750884  0.51170289  1.0
  H  H6  1  0.37542580  0.43352483  0.97472947  1.0
  H  H7  1  0.87868581  0.56995514  0.98020358  1.0
  H  H8  1  0.52188591  0.37197761  0.09196732  1.0
  H  H9  1  0.48412675  0.29685382  0.16016411  1.0
  H  H10  1  0.13690107  0.39845888  0.14213467  1.0
  H  H11  1  0.36041916  0.10042171  0.35870469  1.0
  H  H12  1  0.97457611  0.13126720  0.40727295  1.0
  H  H13  1  0.00431276  0.20561125  0.33803079  1.0
  H  H14  1  0.03996449  0.63428685  0.91075379  1.0
  H  H15  1  0.99735097  0.70579082  0.83979546  1.0
  H  H16  1  0.63877533  0.59807785  0.85500114  1.0
  H  H17  1  0.86018910  0.90285777  0.64389220  1.0
  H  H18  1  0.46012493  0.86599832  0.58942724  1.0
  H  H19  1  0.49821040  0.79378447  0.66007339  1.0
  H  H20  1  0.62880017  0.64602432  0.10052398  1.0
  H  H21  1  0.58434496  0.72049336  0.16934161  1.0
  H  H22  1  0.05008293  0.57708782  0.14135738  1.0
  H  H23  1  0.45186893  0.92328971  0.35866057  1.0
  H  H24  1  0.87285940  0.85451298  0.39948292  1.0
  H  H25  1  0.91762902  0.77984399  0.33091508  1.0
  H  H26  1  0.54737886  0.36596464  0.91090313  1.0
  H  H27  1  0.50862491  0.29298502  0.84110056  1.0
  H  H28  1  0.14285118  0.40422327  0.85392430  1.0
  H  H29  1  0.36102962  0.09580586  0.64720424  1.0
  H  H30  1  0.95968438  0.13161960  0.59112128  1.0
  H  H31  1  0.00190411  0.20392537  0.66136673  1.0
  H  H32  1  0.26682915  0.35514760  0.22062887  1.0
  H  H33  1  0.08729366  0.32930172  0.26705032  1.0
  H  H34  1  0.19960830  0.28292114  0.22164746  1.0
  H  H35  1  0.28915626  0.21464753  0.27690785  1.0
  H  H36  1  0.40008022  0.16669180  0.23275718  1.0
  H  H37  1  0.22309391  0.14243154  0.28057253  1.0
  H  H38  1  0.76606902  0.63973185  0.77600043  1.0
  H  H39  1  0.58374661  0.66538918  0.72971105  1.0
  H  H40  1  0.70423144  0.71225927  0.77352745  1.0
  H  H41  1  0.79114639  0.78834334  0.72554927  1.0
  H  H42  1  0.90978341  0.83579191  0.76914374  1.0
  H  H43  1  0.72857696  0.86079707  0.72226600  1.0
  H  H44  1  0.85082096  0.61497976  0.21070536  1.0
  H  H45  1  0.00184579  0.63913444  0.26472454  1.0
  H  H46  1  0.88123635  0.68806371  0.22311671  1.0
  H  H47  1  0.62098594  0.81199438  0.27725342  1.0
  H  H48  1  0.50092182  0.86096060  0.23557828  1.0
  H  H49  1  0.65168118  0.88507584  0.28965628  1.0
  H  H50  1  0.21205498  0.28868905  0.77326271  1.0
  H  H51  1  0.09090590  0.33567969  0.72970281  1.0
  H  H52  1  0.27322789  0.36124868  0.77603147  1.0
  H  H53  1  0.23322773  0.13851334  0.72565140  1.0
  H  H54  1  0.41505767  0.16474572  0.77178520  1.0
  H  H55  1  0.29497704  0.21105433  0.72739319  1.0
  C  C56  1  0.63647591  0.06772416  0.57122152  1.0
  C  C57  1  0.65174173  0.06886083  0.42935495  1.0
  C  C58  1  0.14902151  0.93496540  0.42649014  1.0
  C  C59  1  0.13693081  0.92998076  0.56859349  1.0
  C  C60  1  0.86654073  0.43194452  0.92959875  1.0
  C  C61  1  0.84958953  0.43254291  0.07110197  1.0
  C  C62  1  0.35274177  0.56577191  0.07334609  1.0
  C  C63  1  0.36461086  0.57054601  0.93094205  1.0
  C  C64  1  0.83241905  0.38893875  0.11289303  1.0
  C  C65  1  0.64681344  0.36101739  0.11826973  1.0
  C  C66  1  0.62551066  0.31994456  0.15650258  1.0
  C  C67  1  0.78535976  0.30792596  0.19194235  1.0
  C  C68  1  0.97238141  0.33709129  0.18754902  1.0
  C  C69  1  0.99382313  0.37619443  0.14690616  1.0
  C  C70  1  0.75637444  0.26736675  0.23193039  1.0
  C  C71  1  0.72893593  0.23249181  0.26655230  1.0
  C  C72  1  0.70328244  0.19221541  0.30695715  1.0
  C  C73  1  0.51877102  0.16204319  0.31209925  1.0
  C  C74  1  0.50158334  0.12342558  0.35329513  1.0
  C  C75  1  0.66491166  0.11209989  0.38713275  1.0
  C  C76  1  0.84812540  0.14104327  0.38104884  1.0
  C  C77  1  0.86502108  0.18166577  0.34224668  1.0
  C  C78  1  0.34274311  0.61228244  0.88739135  1.0
  C  C79  1  0.16081043  0.64223497  0.88270509  1.0
  C  C80  1  0.13696055  0.68171743  0.84311677  1.0
  C  C81  1  0.29281072  0.69141727  0.80631089  1.0
  C  C82  1  0.47650955  0.66047198  0.80993277  1.0
  C  C83  1  0.49851160  0.62192368  0.85107913  1.0
  C  C84  1  0.26256118  0.73208615  0.76643757  1.0
  C  C85  1  0.23083287  0.76783387  0.73280402  1.0
  C  C86  1  0.20216293  0.80862919  0.69295794  1.0
  C  C87  1  0.01942510  0.83996461  0.68912318  1.0
  C  C88  1  0.99969930  0.87872126  0.64807269  1.0
  C  C89  1  0.15690428  0.88819250  0.61214085  1.0
  C  C90  1  0.33803200  0.85792915  0.61708278  1.0
  C  C91  1  0.35941488  0.81816155  0.65651876  1.0
  C  C92  1  0.34039629  0.60760502  0.11685067  1.0
  C  C93  1  0.49378051  0.64732422  0.12504117  1.0
  C  C94  1  0.46914128  0.68836174  0.16344055  1.0
  C  C95  1  0.29425596  0.68952361  0.19529636  1.0
  C  C96  1  0.14181189  0.64795029  0.18852986  1.0
  C  C97  1  0.16715336  0.60838292  0.14868145  1.0
  C  C98  1  0.26761671  0.73199646  0.23360040  1.0
  C  C99  1  0.23455506  0.76814339  0.26674941  1.0
  C  C100  1  0.20788771  0.81069045  0.30497643  1.0
  C  C101  1  0.36039200  0.85224909  0.31170506  1.0
  C  C102  1  0.33486441  0.89195690  0.35141987  1.0
  C  C103  1  0.16143587  0.89289959  0.38318184  1.0
  C  C104  1  0.00808398  0.85315021  0.37504507  1.0
  C  C105  1  0.03284722  0.81198105  0.33677292  1.0
  C  C106  1  0.84793313  0.38928085  0.88672242  1.0
  C  C107  1  0.66816147  0.35823838  0.88277132  1.0
  C  C108  1  0.64647913  0.31788287  0.84386681  1.0
  C  C109  1  0.80220158  0.30839037  0.80696396  1.0
  C  C110  1  0.98400097  0.34023477  0.80996761  1.0
  C  C111  1  0.00404018  0.37964807  0.85051047  1.0
  C  C112  1  0.77228761  0.26709671  0.76758996  1.0
  C  C113  1  0.73781378  0.23089435  0.73452917  1.0
  C  C114  1  0.70668339  0.18978546  0.69504654  1.0
  C  C115  1  0.52308568  0.15878876  0.69167376  1.0
  C  C116  1  0.50125944  0.11970188  0.65089336  1.0
  C  C117  1  0.65711675  0.10965890  0.61471010  1.0
  C  C118  1  0.83884665  0.13977025  0.61912443  1.0
  C  C119  1  0.86251152  0.17973143  0.65830512  1.0
  C  C120  1  0.14083868  0.32585973  0.22611901  1.0
  C  C121  1  0.34835816  0.17163508  0.27371597  1.0
  C  C122  1  0.64164900  0.66959859  0.77032451  1.0
  C  C123  1  0.85313442  0.83109110  0.72846307  1.0
  C  C124  1  0.95878279  0.64726187  0.22337584  1.0
  C  C125  1  0.54366140  0.85283063  0.27694509  1.0
  C  C126  1  0.14907948  0.33131779  0.77027489  1.0
  C  C127  1  0.35760638  0.16843286  0.73109491  1.0
  O  O128  1  0.80002318  0.05482254  0.54767424  1.0
  O  O129  1  0.48161499  0.06046772  0.45157391  1.0
  O  O130  1  0.31118972  0.96153055  0.43716265  1.0
  O  O131  1  0.96161605  0.94976307  0.55827927  1.0
  O  O132  1  0.98156323  0.94105098  0.45077275  1.0
  O  O133  1  0.29948165  0.94232226  0.54422486  1.0
  O  O134  1  0.46130944  0.04849878  0.55986522  1.0
  O  O135  1  0.81659378  0.04392504  0.44067096  1.0
  O  O136  1  0.13573013  0.03532222  0.50159655  1.0
  O  O137  1  0.63488162  0.96555797  0.49867848  1.0
  O  O138  1  0.04154766  0.45132966  0.94094534  1.0
  O  O139  1  0.68659471  0.45837814  0.05976309  1.0
  O  O140  1  0.51957878  0.56012865  0.04872011  1.0
  O  O141  1  0.20261064  0.55786740  0.95537376  1.0
  O  O142  1  0.19087706  0.53895396  0.06287477  1.0
  O  O143  1  0.54047842  0.55101668  0.94119016  1.0
  O  O144  1  0.70214698  0.44534579  0.95252822  1.0
  O  O145  1  0.02045024  0.44039094  0.04911267  1.0
  O  O146  1  0.36735699  0.46536875  0.99843356  1.0
  O  O147  1  0.86790376  0.53552611  0.00030044  1.0
