# generated using pymatgen
data_Zn4H40C65N5O13F5
_symmetry_space_group_name_H-M   'P 1'
_cell_length_a   17.78278213
_cell_length_b   17.79486866
_cell_length_c   17.81798079
_cell_angle_alpha   86.55970424
_cell_angle_beta   68.00205617
_cell_angle_gamma   63.42974094
_symmetry_Int_Tables_number   1
_chemical_formula_structural   Zn4H40C65N5O13F5
_chemical_formula_sum   'Zn4 H40 C65 N5 O13 F5'
_cell_volume   4636.26076249
_cell_formula_units_Z   1
loop_
 _symmetry_equiv_pos_site_id
 _symmetry_equiv_pos_as_xyz
  1  'x, y, z'
loop_
 _atom_site_type_symbol
 _atom_site_label
 _atom_site_symmetry_multiplicity
 _atom_site_fract_x
 _atom_site_fract_y
 _atom_site_fract_z
 _atom_site_occupancy
  Zn  Zn0  1  0.43365092  0.56572407  0.43282431  1.0
  Zn  Zn1  1  0.43068688  0.46205024  0.58569422  1.0
  Zn  Zn2  1  0.54991384  0.56307177  0.52599048  1.0
  Zn  Zn3  1  0.61517154  0.39128469  0.42355382  1.0
  H  H4  1  0.60358821  0.26759918  0.96003628  1.0
  H  H5  1  0.13472017  0.25732714  0.46461428  1.0
  H  H6  1  0.11622422  0.69919032  0.63092983  1.0
  H  H7  1  0.84794635  0.69891489  0.63117253  1.0
  H  H8  1  0.04435748  0.23590042  0.39737226  1.0
  H  H9  1  0.79241976  0.52323782  0.52320728  1.0
  H  H10  1  0.81672099  0.60119690  0.57087240  1.0
  H  H11  1  0.37461527  0.71564105  0.76947277  1.0
  H  H12  1  0.95637193  0.73542432  0.65219732  1.0
  H  H13  1  0.34293452  0.72228813  0.04800041  1.0
  H  H14  1  0.55250899  0.37073516  0.87033887  1.0
  H  H15  1  0.33968933  0.75974720  0.91422375  1.0
  H  H16  1  0.40812313  0.61775501  0.13101333  1.0
  H  H17  1  0.67813439  0.83165484  0.61036520  1.0
  H  H18  1  0.61090577  0.92133161  0.74061473  1.0
  H  H19  1  0.66289188  0.98427183  0.68657924  1.0
  H  H20  1  0.73274437  0.87766864  0.69460300  1.0
  H  H21  1  0.59055162  0.72360820  0.43159289  1.0
  H  H22  1  0.68085797  0.80956744  0.43969295  1.0
  H  H23  1  0.61228901  0.87889660  0.38904346  1.0
  H  H24  1  0.69090077  0.77208915  0.34430602  1.0
  H  H25  1  0.20947295  0.27640407  0.53259833  1.0
  H  H26  1  0.25153362  0.11123439  0.52132147  1.0
  H  H27  1  0.23784858  0.35335926  0.61980178  1.0
  H  H28  1  0.14570210  0.33049020  0.67771928  1.0
  H  H29  1  0.12326853  0.43291500  0.64842572  1.0
  H  H30  1  0.64143555  0.17764616  0.12793861  1.0
  H  H31  1  0.57106596  0.12349378  0.07147839  1.0
  H  H32  1  0.50691368  0.22690525  0.05190128  1.0
  H  H33  1  0.48454927  0.20472301  0.15453576  1.0
  H  H34  1  0.51544230  0.56397577  0.22928184  1.0
  H  H35  1  0.55327287  0.65194218  0.13228735  1.0
  H  H36  1  0.57128864  0.58404546  0.05183660  1.0
  H  H37  1  0.43737048  0.21591264  0.53495713  1.0
  H  H38  1  0.64988971  0.54924523  0.10092804  1.0
  H  H39  1  0.69813163  0.15387558  0.53749374  1.0
  H  H40  1  0.22741743  0.98799558  0.50429049  1.0
  H  H41  1  0.28680573  0.83079536  0.48659474  1.0
  H  H42  1  0.49643116  0.45438399  0.80490961  1.0
  H  H43  1  0.72289901  0.00688478  0.56273588  1.0
  C  C44  1  0.54562993  0.28308584  0.52938271  1.0
  C  C45  1  0.42284810  0.59753925  0.06856535  1.0
  C  C46  1  0.38660628  0.65572761  0.02225256  1.0
  C  C47  1  0.45148639  0.71157434  0.46178674  1.0
  C  C48  1  0.40509278  0.63156379  0.94015160  1.0
  C  C49  1  0.45402104  0.54336247  0.90928365  1.0
  C  C50  1  0.37589752  0.69283294  0.88936280  1.0
  C  C51  1  0.39400753  0.66892455  0.80991465  1.0
  C  C52  1  0.46431813  0.52057594  0.83011448  1.0
  C  C53  1  0.42079871  0.80252509  0.47657826  1.0
  C  C54  1  0.56282871  0.19373251  0.54007019  1.0
  C  C55  1  0.57480819  0.32778059  0.18750265  1.0
  C  C56  1  0.29632092  0.94516343  0.49985689  1.0
  C  C57  1  0.32941516  0.85874948  0.48890152  1.0
  C  C58  1  0.48111458  0.83615835  0.47496876  1.0
  C  C59  1  0.27097396  0.55441615  0.54245716  1.0
  C  C60  1  0.44119747  0.92471599  0.50489953  1.0
  C  C61  1  0.35142393  0.97932452  0.50821509  1.0
  C  C62  1  0.48641874  0.96143636  0.53134352  1.0
  C  C63  1  0.45782481  0.05086691  0.53595960  1.0
  C  C64  1  0.37264483  0.10015150  0.52896502  1.0
  C  C65  1  0.31891377  0.06816842  0.52043440  1.0
  C  C66  1  0.53183506  0.47267345  0.15641046  1.0
  C  C67  1  0.55398475  0.91415659  0.56312173  1.0
  C  C68  1  0.60649679  0.94328316  0.58047336  1.0
  C  C69  1  0.59380388  0.02697477  0.56281605  1.0
  C  C70  1  0.51415434  0.08381035  0.54829465  1.0
  C  C71  1  0.74016550  0.43739837  0.45913939  1.0
  C  C72  1  0.65941043  0.05328119  0.55838319  1.0
  C  C73  1  0.64599946  0.13453075  0.54456788  1.0
  C  C74  1  0.49852000  0.16888934  0.54200579  1.0
  C  C75  1  0.83331260  0.40778177  0.45674683  1.0
  C  C76  1  0.17280182  0.57627583  0.56364887  1.0
  C  C77  1  0.52405588  0.44886347  0.08485851  1.0
  C  C78  1  0.99085801  0.29993128  0.42436663  1.0
  C  C79  1  0.90738671  0.32650908  0.42016483  1.0
  C  C80  1  0.84993958  0.46134399  0.49541361  1.0
  C  C81  1  0.93441195  0.43823524  0.49975135  1.0
  C  C82  1  0.00635983  0.35405771  0.46550810  1.0
  C  C83  1  0.45351265  0.55599133  0.69582580  1.0
  C  C84  1  0.95288437  0.49517747  0.53628415  1.0
  C  C85  1  0.04003129  0.46703075  0.53932040  1.0
  C  C86  1  0.10013321  0.37620407  0.52471284  1.0
  C  C87  1  0.08626959  0.32471121  0.48076415  1.0
  C  C88  1  0.55837426  0.36092935  0.06009253  1.0
  C  C89  1  0.88482301  0.58030453  0.56977842  1.0
  C  C90  1  0.90211596  0.63541793  0.60254016  1.0
  C  C91  1  0.99207155  0.61353682  0.59572842  1.0
  C  C92  1  0.06316401  0.53010178  0.55778214  1.0
  C  C93  1  0.01223968  0.67313643  0.62213624  1.0
  C  C94  1  0.10080916  0.65392209  0.60926280  1.0
  C  C95  1  0.55672380  0.43427241  0.28789989  1.0
  C  C96  1  0.15295349  0.51875377  0.53672323  1.0
  C  C97  1  0.55399875  0.41168167  0.21053285  1.0
  C  C98  1  0.43647158  0.58174340  0.78087697  1.0
  C  C99  1  0.48123058  0.50974102  0.03716213  1.0
  C  C100  1  0.58155423  0.29955034  0.11344765  1.0
  C  C101  1  0.66901043  0.92023952  0.68729191  1.0
  C  C102  1  0.64230917  0.81340624  0.40226593  1.0
  C  C103  1  0.16877712  0.36532223  0.62838689  1.0
  C  C104  1  0.53892808  0.19127447  0.09317539  1.0
  C  C105  1  0.57712120  0.58565469  0.11066358  1.0
  C  C106  1  0.49159580  0.48186549  0.95905239  1.0
  C  C107  1  0.53986926  0.39331828  0.93142655  1.0
  C  C108  1  0.56900166  0.33524653  0.98104871  1.0
  N  N109  1  0.67235678  0.89119783  0.61013367  1.0
  N  N110  1  0.57259196  0.78655244  0.44048179  1.0
  N  N111  1  0.16843389  0.33899457  0.55297351  1.0
  N  N112  1  0.60979383  0.21331375  0.09180080  1.0
  N  N113  1  0.52096460  0.55318846  0.17137248  1.0
  O  O114  1  0.50680692  0.49311870  0.49146330  1.0
  O  O115  1  0.44782224  0.48925366  0.68219246  1.0
  O  O116  1  0.60617333  0.37660417  0.31913826  1.0
  O  O117  1  0.47264323  0.60340869  0.64277010  1.0
  O  O118  1  0.50834873  0.51316485  0.31899019  1.0
  O  O119  1  0.31421769  0.56515680  0.47114047  1.0
  O  O120  1  0.72708525  0.39408542  0.41521584  1.0
  O  O121  1  0.46388216  0.34127528  0.56689685  1.0
  O  O122  1  0.53161854  0.65874762  0.46012045  1.0
  O  O123  1  0.61410196  0.29394453  0.48417004  1.0
  O  O124  1  0.39787983  0.68664799  0.45193662  1.0
  O  O125  1  0.30106061  0.52727852  0.59839491  1.0
  O  O126  1  0.67829049  0.50638849  0.50687059  1.0
  F  F127  1  0.33739756  0.18689047  0.53557467  1.0
  F  F128  1  0.56559409  0.83502007  0.58305910  1.0
  F  F129  1  0.22531334  0.44874879  0.48602395  1.0
  F  F130  1  0.89668863  0.27087483  0.38128703  1.0
  F  F131  1  0.59013518  0.26906684  0.24026085  1.0
