# generated using pymatgen
data_AlH24C45(NO4)3
_symmetry_space_group_name_H-M   'P 1'
_cell_length_a   3.97377745
_cell_length_b   23.49953328
_cell_length_c   23.51049417
_cell_angle_alpha   60.08241995
_cell_angle_beta   89.63577365
_cell_angle_gamma   86.35120216
_symmetry_Int_Tables_number   1
_chemical_formula_structural   AlH24C45(NO4)3
_chemical_formula_sum   'Al1 H24 C45 N3 O12'
_cell_volume   1898.22161389
_cell_formula_units_Z   1
loop_
 _symmetry_equiv_pos_site_id
 _symmetry_equiv_pos_as_xyz
  1  'x, y, z'
loop_
 _atom_site_type_symbol
 _atom_site_label
 _atom_site_symmetry_multiplicity
 _atom_site_fract_x
 _atom_site_fract_y
 _atom_site_fract_z
 _atom_site_occupancy
  Al  Al0  1  0.98042646  0.00045624  0.50059639  1.0
  H  H1  1  0.53716720  0.99326841  0.67927955  1.0
  H  H2  1  0.55419466  0.93607953  0.80076758  1.0
  H  H3  1  0.21216308  0.88259567  0.89014165  1.0
  H  H4  1  0.18413571  0.82372070  0.01057267  1.0
  H  H5  1  0.49669251  0.94409588  0.25055685  1.0
  H  H6  1  0.76734545  0.87992422  0.22026803  1.0
  H  H7  1  0.74842182  0.81813704  0.16204119  1.0
  H  H8  1  0.47350482  0.78870116  0.10492049  1.0
  H  H9  1  0.50959826  0.82851654  0.49405672  1.0
  H  H10  1  0.52611100  0.76349342  0.43748229  1.0
  H  H11  1  0.23410549  0.73085296  0.38000472  1.0
  H  H12  1  0.21063846  0.66957577  0.32122255  1.0
  H  H13  1  0.41151674  0.30798461  0.44096300  1.0
  H  H14  1  0.73904982  0.39263566  0.38375092  1.0
  H  H15  1  0.73579388  0.51312379  0.32249605  1.0
  H  H16  1  0.45611605  0.60704697  0.28829240  1.0
  H  H17  1  0.48635771  0.17755419  0.32734475  1.0
  H  H18  1  0.51017567  0.29867000  0.26262702  1.0
  H  H19  1  0.18802585  0.39744873  0.22393574  1.0
  H  H20  1  0.17764033  0.51816069  0.16334359  1.0
  H  H21  1  0.48538859  0.75052781  0.80661710  1.0
  H  H22  1  0.80068759  0.71712635  0.90029400  1.0
  H  H23  1  0.77794043  0.65890139  0.02070094  1.0
  H  H24  1  0.45804931  0.60545718  0.10629214  1.0
  C  C25  1  0.49581106  0.94298064  0.60072855  1.0
  C  C26  1  0.44581200  0.10082502  0.45670608  1.0
  C  C27  1  0.49656437  0.95751333  0.44319888  1.0
  C  C28  1  0.52645586  0.93995150  0.70777584  1.0
  C  C29  1  0.53382512  0.90756257  0.77605307  1.0
  C  C30  1  0.34220101  0.83388657  0.91866674  1.0
  C  C31  1  0.32707566  0.80063635  0.98676930  1.0
  C  C32  1  0.50663662  0.95264565  0.33661586  1.0
  C  C33  1  0.50911843  0.91701535  0.30397226  1.0
  C  C34  1  0.63854094  0.83437302  0.24226896  1.0
  C  C35  1  0.62738674  0.79932491  0.20920710  1.0
  C  C36  1  0.50670041  0.90480368  0.67432221  1.0
  C  C37  1  0.51812779  0.83886972  0.81368136  1.0
  C  C38  1  0.50828390  0.80437490  0.88595641  1.0
  C  C39  1  0.47887162  0.73667060  0.02505334  1.0
  C  C40  1  0.46568172  0.70117603  0.09740677  1.0
  C  C41  1  0.46683416  0.73530143  0.13212520  1.0
  C  C42  1  0.50848859  0.85321001  0.44056218  1.0
  C  C43  1  0.51561095  0.81703031  0.40839570  1.0
  C  C44  1  0.35365976  0.74977288  0.33264955  1.0
  C  C45  1  0.34106484  0.71492423  0.29931484  1.0
  C  C46  1  0.42577037  0.21282295  0.45024854  1.0
  C  C47  1  0.43544798  0.28083102  0.41464835  1.0
  C  C48  1  0.61057914  0.41999985  0.33572739  1.0
  C  C49  1  0.60707118  0.48823806  0.30118917  1.0
  C  C50  1  0.50266364  0.92208196  0.40512244  1.0
  C  C51  1  0.51088113  0.84814725  0.33942970  1.0
  C  C52  1  0.50177065  0.81042576  0.30478149  1.0
  C  C53  1  0.47716763  0.73889998  0.23672260  1.0
  C  C54  1  0.46511766  0.70219349  0.20093089  1.0
  C  C55  1  0.45731098  0.63347862  0.23482593  1.0
  C  C56  1  0.46864591  0.20678682  0.35167186  1.0
  C  C57  1  0.48082333  0.27489277  0.31559373  1.0
  C  C58  1  0.31446721  0.42252236  0.24535884  1.0
  C  C59  1  0.30868519  0.49088017  0.21108872  1.0
  C  C60  1  0.50066225  0.83632731  0.71207942  1.0
  C  C61  1  0.50486379  0.80356270  0.78031340  1.0
  C  C62  1  0.66025742  0.74042616  0.92417504  1.0
  C  C63  1  0.64658150  0.70744130  0.99221987  1.0
  C  C64  1  0.44018875  0.17440199  0.41999966  1.0
  C  C65  1  0.46208762  0.31331193  0.34623947  1.0
  C  C66  1  0.46408910  0.38566012  0.30858488  1.0
  C  C67  1  0.45518668  0.52531893  0.23815284  1.0
  C  C68  1  0.45447034  0.59785718  0.20157610  1.0
  C  C69  1  0.45828716  0.63250124  0.13282123  1.0
  N  N70  1  0.37953358  0.18228695  0.52165081  1.0
  N  N71  1  0.46917530  0.79618605  0.68035855  1.0
  N  N72  1  0.48342734  0.02511868  0.29567173  1.0
  O  O73  1  0.72363498  0.99665286  0.43384530  1.0
  O  O74  1  0.74001801  0.93389964  0.57052607  1.0
  O  O75  1  0.69012537  0.06952055  0.49722994  1.0
  O  O76  1  0.26846476  0.94187283  0.48559162  1.0
  O  O77  1  0.21657235  0.07551331  0.44105419  1.0
  O  O78  1  0.24678345  0.98519486  0.57474377  1.0
  O  O79  1  0.23788084  0.12999332  0.54894915  1.0
  O  O80  1  0.48043452  0.21149078  0.54927896  1.0
  O  O81  1  0.33397756  0.82353153  0.62480850  1.0
  O  O82  1  0.57600104  0.73757176  0.71182168  1.0
  O  O83  1  0.31868662  0.05672299  0.31687373  1.0
  O  O84  1  0.62586532  0.04911920  0.24230355  1.0
