# generated using pymatgen
data_Zn2H5C7O8
_symmetry_space_group_name_H-M   'P 1'
_cell_length_a   10.91842627
_cell_length_b   11.01811583
_cell_length_c   11.02341675
_cell_angle_alpha   100.52553192
_cell_angle_beta   96.83587164
_cell_angle_gamma   90.23127963
_symmetry_Int_Tables_number   1
_chemical_formula_structural   Zn2H5C7O8
_chemical_formula_sum   'Zn4 H10 C14 O16'
_cell_volume   1294.08850166
_cell_formula_units_Z   2
loop_
 _symmetry_equiv_pos_site_id
 _symmetry_equiv_pos_as_xyz
  1  'x, y, z'
loop_
 _atom_site_type_symbol
 _atom_site_label
 _atom_site_symmetry_multiplicity
 _atom_site_fract_x
 _atom_site_fract_y
 _atom_site_fract_z
 _atom_site_occupancy
  Zn  Zn0  1  0.60326847  0.39355502  0.39376958  1.0
  Zn  Zn1  1  0.38687358  0.58858185  0.39234417  1.0
  Zn  Zn2  1  0.60082303  0.62445188  0.62584482  1.0
  Zn  Zn3  1  0.40693204  0.39824311  0.58343868  1.0
  H  H4  1  0.41888470  0.02036951  0.60323640  1.0
  H  H5  1  0.25729970  0.20320330  0.80871860  1.0
  H  H6  1  0.00816237  0.60844562  0.61531064  1.0
  H  H7  1  0.98468019  0.39630501  0.38673073  1.0
  H  H8  1  0.63583193  0.04375422  0.34303852  1.0
  H  H9  1  0.61014215  0.68631512  0.98090441  1.0
  H  H10  1  0.25716054  0.34932199  0.01151254  1.0
  H  H11  1  0.35833436  0.25096856  0.08742741  1.0
  H  H12  1  0.36088568  0.10621149  0.88174762  1.0
  H  H13  1  0.20793234  0.12377093  0.92231538  1.0
  C  C14  1  0.16900481  0.47439625  0.47027362  1.0
  C  C15  1  0.53130048  0.03140845  0.46418291  1.0
  C  C16  1  0.47373360  0.96892571  0.53595618  1.0
  C  C17  1  0.96561489  0.53751999  0.53971808  1.0
  C  C18  1  0.32962322  0.28053787  0.99815879  1.0
  C  C19  1  0.28639380  0.17195065  0.89649711  1.0
  C  C20  1  0.03172120  0.46582905  0.46153838  1.0
  C  C21  1  0.52261746  0.53634337  0.96901293  1.0
  C  C22  1  0.47653370  0.44843219  0.02482312  1.0
  C  C23  1  0.82930999  0.52479402  0.52772908  1.0
  C  C24  1  0.48377433  0.46610054  0.16463497  1.0
  C  C25  1  0.51544129  0.52792330  0.83313090  1.0
  C  C26  1  0.48073159  0.83281999  0.52762763  1.0
  C  C27  1  0.51867827  0.16766555  0.47387775  1.0
  O  O28  1  0.50014667  0.50214385  0.49861573  1.0
  O  O29  1  0.40591988  0.76773037  0.44294541  1.0
  O  O30  1  0.44493742  0.22242349  0.54503529  1.0
  O  O31  1  0.55814666  0.79413281  0.60683429  1.0
  O  O32  1  0.58498500  0.21636870  0.40581811  1.0
  O  O33  1  0.60441778  0.97671944  0.37962849  1.0
  O  O34  1  0.58331057  0.63865428  0.04051730  1.0
  O  O35  1  0.43464269  0.33708122  0.95873302  1.0
  O  O36  1  0.55534183  0.39417068  0.21595177  1.0
  O  O37  1  0.44974056  0.44220241  0.76192405  1.0
  O  O38  1  0.21352190  0.54138592  0.40291954  1.0
  O  O39  1  0.77638962  0.59966786  0.60672478  1.0
  O  O40  1  0.22775390  0.41161227  0.54319918  1.0
  O  O41  1  0.77703605  0.44091489  0.44104842  1.0
  O  O42  1  0.41484767  0.54705930  0.21676049  1.0
  O  O43  1  0.57641571  0.61383798  0.79879642  1.0
