# generated using pymatgen
data_AlH6C27N7(ClO)6
_symmetry_space_group_name_H-M   'P 1'
_cell_length_a   3.98366333
_cell_length_b   18.07199813
_cell_length_c   18.12491956
_cell_angle_alpha   119.03505167
_cell_angle_beta   94.19817172
_cell_angle_gamma   95.46253233
_symmetry_Int_Tables_number   1
_chemical_formula_structural   AlH6C27N7(ClO)6
_chemical_formula_sum   'Al1 H6 C27 N7 Cl6 O6'
_cell_volume   1124.95137126
_cell_formula_units_Z   1
loop_
 _symmetry_equiv_pos_site_id
 _symmetry_equiv_pos_as_xyz
  1  'x, y, z'
loop_
 _atom_site_type_symbol
 _atom_site_label
 _atom_site_symmetry_multiplicity
 _atom_site_fract_x
 _atom_site_fract_y
 _atom_site_fract_z
 _atom_site_occupancy
  Al  Al0  1  0.99335592  0.99977718  0.50126589  1.0
  H  H1  1  0.92847215  0.31022931  0.89839322  1.0
  H  H2  1  0.60196049  0.08220668  0.18713356  1.0
  H  H3  1  0.26308038  0.60066248  0.42148455  1.0
  H  H4  1  0.60593723  0.31870742  0.42030271  1.0
  H  H5  1  0.05416574  0.60406865  0.18659314  1.0
  H  H6  1  0.45335099  0.08494316  0.89684726  1.0
  C  C7  1  0.56447180  0.06523177  0.63214014  1.0
  C  C8  1  0.50333021  0.06562154  0.43514017  1.0
  C  C9  1  0.41042848  0.86803349  0.43568132  1.0
  C  C10  1  0.80889902  0.24364390  0.86290790  1.0
  C  C11  1  0.69475062  0.20226292  0.90682551  1.0
  C  C12  1  0.58464619  0.11574018  0.25502875  1.0
  C  C13  1  0.60773705  0.20508402  0.29909660  1.0
  C  C14  1  0.14824945  0.59316280  0.29947973  1.0
  C  C15  1  0.25433475  0.63635649  0.38749620  1.0
  C  C16  1  0.58689895  0.24929526  0.38663160  1.0
  C  C17  1  0.54054308  0.20342497  0.42937254  1.0
  C  C18  1  0.52595841  0.11385196  0.38705153  1.0
  C  C19  1  0.55013670  0.07118330  0.29932667  1.0
  C  C20  1  0.35074304  0.72470508  0.43027009  1.0
  C  C21  1  0.33201786  0.77197099  0.38748197  1.0
  C  C22  1  0.22242066  0.72701637  0.29917484  1.0
  C  C23  1  0.13679748  0.63834677  0.25493487  1.0
  C  C24  1  0.54086865  0.11640221  0.86208148  1.0
  C  C25  1  0.50084988  0.07260039  0.77348085  1.0
  C  C26  1  0.61253591  0.11276269  0.72802270  1.0
  C  C27  1  0.76735253  0.19875594  0.77432844  1.0
  C  C28  1  0.90737402  0.37650147  0.12428509  1.0
  C  C29  1  0.67881161  0.24623683  0.12388984  1.0
  C  C30  1  0.73691589  0.24937857  0.00068859  1.0
  C  C31  1  0.04018504  0.49975759  0.25313814  1.0
  C  C32  1  0.85295364  0.37915354  0.25886519  1.0
  C  C33  1  0.66537902  0.25234548  0.25279460  1.0
  N  N34  1  0.81295979  0.33399845  0.16905741  1.0
  N  N35  1  0.63121172  0.20528417  0.03905209  1.0
  N  N36  1  0.87774198  0.33227658  0.03959347  1.0
  N  N37  1  0.02450650  0.46010899  0.16778290  1.0
  N  N38  1  0.96511028  0.46302629  0.30034109  1.0
  N  N39  1  0.60370893  0.20609367  0.16719350  1.0
  N  N40  1  0.77835086  0.33687498  0.30020120  1.0
  Cl  Cl41  1  0.30647418  0.96737094  0.71878947  1.0
  Cl  Cl42  1  0.91176920  0.24974695  0.72066100  1.0
  Cl  Cl43  1  0.17701332  0.78194808  0.24432081  1.0
  Cl  Cl44  1  0.50282282  0.77633922  0.53752550  1.0
  Cl  Cl45  1  0.49611410  0.25786518  0.53605506  1.0
  Cl  Cl46  1  0.55361740  0.96222018  0.24551994  1.0
  O  O47  1  0.66259001  0.90371115  0.41976629  1.0
  O  O48  1  0.76787926  0.01276389  0.59573206  1.0
  O  O49  1  0.76152599  0.08078762  0.48859384  1.0
  O  O50  1  0.21254048  0.90663077  0.48944438  1.0
  O  O51  1  0.23497574  0.01375151  0.41930274  1.0
  O  O52  1  0.32320479  0.08130891  0.59501922  1.0
