# generated using pymatgen
data_CuH2(C3N4)2
_symmetry_space_group_name_H-M   'P 1'
_cell_length_a   18.46289384
_cell_length_b   18.46293086
_cell_length_c   18.46288207
_cell_angle_alpha   90.00000075
_cell_angle_beta   89.99995338
_cell_angle_gamma   89.99999845
_symmetry_Int_Tables_number   1
_chemical_formula_structural   CuH2(C3N4)2
_chemical_formula_sum   'Cu12 H24 C72 N96'
_cell_volume   6293.61122243
_cell_formula_units_Z   12
loop_
 _symmetry_equiv_pos_site_id
 _symmetry_equiv_pos_as_xyz
  1  'x, y, z'
loop_
 _atom_site_type_symbol
 _atom_site_label
 _atom_site_symmetry_multiplicity
 _atom_site_fract_x
 _atom_site_fract_y
 _atom_site_fract_z
 _atom_site_occupancy
  Cu  Cu0  1  0.86646026  0.50000025  0.00000006  1.0
  Cu  Cu1  1  0.13353953  0.50000027  0.99999970  1.0
  Cu  Cu2  1  0.49999978  0.00000001  0.13353948  1.0
  Cu  Cu3  1  0.50000002  0.00000001  0.86646027  1.0
  Cu  Cu4  1  0.99999979  0.13353947  0.49999994  1.0
  Cu  Cu5  1  0.99999978  0.86646049  0.49999995  1.0
  Cu  Cu6  1  0.49999983  0.13353948  0.00000020  1.0
  Cu  Cu7  1  0.49999982  0.86646049  0.00000021  1.0
  Cu  Cu8  1  0.00000039  0.50000027  0.86646047  1.0
  Cu  Cu9  1  0.99999994  0.50000025  0.13353928  1.0
  Cu  Cu10  1  0.86646060  0.00000001  0.50000000  1.0
  Cu  Cu11  1  0.13353974  0.00000002  0.49999975  1.0
  H  H12  1  0.73524244  0.26475699  0.09945858  1.0
  H  H13  1  0.26475714  0.73524243  0.09945823  1.0
  H  H14  1  0.73524264  0.73524243  0.90054153  1.0
  H  H15  1  0.26475736  0.26475755  0.90054172  1.0
  H  H16  1  0.73524237  0.09945767  0.26475780  1.0
  H  H17  1  0.26475743  0.09945822  0.73524250  1.0
  H  H18  1  0.26475761  0.90054176  0.26475745  1.0
  H  H19  1  0.73524271  0.90054175  0.73524285  1.0
  H  H20  1  0.90054094  0.26475699  0.26475719  1.0
  H  H21  1  0.90054128  0.73524243  0.73524279  1.0
  H  H22  1  0.09945831  0.26475755  0.73524257  1.0
  H  H23  1  0.09945850  0.73524244  0.26475752  1.0
  H  H24  1  0.73524265  0.26475754  0.90054153  1.0
  H  H25  1  0.26475735  0.73524244  0.90054172  1.0
  H  H26  1  0.26475714  0.26475754  0.09945823  1.0
  H  H27  1  0.73524297  0.73524297  0.09945858  1.0
  H  H28  1  0.90054129  0.26475754  0.73524278  1.0
  H  H29  1  0.90054202  0.73524242  0.26475719  1.0
  H  H30  1  0.09945831  0.73524244  0.73524257  1.0
  H  H31  1  0.09945850  0.26475755  0.26475752  1.0
  H  H32  1  0.73524272  0.09945822  0.73524285  1.0
  H  H33  1  0.26475762  0.09945822  0.26475745  1.0
  H  H34  1  0.73524236  0.90054175  0.26475726  1.0
  H  H35  1  0.26475742  0.90054176  0.73524250  1.0
  C  C36  1  0.75928632  0.24071368  0.14769535  1.0
  C  C37  1  0.24071376  0.75928520  0.14769502  1.0
  C  C38  1  0.75928602  0.75928466  0.85230528  1.0
  C  C39  1  0.24071348  0.24071369  0.85230495  1.0
  C  C40  1  0.75928628  0.14769541  0.24071387  1.0
  C  C41  1  0.24071406  0.14769542  0.75928588  1.0
  C  C42  1  0.24071426  0.85230294  0.24071409  1.0
  C  C43  1  0.75928606  0.85230293  0.75928622  1.0
  C  C44  1  0.85230528  0.24071368  0.24071383  1.0
  C  C45  1  0.85230507  0.75928466  0.75928618  1.0
  C  C46  1  0.14769559  0.24071424  0.75928592  1.0
  C  C47  1  0.14769472  0.75928466  0.24071412  1.0
  C  C48  1  0.75928657  0.24071531  0.85230528  1.0
  C  C49  1  0.24071347  0.75928521  0.85230495  1.0
  C  C50  1  0.24071376  0.24071531  0.14769448  1.0
  C  C51  1  0.75928577  0.75928574  0.14769481  1.0
  C  C52  1  0.85230507  0.24071531  0.75928618  1.0
  C  C53  1  0.85230365  0.75928628  0.24071384  1.0
  C  C54  1  0.14769450  0.75928467  0.75928592  1.0
  C  C55  1  0.14769472  0.24071532  0.24071358  1.0
  C  C56  1  0.75928607  0.14769704  0.75928567  1.0
  C  C57  1  0.24071427  0.14769758  0.24071408  1.0
  C  C58  1  0.75928519  0.85230456  0.24071333  1.0
  C  C59  1  0.24071405  0.85230294  0.75928589  1.0
  C  C60  1  0.82118451  0.27164485  0.17881506  1.0
  C  C61  1  0.85326942  0.33647583  0.14673067  1.0
  C  C62  1  0.17881554  0.72835620  0.17881532  1.0
  C  C63  1  0.14673066  0.66352414  0.14673042  1.0
  C  C64  1  0.82118424  0.72835620  0.82118444  1.0
  C  C65  1  0.85326967  0.66352413  0.85326934  1.0
  C  C66  1  0.17881474  0.27164486  0.82118415  1.0
  C  C67  1  0.14673092  0.33647639  0.85326908  1.0
  C  C68  1  0.72835345  0.17881506  0.17881618  1.0
  C  C69  1  0.66352397  0.14673077  0.14673075  1.0
  C  C70  1  0.27164526  0.17881453  0.82118466  1.0
  C  C71  1  0.33647582  0.14673078  0.85326900  1.0
  C  C72  1  0.27164768  0.82118545  0.17881745  1.0
  C  C73  1  0.33647610  0.85326865  0.14673143  1.0
  C  C74  1  0.72835210  0.82118545  0.82118231  1.0
  C  C75  1  0.66352422  0.85326866  0.85326888  1.0
  C  C76  1  0.82118393  0.17881452  0.27164672  1.0
  C  C77  1  0.85326934  0.14673077  0.33647624  1.0
  C  C78  1  0.82118265  0.82118545  0.72835224  1.0
  C  C79  1  0.85326920  0.85326865  0.66352377  1.0
  C  C80  1  0.17881586  0.17881615  0.72835249  1.0
  C  C81  1  0.14673100  0.14673132  0.66352352  1.0
  C  C82  1  0.17881767  0.82118545  0.27164807  1.0
  C  C83  1  0.14673112  0.85326866  0.33647599  1.0
  C  C84  1  0.72835211  0.17881452  0.82118231  1.0
  C  C85  1  0.66352423  0.14673186  0.85326887  1.0
  C  C86  1  0.27164796  0.82118546  0.82118250  1.0
  C  C87  1  0.33647581  0.85326866  0.85326901  1.0
  C  C88  1  0.27164769  0.17881452  0.17881745  1.0
  C  C89  1  0.33647611  0.14673186  0.14673088  1.0
  C  C90  1  0.72835561  0.82118544  0.17881619  1.0
  C  C91  1  0.66352397  0.85326919  0.14673076  1.0
  C  C92  1  0.82118425  0.27164431  0.82118443  1.0
  C  C93  1  0.85326967  0.33647584  0.85326934  1.0
  C  C94  1  0.82118559  0.72835349  0.17881723  1.0
  C  C95  1  0.85326833  0.66352413  0.14673122  1.0
  C  C96  1  0.17881582  0.72835567  0.82118470  1.0
  C  C97  1  0.14673037  0.66352414  0.85326908  1.0
  C  C98  1  0.17881555  0.27164432  0.17881532  1.0
  C  C99  1  0.14673066  0.33647584  0.14673042  1.0
  C  C100  1  0.82118266  0.17881452  0.72835223  1.0
  C  C101  1  0.85326867  0.14673186  0.66352377  1.0
  C  C102  1  0.17881768  0.17881453  0.27164806  1.0
  C  C103  1  0.14673113  0.14673186  0.33647598  1.0
  C  C104  1  0.82118446  0.82118328  0.27164781  1.0
  C  C105  1  0.85326879  0.85326919  0.33647624  1.0
  C  C106  1  0.17881748  0.82118546  0.72835250  1.0
  C  C107  1  0.14673099  0.85326866  0.66352406  1.0
  N  N108  1  0.82713973  0.37024025  0.08708778  1.0
  N  N109  1  0.87127908  0.42531384  0.07724314  1.0
  N  N110  1  0.17285985  0.62975972  0.08708804  1.0
  N  N111  1  0.12872105  0.57468613  0.07724290  1.0
  N  N112  1  0.82713994  0.62975972  0.91291226  1.0
  N  N113  1  0.87127873  0.57468612  0.92275686  1.0
  N  N114  1  0.17286006  0.37024026  0.91291198  1.0
  N  N115  1  0.12872125  0.42531386  0.92275716  1.0
  N  N116  1  0.62975949  0.08708748  0.17286049  1.0
  N  N117  1  0.57468580  0.07724289  0.12872114  1.0
  N  N118  1  0.37024031  0.08708803  0.82713981  1.0
  N  N119  1  0.42531400  0.07724290  0.87127916  1.0
  N  N120  1  0.37024057  0.91291249  0.17286060  1.0
  N  N121  1  0.42531429  0.92275708  0.12872066  1.0
  N  N122  1  0.62975921  0.91291249  0.82713971  1.0
  N  N123  1  0.57468602  0.92275708  0.87127910  1.0
  N  N124  1  0.91291220  0.17285988  0.37024072  1.0
  N  N125  1  0.92275733  0.12872117  0.42531391  1.0
  N  N126  1  0.91291263  0.82714008  0.62975925  1.0
  N  N127  1  0.92275726  0.87127933  0.57468605  1.0
  N  N128  1  0.08708760  0.17285990  0.62975904  1.0
  N  N129  1  0.07724247  0.12872118  0.57468584  1.0
  N  N130  1  0.08708769  0.82714009  0.37024106  1.0
  N  N131  1  0.07724252  0.87127934  0.42531426  1.0
  N  N132  1  0.62975918  0.17285989  0.91291234  1.0
  N  N133  1  0.57468601  0.12872118  0.92275752  1.0
  N  N134  1  0.37024081  0.82714009  0.91291245  1.0
  N  N135  1  0.42531397  0.87127934  0.92275758  1.0
  N  N136  1  0.37024061  0.17285989  0.08708742  1.0
  N  N137  1  0.42531378  0.12872117  0.07724278  1.0
  N  N138  1  0.62975951  0.82714008  0.08708786  1.0
  N  N139  1  0.57468635  0.87127879  0.07724272  1.0
  N  N140  1  0.91291201  0.37024079  0.82714013  1.0
  N  N141  1  0.92275714  0.42531385  0.87127896  1.0
  N  N142  1  0.91291227  0.62975971  0.17286038  1.0
  N  N143  1  0.92275690  0.57468612  0.12872100  1.0
  N  N144  1  0.08708751  0.62975973  0.82713993  1.0
  N  N145  1  0.07724288  0.57468613  0.87127876  1.0
  N  N146  1  0.08708778  0.37024080  0.17286017  1.0
  N  N147  1  0.07724319  0.42531385  0.12872080  1.0
  N  N148  1  0.82713952  0.08708748  0.62975928  1.0
  N  N149  1  0.87127888  0.07724289  0.57468606  1.0
  N  N150  1  0.17286028  0.08708749  0.37024047  1.0
  N  N151  1  0.12872092  0.07724290  0.42531423  1.0
  N  N152  1  0.82714015  0.91291248  0.37024076  1.0
  N  N153  1  0.87127893  0.92275708  0.42531394  1.0
  N  N154  1  0.17286017  0.91291250  0.62975955  1.0
  N  N155  1  0.12872084  0.92275763  0.57468583  1.0
  N  N156  1  0.17286005  0.62975919  0.91291198  1.0
  N  N157  1  0.12872125  0.57468613  0.92275716  1.0
  N  N158  1  0.82713994  0.37024079  0.91291226  1.0
  N  N159  1  0.87127874  0.42531385  0.92275686  1.0
  N  N160  1  0.17285985  0.37024080  0.08708804  1.0
  N  N161  1  0.12872105  0.42531385  0.07724290  1.0
  N  N162  1  0.82713973  0.62975917  0.08708778  1.0
  N  N163  1  0.87127908  0.57468612  0.07724314  1.0
  N  N164  1  0.37024030  0.91291249  0.82713981  1.0
  N  N165  1  0.42531399  0.92275763  0.87127916  1.0
  N  N166  1  0.62975947  0.91291249  0.17285995  1.0
  N  N167  1  0.57468633  0.92275708  0.12872114  1.0
  N  N168  1  0.62975922  0.08708748  0.82713970  1.0
  N  N169  1  0.57468604  0.07724289  0.87127910  1.0
  N  N170  1  0.37024058  0.08708748  0.17286005  1.0
  N  N171  1  0.42531430  0.07724289  0.12872066  1.0
  N  N172  1  0.08708759  0.82714009  0.62975904  1.0
  N  N173  1  0.07724246  0.87127934  0.57468585  1.0
  N  N174  1  0.08708770  0.17285989  0.37024105  1.0
  N  N175  1  0.07724253  0.12872118  0.42531426  1.0
  N  N176  1  0.91291219  0.82714008  0.37024072  1.0
  N  N177  1  0.92275732  0.87127933  0.42531392  1.0
  N  N178  1  0.91291264  0.17285988  0.62975924  1.0
  N  N179  1  0.92275727  0.12872063  0.57468604  1.0
  N  N180  1  0.37024060  0.82714008  0.08708742  1.0
  N  N181  1  0.42531377  0.87127934  0.07724278  1.0
  N  N182  1  0.62975952  0.17285988  0.08708786  1.0
  N  N183  1  0.57468636  0.12872117  0.07724272  1.0
  N  N184  1  0.62975917  0.82714009  0.91291234  1.0
  N  N185  1  0.57468600  0.87127880  0.92275752  1.0
  N  N186  1  0.37024028  0.17285989  0.91291190  1.0
  N  N187  1  0.42531398  0.12872118  0.92275704  1.0
  N  N188  1  0.08708778  0.62975972  0.17286017  1.0
  N  N189  1  0.07724319  0.57468613  0.12872134  1.0
  N  N190  1  0.08708806  0.37024026  0.82713993  1.0
  N  N191  1  0.07724289  0.42531386  0.87127876  1.0
  N  N192  1  0.91291228  0.37024024  0.17286037  1.0
  N  N193  1  0.92275690  0.42531384  0.12872100  1.0
  N  N194  1  0.91291201  0.62975972  0.82713959  1.0
  N  N195  1  0.92275714  0.57468612  0.87127896  1.0
  N  N196  1  0.17286027  0.91291249  0.37024048  1.0
  N  N197  1  0.12872091  0.92275709  0.42531424  1.0
  N  N198  1  0.82713951  0.91291249  0.62975928  1.0
  N  N199  1  0.87127941  0.92275708  0.57468607  1.0
  N  N200  1  0.17286018  0.08708749  0.62975900  1.0
  N  N201  1  0.12872086  0.07724290  0.57468582  1.0
  N  N202  1  0.82713962  0.08708748  0.37024075  1.0
  N  N203  1  0.87127894  0.07724289  0.42531393  1.0
