# generated using pymatgen
data_Zn6H51C77(O8F5)3
_symmetry_space_group_name_H-M   'P 1'
_cell_length_a   18.55244576
_cell_length_b   18.70747431
_cell_length_c   18.82775124
_cell_angle_alpha   109.54106960
_cell_angle_beta   109.26907176
_cell_angle_gamma   108.97988965
_symmetry_Int_Tables_number   1
_chemical_formula_structural   Zn6H51C77(O8F5)3
_chemical_formula_sum   'Zn6 H51 C77 O24 F15'
_cell_volume   5068.54264726
_cell_formula_units_Z   1
loop_
 _symmetry_equiv_pos_site_id
 _symmetry_equiv_pos_as_xyz
  1  'x, y, z'
loop_
 _atom_site_type_symbol
 _atom_site_label
 _atom_site_symmetry_multiplicity
 _atom_site_fract_x
 _atom_site_fract_y
 _atom_site_fract_z
 _atom_site_occupancy
  Zn  Zn0  1  0.56216143  0.56140728  0.50335919  1.0
  Zn  Zn1  1  0.43693088  0.43714737  0.50471406  1.0
  Zn  Zn2  1  0.99779433  0.56533696  0.06431112  1.0
  Zn  Zn3  1  0.00545454  0.44016421  0.94482202  1.0
  Zn  Zn4  1  0.55335984  0.00464791  0.05171602  1.0
  Zn  Zn5  1  0.42477603  0.99393550  0.91810713  1.0
  H  H6  1  0.66656714  0.32347072  0.45419420  1.0
  H  H7  1  0.36309330  0.44049026  0.17657855  1.0
  H  H8  1  0.42326182  0.55509902  0.21503672  1.0
  H  H9  1  0.44217809  0.74998510  0.58358759  1.0
  H  H10  1  0.55921594  0.79573452  0.63495524  1.0
  H  H11  1  0.72910720  0.21007177  0.82227448  1.0
  H  H12  1  0.59925153  0.10975400  0.81765577  1.0
  H  H13  1  0.72336039  0.31339765  0.15697129  1.0
  H  H14  1  0.78517192  0.25765336  0.16282505  1.0
  H  H15  1  0.84141628  0.42670868  0.15372566  1.0
  H  H16  1  0.58457897  0.22399874  0.54625321  1.0
  H  H17  1  0.39817025  0.91513853  0.15994721  1.0
  H  H18  1  0.67275286  0.22436652  0.68119794  1.0
  H  H19  1  0.78412973  0.36375764  0.81437582  1.0
  H  H20  1  0.87243657  0.66511958  0.90170350  1.0
  H  H21  1  0.66527536  0.20647949  0.33462245  1.0
  H  H22  1  0.29106952  0.54445617  0.58531559  1.0
  H  H23  1  0.20528800  0.56979842  0.55443710  1.0
  H  H24  1  0.18065058  0.46297238  0.53541046  1.0
  H  H25  1  0.14931127  0.46820076  0.39703834  1.0
  H  H26  1  0.23388170  0.44197706  0.42726733  1.0
  H  H27  1  0.34652909  0.59608647  0.49324576  1.0
  H  H28  1  0.26345989  0.62486923  0.46669708  1.0
  H  H29  1  0.42172954  0.39782371  0.70080057  1.0
  H  H30  1  0.44878628  0.43620275  0.81089075  1.0
  H  H31  1  0.33718007  0.37440483  0.72832443  1.0
  H  H32  1  0.37906672  0.53236698  0.79900737  1.0
  H  H33  1  0.35726673  0.49500399  0.69091651  1.0
  H  H34  1  0.52084547  0.54902387  0.74641889  1.0
  H  H35  1  0.53854730  0.59837508  0.85251722  1.0
  H  H36  1  0.58979100  0.80866589  0.10960945  1.0
  H  H37  1  0.57234612  0.70073230  0.07237468  1.0
  H  H38  1  0.68070881  0.78998725  0.13409715  1.0
  H  H39  1  0.63842866  0.72000923  0.97650243  1.0
  H  H40  1  0.65316771  0.82650862  0.01363318  1.0
  H  H41  1  0.49002787  0.76384505  0.95820129  1.0
  H  H42  1  0.47693700  0.65869421  0.91257511  1.0
  H  H43  1  0.37607649  0.74646702  0.32397070  1.0
  H  H44  1  0.35297820  0.82882301  0.37355607  1.0
  H  H45  1  0.28337034  0.71906522  0.33921713  1.0
  H  H46  1  0.21151939  0.75829501  0.23312289  1.0
  H  H47  1  0.23815353  0.68072474  0.18322886  1.0
  H  H48  1  0.36733653  0.79313139  0.19984025  1.0
  H  H49  1  0.35814440  0.87672361  0.26876126  1.0
  H  H50  1  0.19132355  0.26648956  0.24293563  1.0
  H  H51  1  0.14352378  0.19140037  0.13150270  1.0
  H  H52  1  0.11768721  0.15509147  0.20025051  1.0
  H  H53  1  0.22650044  0.11402955  0.17275331  1.0
  H  H54  1  0.27459519  0.19042923  0.28336674  1.0
  H  H55  1  0.33886283  0.31116159  0.25416972  1.0
  H  H56  1  0.29470336  0.23315504  0.14524338  1.0
  C  C57  1  0.47775621  0.36135262  0.38775683  1.0
  C  C58  1  0.70012616  0.44425240  0.68713771  1.0
  C  C59  1  0.70654576  0.52450508  0.69244481  1.0
  C  C60  1  0.76785062  0.60056617  0.76985758  1.0
  C  C61  1  0.82436665  0.60290217  0.84289615  1.0
  C  C62  1  0.81893770  0.52611456  0.83852907  1.0
  C  C63  1  0.55402812  0.28733756  0.33017488  1.0
  C  C64  1  0.47786892  0.29290263  0.31808097  1.0
  C  C65  1  0.40290505  0.23590218  0.23545866  1.0
  C  C66  1  0.40754903  0.17405416  0.17149893  1.0
  C  C67  1  0.48232679  0.16516434  0.18316961  1.0
  C  C68  1  0.64000825  0.52614652  0.62239984  1.0
  C  C69  1  0.55499327  0.22489150  0.26534734  1.0
  C  C70  1  0.65022370  0.25356691  0.31961419  1.0
  C  C71  1  0.65009000  0.32588357  0.39376076  1.0
  C  C72  1  0.32188644  0.52078869  0.25490452  1.0
  C  C73  1  0.33385601  0.53668469  0.33678178  1.0
  C  C74  1  0.27195923  0.55162850  0.35838177  1.0
  C  C75  1  0.20179824  0.54892224  0.29595157  1.0
  C  C76  1  0.18615270  0.52903853  0.21171475  1.0
  C  C77  1  0.24926101  0.51472847  0.19437256  1.0
  C  C78  1  0.27845704  0.49460715  0.12711320  1.0
  C  C79  1  0.47942363  0.58998015  0.62535253  1.0
  C  C80  1  0.36063328  0.50155540  0.19562328  1.0
  C  C81  1  0.50015035  0.73664986  0.70034684  1.0
  C  C82  1  0.49148861  0.66064638  0.70232814  1.0
  C  C83  1  0.49855703  0.65794612  0.77864140  1.0
  C  C84  1  0.51182706  0.73029660  0.84962713  1.0
  C  C85  1  0.51747228  0.80556021  0.84436750  1.0
  C  C86  1  0.51023887  0.80545748  0.76824957  1.0
  C  C87  1  0.51242796  0.85768322  0.72140287  1.0
  C  C88  1  0.50236519  0.78009550  0.64507469  1.0
  C  C89  1  0.87517768  0.36079481  0.96684020  1.0
  C  C90  1  0.40474161  0.52955760  0.39586512  1.0
  C  C91  1  0.88742540  0.53083038  0.91230413  1.0
  C  C92  1  0.11858211  0.59773182  0.98333385  1.0
  C  C93  1  0.11153356  0.52385549  0.14416196  1.0
  C  C94  1  0.34787288  0.87278559  0.94985014  1.0
  C  C95  1  0.48960573  0.10310155  0.11558989  1.0
  C  C96  1  0.57924662  0.11142459  0.95767900  1.0
  C  C97  1  0.52403171  0.88221970  0.91066185  1.0
  C  C98  1  0.79344414  0.30474783  0.03532383  1.0
  C  C99  1  0.79895384  0.29451843  0.96082660  1.0
  C  C100  1  0.72747781  0.22166493  0.88231005  1.0
  C  C101  1  0.64252876  0.36189076  0.61072354  1.0
  C  C102  1  0.65410796  0.16478328  0.87966463  1.0
  C  C103  1  0.65098452  0.17481772  0.95598137  1.0
  C  C104  1  0.72371532  0.24508880  0.03365685  1.0
  C  C105  1  0.76216365  0.29171610  0.13125328  1.0
  C  C106  1  0.83786416  0.36271480  0.13253430  1.0
  C  C107  1  0.23202269  0.75388956  0.04133456  1.0
  C  C108  1  0.17771488  0.66655314  0.97471190  1.0
  C  C109  1  0.17807747  0.65031896  0.89627404  1.0
  C  C110  1  0.22885447  0.71588584  0.88491260  1.0
  C  C111  1  0.28395770  0.80151066  0.95202574  1.0
  C  C112  1  0.63136862  0.28436852  0.60737760  1.0
  C  C113  1  0.28294123  0.81682251  0.02935980  1.0
  C  C114  1  0.32720021  0.88857559  0.12102307  1.0
  C  C115  1  0.26780497  0.81897731  0.13683174  1.0
  C  C116  1  0.68156885  0.28552952  0.68289931  1.0
  C  C117  1  0.74315455  0.36356640  0.75768553  1.0
  C  C118  1  0.75496560  0.44399420  0.76161902  1.0
  C  C119  1  0.27869817  0.57189333  0.44558304  1.0
  C  C120  1  0.21708923  0.49398926  0.44634100  1.0
  C  C121  1  0.22392540  0.51928157  0.53527142  1.0
  C  C122  1  0.49495177  0.57864867  0.78532186  1.0
  C  C123  1  0.40264833  0.50816288  0.75455726  1.0
  C  C124  1  0.40233004  0.42450901  0.74837490  1.0
  C  C125  1  0.51767045  0.72606870  0.93001689  1.0
  C  C126  1  0.61150137  0.76123514  0.00052110  1.0
  C  C127  1  0.61390764  0.76529232  0.08373895  1.0
  C  C128  1  0.31958850  0.81053469  0.21209506  1.0
  C  C129  1  0.26677635  0.74807331  0.23386679  1.0
  C  C130  1  0.32293528  0.76118367  0.32237097  1.0
  C  C131  1  0.32103133  0.24394193  0.21178428  1.0
  C  C132  1  0.24792734  0.18173081  0.21767225  1.0
  C  C133  1  0.17078424  0.19946821  0.19693674  1.0
  O  O134  1  0.53119982  0.43943396  0.41497437  1.0
  O  O135  1  0.90438221  0.33628385  0.91498814  1.0
  O  O136  1  0.90941861  0.58233829  0.99043660  1.0
  O  O137  1  0.92184950  0.48449906  0.89203531  1.0
  O  O138  1  0.09478672  0.62420972  0.03823352  1.0
  O  O139  1  0.09570463  0.51829576  0.93470539  1.0
  O  O140  1  0.08019661  0.57378933  0.16723727  1.0
  O  O141  1  0.08737807  0.47104218  0.06692671  1.0
  O  O142  1  0.42586872  0.90711978  0.00913632  1.0
  O  O143  1  0.32131252  0.89516636  0.89323946  1.0
  O  O144  1  0.54783766  0.08186596  0.14571235  1.0
  O  O145  1  0.42438001  0.33618820  0.41496428  1.0
  O  O146  1  0.44256248  0.07801189  0.03663241  1.0
  O  O147  1  0.60380340  0.09563930  0.01957453  1.0
  O  O148  1  0.49932212  0.07784214  0.89938840  1.0
  O  O149  1  0.57614131  0.91474835  0.99200295  1.0
  O  O150  1  0.47642036  0.91183611  0.88059522  1.0
  O  O151  1  0.66600648  0.57543169  0.59226477  1.0
  O  O152  1  0.56105269  0.47914483  0.60033317  1.0
  O  O153  1  0.52398335  0.61482354  0.59110664  1.0
  O  O154  1  0.42427432  0.51029474  0.59639166  1.0
  O  O155  1  0.48445883  0.57840827  0.41809347  1.0
  O  O156  1  0.37945703  0.47263217  0.41741509  1.0
  O  O157  1  0.90636259  0.43877038  0.02400601  1.0
  F  F158  1  0.77309177  0.67739671  0.77850168  1.0
  F  F159  1  0.70569049  0.28740588  0.29005905  1.0
  F  F160  1  0.70460903  0.41051638  0.41539551  1.0
  F  F161  1  0.14485047  0.56545784  0.31963203  1.0
  F  F162  1  0.22444880  0.41453582  0.05318659  1.0
  F  F163  1  0.29728846  0.55521969  0.09991982  1.0
  F  F164  1  0.59677895  0.35806231  0.53474137  1.0
  F  F165  1  0.44532719  0.87686633  0.69880391  1.0
  F  F166  1  0.58913431  0.93557529  0.76187110  1.0
  F  F167  1  0.92215832  0.37687001  0.18096459  1.0
  F  F168  1  0.12724178  0.57030610  0.82596261  1.0
  F  F169  1  0.22439648  0.69210020  0.80682934  1.0
  F  F170  1  0.31245885  0.95934640  0.13221837  1.0
  F  F171  1  0.20484676  0.83897958  0.14988826  1.0
  F  F172  1  0.33376528  0.12066122  0.09334605  1.0
