# generated using pymatgen
data_Zr3H23C44N2O16F5
_symmetry_space_group_name_H-M   'P 1'
_cell_length_a   19.00099326
_cell_length_b   19.19288420
_cell_length_c   19.19221439
_cell_angle_alpha   90.50037822
_cell_angle_beta   119.66175558
_cell_angle_gamma   119.66198559
_symmetry_Int_Tables_number   1
_chemical_formula_structural   Zr3H23C44N2O16F5
_chemical_formula_sum   'Zr6 H46 C88 N4 O32 F10'
_cell_volume   4977.88762143
_cell_formula_units_Z   2
loop_
 _symmetry_equiv_pos_site_id
 _symmetry_equiv_pos_as_xyz
  1  'x, y, z'
loop_
 _atom_site_type_symbol
 _atom_site_label
 _atom_site_symmetry_multiplicity
 _atom_site_fract_x
 _atom_site_fract_y
 _atom_site_fract_z
 _atom_site_occupancy
  Zr  Zr0  1  0.68527208  0.09192411  0.09194319  1.0
  Zr  Zr1  1  0.31528484  0.90809975  0.90808554  1.0
  Zr  Zr2  1  0.50145826  0.90809998  0.90803466  1.0
  Zr  Zr3  1  0.49908850  0.09198411  0.09190507  1.0
  Zr  Zr4  1  0.50029346  0.09166857  0.90834732  1.0
  Zr  Zr5  1  0.50024265  0.90833651  0.09164831  1.0
  H  H6  1  0.64685988  0.07209102  0.92787467  1.0
  H  H7  1  0.35370158  0.07212787  0.92792203  1.0
  H  H8  1  0.35524426  0.78284585  0.92714184  1.0
  H  H9  1  0.64521925  0.07287813  0.21718041  1.0
  H  H10  1  0.06563672  0.67957689  0.88906429  1.0
  H  H11  1  0.93459961  0.32260945  0.11345203  1.0
  H  H12  1  0.70885311  0.32284500  0.89155584  1.0
  H  H13  1  0.83638760  0.44953860  0.89127120  1.0
  H  H14  1  0.29182502  0.68297634  0.11427233  1.0
  H  H15  1  0.16450518  0.55479056  0.11327309  1.0
  H  H16  1  0.06611146  0.88682161  0.67758913  1.0
  H  H17  1  0.93478768  0.11110519  0.32054773  1.0
  H  H18  1  0.70879072  0.88587215  0.31731728  1.0
  H  H19  1  0.83619187  0.88710709  0.44560898  1.0
  H  H20  1  0.29185641  0.10881190  0.67745483  1.0
  H  H21  1  0.16429508  0.10923661  0.55088315  1.0
  H  H22  1  0.50339876  0.68209445  0.11294788  1.0
  H  H23  1  0.50252168  0.32054373  0.88964726  1.0
  H  H24  1  0.50357001  0.32405780  0.11420902  1.0
  H  H25  1  0.50203079  0.45046650  0.11261564  1.0
  H  H26  1  0.50535387  0.68021406  0.88985813  1.0
  H  H27  1  0.50277355  0.55164117  0.88938897  1.0
  H  H28  1  0.49740585  0.10998360  0.67911426  1.0
  H  H29  1  0.49669320  0.88682902  0.31762505  1.0
  H  H30  1  0.49460264  0.10981453  0.31942779  1.0
  H  H31  1  0.49701265  0.11022428  0.44794040  1.0
  H  H32  1  0.49669850  0.88560806  0.67576412  1.0
  H  H33  1  0.49786889  0.88703142  0.54916345  1.0
  H  H34  1  0.07018588  0.88655253  0.89233748  1.0
  H  H35  1  0.29121360  0.10937967  0.11136358  1.0
  H  H36  1  0.93033056  0.10749542  0.11366512  1.0
  H  H37  1  0.70926802  0.88878049  0.89052427  1.0
  H  H38  1  0.29260928  0.68030869  0.67767438  1.0
  H  H39  1  0.70821789  0.32236777  0.31976966  1.0
  H  H40  1  0.93490975  0.32356570  0.31909478  1.0
  H  H41  1  0.06134583  0.44991078  0.44666474  1.0
  H  H42  1  0.06590464  0.68106206  0.67634584  1.0
  H  H43  1  0.93947814  0.55349338  0.55002763  1.0
  H  H44  1  0.68590586  0.80169936  0.81688903  1.0
  H  H45  1  0.72252343  0.74857211  0.79103790  1.0
  H  H46  1  0.93318936  0.81702606  0.80193998  1.0
  H  H47  1  0.81811921  0.79227701  0.74888973  1.0
  H  H48  1  0.06733395  0.19834846  0.18269591  1.0
  H  H49  1  0.18260465  0.25097880  0.20796862  1.0
  H  H50  1  0.31454262  0.18331638  0.19798073  1.0
  H  H51  1  0.27809808  0.20870529  0.25154529  1.0
  C  C52  1  0.73480469  0.23598284  0.00256344  1.0
  C  C53  1  0.26587962  0.99760093  0.76413591  1.0
  C  C54  1  0.26558270  0.76886281  0.00226232  1.0
  C  C55  1  0.73489071  0.99774876  0.23125071  1.0
  C  C56  1  0.73672392  0.99776815  0.00243868  1.0
  C  C57  1  0.73451509  0.23631659  0.23178495  1.0
  C  C58  1  0.26379959  0.99764623  0.00219220  1.0
  C  C59  1  0.26618963  0.76824407  0.76370267  1.0
  C  C60  1  0.49646143  0.99718747  0.76407214  1.0
  C  C61  1  0.50601344  0.76885999  0.00187269  1.0
  C  C62  1  0.49428604  0.99800239  0.23099551  1.0
  C  C63  1  0.50390409  0.23581198  0.00267156  1.0
  C  C64  1  0.18829984  0.69089720  0.00225680  1.0
  C  C65  1  0.81218329  0.31362507  0.00238010  1.0
  C  C66  1  0.08823128  0.65258867  0.93876909  1.0
  C  C67  1  0.01698682  0.57962682  0.93869077  1.0
  C  C68  1  0.91224743  0.35010247  0.06417430  1.0
  C  C69  1  0.98366122  0.42153557  0.06283443  1.0
  C  C70  1  0.78670541  0.35091669  0.94026603  1.0
  C  C71  1  0.85962211  0.42274557  0.94046523  1.0
  C  C72  1  0.21395706  0.65388051  0.06464426  1.0
  C  C73  1  0.14119678  0.58098958  0.06349974  1.0
  C  C74  1  0.03846682  0.53967261  0.00063083  1.0
  C  C75  1  0.96237136  0.46235037  0.00173626  1.0
  C  C76  1  0.18851298  0.99793165  0.68661615  1.0
  C  C77  1  0.81222060  0.99788940  0.30931399  1.0
  C  C78  1  0.08844493  0.93618722  0.65017132  1.0
  C  C79  1  0.01703148  0.93761423  0.57883448  1.0
  C  C80  1  0.91227585  0.06148838  0.34764574  1.0
  C  C81  1  0.98359910  0.06171079  0.42069175  1.0
  C  C82  1  0.78664688  0.93554797  0.34639458  1.0
  C  C83  1  0.85947595  0.93683943  0.41936247  1.0
  C  C84  1  0.21400153  0.06011857  0.64938061  1.0
  C  C85  1  0.14108086  0.06000849  0.57765031  1.0
  C  C86  1  0.03831799  0.99872872  0.53803446  1.0
  C  C87  1  0.96220194  0.99980302  0.46069016  1.0
  C  C88  1  0.50509810  0.69078547  0.00135539  1.0
  C  C89  1  0.50355711  0.31325958  0.00258227  1.0
  C  C90  1  0.50343624  0.65398711  0.06343439  1.0
  C  C91  1  0.50161292  0.58101057  0.06218357  1.0
  C  C92  1  0.50248873  0.34869543  0.93913983  1.0
  C  C93  1  0.50130375  0.42019161  0.93890295  1.0
  C  C94  1  0.50323903  0.35145369  0.06467623  1.0
  C  C95  1  0.50216833  0.42318574  0.06314473  1.0
  C  C96  1  0.50457147  0.65219683  0.93881171  1.0
  C  C97  1  0.50300206  0.57916687  0.93902245  1.0
  C  C98  1  0.50171013  0.53938209  0.00085125  1.0
  C  C99  1  0.50140365  0.46194975  0.00030862  1.0
  C  C100  1  0.49654007  0.99715114  0.68648869  1.0
  C  C101  1  0.49493022  0.99837195  0.30892679  1.0
  C  C102  1  0.49740468  0.06048120  0.65093747  1.0
  C  C103  1  0.49840047  0.06065306  0.57934792  1.0
  C  C104  1  0.49658027  0.93629175  0.34571270  1.0
  C  C105  1  0.49829116  0.93747951  0.41864409  1.0
  C  C106  1  0.49534365  0.06085553  0.34745275  1.0
  C  C107  1  0.49681780  0.06060604  0.42043799  1.0
  C  C108  1  0.49691965  0.93508850  0.64830934  1.0
  C  C109  1  0.49776427  0.93651619  0.57646590  1.0
  C  C110  1  0.49834280  0.99927305  0.53761768  1.0
  C  C111  1  0.49804606  0.99873770  0.46019481  1.0
  C  C112  1  0.08588105  0.93482715  0.93864988  1.0
  C  C113  1  0.01059603  0.93412311  0.93647428  1.0
  C  C114  1  0.90771533  0.87087787  0.87113702  1.0
  C  C115  1  0.21229319  0.06151996  0.06472551  1.0
  C  C116  1  0.13996871  0.06322975  0.06605432  1.0
  C  C117  1  0.16572986  0.12764530  0.13029255  1.0
  C  C118  1  0.91460766  0.06126342  0.06528706  1.0
  C  C119  1  0.98986377  0.06346675  0.06591162  1.0
  C  C120  1  0.09272545  0.12881610  0.12915148  1.0
  C  C121  1  0.78818573  0.93533503  0.93842670  1.0
  C  C122  1  0.86051704  0.93401158  0.93673895  1.0
  C  C123  1  0.83472546  0.86976871  0.87230180  1.0
  C  C124  1  0.18550467  0.99782253  0.00201963  1.0
  C  C125  1  0.03743878  0.99871267  0.00124970  1.0
  C  C126  1  0.81499814  0.99795354  0.00223637  1.0
  C  C127  1  0.96304041  0.99874123  0.00129070  1.0
  C  C128  1  0.18841608  0.69048861  0.68621977  1.0
  C  C129  1  0.81238882  0.31375470  0.30959761  1.0
  C  C130  1  0.21502950  0.65306405  0.65009639  1.0
  C  C131  1  0.14242786  0.58045165  0.57866900  1.0
  C  C132  1  0.78578810  0.34989909  0.34702674  1.0
  C  C133  1  0.85839587  0.42136853  0.41959082  1.0
  C  C134  1  0.91302147  0.35129858  0.34731163  1.0
  C  C135  1  0.98445353  0.42308303  0.41992725  1.0
  C  C136  1  0.08778563  0.65281712  0.64862392  1.0
  C  C137  1  0.01636354  0.58019465  0.57685973  1.0
  C  C138  1  0.03938808  0.53975569  0.53749904  1.0
  C  C139  1  0.96143789  0.46255174  0.46028618  1.0
  N  N140  1  0.73571950  0.80658729  0.80705257  1.0
  N  N141  1  0.87822579  0.80680605  0.80671399  1.0
  N  N142  1  0.12217173  0.19326478  0.19314429  1.0
  N  N143  1  0.26473914  0.19298186  0.19341201  1.0
  O  O144  1  0.76416478  0.20549685  0.06120903  1.0
  O  O145  1  0.23650998  0.93883421  0.79450646  1.0
  O  O146  1  0.23620783  0.79851677  0.94280288  1.0
  O  O147  1  0.76428724  0.05720595  0.20159191  1.0
  O  O148  1  0.64645018  0.93901158  0.94306777  1.0
  O  O149  1  0.64439914  0.20580638  0.20195678  1.0
  O  O150  1  0.35407770  0.05700503  0.06096959  1.0
  O  O151  1  0.35633033  0.79807903  0.79430615  1.0
  O  O152  1  0.49706310  0.05684472  0.79506272  1.0
  O  O153  1  0.50535702  0.79925253  0.06089411  1.0
  O  O154  1  0.49503942  0.93903878  0.20064649  1.0
  O  O155  1  0.50337355  0.20488504  0.94304178  1.0
  O  O156  1  0.50573664  0.79865480  0.94253430  1.0
  O  O157  1  0.49474640  0.05744040  0.20130170  1.0
  O  O158  1  0.50320356  0.20546977  0.06151035  1.0
  O  O159  1  0.49729197  0.93842153  0.79447303  1.0
  O  O160  1  0.76458485  0.05715034  0.06124288  1.0
  O  O161  1  0.23669573  0.79832656  0.79434345  1.0
  O  O162  1  0.23594614  0.93886834  0.94279640  1.0
  O  O163  1  0.76395443  0.20562536  0.20168097  1.0
  O  O164  1  0.64478275  0.93877624  0.20070698  1.0
  O  O165  1  0.64478094  0.20504021  0.94302064  1.0
  O  O166  1  0.35590294  0.05711823  0.79507173  1.0
  O  O167  1  0.35567876  0.79930813  0.06119283  1.0
  O  O168  1  0.60396051  0.05206201  0.15545738  1.0
  O  O169  1  0.39653822  0.84456890  0.94793666  1.0
  O  O170  1  0.39559244  0.05181099  0.94818063  1.0
  O  O171  1  0.60495815  0.05180793  0.94818711  1.0
  O  O172  1  0.42370703  0.96156785  0.88530457  1.0
  O  O173  1  0.57684199  0.11472110  0.03845535  1.0
  O  O174  1  0.42306453  0.96198994  0.03803931  1.0
  O  O175  1  0.57740685  0.96200000  0.03803278  1.0
  F  F176  1  0.92168633  0.54782501  0.87266624  1.0
  F  F177  1  0.07904700  0.45072374  0.12644645  1.0
  F  F178  1  0.92165718  0.87408815  0.54975008  1.0
  F  F179  1  0.07888492  0.12782177  0.45253033  1.0
  F  F180  1  0.49959144  0.55098227  0.12617864  1.0
  F  F181  1  0.49993347  0.44857385  0.87321062  1.0
  F  F182  1  0.49953436  0.12624783  0.55087501  1.0
  F  F183  1  0.50035845  0.87351355  0.44868826  1.0
  F  F184  1  0.17823069  0.54978545  0.54977135  1.0
  F  F185  1  0.82259367  0.45031436  0.45022374  1.0
