# generated using pymatgen
data_Zn2H16C33BrN3O8
_symmetry_space_group_name_H-M   'P 1'
_cell_length_a   9.98605011
_cell_length_b   10.95125133
_cell_length_c   10.98948589
_cell_angle_alpha   92.86572937
_cell_angle_beta   91.40826005
_cell_angle_gamma   90.23008485
_symmetry_Int_Tables_number   1
_chemical_formula_structural   Zn2H16C33BrN3O8
_chemical_formula_sum   'Zn2 H16 C33 Br1 N3 O8'
_cell_volume   1199.92534086
_cell_formula_units_Z   1
loop_
 _symmetry_equiv_pos_site_id
 _symmetry_equiv_pos_as_xyz
  1  'x, y, z'
loop_
 _atom_site_type_symbol
 _atom_site_label
 _atom_site_symmetry_multiplicity
 _atom_site_fract_x
 _atom_site_fract_y
 _atom_site_fract_z
 _atom_site_occupancy
  Zn  Zn0  1  0.64028412  0.50322419  0.50083636  1.0
  Zn  Zn1  1  0.35573069  0.49801397  0.49597170  1.0
  H  H2  1  0.55497581  0.89839016  0.68552092  1.0
  H  H3  1  0.76015164  0.47925061  0.79084495  1.0
  H  H4  1  0.43626051  0.76419596  0.27459412  1.0
  H  H5  1  0.40227784  0.86669308  0.08160511  1.0
  H  H6  1  0.96730048  0.51936247  0.91261896  1.0
  H  H7  1  0.42462592  0.09426250  0.07711091  1.0
  H  H8  1  0.95398547  0.58997899  0.13251447  1.0
  H  H9  1  0.28968176  0.48467370  0.87741527  1.0
  H  H10  1  0.47683536  0.21793382  0.26612414  1.0
  H  H11  1  0.73599491  0.58869067  0.23352959  1.0
  H  H12  1  0.57018014  0.12574442  0.68274616  1.0
  H  H13  1  0.28456298  0.48846781  0.10593545  1.0
  H  H14  1  0.25341154  0.64741859  0.66895224  1.0
  H  H15  1  0.13441925  0.79537942  0.80394878  1.0
  H  H16  1  0.88573166  0.81450810  0.78828996  1.0
  H  H17  1  0.75489172  0.68030997  0.64137716  1.0
  C  C18  1  0.49398228  0.50217057  0.73489567  1.0
  C  C19  1  0.37889600  0.49875728  0.05954501  1.0
  C  C20  1  0.54406900  0.07198734  0.59921452  1.0
  C  C21  1  0.51837591  0.13091946  0.49279484  1.0
  C  C22  1  0.49542627  0.51591899  0.12953402  1.0
  C  C23  1  0.14512414  0.65407284  0.66330109  1.0
  C  C24  1  0.07765798  0.73703563  0.73777548  1.0
  C  C25  1  0.50304877  0.73792299  0.49759382  1.0
  C  C26  1  0.93689953  0.74789885  0.72913247  1.0
  C  C27  1  0.86319318  0.67357263  0.64764124  1.0
  C  C28  1  0.92889474  0.58563405  0.57193828  1.0
  C  C29  1  0.07281335  0.57787896  0.57752138  1.0
  C  C30  1  0.06527933  0.42457289  0.42447016  1.0
  C  C31  1  0.48568452  0.50789008  0.26485744  1.0
  C  C32  1  0.52075197  0.26768220  0.49776745  1.0
  C  C33  1  0.92119893  0.42650885  0.42413729  1.0
  C  C34  1  0.44545326  0.86338278  0.27315245  1.0
  C  C35  1  0.75471482  0.50331935  0.88749682  1.0
  C  C36  1  0.42568240  0.92092979  0.16547943  1.0
  C  C37  1  0.87028204  0.52677438  0.95590958  1.0
  C  C38  1  0.43725457  0.04961444  0.16319455  1.0
  C  C39  1  0.86311890  0.56325674  0.08051807  1.0
  C  C40  1  0.46599934  0.11908202  0.26885427  1.0
  C  C41  1  0.53526826  0.94366895  0.60070106  1.0
  C  C42  1  0.74154925  0.56314319  0.13706051  1.0
  C  C43  1  0.48560700  0.06290024  0.38178817  1.0
  C  C44  1  0.62123453  0.52985201  0.07133609  1.0
  C  C45  1  0.47733963  0.93200227  0.38334893  1.0
  C  C46  1  0.62628436  0.51113844  0.94069684  1.0
  C  C47  1  0.38218647  0.49398508  0.93182948  1.0
  C  C48  1  0.50290911  0.87481374  0.49522585  1.0
  C  C49  1  0.50235173  0.49954389  0.87144964  1.0
  C  C50  1  0.84945195  0.33999250  0.34537676  1.0
  Br  Br51  1  0.14741112  0.31374050  0.31479765  1.0
  N  N52  1  0.13819456  0.49712489  0.49956203  1.0
  N  N53  1  0.85600298  0.50672655  0.49571341  1.0
  N  N54  1  0.79756065  0.26688198  0.27898776  1.0
  O  O55  1  0.59660127  0.53901306  0.67994119  1.0
  O  O56  1  0.62977427  0.32144053  0.53175111  1.0
  O  O57  1  0.58966870  0.47254557  0.32225524  1.0
  O  O58  1  0.37312655  0.53176914  0.31308353  1.0
  O  O59  1  0.41156993  0.31983587  0.46901797  1.0
  O  O60  1  0.61383031  0.68626669  0.47287906  1.0
  O  O61  1  0.38254925  0.47259803  0.68182668  1.0
  O  O62  1  0.39528017  0.68454949  0.52460972  1.0
