# generated using pymatgen
data_Zn2H9C29N8(O2F)2
_symmetry_space_group_name_H-M   'P 1'
_cell_length_a   18.59380024
_cell_length_b   19.15047583
_cell_length_c   19.52140480
_cell_angle_alpha   111.08193014
_cell_angle_beta   103.40513844
_cell_angle_gamma   109.12672371
_symmetry_Int_Tables_number   1
_chemical_formula_structural   Zn2H9C29N8(O2F)2
_chemical_formula_sum   'Zn4 H18 C58 N16 O8 F4'
_cell_volume   5625.12900571
_cell_formula_units_Z   2
loop_
 _symmetry_equiv_pos_site_id
 _symmetry_equiv_pos_as_xyz
  1  'x, y, z'
loop_
 _atom_site_type_symbol
 _atom_site_label
 _atom_site_symmetry_multiplicity
 _atom_site_fract_x
 _atom_site_fract_y
 _atom_site_fract_z
 _atom_site_occupancy
  Zn  Zn0  1  0.99368314  0.10065591  0.60340217  1.0
  Zn  Zn1  1  0.98661892  0.87592338  0.37104295  1.0
  Zn  Zn2  1  0.87696932  0.86920029  0.49960550  1.0
  Zn  Zn3  1  0.10228846  0.11202458  0.48071883  1.0
  H  H4  1  0.04604730  0.11899092  0.79757648  1.0
  H  H5  1  0.69833502  0.71272545  0.34545562  1.0
  H  H6  1  0.13600681  0.19785015  0.76643397  1.0
  H  H7  1  0.82423230  0.83649504  0.23054832  1.0
  H  H8  1  0.27088463  0.11612623  0.54875812  1.0
  H  H9  1  0.70188568  0.86198688  0.41257452  1.0
  H  H10  1  0.02269569  0.71318271  0.27425402  1.0
  H  H11  1  0.96393425  0.25557446  0.73986782  1.0
  H  H12  1  0.81399864  0.73218737  0.63494237  1.0
  H  H13  1  0.23965532  0.22891205  0.36068214  1.0
  H  H14  1  0.94540235  0.86859255  0.18520251  1.0
  H  H15  1  0.55798448  0.52645543  0.02658996  1.0
  H  H16  1  0.33085767  0.60254781  0.97196761  1.0
  H  H17  1  0.15695042  0.86421430  0.35112732  1.0
  H  H18  1  0.84983287  0.13160586  0.52986718  1.0
  H  H19  1  0.00694701  0.83690174  0.62106443  1.0
  H  H20  1  0.06555938  0.25495150  0.44576446  1.0
  H  H21  1  0.26038198  0.29057861  0.63295387  1.0
  C  C22  1  0.00335297  0.05646533  0.74883825  1.0
  C  C23  1  0.38098548  0.58510196  0.98379785  1.0
  C  C24  1  0.41839802  0.49484910  0.00913419  1.0
  C  C25  1  0.46979130  0.63246764  0.98856773  1.0
  C  C26  1  0.27055236  0.35651359  0.79997140  1.0
  C  C27  1  0.65090569  0.72369422  0.19493348  1.0
  C  C28  1  0.46716136  0.54637523  0.93640476  1.0
  C  C29  1  0.42085174  0.58081224  0.06096689  1.0
  C  C30  1  0.37644108  0.49707943  0.92970899  1.0
  C  C31  1  0.51181646  0.62939828  0.06764998  1.0
  C  C32  1  0.31342423  0.42496443  0.85933114  1.0
  C  C33  1  0.98627614  0.93136402  0.23457460  1.0
  C  C34  1  0.58471516  0.68783296  0.13769421  1.0
  C  C35  1  0.32651994  0.00134788  0.45111629  1.0
  C  C36  1  0.67025885  0.00937401  0.44818270  1.0
  C  C37  1  0.17076486  0.92454632  0.39801057  1.0
  C  C38  1  0.82639089  0.06425235  0.50556397  1.0
  C  C39  1  0.39316790  0.00670655  0.44737085  1.0
  C  C40  1  0.60395193  0.01200062  0.44243465  1.0
  C  C41  1  0.46546534  0.01092711  0.44380860  1.0
  C  C42  1  0.53192625  0.01291050  0.44126542  1.0
  C  C43  1  0.04922874  0.38810260  0.56499627  1.0
  C  C44  1  0.24909391  0.99368087  0.45102227  1.0
  C  C45  1  0.06248276  0.71422635  0.54396665  1.0
  C  C46  1  0.06093916  0.45719927  0.57003003  1.0
  C  C47  1  0.07157886  0.65924345  0.55801958  1.0
  C  C48  1  0.06992999  0.52997827  0.57144201  1.0
  C  C49  1  0.07424895  0.59433070  0.56776681  1.0
  C  C50  1  0.98853984  0.97334993  0.82281459  1.0
  C  C51  1  0.05825591  0.99920434  0.16601038  1.0
  C  C52  1  0.01018732  0.97395127  0.88770401  1.0
  C  C53  1  0.05684996  0.99183492  0.10030933  1.0
  C  C54  1  0.03122496  0.97761543  0.95967614  1.0
  C  C55  1  0.74362723  0.00117270  0.46237169  1.0
  C  C56  1  0.04739236  0.98446390  0.02764288  1.0
  C  C57  1  0.01099609  0.82298961  0.56350377  1.0
  C  C58  1  0.04686720  0.24893606  0.49284236  1.0
  C  C59  1  0.22063694  0.25455532  0.65331719  1.0
  C  C60  1  0.74260541  0.74797103  0.32801577  1.0
  C  C61  1  0.03111593  0.77578552  0.45136868  1.0
  C  C62  1  0.01383740  0.26665342  0.59805402  1.0
  C  C63  1  0.15701738  0.20684468  0.72147674  1.0
  C  C64  1  0.80662504  0.81128523  0.26903932  1.0
  C  C65  1  0.22951721  0.05338377  0.49965244  1.0
  C  C66  1  0.04069853  0.76911871  0.52302331  1.0
  C  C67  1  0.75068759  0.92610501  0.44560167  1.0
  C  C68  1  0.91755999  0.92072928  0.67210854  1.0
  C  C69  1  0.08021313  0.06385075  0.31423946  1.0
  C  C70  1  0.96993649  0.98142089  0.75346996  1.0
  C  C71  1  0.04543100  0.99930606  0.23358757  1.0
  C  C72  1  0.04390986  0.73038671  0.38120328  1.0
  C  C73  1  0.99568569  0.29462217  0.66909877  1.0
  C  C74  1  0.86196962  0.83142011  0.62815644  1.0
  C  C75  1  0.15139976  0.14568070  0.36145589  1.0
  C  C76  1  0.03698411  0.30819353  0.55341529  1.0
  C  C77  1  0.22034317  0.27871738  0.73068321  1.0
  C  C78  1  0.72713753  0.75982603  0.25962753  1.0
  C  C79  1  0.50608433  0.54089639  0.01250961  1.0
  N  N80  1  0.97384314  0.04060863  0.67184013  1.0
  N  N81  1  0.01104962  0.19019254  0.56504806  1.0
  N  N82  1  0.12143733  0.14532657  0.64462028  1.0
  N  N83  1  0.86368065  0.82741205  0.33681486  1.0
  N  N84  1  0.14665490  0.02261481  0.47625361  1.0
  N  N85  1  0.83055962  0.94414272  0.47796429  1.0
  N  N86  1  0.92260879  0.95855517  0.62570624  1.0
  N  N87  1  0.04148317  0.03468114  0.35612833  1.0
  N  N88  1  0.98553873  0.95402691  0.30841080  1.0
  N  N89  1  0.11092604  0.94325865  0.41358218  1.0
  N  N90  1  0.87755665  0.02912872  0.51521981  1.0
  N  N91  1  0.98468655  0.85677874  0.51880082  1.0
  N  N92  1  0.03135063  0.17916051  0.50129032  1.0
  N  N93  1  0.16179585  0.17562236  0.60328818  1.0
  N  N94  1  0.82422699  0.78841444  0.37382867  1.0
  N  N95  1  0.99780365  0.82849715  0.45140826  1.0
  O  O96  1  0.07431413  0.68210668  0.37254942  1.0
  O  O97  1  0.01355151  0.74724387  0.31935872  1.0
  O  O98  1  0.99626090  0.36170311  0.70496463  1.0
  O  O99  1  0.97644489  0.23292762  0.69301500  1.0
  O  O100  1  0.82610572  0.79338026  0.55346805  1.0
  O  O101  1  0.85154991  0.79177605  0.67193380  1.0
  O  O102  1  0.17626076  0.18532038  0.43596093  1.0
  O  O103  1  0.19082147  0.17559677  0.32133790  1.0
  F  F104  1  0.39703867  0.59824955  0.12349531  1.0
  F  F105  1  0.49002744  0.52892940  0.87326706  1.0
  F  F106  1  0.39213170  0.42567516  0.01958990  1.0
  F  F107  1  0.49447876  0.70117255  0.97722113  1.0
