# generated using pymatgen
data_Al4H19C26ClO22
_symmetry_space_group_name_H-M   'P 1'
_cell_length_a   6.64994355
_cell_length_b   13.48928979
_cell_length_c   16.98879887
_cell_angle_alpha   90.03899075
_cell_angle_beta   91.34105761
_cell_angle_gamma   91.27970539
_symmetry_Int_Tables_number   1
_chemical_formula_structural   Al4H19C26ClO22
_chemical_formula_sum   'Al4 H19 C26 Cl1 O22'
_cell_volume   1523.14797595
_cell_formula_units_Z   1
loop_
 _symmetry_equiv_pos_site_id
 _symmetry_equiv_pos_as_xyz
  1  'x, y, z'
loop_
 _atom_site_type_symbol
 _atom_site_label
 _atom_site_symmetry_multiplicity
 _atom_site_fract_x
 _atom_site_fract_y
 _atom_site_fract_z
 _atom_site_occupancy
  Al  Al0  1  0.88086397  0.49533002  0.49504584  1.0
  Al  Al1  1  0.38187384  0.49696787  0.49931754  1.0
  Al  Al2  1  0.38683746  0.00257208  0.99699787  1.0
  Al  Al3  1  0.88738190  0.00428487  0.99699827  1.0
  H  H4  1  0.40890690  0.78206788  0.82244420  1.0
  H  H5  1  0.96471967  0.82818192  0.78484705  1.0
  H  H6  1  0.41316698  0.69898365  0.69819460  1.0
  H  H7  1  0.85624582  0.69308803  0.30138530  1.0
  H  H8  1  0.85011839  0.77917971  0.17873482  1.0
  H  H9  1  0.29977290  0.82879435  0.21063656  1.0
  H  H10  1  0.93399190  0.20652369  0.81582134  1.0
  H  H11  1  0.47498804  0.18618074  0.78872034  1.0
  H  H12  1  0.94074025  0.31116180  0.69708117  1.0
  H  H13  1  0.47791720  0.29236637  0.69176878  1.0
  H  H14  1  0.51710059  0.23431210  0.17735652  1.0
  H  H15  1  0.91642280  0.29280378  0.32822978  1.0
  H  H16  1  0.45635951  0.28954059  0.29869903  1.0
  H  H17  1  0.82965526  0.58012575  0.69167633  1.0
  H  H18  1  0.43573697  0.58169538  0.30216859  1.0
  H  H19  1  0.64290969  0.62378502  0.52108876  1.0
  H  H20  1  0.12820562  0.37092180  0.52541785  1.0
  H  H21  1  0.63657653  0.88327172  0.03322784  1.0
  H  H22  1  0.14754863  0.12398718  0.03216602  1.0
  C  C23  1  0.64033547  0.38010480  0.60641662  1.0
  C  C24  1  0.60994781  0.37808906  0.39116174  1.0
  C  C25  1  0.12648449  0.60502438  0.38606626  1.0
  C  C26  1  0.14325097  0.60994942  0.60742783  1.0
  C  C27  1  0.26470703  0.77528168  0.79029806  1.0
  C  C28  1  0.10918261  0.82842852  0.81630550  1.0
  C  C29  1  0.26354353  0.71345269  0.72084311  1.0
  C  C30  1  0.10767447  0.66626048  0.68124432  1.0
  C  C31  1  0.00362694  0.71023852  0.27651391  1.0
  C  C32  1  0.16121612  0.66381617  0.31297892  1.0
  C  C33  1  0.99745384  0.77384722  0.20824763  1.0
  C  C34  1  0.15302028  0.82919213  0.18090096  1.0
  C  C35  1  0.79061618  0.22079514  0.78559928  1.0
  C  C36  1  0.62426779  0.17738902  0.81547787  1.0
  C  C37  1  0.79373567  0.28464111  0.71684127  1.0
  C  C38  1  0.62997166  0.31487369  0.67567229  1.0
  C  C39  1  0.79545353  0.20424648  0.23033136  1.0
  C  C40  1  0.65330554  0.19139695  0.17257319  1.0
  C  C41  1  0.77672226  0.27158049  0.29682045  1.0
  C  C42  1  0.60474220  0.30846257  0.32381773  1.0
  C  C43  1  0.65492119  0.12470971  0.10381686  1.0
  C  C44  1  0.62874627  0.11476030  0.88675634  1.0
  C  C45  1  0.12078388  0.88924778  0.88880666  1.0
  C  C46  1  0.14289570  0.89032020  0.10872153  1.0
  C  C47  1  0.89399527  0.65551861  0.70444069  1.0
  C  C48  1  0.37149149  0.65479662  0.28663658  1.0
  Cl  Cl49  1  0.02030064  0.14154831  0.23331825  1.0
  O  O50  1  0.44326976  0.41570877  0.40954087  1.0
  O  O51  1  0.81154783  0.41439013  0.58570013  1.0
  O  O52  1  0.98257573  0.59728408  0.56495295  1.0
  O  O53  1  0.77885627  0.39520267  0.42621788  1.0
  O  O54  1  0.95252289  0.57215049  0.40314297  1.0
  O  O55  1  0.47130521  0.39736600  0.57175327  1.0
  O  O56  1  0.63468265  0.55808376  0.49799336  1.0
  O  O57  1  0.28632346  0.59403601  0.42820651  1.0
  O  O58  1  0.31687886  0.58040624  0.58995669  1.0
  O  O59  1  0.12950380  0.43488807  0.49951206  1.0
  O  O60  1  0.79683354  0.10018661  0.92168842  1.0
  O  O61  1  0.48341632  0.10692175  0.07043615  1.0
  O  O62  1  0.31447817  0.92278283  0.08624637  1.0
  O  O63  1  0.45799328  0.08066965  0.90810095  1.0
  O  O64  1  0.28951402  0.90294954  0.92461905  1.0
  O  O65  1  0.82264405  0.09150240  0.08235779  1.0
  O  O66  1  0.63538614  0.94251233  0.00091542  1.0
  O  O67  1  0.95330840  0.92359784  0.91011629  1.0
  O  O68  1  0.97364820  0.90556068  0.07443745  1.0
  O  O69  1  0.14055446  0.06540363  0.99896121  1.0
  O  O70  1  0.78914072  0.71773878  0.73532035  1.0
  O  O71  1  0.47361876  0.71575020  0.25042930  1.0
