# generated using pymatgen
data_Zn2H10C24S3Br2O11
_symmetry_space_group_name_H-M   'P 1'
_cell_length_a   7.84651033
_cell_length_b   12.52076533
_cell_length_c   34.75399602
_cell_angle_alpha   89.70317669
_cell_angle_beta   88.74189689
_cell_angle_gamma   89.93436916
_symmetry_Int_Tables_number   1
_chemical_formula_structural   Zn2H10C24S3Br2O11
_chemical_formula_sum   'Zn4 H20 C48 S6 Br4 O22'
_cell_volume   3413.51179221
_cell_formula_units_Z   2
loop_
 _symmetry_equiv_pos_site_id
 _symmetry_equiv_pos_as_xyz
  1  'x, y, z'
loop_
 _atom_site_type_symbol
 _atom_site_label
 _atom_site_symmetry_multiplicity
 _atom_site_fract_x
 _atom_site_fract_y
 _atom_site_fract_z
 _atom_site_occupancy
  Zn  Zn0  1  0.66256871  0.00432575  0.49936028  1.0
  Zn  Zn1  1  0.31595741  0.00027325  0.50168275  1.0
  Zn  Zn2  1  0.24704138  0.00894639  0.00077520  1.0
  Zn  Zn3  1  0.59352356  0.00435792  0.99830687  1.0
  H  H4  1  0.61713183  0.00420637  0.11472257  1.0
  H  H5  1  0.65055566  0.00046926  0.18502252  1.0
  H  H6  1  0.10148339  0.99167820  0.19856336  1.0
  H  H7  1  0.80779525  0.99087026  0.30168413  1.0
  H  H8  1  0.25871598  0.00027249  0.31515140  1.0
  H  H9  1  0.29204504  0.00231629  0.38544913  1.0
  H  H10  1  0.25899558  0.99481665  0.25434804  1.0
  H  H11  1  0.65035473  0.99536798  0.24589591  1.0
  H  H12  1  0.60931975  0.00665211  0.88386625  1.0
  H  H13  1  0.64561872  0.00258904  0.81352595  1.0
  H  H14  1  0.09685654  0.00348049  0.80408614  1.0
  H  H15  1  0.81055997  0.00174081  0.69614276  1.0
  H  H16  1  0.26195438  0.00069698  0.68629051  1.0
  H  H17  1  0.29938323  0.00324560  0.61592341  1.0
  H  H18  1  0.25797180  0.00216172  0.74699338  1.0
  H  H19  1  0.64890421  0.00033599  0.75302837  1.0
  H  H20  1  0.12737537  0.36416514  0.50565997  1.0
  H  H21  1  0.78262138  0.36785974  0.99439867  1.0
  H  H22  1  0.82800430  0.66242639  0.43641108  1.0
  H  H23  1  0.07997824  0.66463939  0.06350118  1.0
  C  C24  1  0.39871507  0.20187056  0.49988876  1.0
  C  C25  1  0.56083151  0.00003527  0.42721802  1.0
  C  C26  1  0.42456918  0.80054081  0.50160785  1.0
  C  C27  1  0.56969640  0.00540627  0.57233138  1.0
  C  C28  1  0.51075269  0.20603039  0.99987145  1.0
  C  C29  1  0.34840630  0.00332298  0.07295320  1.0
  C  C30  1  0.48564677  0.80478219  0.99874312  1.0
  C  C31  1  0.33983923  0.00966757  0.92769137  1.0
  C  C32  1  0.34561542  0.99990652  0.11602058  1.0
  C  C33  1  0.50549346  0.00113647  0.13382918  1.0
  C  C34  1  0.52288869  0.99916205  0.17328840  1.0
  C  C35  1  0.37699324  0.99612510  0.19770834  1.0
  C  C36  1  0.21660264  0.99438005  0.18042020  1.0
  C  C37  1  0.20041655  0.99584749  0.14052361  1.0
  C  C38  1  0.38334376  0.99534237  0.23951269  1.0
  C  C39  1  0.52597210  0.99543814  0.26070620  1.0
  C  C40  1  0.69264363  0.99343897  0.31980648  1.0
  C  C41  1  0.53226900  0.99582552  0.30250561  1.0
  C  C42  1  0.38634924  0.99851673  0.32691723  1.0
  C  C43  1  0.40371970  0.99956375  0.36636677  1.0
  C  C44  1  0.56356818  0.99753351  0.38417806  1.0
  C  C45  1  0.70879851  0.99367114  0.35970443  1.0
  C  C46  1  0.33754479  0.00776982  0.88476934  1.0
  C  C47  1  0.49820459  0.00610361  0.86573210  1.0
  C  C48  1  0.51732656  0.00377021  0.82618603  1.0
  C  C49  1  0.37246840  0.00303051  0.80287622  1.0
  C  C50  1  0.21115213  0.00429720  0.82137879  1.0
  C  C51  1  0.19302902  0.00659236  0.86140255  1.0
  C  C52  1  0.38131161  0.00174332  0.76103264  1.0
  C  C53  1  0.52561116  0.00087021  0.73897300  1.0
  C  C54  1  0.69652762  0.00220281  0.67876348  1.0
  C  C55  1  0.53494431  0.00138136  0.69713241  1.0
  C  C56  1  0.39040829  0.00171992  0.67370970  1.0
  C  C57  1  0.41014569  0.00317112  0.63416749  1.0
  C  C58  1  0.57118609  0.00440206  0.61525687  1.0
  C  C59  1  0.71526902  0.00385519  0.63873697  1.0
  C  C60  1  0.55663625  0.61096411  0.49856787  1.0
  C  C61  1  0.25987750  0.38914244  0.50317203  1.0
  C  C62  1  0.42128104  0.68297087  0.50177733  1.0
  C  C63  1  0.39595098  0.31911564  0.50014062  1.0
  C  C64  1  0.31913136  0.49589622  0.50253156  1.0
  C  C65  1  0.49862543  0.50384587  0.49897903  1.0
  C  C66  1  0.35365277  0.61533584  0.00160647  1.0
  C  C67  1  0.65013224  0.39303092  0.99684577  1.0
  C  C68  1  0.48909900  0.68720757  0.99853958  1.0
  C  C69  1  0.51383584  0.32322906  0.99970039  1.0
  C  C70  1  0.59104062  0.49989206  0.99761848  1.0
  C  C71  1  0.41151665  0.50811064  0.00111198  1.0
  S  S72  1  0.22550449  0.62018676  0.50524781  1.0
  S  S73  1  0.59462411  0.38071728  0.49645889  1.0
  S  S74  1  0.68477361  0.62412599  0.99506237  1.0
  S  S75  1  0.31527494  0.38511031  0.00335561  1.0
  S  S76  1  0.77744198  0.63861009  0.49609659  1.0
  S  S77  1  0.13268905  0.64285760  0.00389968  1.0
  Br  Br78  1  0.97238133  0.98983500  0.12290570  1.0
  Br  Br79  1  0.93674498  0.98642643  0.37734507  1.0
  Br  Br80  1  0.96444241  0.00744415  0.88084027  1.0
  Br  Br81  1  0.94412895  0.00496135  0.61948117  1.0
  O  O82  1  0.54539507  0.15829618  0.49823251  1.0
  O  O83  1  0.25587196  0.15051913  0.50132979  1.0
  O  O84  1  0.41562806  0.99700707  0.44412163  1.0
  O  O85  1  0.70397940  0.00547431  0.44455103  1.0
  O  O86  1  0.27754060  0.84759109  0.50294153  1.0
  O  O87  1  0.56761000  0.84670832  0.49994628  1.0
  O  O88  1  0.71237257  0.00961425  0.55324494  1.0
  O  O89  1  0.42460159  0.00188586  0.55668413  1.0
  O  O90  1  0.36399526  0.16273201  0.00145179  1.0
  O  O91  1  0.65351056  0.15444296  0.99847101  1.0
  O  O92  1  0.49355568  0.00052170  0.05602684  1.0
  O  O93  1  0.20524479  0.00923886  0.05559385  1.0
  O  O94  1  0.63258894  0.85176155  0.99738960  1.0
  O  O95  1  0.34256199  0.85106640  0.00043137  1.0
  O  O96  1  0.19742194  0.01421841  0.94686043  1.0
  O  O97  1  0.48519810  0.00648708  0.94323780  1.0
  O  O98  1  0.80204965  0.71105497  0.45773982  1.0
  O  O99  1  0.82800647  0.70285257  0.52767792  1.0
  O  O100  1  0.85951529  0.53695799  0.48824989  1.0
  O  O101  1  0.10665711  0.71402199  0.04226393  1.0
  O  O102  1  0.08255828  0.70807360  0.97227569  1.0
  O  O103  1  0.05098113  0.54091471  0.01162510  1.0
