# generated using pymatgen
data_ZnH5C19I(NO2)8
_symmetry_space_group_name_H-M   'P 1'
_cell_length_a   14.57430565
_cell_length_b   15.08167023
_cell_length_c   16.86085407
_cell_angle_alpha   89.66840246
_cell_angle_beta   87.19860964
_cell_angle_gamma   89.21647828
_symmetry_Int_Tables_number   1
_chemical_formula_structural   ZnH5C19I(NO2)8
_chemical_formula_sum   'Zn2 H10 C38 I2 N16 O32'
_cell_volume   3701.27416321
_cell_formula_units_Z   2
loop_
 _symmetry_equiv_pos_site_id
 _symmetry_equiv_pos_as_xyz
  1  'x, y, z'
loop_
 _atom_site_type_symbol
 _atom_site_label
 _atom_site_symmetry_multiplicity
 _atom_site_fract_x
 _atom_site_fract_y
 _atom_site_fract_z
 _atom_site_occupancy
  Zn  Zn0  1  0.60089920  0.48865048  0.49957274  1.0
  Zn  Zn1  1  0.39381867  0.48858790  0.50304990  1.0
  H  H2  1  0.61171686  0.60379808  0.10184905  1.0
  H  H3  1  0.37307990  0.51569958  0.91055679  1.0
  H  H4  1  0.64020879  0.57802834  0.24659122  1.0
  H  H5  1  0.36292496  0.49662932  0.76358705  1.0
  H  H6  1  0.55742161  0.74794196  0.35578211  1.0
  H  H7  1  0.33771099  0.21910253  0.47142318  1.0
  H  H8  1  0.40092710  0.94802109  0.55306408  1.0
  H  H9  1  0.62811695  0.04605836  0.43429938  1.0
  H  H10  1  0.05905240  0.48498112  0.63845744  1.0
  H  H11  1  0.92423317  0.64432157  0.46174583  1.0
  C  C12  1  0.47658666  0.65609364  0.47857224  1.0
  C  C13  1  0.48329302  0.32098357  0.49129682  1.0
  C  C14  1  0.54357718  0.47423481  0.35013580  1.0
  C  C15  1  0.49462724  0.52438720  0.64950554  1.0
  C  C16  1  0.53771414  0.47778241  0.26143152  1.0
  C  C17  1  0.49572338  0.55122647  0.73500521  1.0
  C  C18  1  0.47144950  0.42844594  0.22393382  1.0
  C  C19  1  0.57178680  0.59283803  0.76568685  1.0
  C  C20  1  0.45247597  0.44571167  0.14551720  1.0
  C  C21  1  0.57751682  0.60366394  0.84722946  1.0
  C  C22  1  0.50238271  0.50990332  0.10126458  1.0
  C  C23  1  0.50765331  0.57199873  0.89996174  1.0
  C  C24  1  0.57140994  0.55662928  0.13766671  1.0
  C  C25  1  0.42854543  0.53640348  0.86916353  1.0
  C  C26  1  0.58805191  0.54097337  0.21710062  1.0
  C  C27  1  0.42304434  0.52662663  0.78778100  1.0
  C  C28  1  0.51958559  0.88194701  0.38534146  1.0
  C  C29  1  0.39944663  0.09212853  0.44467764  1.0
  C  C30  1  0.52136253  0.79073777  0.39908901  1.0
  C  C31  1  0.40162603  0.18170041  0.46242171  1.0
  C  C32  1  0.47733627  0.75501186  0.46701189  1.0
  C  C33  1  0.48509485  0.22492692  0.46833177  1.0
  C  C34  1  0.43342097  0.81412418  0.52056285  1.0
  C  C35  1  0.56540463  0.17417701  0.45330945  1.0
  C  C36  1  0.43400963  0.90503691  0.50822843  1.0
  C  C37  1  0.56353948  0.08327424  0.44017367  1.0
  C  C38  1  0.47707293  0.94152409  0.43972352  1.0
  C  C39  1  0.47983113  0.03973278  0.43636843  1.0
  C  C40  1  0.09728385  0.52927256  0.44251323  1.0
  C  C41  1  0.89334931  0.44469444  0.55213085  1.0
  C  C42  1  0.19383993  0.52405914  0.43985165  1.0
  C  C43  1  0.79700132  0.44598933  0.55799249  1.0
  C  C44  1  0.18777436  0.48381369  0.57113259  1.0
  C  C45  1  0.79704579  0.57666135  0.48762079  1.0
  C  C46  1  0.09342592  0.49429239  0.58035387  1.0
  C  C47  1  0.89168214  0.58517022  0.48654955  1.0
  C  C48  1  0.04474514  0.51361930  0.51267411  1.0
  C  C49  1  0.94288146  0.51459764  0.51657427  1.0
  I  I50  1  0.26574154  0.55598934  0.33445898  1.0
  I  I51  1  0.72849945  0.35198119  0.62794157  1.0
  N  N52  1  0.48671239  0.51268719  0.01967884  1.0
  N  N53  1  0.51977292  0.57856120  0.98226063  1.0
  N  N54  1  0.23880694  0.49724534  0.50409967  1.0
  N  N55  1  0.74916679  0.50965159  0.52015957  1.0
  N  N56  1  0.64944078  0.62347724  0.71260307  1.0
  N  N57  1  0.42325753  0.35600666  0.26719863  1.0
  N  N58  1  0.23388123  0.44927936  0.64211895  1.0
  N  N59  1  0.74640289  0.65056961  0.44901776  1.0
  N  N60  1  0.65900840  0.64460152  0.87951448  1.0
  N  N61  1  0.38087908  0.39673219  0.10554266  1.0
  N  N62  1  0.56153145  0.91360982  0.30861273  1.0
  N  N63  1  0.30860045  0.05318352  0.43293717  1.0
  N  N64  1  0.38797231  0.78204286  0.59538327  1.0
  N  N65  1  0.65827322  0.21282345  0.44963594  1.0
  N  N66  1  0.04933285  0.54894266  0.36884529  1.0
  N  N67  1  0.94471701  0.36615250  0.58048008  1.0
  O  O68  1  0.55427801  0.61834176  0.47915352  1.0
  O  O69  1  0.40380455  0.35754021  0.49738884  1.0
  O  O70  1  0.39780684  0.62034724  0.48354456  1.0
  O  O71  1  0.55916157  0.35716062  0.50404728  1.0
  O  O72  1  0.62185825  0.47570304  0.37990584  1.0
  O  O73  1  0.41749117  0.51170376  0.62022556  1.0
  O  O74  1  0.46605547  0.47587986  0.38751936  1.0
  O  O75  1  0.57343011  0.51307478  0.61504196  1.0
  O  O76  1  0.63398925  0.68622314  0.66818772  1.0
  O  O77  1  0.72359911  0.58352239  0.71852280  1.0
  O  O78  1  0.47207805  0.30283032  0.30248197  1.0
  O  O79  1  0.33878128  0.35343189  0.26365883  1.0
  O  O80  1  0.21660615  0.48997563  0.70460965  1.0
  O  O81  1  0.28093858  0.38153561  0.63285055  1.0
  O  O82  1  0.72639498  0.63911638  0.37973904  1.0
  O  O83  1  0.73386670  0.71769003  0.48948244  1.0
  O  O84  1  0.69768983  0.60312699  0.93206587  1.0
  O  O85  1  0.68114289  0.71773899  0.85169370  1.0
  O  O86  1  0.31276540  0.44072459  0.08779739  1.0
  O  O87  1  0.39588842  0.31738399  0.09274520  1.0
  O  O88  1  0.54064201  0.98943706  0.28668218  1.0
  O  O89  1  0.61361352  0.86161336  0.27108351  1.0
  O  O90  1  0.30677879  0.98695951  0.38975412  1.0
  O  O91  1  0.24064301  0.09009702  0.46571061  1.0
  O  O92  1  0.42333524  0.71726747  0.62795434  1.0
  O  O93  1  0.31881402  0.82352698  0.62065870  1.0
  O  O94  1  0.67900241  0.26061929  0.39226613  1.0
  O  O95  1  0.70949693  0.18955352  0.50273911  1.0
  O  O96  1  0.02306025  0.48459734  0.33206538  1.0
  O  O97  1  0.03831569  0.62822001  0.35231068  1.0
  O  O98  1  0.97420405  0.31474277  0.52844753  1.0
  O  O99  1  0.95496125  0.36005265  0.65261245  1.0
