# generated using pymatgen
data_ZnH8C21N2(O2F3)2
_symmetry_space_group_name_H-M   'P 1'
_cell_length_a   16.35713758
_cell_length_b   17.53270622
_cell_length_c   17.74870076
_cell_angle_alpha   89.80593741
_cell_angle_beta   84.71134427
_cell_angle_gamma   88.97502188
_symmetry_Int_Tables_number   1
_chemical_formula_structural   ZnH8C21N2(O2F3)2
_chemical_formula_sum   'Zn2 H16 C42 N4 O8 F12'
_cell_volume   5067.57190121
_cell_formula_units_Z   2
loop_
 _symmetry_equiv_pos_site_id
 _symmetry_equiv_pos_as_xyz
  1  'x, y, z'
loop_
 _atom_site_type_symbol
 _atom_site_label
 _atom_site_symmetry_multiplicity
 _atom_site_fract_x
 _atom_site_fract_y
 _atom_site_fract_z
 _atom_site_occupancy
  Zn  Zn0  1  0.41390420  0.49788479  0.50352613  1.0
  Zn  Zn1  1  0.58609106  0.50211759  0.49647164  1.0
  H  H2  1  0.71604946  0.42310879  0.57344037  1.0
  H  H3  1  0.86794553  0.42426722  0.57301077  1.0
  H  H4  1  0.86909035  0.60143889  0.40185432  1.0
  H  H5  1  0.71595281  0.59275788  0.41119197  1.0
  H  H6  1  0.13091545  0.39852813  0.59813370  1.0
  H  H7  1  0.13205181  0.57569293  0.42697010  1.0
  H  H8  1  0.28394850  0.57685136  0.42653255  1.0
  H  H9  1  0.28405162  0.40721597  0.58879387  1.0
  H  H10  1  0.61815408  0.50412704  0.73536078  1.0
  H  H11  1  0.61295189  0.50420106  0.87475076  1.0
  H  H12  1  0.34800965  0.49442657  0.88693112  1.0
  H  H13  1  0.35573526  0.49456333  0.74670154  1.0
  H  H14  1  0.65200754  0.50564658  0.11308197  1.0
  H  H15  1  0.38707187  0.49585209  0.12522073  1.0
  H  H16  1  0.38183245  0.49591468  0.26461051  1.0
  H  H17  1  0.64425530  0.50545960  0.25331175  1.0
  C  C18  1  0.49171809  0.49877557  0.64769604  1.0
  C  C19  1  0.50954428  0.35017054  0.50026392  1.0
  C  C20  1  0.50826259  0.50125019  0.35229947  1.0
  C  C21  1  0.49046689  0.64983137  0.49982886  1.0
  C  C22  1  0.75293093  0.46177907  0.53665894  1.0
  C  C23  1  0.83774908  0.46270059  0.53597005  1.0
  C  C24  1  0.88252515  0.51343098  0.48687225  1.0
  C  C25  1  0.83781647  0.56118699  0.44080864  1.0
  C  C26  1  0.75292432  0.55663047  0.44546799  1.0
  C  C27  1  0.97153409  0.51910380  0.48109488  1.0
  C  C28  1  0.02846673  0.48086606  0.51889805  1.0
  C  C29  1  0.16218815  0.43877716  0.55917780  1.0
  C  C30  1  0.11747199  0.48653889  0.51312211  1.0
  C  C31  1  0.16224937  0.53726471  0.46401803  1.0
  C  C32  1  0.24706750  0.53818793  0.46332237  1.0
  C  C33  1  0.24707960  0.44333825  0.55451511  1.0
  C  C34  1  0.48742139  0.49891372  0.73226565  1.0
  C  C35  1  0.55931237  0.50175108  0.76938085  1.0
  C  C36  1  0.55613187  0.50186920  0.84781429  1.0
  C  C37  1  0.47977633  0.49911693  0.89209184  1.0
  C  C38  1  0.40752778  0.49644864  0.85416489  1.0
  C  C39  1  0.41155138  0.49638577  0.77568042  1.0
  C  C40  1  0.47139780  0.49895676  0.97439483  1.0
  C  C41  1  0.52863802  0.50110611  0.02560152  1.0
  C  C42  1  0.59248588  0.50361708  0.14584233  1.0
  C  C43  1  0.52024470  0.50094936  0.10790687  1.0
  C  C44  1  0.44388406  0.49817540  0.15217311  1.0
  C  C45  1  0.44068038  0.49828609  0.23060685  1.0
  C  C46  1  0.51256474  0.50111604  0.26773278  1.0
  C  C47  1  0.58844383  0.50365028  0.22432679  1.0
  C  C48  1  0.48709939  0.73623520  0.50010418  1.0
  C  C49  1  0.55867537  0.78024529  0.49760494  1.0
  C  C50  1  0.55659859  0.85972463  0.49802237  1.0
  C  C51  1  0.48137165  0.90110629  0.50089549  1.0
  C  C52  1  0.40963418  0.85715777  0.50346387  1.0
  C  C53  1  0.41234988  0.77775124  0.50300691  1.0
  C  C54  1  0.59037330  0.14284134  0.49670135  1.0
  C  C55  1  0.51862586  0.09889801  0.49933083  1.0
  C  C56  1  0.44339750  0.14028712  0.50225981  1.0
  C  C57  1  0.44133852  0.21976762  0.50266673  1.0
  C  C58  1  0.51292206  0.26377079  0.50008349  1.0
  C  C59  1  0.58767166  0.22225130  0.49715542  1.0
  N  N60  1  0.71117877  0.50772444  0.49240390  1.0
  N  N61  1  0.28882512  0.49224598  0.50757975  1.0
  N  N62  1  0.46771432  0.97998469  0.50152616  1.0
  N  N63  1  0.53227884  0.02002301  0.49868868  1.0
  O  O64  1  0.42383039  0.49717343  0.61772095  1.0
  O  O65  1  0.56296211  0.50032607  0.61193171  1.0
  O  O66  1  0.57763063  0.38397042  0.49760185  1.0
  O  O67  1  0.43882059  0.38130644  0.50289372  1.0
  O  O68  1  0.57615172  0.50262358  0.38227653  1.0
  O  O69  1  0.43700002  0.49992559  0.38807063  1.0
  O  O70  1  0.42235377  0.61604248  0.50269654  1.0
  O  O71  1  0.56119512  0.61869463  0.49689218  1.0
  F  F72  1  0.00119017  0.57159754  0.42900436  1.0
  F  F73  1  0.99880932  0.42837746  0.57099373  1.0
  F  F74  1  0.39125592  0.49606047  0.00495570  1.0
  F  F75  1  0.60877901  0.50401667  0.99504179  1.0
  F  F76  1  0.33920382  0.74316973  0.50528584  1.0
  F  F77  1  0.33571703  0.89249614  0.50627267  1.0
  F  F78  1  0.63416540  0.74754431  0.49448459  1.0
  F  F79  1  0.62894161  0.89531630  0.49551057  1.0
  F  F80  1  0.66428515  0.10749436  0.49383330  1.0
  F  F81  1  0.66081954  0.25683563  0.49483463  1.0
  F  F82  1  0.37104694  0.10470179  0.50484097  1.0
  F  F83  1  0.36584145  0.25247951  0.50588397  1.0
