# generated using pymatgen
data_Zn3H20C48(IO3)4
_symmetry_space_group_name_H-M   'P 1'
_cell_length_a   28.92587921
_cell_length_b   31.23198453
_cell_length_c   31.25692920
_cell_angle_alpha   77.65970560
_cell_angle_beta   62.44366615
_cell_angle_gamma   62.48688433
_symmetry_Int_Tables_number   1
_chemical_formula_structural   Zn3H20C48(IO3)4
_chemical_formula_sum   'Zn6 H40 C96 I8 O24'
_cell_volume   22203.22135693
_cell_formula_units_Z   2
loop_
 _symmetry_equiv_pos_site_id
 _symmetry_equiv_pos_as_xyz
  1  'x, y, z'
loop_
 _atom_site_type_symbol
 _atom_site_label
 _atom_site_symmetry_multiplicity
 _atom_site_fract_x
 _atom_site_fract_y
 _atom_site_fract_z
 _atom_site_occupancy
  Zn  Zn0  1  0.53206750  0.46710993  0.46709195  1.0
  Zn  Zn1  1  0.45607287  0.99950523  0.99998748  1.0
  Zn  Zn2  1  0.54391074  0.00050315  0.00001673  1.0
  Zn  Zn3  1  0.00087205  0.53289584  0.46712154  1.0
  Zn  Zn4  1  0.46792581  0.53289449  0.53289900  1.0
  Zn  Zn5  1  0.99911945  0.46710534  0.53288241  1.0
  H  H6  1  0.43603006  0.09871016  0.88246931  1.0
  H  H7  1  0.31848190  0.09869148  0.11755664  1.0
  H  H8  1  0.43640856  0.88242214  0.09903062  1.0
  H  H9  1  0.53555757  0.88217607  0.90105765  1.0
  H  H10  1  0.56410387  0.90119071  0.11741314  1.0
  H  H11  1  0.46441874  0.11789909  0.09888055  1.0
  H  H12  1  0.56348553  0.11766385  0.90105439  1.0
  H  H13  1  0.68152984  0.90122599  0.88254082  1.0
  H  H14  1  0.43652356  0.16168238  0.81815300  1.0
  H  H15  1  0.25459892  0.16162724  0.18189531  1.0
  H  H16  1  0.43694117  0.81812230  0.16200052  1.0
  H  H17  1  0.59912575  0.81795130  0.83801547  1.0
  H  H18  1  0.56361385  0.83822247  0.18172932  1.0
  H  H19  1  0.40084885  0.18213036  0.16191758  1.0
  H  H20  1  0.56291103  0.18199870  0.83812479  1.0
  H  H21  1  0.74541591  0.83828337  0.81820934  1.0
  H  H22  1  0.59172752  0.19071244  0.75385889  1.0
  H  H23  1  0.21683642  0.24608920  0.19091872  1.0
  H  H24  1  0.40825342  0.80938636  0.24625135  1.0
  H  H25  1  0.78310657  0.75381223  0.80916238  1.0
  H  H26  1  0.59227268  0.75377686  0.19069860  1.0
  H  H27  1  0.34559243  0.19078578  0.24611693  1.0
  H  H28  1  0.40775677  0.24612635  0.80917609  1.0
  H  H29  1  0.65446195  0.80929603  0.75382699  1.0
  H  H30  1  0.46590620  0.38169930  0.72441208  1.0
  H  H31  1  0.15219811  0.27544129  0.38185161  1.0
  H  H32  1  0.53395896  0.61834574  0.27559642  1.0
  H  H33  1  0.84787770  0.72455100  0.61816129  1.0
  H  H34  1  0.46623326  0.72450562  0.38183792  1.0
  H  H35  1  0.19030535  0.38173481  0.27563519  1.0
  H  H36  1  0.53395562  0.27547275  0.61813706  1.0
  H  H37  1  0.80961748  0.61828538  0.72435277  1.0
  H  H38  1  0.46540996  0.44546089  0.66067758  1.0
  H  H39  1  0.08900038  0.33923658  0.44555432  1.0
  H  H40  1  0.53445304  0.55457113  0.33932220  1.0
  H  H41  1  0.91106629  0.66075281  0.55445612  1.0
  H  H42  1  0.46562201  0.66068750  0.44552072  1.0
  H  H43  1  0.12593791  0.44550676  0.33936161  1.0
  H  H44  1  0.53453082  0.33928394  0.55445121  1.0
  H  H45  1  0.87398781  0.55451236  0.66062917  1.0
  C  C46  1  0.49996804  0.43415107  0.56583078  1.0
  C  C47  1  0.23121816  0.24736214  0.21706562  1.0
  C  C48  1  0.82480857  0.67541038  0.67528969  1.0
  C  C49  1  0.49992889  0.32455402  0.67529853  1.0
  C  C50  1  0.17517704  0.32459078  0.32470946  1.0
  C  C51  1  0.50009255  0.67545514  0.32469202  1.0
  C  C52  1  0.43356563  0.06644985  0.06638807  1.0
  C  C53  1  0.50000699  0.93361075  0.06638224  1.0
  C  C54  1  0.56643733  0.93355351  0.93362069  1.0
  C  C55  1  0.50000276  0.06638502  0.93360699  1.0
  C  C56  1  0.44876225  0.78317066  0.24746640  1.0
  C  C57  1  0.59012602  0.50004305  0.50008830  1.0
  C  C58  1  0.09020657  0.50008962  0.50004891  1.0
  C  C59  1  0.40986897  0.49995271  0.49991532  1.0
  C  C60  1  0.90978967  0.49990361  0.49995280  1.0
  C  C61  1  0.76874866  0.75259350  0.78297487  1.0
  C  C62  1  0.64031219  0.49947638  0.49961272  1.0
  C  C63  1  0.13976230  0.49959661  0.50077498  1.0
  C  C64  1  0.35968048  0.50051938  0.50039510  1.0
  C  C65  1  0.86023937  0.50039663  0.49922053  1.0
  C  C66  1  0.68262394  0.49972462  0.49966161  1.0
  C  C67  1  0.55172014  0.75260163  0.21693063  1.0
  C  C68  1  0.18220388  0.49965098  0.50076040  1.0
  C  C69  1  0.31737125  0.50026609  0.50034493  1.0
  C  C70  1  0.81779157  0.50034153  0.49924276  1.0
  C  C71  1  0.72883781  0.49995603  0.49956298  1.0
  C  C72  1  0.22847552  0.49979539  0.50062905  1.0
  C  C73  1  0.27115566  0.50003575  0.50044216  1.0
  C  C74  1  0.30380148  0.21693025  0.24741963  1.0
  C  C75  1  0.77152581  0.50019315  0.49937306  1.0
  C  C76  1  0.46355361  0.11727540  0.87246996  1.0
  C  C77  1  0.33598129  0.11727105  0.12757310  1.0
  C  C78  1  0.46404751  0.87239217  0.11744293  1.0
  C  C79  1  0.58158785  0.87225098  0.88260700  1.0
  C  C80  1  0.53651477  0.88268141  0.12746554  1.0
  C  C81  1  0.44830479  0.24735294  0.78300880  1.0
  C  C82  1  0.41839969  0.12778665  0.11736774  1.0
  C  C83  1  0.53588432  0.12766098  0.88261334  1.0
  C  C84  1  0.66402189  0.88268178  0.87248746  1.0
  C  C85  1  0.69622492  0.78311251  0.75255190  1.0
  C  C86  1  0.46368069  0.15267694  0.83689237  1.0
  C  C87  1  0.30048566  0.15266677  0.16316735  1.0
  C  C88  1  0.46419163  0.83684172  0.15284646  1.0
  C  C89  1  0.61716155  0.83673810  0.84716494  1.0
  C  C90  1  0.53639881  0.84727085  0.16303803  1.0
  C  C91  1  0.38282421  0.16330531  0.15280260  1.0
  C  C92  1  0.53573454  0.16322443  0.84721809  1.0
  C  C93  1  0.69951739  0.84728244  0.83689533  1.0
  C  C94  1  0.55123900  0.21687574  0.75258145  1.0
  C  C95  1  0.49969610  0.17622649  0.82377559  1.0
  C  C96  1  0.32336000  0.17623604  0.17628931  1.0
  C  C97  1  0.50031029  0.82378085  0.17622602  1.0
  C  C98  1  0.67664073  0.82376082  0.82371990  1.0
  C  C99  1  0.49974703  0.10444096  0.89556018  1.0
  C  C100  1  0.39524933  0.10450902  0.10443741  1.0
  C  C101  1  0.50025871  0.89554866  0.10442316  1.0
  C  C102  1  0.60474150  0.89548819  0.89557825  1.0
  C  C103  1  0.06566885  0.43415126  0.43418658  1.0
  C  C104  1  0.55092177  0.25251106  0.71706394  1.0
  C  C105  1  0.19602638  0.28285348  0.25272874  1.0
  C  C106  1  0.44908631  0.74754765  0.28299716  1.0
  C  C107  1  0.80393985  0.71710251  0.74730746  1.0
  C  C108  1  0.55124793  0.71711032  0.25260504  1.0
  C  C109  1  0.50003297  0.56584722  0.43415176  1.0
  C  C110  1  0.26798721  0.25260716  0.28290468  1.0
  C  C111  1  0.44879471  0.28281787  0.74730716  1.0
  C  C112  1  0.73203281  0.74743812  0.71706362  1.0
  C  C113  1  0.93432476  0.56585426  0.56581520  1.0
  C  C114  1  0.49988138  0.28666796  0.71317712  1.0
  C  C115  1  0.21303601  0.28671632  0.28683020  1.0
  C  C116  1  0.50014226  0.71333688  0.28681853  1.0
  C  C117  1  0.78695311  0.71328485  0.71316903  1.0
  C  C118  1  0.49973568  0.21387746  0.78606300  1.0
  C  C119  1  0.28570884  0.21388525  0.21400904  1.0
  C  C120  1  0.50027194  0.78613133  0.21393841  1.0
  C  C121  1  0.71428089  0.78610871  0.78600844  1.0
  C  C122  1  0.48071871  0.37251693  0.68716155  1.0
  C  C123  1  0.14649534  0.31273081  0.37265044  1.0
  C  C124  1  0.51921102  0.62750763  0.31284168  1.0
  C  C125  1  0.85353814  0.68726936  0.62735732  1.0
  C  C126  1  0.48095143  0.68726789  0.37262674  1.0
  C  C127  1  0.16780894  0.37255920  0.31286797  1.0
  C  C128  1  0.51917208  0.31272157  0.62735109  1.0
  C  C129  1  0.83213794  0.62745598  0.68712667  1.0
  C  C130  1  0.48044292  0.40811484  0.65176058  1.0
  C  C131  1  0.11119035  0.34816875  0.40821415  1.0
  C  C132  1  0.51947826  0.59190644  0.34823874  1.0
  C  C133  1  0.88883828  0.65183249  0.59179260  1.0
  C  C134  1  0.48062501  0.65181576  0.40818254  1.0
  C  C135  1  0.13205766  0.40815664  0.34826139  1.0
  C  C136  1  0.51947380  0.34816679  0.59179692  1.0
  C  C137  1  0.86790113  0.59185892  0.65172993  1.0
  C  C138  1  0.49997633  0.39611597  0.60382116  1.0
  C  C139  1  0.10361797  0.39613087  0.39618281  1.0
  C  C140  1  0.50003491  0.60388848  0.39616234  1.0
  C  C141  1  0.89637825  0.60387248  0.60381447  1.0
  I  I142  1  0.63068651  0.25429423  0.66894878  1.0
  I  I143  1  0.11441694  0.33088957  0.25467555  1.0
  I  I144  1  0.36931351  0.74583030  0.33120010  1.0
  I  I145  1  0.88549874  0.66900568  0.74542031  1.0
  I  I146  1  0.63097420  0.66889096  0.25435330  1.0
  I  I147  1  0.29972895  0.25442828  0.33095417  1.0
  I  I148  1  0.36910895  0.33090493  0.74540814  1.0
  I  I149  1  0.70029680  0.74567479  0.66899018  1.0
  O  O150  1  0.52758185  0.42017402  0.52177967  1.0
  O  O151  1  0.05209531  0.47821841  0.42019992  1.0
  O  O152  1  0.47245405  0.57982649  0.47820521  1.0
  O  O153  1  0.94788742  0.52178853  0.57980146  1.0
  O  O154  1  0.52760720  0.52178924  0.42014503  1.0
  O  O155  1  0.04927058  0.42015327  0.47823687  1.0
  O  O156  1  0.47235460  0.47820935  0.57984578  1.0
  O  O157  1  0.95072707  0.57985045  0.52176707  1.0
  O  O158  1  0.59871380  0.47111766  0.47108029  1.0
  O  O159  1  0.07154781  0.52954510  0.47046077  1.0
  O  O160  1  0.54184946  0.52954582  0.52958970  1.0
  O  O161  1  0.06979011  0.47112125  0.52896208  1.0
  O  O162  1  0.45813937  0.47043442  0.47043657  1.0
  O  O163  1  0.92845017  0.47044777  0.52953866  1.0
  O  O164  1  0.40127623  0.52890806  0.52890171  1.0
  O  O165  1  0.93020188  0.52887668  0.47104717  1.0
  O  O166  1  0.48773397  0.05235605  0.05109363  1.0
  O  O167  1  0.53862756  0.94937516  0.05179939  1.0
  O  O168  1  0.59047284  0.94936364  0.94816263  1.0
  O  O169  1  0.53887175  0.05228494  0.94891077  1.0
  O  O170  1  0.40951251  0.05064511  0.05183915  1.0
  O  O171  1  0.46136786  0.05062022  0.94818268  1.0
  O  O172  1  0.51225139  0.94764584  0.94892082  1.0
  O  O173  1  0.46110210  0.94772344  0.05109638  1.0
