# generated using pymatgen
data_AlH5C13NCl3O5
_symmetry_space_group_name_H-M   'P 1'
_cell_length_a   6.60495209
_cell_length_b   11.07673890
_cell_length_c   16.92328204
_cell_angle_alpha   83.84875269
_cell_angle_beta   82.80916271
_cell_angle_gamma   73.73716581
_symmetry_Int_Tables_number   1
_chemical_formula_structural   AlH5C13NCl3O5
_chemical_formula_sum   'Al2 H10 C26 N2 Cl6 O10'
_cell_volume   1175.85652036
_cell_formula_units_Z   2
loop_
 _symmetry_equiv_pos_site_id
 _symmetry_equiv_pos_as_xyz
  1  'x, y, z'
loop_
 _atom_site_type_symbol
 _atom_site_label
 _atom_site_symmetry_multiplicity
 _atom_site_fract_x
 _atom_site_fract_y
 _atom_site_fract_z
 _atom_site_occupancy
  Al  Al0  1  0.49178973  0.50568043  0.49735914  1.0
  Al  Al1  1  0.99212199  0.50359120  0.49925642  1.0
  H  H2  1  0.18228501  0.65849780  0.45149036  1.0
  H  H3  1  0.74167745  0.43265643  0.59443396  1.0
  H  H4  1  0.91385720  0.41192700  0.74242770  1.0
  H  H5  1  0.86703909  0.39672527  0.89179561  1.0
  H  H6  1  0.39599577  0.55242572  0.89203498  1.0
  H  H7  1  0.56942660  0.56416959  0.09726432  1.0
  H  H8  1  0.23186754  0.39484905  0.12276497  1.0
  H  H9  1  0.15554824  0.41271097  0.27054272  1.0
  H  H10  1  0.83134682  0.76893960  0.61335294  1.0
  H  H11  1  0.63140680  0.23789654  0.59066365  1.0
  C  C12  1  0.62192692  0.73187855  0.50389015  1.0
  C  C13  1  0.79676406  0.50551119  0.35604636  1.0
  C  C14  1  0.36075995  0.28155125  0.48987727  1.0
  C  C15  1  0.19567096  0.49414929  0.64370748  1.0
  C  C16  1  0.17980522  0.48955843  0.73265310  1.0
  C  C17  1  0.01905699  0.44191666  0.77601918  1.0
  C  C18  1  0.99183651  0.43370921  0.85868136  1.0
  C  C19  1  0.12800063  0.47513941  0.90030637  1.0
  C  C20  1  0.29251203  0.52024605  0.85873422  1.0
  C  C21  1  0.31742798  0.52844448  0.77548740  1.0
  C  C22  1  0.69745928  0.53076547  0.13574358  1.0
  C  C23  1  0.90425762  0.48034832  0.10146241  1.0
  C  C24  1  0.07195850  0.43579132  0.14985446  1.0
  C  C25  1  0.02893027  0.44555091  0.23147546  1.0
  C  C26  1  0.82299899  0.49912641  0.26756563  1.0
  C  C27  1  0.65621208  0.54227934  0.21787464  1.0
  C  C28  1  0.55511713  0.87331652  0.50115202  1.0
  C  C29  1  0.64136699  0.93752095  0.55158301  1.0
  C  C30  1  0.41254343  0.94136272  0.44819952  1.0
  C  C31  1  0.78452474  0.87153790  0.60748465  1.0
  C  C32  1  0.87012384  0.93519557  0.65440103  1.0
  C  C33  1  0.43016909  0.14016502  0.49239821  1.0
  C  C34  1  0.34754027  0.07564912  0.44444619  1.0
  C  C35  1  0.58093933  0.07268125  0.54608998  1.0
  C  C36  1  0.67108476  0.13562901  0.59513977  1.0
  C  C37  1  0.81405416  0.06932250  0.64742570  1.0
  N  N38  1  0.10994218  0.47661443  0.98444272  1.0
  N  N39  1  0.92576974  0.47970979  0.01737749  1.0
  Cl  Cl40  1  0.51417277  0.59423095  0.72884855  1.0
  Cl  Cl41  1  0.39647111  0.61318661  0.25166590  1.0
  Cl  Cl42  1  0.17287187  0.15646871  0.37729961  1.0
  Cl  Cl43  1  0.32103950  0.86587389  0.38203596  1.0
  Cl  Cl44  1  0.04580220  0.85127916  0.72049814  1.0
  Cl  Cl45  1  0.92480577  0.15059965  0.70365346  1.0
  O  O46  1  0.47548595  0.67667729  0.51860961  1.0
  O  O47  1  0.96509302  0.48472985  0.39069125  1.0
  O  O48  1  0.16555187  0.33297114  0.50781198  1.0
  O  O49  1  0.38028644  0.47077983  0.60633341  1.0
  O  O50  1  0.50505244  0.33825285  0.47323426  1.0
  O  O51  1  0.02244989  0.51746746  0.61166499  1.0
  O  O52  1  0.81953411  0.67914645  0.49085679  1.0
  O  O53  1  0.61046963  0.53112652  0.39162343  1.0
  O  O54  1  0.22093410  0.56846793  0.46646239  1.0
  O  O55  1  0.75613303  0.44697607  0.53659911  1.0
