# generated using pymatgen
data_NaCuH7C7SO8
_symmetry_space_group_name_H-M   'P 1'
_cell_length_a   11.07171469
_cell_length_b   11.58283684
_cell_length_c   11.58248472
_cell_angle_alpha   108.12414082
_cell_angle_beta   100.11943413
_cell_angle_gamma   100.11957036
_symmetry_Int_Tables_number   1
_chemical_formula_structural   NaCuH7C7SO8
_chemical_formula_sum   'Na4 Cu4 H28 C28 S4 O32'
_cell_volume   1346.92072946
_cell_formula_units_Z   4
loop_
 _symmetry_equiv_pos_site_id
 _symmetry_equiv_pos_as_xyz
  1  'x, y, z'
loop_
 _atom_site_type_symbol
 _atom_site_label
 _atom_site_symmetry_multiplicity
 _atom_site_fract_x
 _atom_site_fract_y
 _atom_site_fract_z
 _atom_site_occupancy
  Na  Na0  1  0.74999855  0.86185940  0.13814055  1.0
  Na  Na1  1  0.25000248  0.13813927  0.86185844  1.0
  Na  Na2  1  0.74999947  0.04765971  0.95234119  1.0
  Na  Na3  1  0.25000018  0.95234080  0.04766247  1.0
  Cu  Cu4  1  0.02461141  0.79545325  0.16768956  1.0
  Cu  Cu5  1  0.47538842  0.83231172  0.20454979  1.0
  Cu  Cu6  1  0.97538893  0.20454635  0.83231134  1.0
  Cu  Cu7  1  0.52461238  0.16768602  0.79544887  1.0
  H  H8  1  0.83608806  0.64622246  0.98183257  1.0
  H  H9  1  0.66390857  0.01816372  0.35377541  1.0
  H  H10  1  0.16391298  0.35377996  0.01816762  1.0
  H  H11  1  0.33608903  0.98183219  0.64621609  1.0
  H  H12  1  0.89924797  0.76621729  0.95014784  1.0
  H  H13  1  0.60075279  0.04985066  0.23378365  1.0
  H  H14  1  0.10075306  0.23378512  0.04985407  1.0
  H  H15  1  0.39924915  0.95014800  0.76621636  1.0
  H  H16  1  0.08866524  0.68502440  0.96912681  1.0
  H  H17  1  0.41133148  0.03087055  0.31497552  1.0
  H  H18  1  0.91133420  0.31497896  0.03087341  1.0
  H  H19  1  0.58866449  0.96912250  0.68502083  1.0
  H  H20  1  0.20807074  0.71423684  0.08750800  1.0
  H  H21  1  0.29192756  0.91248956  0.28576035  1.0
  H  H22  1  0.79192779  0.28576654  0.91249035  1.0
  H  H23  1  0.70807484  0.08750726  0.71423657  1.0
  H  H24  1  0.83608452  0.11172073  0.34358196  1.0
  H  H25  1  0.66391632  0.65642058  0.88828038  1.0
  H  H26  1  0.16391927  0.88828167  0.65642128  1.0
  H  H27  1  0.33608519  0.34358001  0.11171499  1.0
  H  H28  1  0.26416878  0.19849612  0.61573704  1.0
  H  H29  1  0.23582967  0.38426480  0.80150395  1.0
  H  H30  1  0.73582812  0.80150813  0.38426736  1.0
  H  H31  1  0.76417181  0.61573200  0.19849367  1.0
  H  H32  1  0.23787787  0.16601469  0.38887661  1.0
  H  H33  1  0.26212130  0.61112423  0.83399351  1.0
  H  H34  1  0.76212364  0.83399705  0.61113183  1.0
  H  H35  1  0.73787789  0.38887071  0.16600226  1.0
  C  C36  1  0.03371515  0.13546092  0.35229724  1.0
  C  C37  1  0.46628586  0.64771436  0.86454175  1.0
  C  C38  1  0.96628568  0.86455176  0.64771138  1.0
  C  C39  1  0.53371405  0.35228345  0.13544987  1.0
  C  C40  1  0.92982649  0.13050031  0.40349267  1.0
  C  C41  1  0.57017507  0.59650274  0.86950681  1.0
  C  C42  1  0.07017570  0.86950676  0.59651266  1.0
  C  C43  1  0.42982503  0.40349217  0.13049255  1.0
  C  C44  1  0.94187829  0.14656722  0.53065636  1.0
  C  C45  1  0.55811787  0.46934268  0.85342531  1.0
  C  C46  1  0.05812044  0.85343700  0.46935179  1.0
  C  C47  1  0.44188065  0.53065323  0.14656720  1.0
  C  C48  1  0.06528453  0.17115618  0.60876787  1.0
  C  C49  1  0.43471884  0.39122650  0.82884608  1.0
  C  C50  1  0.93471536  0.82884902  0.39123647  1.0
  C  C51  1  0.56528329  0.60876184  0.17115240  1.0
  C  C52  1  0.17081219  0.17995026  0.55461658  1.0
  C  C53  1  0.32918715  0.44538819  0.82005259  1.0
  C  C54  1  0.82918773  0.82005870  0.44538724  1.0
  C  C55  1  0.67081251  0.55461236  0.17994677  1.0
  C  C56  1  0.15583574  0.16150938  0.42900425  1.0
  C  C57  1  0.34416262  0.57100592  0.83849316  1.0
  C  C58  1  0.84416233  0.83849956  0.57100097  1.0
  C  C59  1  0.65583729  0.42899188  0.16149847  1.0
  C  C60  1  0.82405985  0.12651606  0.57292646  1.0
  C  C61  1  0.67594020  0.42707686  0.87347756  1.0
  C  C62  1  0.17593727  0.87348166  0.42707329  1.0
  C  C63  1  0.32406566  0.57291905  0.12651619  1.0
  S  S64  1  0.01234550  0.09945214  0.18925364  1.0
  S  S65  1  0.48764952  0.81074868  0.90054678  1.0
  S  S66  1  0.98765461  0.90055024  0.81075070  1.0
  S  S67  1  0.51234693  0.18925373  0.09945350  1.0
  O  O68  1  0.87521954  0.04768515  0.13476767  1.0
  O  O69  1  0.62477885  0.86523758  0.95231505  1.0
  O  O70  1  0.12478078  0.95231440  0.86523839  1.0
  O  O71  1  0.37522012  0.13476019  0.04767986  1.0
  O  O72  1  0.08613684  0.00626830  0.14881764  1.0
  O  O73  1  0.41386241  0.85118758  0.99373377  1.0
  O  O74  1  0.91386235  0.99373407  0.85118741  1.0
  O  O75  1  0.58613634  0.14881298  0.00626458  1.0
  O  O76  1  0.06050577  0.21736559  0.16982387  1.0
  O  O77  1  0.43949212  0.83017609  0.78263655  1.0
  O  O78  1  0.93949732  0.78263401  0.83017750  1.0
  O  O79  1  0.56050501  0.16982537  0.21736441  1.0
  O  O80  1  0.71615497  0.08274366  0.49830338  1.0
  O  O81  1  0.78384577  0.50169867  0.91725354  1.0
  O  O82  1  0.28384353  0.91725590  0.50170065  1.0
  O  O83  1  0.21616077  0.49830003  0.08274467  1.0
  O  O84  1  0.83022045  0.15294925  0.69287681  1.0
  O  O85  1  0.66977604  0.30711945  0.84704410  1.0
  O  O86  1  0.16977690  0.84704567  0.30712037  1.0
  O  O87  1  0.33022320  0.69288304  0.15294890  1.0
  O  O88  1  0.09076200  0.18386752  0.72861790  1.0
  O  O89  1  0.40923467  0.27137732  0.81611853  1.0
  O  O90  1  0.90923995  0.81613115  0.27138212  1.0
  O  O91  1  0.59075809  0.72861760  0.18387787  1.0
  O  O92  1  0.87533099  0.74063318  0.02078137  1.0
  O  O93  1  0.62466515  0.97921674  0.25936923  1.0
  O  O94  1  0.12467073  0.25936829  0.97921951  1.0
  O  O95  1  0.37533082  0.02078002  0.74063176  1.0
  O  O96  1  0.13658289  0.74797378  0.04958876  1.0
  O  O97  1  0.36341658  0.95040706  0.25202522  1.0
  O  O98  1  0.86341401  0.25202672  0.95041444  1.0
  O  O99  1  0.63658717  0.04958410  0.74797357  1.0
