# generated using pymatgen
data_Zn4H10C28S2O13F4
_symmetry_space_group_name_H-M   'P 1'
_cell_length_a   18.53768081
_cell_length_b   19.73475382
_cell_length_c   32.81285880
_cell_angle_alpha   85.94448966
_cell_angle_beta   73.58849268
_cell_angle_gamma   61.97760056
_symmetry_Int_Tables_number   1
_chemical_formula_structural   Zn4H10C28S2O13F4
_chemical_formula_sum   'Zn16 H40 C112 S8 O52 F16'
_cell_volume   10137.78473518
_cell_formula_units_Z   4
loop_
 _symmetry_equiv_pos_site_id
 _symmetry_equiv_pos_as_xyz
  1  'x, y, z'
loop_
 _atom_site_type_symbol
 _atom_site_label
 _atom_site_symmetry_multiplicity
 _atom_site_fract_x
 _atom_site_fract_y
 _atom_site_fract_z
 _atom_site_occupancy
  Zn  Zn0  1  0.87376693  0.55643873  0.51882890  1.0
  Zn  Zn1  1  0.03842152  0.48490557  0.43813169  1.0
  Zn  Zn2  1  0.04106846  0.39882225  0.52393458  1.0
  Zn  Zn3  1  0.04754946  0.55934570  0.51816388  1.0
  Zn  Zn4  1  0.62552338  0.19226498  0.73186297  1.0
  Zn  Zn5  1  0.46301797  0.35063722  0.72548642  1.0
  Zn  Zn6  1  0.45894778  0.26478278  0.81247771  1.0
  Zn  Zn7  1  0.45306926  0.19268935  0.72974999  1.0
  Zn  Zn8  1  0.46236662  0.76295419  0.31253601  1.0
  Zn  Zn9  1  0.45264225  0.69195025  0.23114969  1.0
  Zn  Zn10  1  0.62578237  0.69292012  0.22985979  1.0
  Zn  Zn11  1  0.45898648  0.85103959  0.22612297  1.0
  Zn  Zn12  1  0.03697366  0.89951205  0.02449100  1.0
  Zn  Zn13  1  0.04953563  0.05660809  0.01884985  1.0
  Zn  Zn14  1  0.87503610  0.05838247  0.01951979  1.0
  Zn  Zn15  1  0.03763558  0.98526251  0.93746363  1.0
  H  H16  1  0.81368428  0.24352084  0.65204746  1.0
  H  H17  1  0.54174325  0.48462964  0.62113749  1.0
  H  H18  1  0.54696024  0.52474016  0.66657385  1.0
  H  H19  1  0.64453468  0.57156420  0.61849129  1.0
  H  H20  1  0.63921884  0.53146423  0.57310283  1.0
  H  H21  1  0.29091700  0.60033757  0.29582609  1.0
  H  H22  1  0.35266922  0.67415650  0.43194452  1.0
  H  H23  1  0.26187118  0.76242866  0.42929637  1.0
  H  H24  1  0.16545241  0.71378868  0.47668302  1.0
  H  H25  1  0.25612575  0.62556386  0.47936759  1.0
  H  H26  1  0.81329835  0.60015838  0.29579411  1.0
  H  H27  1  0.54638745  0.76254574  0.42917584  1.0
  H  H28  1  0.54114808  0.67433457  0.43180367  1.0
  H  H29  1  0.63882890  0.62553934  0.47915127  1.0
  H  H30  1  0.64406452  0.71371110  0.47660193  1.0
  H  H31  1  0.30429939  0.45900792  0.64538877  1.0
  H  H32  1  0.33315209  0.17792159  0.63081454  1.0
  H  H33  1  0.24241862  0.21786191  0.67627309  1.0
  H  H34  1  0.14617585  0.26739112  0.62811055  1.0
  H  H35  1  0.23697065  0.22740736  0.58273310  1.0
  H  H36  1  0.68656645  0.14993869  0.95434756  1.0
  H  H37  1  0.95826215  0.07600436  0.81821741  1.0
  H  H38  1  0.95305132  0.98776792  0.82086545  1.0
  H  H39  1  0.85544668  0.03646919  0.77347151  1.0
  H  H40  1  0.86071741  0.12462109  0.77084460  1.0
  H  H41  1  0.19558581  0.05243630  0.84326870  1.0
  H  H42  1  0.16680495  0.21475458  0.97656130  1.0
  H  H43  1  0.25768096  0.12658884  0.97919941  1.0
  H  H44  1  0.35372503  0.17414686  0.93038173  1.0
  H  H45  1  0.26290601  0.26225054  0.92776711  1.0
  H  H46  1  0.19560033  0.79132695  0.10451387  1.0
  H  H47  1  0.25775217  0.03232632  0.07365773  1.0
  H  H48  1  0.16679146  0.07246377  0.11904155  1.0
  H  H49  1  0.26277931  0.02296409  0.16724741  1.0
  H  H50  1  0.35368163  0.98287231  0.12192444  1.0
  H  H51  1  0.68628751  0.00645666  0.09789350  1.0
  H  H52  1  0.95307276  0.72521735  0.08341571  1.0
  H  H53  1  0.95829445  0.76534913  0.12884339  1.0
  H  H54  1  0.86085505  0.71859853  0.17687320  1.0
  H  H55  1  0.85555926  0.67839505  0.13150433  1.0
  C  C56  1  0.86218623  0.56842311  0.43090939  1.0
  C  C57  1  0.12308989  0.31609338  0.43855171  1.0
  C  C58  1  0.86315633  0.43028057  0.56874273  1.0
  C  C59  1  0.13826729  0.43188111  0.56863948  1.0
  C  C60  1  0.87627220  0.68365705  0.56091550  1.0
  C  C61  1  0.13781910  0.56903787  0.43081152  1.0
  C  C62  1  0.63957048  0.31771930  0.68108960  1.0
  C  C63  1  0.37736854  0.43426332  0.81065657  1.0
  C  C64  1  0.63672805  0.18152811  0.81944655  1.0
  C  C65  1  0.36165027  0.18111754  0.81840230  1.0
  C  C66  1  0.62353762  0.06638741  0.68869384  1.0
  C  C67  1  0.36273951  0.32026142  0.68063837  1.0
  C  C68  1  0.36247794  0.68015120  0.31861498  1.0
  C  C69  1  0.62227675  0.56611083  0.18864693  1.0
  C  C70  1  0.63912667  0.68028130  0.31824337  1.0
  C  C71  1  0.63685678  0.81948188  0.18094459  1.0
  C  C72  1  0.37733910  0.93260377  0.31182964  1.0
  C  C73  1  0.36164637  0.81852011  0.18115321  1.0
  C  C74  1  0.13787109  0.92991672  0.06891668  1.0
  C  C75  1  0.87917399  0.18360154  0.06114351  1.0
  C  C76  1  0.86043553  0.93241545  0.06905504  1.0
  C  C77  1  0.86075388  0.06961697  0.93167069  1.0
  C  C78  1  0.12176405  0.81594686  0.93927679  1.0
  C  C79  1  0.13789991  0.06811053  0.93034678  1.0
  C  C80  1  0.73888773  0.80294113  0.60100287  1.0
  C  C81  1  0.76091798  0.94691323  0.64902244  1.0
  C  C82  1  0.82655127  0.75817267  0.58604826  1.0
  C  C83  1  0.67319653  0.99170556  0.66389564  1.0
  C  C84  1  0.78564968  0.87802533  0.62602037  1.0
  C  C85  1  0.71424126  0.87185874  0.62395074  1.0
  C  C86  1  0.20200806  0.22605730  0.36974504  1.0
  C  C87  1  0.29834317  0.02298394  0.38046624  1.0
  C  C88  1  0.17235859  0.24151935  0.41363835  1.0
  C  C89  1  0.32806677  0.00728726  0.33661429  1.0
  C  C90  1  0.25236799  0.10243764  0.39289931  1.0
  C  C91  1  0.24807050  0.14654935  0.35727116  1.0
  C  C92  1  0.69599203  0.34626361  0.65255821  1.0
  C  C93  1  0.80761374  0.40072566  0.59726204  1.0
  C  C94  1  0.66465103  0.41859496  0.63642993  1.0
  C  C95  1  0.83795163  0.32746191  0.61409243  1.0
  C  C96  1  0.71877623  0.44434020  0.60982972  1.0
  C  C97  1  0.78508733  0.30068319  0.64057738  1.0
  C  C98  1  0.58459346  0.49181072  0.63564488  1.0
  C  C99  1  0.64571236  0.52113820  0.60552440  1.0
  C  C100  1  0.30541718  0.65223964  0.34706473  1.0
  C  C101  1  0.19452849  0.59672926  0.40179651  1.0
  C  C102  1  0.28043636  0.66426877  0.39128150  1.0
  C  C103  1  0.22076054  0.58515206  0.35673583  1.0
  C  C104  1  0.22705370  0.63737134  0.41739621  1.0
  C  C105  1  0.27387487  0.61160238  0.33015307  1.0
  C  C106  1  0.28809998  0.69957267  0.42829916  1.0
  C  C107  1  0.22768346  0.66907823  0.45798689  1.0
  C  C108  1  0.69545767  0.65225534  0.34685470  1.0
  C  C109  1  0.80691274  0.59656683  0.40180708  1.0
  C  C110  1  0.66403332  0.66431393  0.39109792  1.0
  C  C111  1  0.83744748  0.58507729  0.35674808  1.0
  C  C112  1  0.71813566  0.63733215  0.41726477  1.0
  C  C113  1  0.78457357  0.61156343  0.33010125  1.0
  C  C114  1  0.58400581  0.69968399  0.42814518  1.0
  C  C115  1  0.64519117  0.66912618  0.45783465  1.0
  C  C116  1  0.30536542  0.34849666  0.65257190  1.0
  C  C117  1  0.19460914  0.40489559  0.59725748  1.0
  C  C118  1  0.27289166  0.30483179  0.64023020  1.0
  C  C119  1  0.22819318  0.44828524  0.61035938  1.0
  C  C120  1  0.21966902  0.33238487  0.61358709  1.0
  C  C121  1  0.28130258  0.42190443  0.63686351  1.0
  C  C122  1  0.27126877  0.22861002  0.64401193  1.0
  C  C123  1  0.21100606  0.25964020  0.61386133  1.0
  C  C124  1  0.29815344  0.58249352  0.82152083  1.0
  C  C125  1  0.20184362  0.66776054  0.92847058  1.0
  C  C126  1  0.32781525  0.50886340  0.83560381  1.0
  C  C127  1  0.17197921  0.74138775  0.91437493  1.0
  C  C128  1  0.24790403  0.60937890  0.89493589  1.0
  C  C129  1  0.25213149  0.64083898  0.85507900  1.0
  C  C130  1  0.80424970  0.09786890  0.90316217  1.0
  C  C131  1  0.69238456  0.15366459  0.84839394  1.0
  C  C132  1  0.83543415  0.08594731  0.85892442  1.0
  C  C133  1  0.66218709  0.16503320  0.89343551  1.0
  C  C134  1  0.78122992  0.11297581  0.83278337  1.0
  C  C135  1  0.71513981  0.13861186  0.92002764  1.0
  C  C136  1  0.91543229  0.05063484  0.82188787  1.0
  C  C137  1  0.85424582  0.08113742  0.79220220  1.0
  C  C138  1  0.19462483  0.09676533  0.90213372  1.0
  C  C139  1  0.30514666  0.15185131  0.84623059  1.0
  C  C140  1  0.22699436  0.13726767  0.91775456  1.0
  C  C141  1  0.27156555  0.11045443  0.83111793  1.0
  C  C142  1  0.28010756  0.16358662  0.89066265  1.0
  C  C143  1  0.21854584  0.08379301  0.85757258  1.0
  C  C144  1  0.22865641  0.16967432  0.95775800  1.0
  C  C145  1  0.28885841  0.19944442  0.92717537  1.0
  C  C146  1  0.64361598  0.44688203  0.14899307  1.0
  C  C147  1  0.85753609  0.30278930  0.10089584  1.0
  C  C148  1  0.67199287  0.49143641  0.16382782  1.0
  C  C149  1  0.82939922  0.25813454  0.08599701  1.0
  C  C150  1  0.79044570  0.37163320  0.12387771  1.0
  C  C151  1  0.71072099  0.37793104  0.12599372  1.0
  C  C152  1  0.19472593  0.90180500  0.09722635  1.0
  C  C153  1  0.30513680  0.84553606  0.15266760  1.0
  C  C154  1  0.22703760  0.94552088  0.10966299  1.0
  C  C155  1  0.27161562  0.80206008  0.13956583  1.0
  C  C156  1  0.28008417  0.91802848  0.13636872  1.0
  C  C157  1  0.21860553  0.82846194  0.11299863  1.0
  C  C158  1  0.22866420  0.02173070  0.10591117  1.0
  C  C159  1  0.28880743  0.99071224  0.13612255  1.0
  C  C160  1  0.80403153  0.90368509  0.09738327  1.0
  C  C161  1  0.69239036  0.84922807  0.15263691  1.0
  C  C162  1  0.83538795  0.83135433  0.11351607  1.0
  C  C163  1  0.66205213  0.92255189  0.13586765  1.0
  C  C164  1  0.78123770  0.80559348  0.14009443  1.0
  C  C165  1  0.71492246  0.94929309  0.10935320  1.0
  C  C166  1  0.91544481  0.75817669  0.11433706  1.0
  C  C167  1  0.85433387  0.72885554  0.14445934  1.0
  S  S168  1  0.88071767  0.80069560  0.60024235  1.0
  S  S169  1  0.61911880  0.94914734  0.64965268  1.0
  S  S170  1  0.20094474  0.15757033  0.44053801  1.0
  S  S171  1  0.29955260  0.09124930  0.30965961  1.0
  S  S172  1  0.29930513  0.51032623  0.89104458  1.0
  S  S173  1  0.20061793  0.73987655  0.85892916  1.0
  S  S174  1  0.78282644  0.44877686  0.14956363  1.0
  S  S175  1  0.71848860  0.30076816  0.10025268  1.0
  O  O176  1  0.99898468  0.50042491  0.50063034  1.0
  O  O177  1  0.82352844  0.58439356  0.47079276  1.0
  O  O178  1  0.10303589  0.37595216  0.41766911  1.0
  O  O179  1  0.94328143  0.38686453  0.55873676  1.0
  O  O180  1  0.94220511  0.53114155  0.41415522  1.0
  O  O181  1  0.82420193  0.49792128  0.55671417  1.0
  O  O182  1  0.10520238  0.31335953  0.47911459  1.0
  O  O183  1  0.11573464  0.38394614  0.55955916  1.0
  O  O184  1  0.95728450  0.65621038  0.55111378  1.0
  O  O185  1  0.11734283  0.49900616  0.55564363  1.0
  O  O186  1  0.83474142  0.65394187  0.55135711  1.0
  O  O187  1  0.11268198  0.53086040  0.41414369  1.0
  O  O188  1  0.11917038  0.58636782  0.47064248  1.0
  O  O189  1  0.50042023  0.25015080  0.74992956  1.0
  O  O190  1  0.67522315  0.25059557  0.69402285  1.0
  O  O191  1  0.39802389  0.43562046  0.77025077  1.0
  O  O192  1  0.55654215  0.21852536  0.83603462  1.0
  O  O193  1  0.55965655  0.36372478  0.69014961  1.0
  O  O194  1  0.67570271  0.16530928  0.77962861  1.0
  O  O195  1  0.39487830  0.37487498  0.83232969  1.0
  O  O196  1  0.38441782  0.21860603  0.83775139  1.0
  O  O197  1  0.54243028  0.09517683  0.69747130  1.0
  O  O198  1  0.38258447  0.16700153  0.77833598  1.0
  O  O199  1  0.66503828  0.09533627  0.69907389  1.0
  O  O200  1  0.38799240  0.36557923  0.69008816  1.0
  O  O201  1  0.38177633  0.25251422  0.69279105  1.0
  O  O202  1  0.50082506  0.74983371  0.25001380  1.0
  O  O203  1  0.38754716  0.71675234  0.33693534  1.0
  O  O204  1  0.54153624  0.59496540  0.19870249  1.0
  O  O205  1  0.67491072  0.66595406  0.27821767  1.0
  O  O206  1  0.38150469  0.66525313  0.27864999  1.0
  O  O207  1  0.55918730  0.71649478  0.33668981  1.0
  O  O208  1  0.66560329  0.59484687  0.19770437  1.0
  O  O209  1  0.67580498  0.75143495  0.19251942  1.0
  O  O210  1  0.39512458  0.93547873  0.27129610  1.0
  O  O211  1  0.55672112  0.86297202  0.19122148  1.0
  O  O212  1  0.39744293  0.87257451  0.33267361  1.0
  O  O213  1  0.38266664  0.75129424  0.19396629  1.0
  O  O214  1  0.38435228  0.86625466  0.19034994  1.0
  O  O215  1  0.99990609  0.00001506  0.99991886  1.0
  O  O216  1  0.11171253  0.88505570  0.05987546  1.0
  O  O217  1  0.96008686  0.15397701  0.05124298  1.0
  O  O218  1  0.82475581  0.99998121  0.05660668  1.0
  O  O219  1  0.12018403  0.99711354  0.05611254  1.0
  O  O220  1  0.94033125  0.88630471  0.05969836  1.0
  O  O221  1  0.83552034  0.15550385  0.05181485  1.0
  O  O222  1  0.82505069  0.08502527  0.97164380  1.0
  O  O223  1  0.10272761  0.87534833  0.91753870  1.0
  O  O224  1  0.94065581  0.03211768  0.91330776  1.0
  O  O225  1  0.10191453  0.81471510  0.97968580  1.0
  O  O226  1  0.12009704  0.08272022  0.97031934  1.0
  O  O227  1  0.11210575  0.03173202  0.91245353  1.0
  F  F228  1  0.68160320  0.78430216  0.59476614  1.0
  F  F229  1  0.81803004  0.96567731  0.65532084  1.0
  F  F230  1  0.18943057  0.27972882  0.34130607  1.0
  F  F231  1  0.31087888  0.96930766  0.40902289  1.0
  F  F232  1  0.31072767  0.59850380  0.78043447  1.0
  F  F233  1  0.18912909  0.65182219  0.96955545  1.0
  F  F234  1  0.56150777  0.46574278  0.15530360  1.0
  F  F235  1  0.93976059  0.28393955  0.09460378  1.0
  F  F236  1  0.92293214  0.27874730  0.60471270  1.0
  F  F237  1  0.19404806  0.54661630  0.33715063  1.0
  F  F238  1  0.92230540  0.54646531  0.33717739  1.0
  F  F239  1  0.20935784  0.51984286  0.59692180  1.0
  F  F240  1  0.57721315  0.20351776  0.91309424  1.0
  F  F241  1  0.29042033  0.09474885  0.78863264  1.0
  F  F242  1  0.29044030  0.73058576  0.15296705  1.0
  F  F243  1  0.57707564  0.97126625  0.14533513  1.0
