# generated using pymatgen
data_Al2H15C26S2ClO10
_symmetry_space_group_name_H-M   'P 1'
_cell_length_a   7.30126673
_cell_length_b   12.60781278
_cell_length_c   15.12703646
_cell_angle_alpha   89.77931437
_cell_angle_beta   76.06252536
_cell_angle_gamma   75.06043325
_symmetry_Int_Tables_number   1
_chemical_formula_structural   Al2H15C26S2ClO10
_chemical_formula_sum   'Al2 H15 C26 S2 Cl1 O10'
_cell_volume   1303.28926901
_cell_formula_units_Z   1
loop_
 _symmetry_equiv_pos_site_id
 _symmetry_equiv_pos_as_xyz
  1  'x, y, z'
loop_
 _atom_site_type_symbol
 _atom_site_label
 _atom_site_symmetry_multiplicity
 _atom_site_fract_x
 _atom_site_fract_y
 _atom_site_fract_z
 _atom_site_occupancy
  Al  Al0  1  0.99660481  0.50519922  0.49866434  1.0
  Al  Al1  1  0.49841650  0.50130561  0.49960039  1.0
  H  H2  1  0.15780051  0.59221233  0.60041137  1.0
  H  H3  1  0.84036499  0.37357687  0.43802995  1.0
  H  H4  1  0.35852704  0.44751874  0.76784291  1.0
  H  H5  1  0.87614606  0.54879656  0.77284882  1.0
  H  H6  1  0.69048283  0.45446435  0.22841165  1.0
  H  H7  1  0.07898981  0.55384708  0.23052915  1.0
  H  H8  1  0.26497083  0.37299653  0.99911479  1.0
  H  H9  1  0.12802566  0.43550438  0.92304111  1.0
  H  H10  1  0.73667319  0.62457668  0.00928121  1.0
  H  H11  1  0.95374070  0.55885898  0.92890513  1.0
  H  H12  1  0.85927399  0.37283243  0.99145747  1.0
  H  H13  1  0.93557018  0.43952398  0.07211394  1.0
  H  H14  1  0.15572628  0.62408736  0.99874672  1.0
  H  H15  1  0.99595249  0.56287290  0.07442227  1.0
  H  H16  1  0.86497399  0.86460165  0.49074519  1.0
  C  C17  1  0.66453429  0.69417848  0.49008045  1.0
  C  C18  1  0.66880226  0.50222716  0.65964187  1.0
  C  C19  1  0.32573804  0.31061323  0.50635007  1.0
  C  C20  1  0.32740588  0.50473947  0.34004048  1.0
  C  C21  1  0.22658569  0.44855867  0.96295562  1.0
  C  C22  1  0.81515285  0.54719219  0.96774806  1.0
  C  C23  1  0.82603903  0.45037075  0.03293702  1.0
  C  C24  1  0.14648007  0.54877416  0.03500814  1.0
  C  C25  1  0.45215951  0.46900877  0.80723433  1.0
  C  C26  1  0.40648899  0.46825259  0.90195359  1.0
  C  C27  1  0.74533213  0.52635284  0.81006938  1.0
  C  C28  1  0.69860975  0.52536163  0.90477471  1.0
  C  C29  1  0.57811218  0.47463110  0.19029706  1.0
  C  C30  1  0.62664465  0.47210829  0.09542027  1.0
  C  C31  1  0.23141276  0.53131614  0.19155147  1.0
  C  C32  1  0.28153944  0.52892306  0.09669010  1.0
  C  C33  1  0.62162636  0.49856038  0.76099357  1.0
  C  C34  1  0.52942586  0.49682288  0.94991008  1.0
  C  C35  1  0.38001074  0.50385982  0.23848117  1.0
  C  C36  1  0.47820695  0.49887962  0.04952024  1.0
  C  C37  1  0.27766906  0.11311769  0.50342894  1.0
  C  C38  1  0.70981393  0.88963493  0.49270007  1.0
  C  C39  1  0.38367334  0.18991314  0.50485835  1.0
  C  C40  1  0.60080659  0.81497481  0.49139493  1.0
  C  C41  1  0.59168876  0.99855063  0.49694696  1.0
  C  C42  1  0.39557401  0.00399393  0.49887728  1.0
  S  S43  1  0.62730293  0.12797976  0.50080253  1.0
  S  S44  1  0.35562572  0.87580392  0.49523815  1.0
  Cl  Cl45  1  0.03475378  0.14154120  0.50684300  1.0
  O  O46  1  0.84344620  0.65096493  0.48889978  1.0
  O  O47  1  0.53061731  0.50036902  0.62161426  1.0
  O  O48  1  0.46503434  0.35525176  0.50713915  1.0
  O  O49  1  0.14992223  0.50716753  0.37842794  1.0
  O  O50  1  0.14904961  0.35708810  0.50550393  1.0
  O  O51  1  0.46539003  0.50154234  0.37915617  1.0
  O  O52  1  0.52922360  0.64623964  0.49158783  1.0
  O  O53  1  0.84186591  0.50844465  0.62079225  1.0
  O  O54  1  0.20437580  0.55376053  0.54051933  1.0
  O  O55  1  0.79162925  0.45069284  0.45926200  1.0
