# generated using pymatgen
data_Mg2H12C21O8
_symmetry_space_group_name_H-M   'P 1'
_cell_length_a   6.83318812
_cell_length_b   34.98988433
_cell_length_c   34.99390174
_cell_angle_alpha   119.58571184
_cell_angle_beta   93.72409530
_cell_angle_gamma   93.72470526
_symmetry_Int_Tables_number   1
_chemical_formula_structural   Mg2H12C21O8
_chemical_formula_sum   'Mg6 H36 C63 O24'
_cell_volume   7215.00714121
_cell_formula_units_Z   3
loop_
 _symmetry_equiv_pos_site_id
 _symmetry_equiv_pos_as_xyz
  1  'x, y, z'
loop_
 _atom_site_type_symbol
 _atom_site_label
 _atom_site_symmetry_multiplicity
 _atom_site_fract_x
 _atom_site_fract_y
 _atom_site_fract_z
 _atom_site_occupancy
  Mg  Mg0  1  0.07129998  0.30702398  0.63398467  1.0
  Mg  Mg1  1  0.42278444  0.63419737  0.30659692  1.0
  Mg  Mg2  1  0.76446925  0.32699007  0.69299051  1.0
  Mg  Mg3  1  0.78842799  0.67235632  0.36579017  1.0
  Mg  Mg4  1  0.43727703  0.36599381  0.67297268  1.0
  Mg  Mg5  1  0.11599819  0.69340915  0.32762399  1.0
  H  H6  1  0.08429098  0.61586609  0.43437107  1.0
  H  H7  1  0.63343415  0.56342992  0.43951668  1.0
  H  H8  1  0.75600956  0.58783286  0.38927993  1.0
  H  H9  1  0.11140204  0.58060442  0.47558990  1.0
  H  H10  1  0.49616344  0.54071265  0.47993203  1.0
  H  H11  1  0.96092433  0.54231235  0.49336602  1.0
  H  H12  1  0.15309139  0.47776133  0.54264123  1.0
  H  H13  1  0.75429906  0.47625346  0.57829024  1.0
  H  H14  1  0.72680962  0.43402354  0.61583924  1.0
  H  H15  1  0.40470976  0.39198405  0.58995557  1.0
  H  H16  1  0.27877037  0.44166640  0.56544287  1.0
  H  H17  1  0.50470661  0.51765190  0.52745436  1.0
  H  H18  1  0.46854646  0.81862864  0.38425336  1.0
  H  H19  1  0.07041142  0.87598748  0.43651674  1.0
  H  H20  1  0.16799409  0.80128620  0.41212500  1.0
  H  H21  1  0.53144830  0.89509977  0.41952073  1.0
  H  H22  1  0.95642406  0.93926552  0.45908259  1.0
  H  H23  1  0.41970897  0.95107305  0.45762481  1.0
  H  H24  1  0.67598078  0.06489926  0.52218777  1.0
  H  H25  1  0.27858555  0.10204014  0.52380738  1.0
  H  H26  1  0.29335156  0.18183737  0.56605114  1.0
  H  H27  1  0.01301766  0.19799413  0.60815123  1.0
  H  H28  1  0.83764616  0.12381000  0.55847950  1.0
  H  H29  1  0.98799915  0.00988237  0.48227663  1.0
  H  H30  1  0.65030038  0.56553591  0.18136406  1.0
  H  H31  1  0.19496562  0.56049467  0.12404519  1.0
  H  H32  1  0.36700209  0.61079415  0.19874079  1.0
  H  H33  1  0.63710452  0.52431979  0.10489999  1.0
  H  H34  1  0.01786536  0.51994846  0.06076109  1.0
  H  H35  1  0.46938011  0.50655394  0.04891428  1.0
  H  H36  1  0.61167637  0.45727534  0.93505800  1.0
  H  H37  1  0.17707818  0.42184923  0.89797164  1.0
  H  H38  1  0.11171534  0.38431045  0.81824097  1.0
  H  H39  1  0.81518783  0.40994178  0.80179894  1.0
  H  H40  1  0.71428324  0.43460260  0.87605777  1.0
  H  H41  1  0.97900865  0.47239901  0.99014865  1.0
  C  C42  1  0.49094501  0.61412538  0.38163825  1.0
  C  C43  1  0.29738860  0.62227738  0.39516412  1.0
  C  C44  1  0.23177412  0.60888215  0.42441980  1.0
  C  C45  1  0.34627097  0.58722716  0.44069425  1.0
  C  C46  1  0.53841033  0.58003199  0.42750170  1.0
  C  C47  1  0.60798347  0.59331037  0.39924334  1.0
  C  C48  1  0.26106898  0.57209714  0.46847475  1.0
  C  C49  1  0.34388988  0.54832570  0.48490365  1.0
  C  C50  1  0.24482466  0.53037098  0.50933948  1.0
  C  C51  1  0.04236508  0.52839369  0.51047097  1.0
  C  C52  1  0.91765014  0.51048575  0.53088781  1.0
  C  C53  1  0.00181037  0.48434052  0.54884528  1.0
  C  C54  1  0.90530996  0.46855774  0.57159700  1.0
  C  C55  1  0.98857017  0.44109872  0.58756545  1.0
  C  C56  1  0.87525734  0.42464319  0.60918727  1.0
  C  C57  1  0.94395722  0.39594234  0.62308920  1.0
  C  C58  1  0.13858677  0.38296066  0.61528330  1.0
  C  C59  1  0.25519203  0.40114448  0.59492720  1.0
  C  C60  1  0.18316904  0.42900009  0.58140704  1.0
  C  C61  1  0.81107189  0.38087670  0.64569569  1.0
  C  C62  1  0.16261761  0.64472005  0.38019199  1.0
  C  C63  1  0.87651810  0.76746419  0.38587253  1.0
  C  C64  1  0.67488438  0.77289565  0.37776298  1.0
  C  C65  1  0.62293254  0.81558393  0.39119800  1.0
  C  C66  1  0.75933780  0.85348106  0.41282025  1.0
  C  C67  1  0.95860876  0.84740540  0.41994755  1.0
  C  C68  1  0.01460007  0.80584495  0.40667134  1.0
  C  C69  1  0.68964407  0.89643441  0.42794737  1.0
  C  C70  1  0.79646854  0.93662524  0.45158028  1.0
  C  C71  1  0.71539696  0.97902132  0.46949238  1.0
  C  C72  1  0.51493858  0.98210703  0.47150469  1.0
  C  C73  1  0.40794376  0.02039338  0.48953461  1.0
  C  C74  1  0.51810768  0.06450851  0.51563686  1.0
  C  C75  1  0.43729482  0.10304238  0.53148688  1.0
  C  C76  1  0.54794364  0.14646961  0.55901480  1.0
  C  C77  1  0.45108384  0.18454784  0.57549038  1.0
  C  C78  1  0.54831897  0.22716054  0.60421632  1.0
  C  C79  1  0.75593396  0.23236667  0.61719098  1.0
  C  C80  1  0.85432132  0.19381346  0.59901708  1.0
  C  C81  1  0.75456229  0.15243014  0.57114883  1.0
  C  C82  1  0.43035603  0.26482889  0.61920100  1.0
  C  C83  1  0.51769135  0.73548656  0.35530057  1.0
  C  C84  1  0.10930522  0.61835805  0.23255076  1.0
  C  C85  1  0.90223824  0.60479476  0.22710380  1.0
  C  C86  1  0.80772083  0.57553480  0.18442070  1.0
  C  C87  1  0.90635477  0.55928105  0.14653476  1.0
  C  C88  1  0.11164464  0.57250176  0.15262030  1.0
  C  C89  1  0.20903559  0.60079030  0.19418111  1.0
  C  C90  1  0.79391274  0.53146120  0.10356911  1.0
  C  C91  1  0.86056793  0.51500026  0.06338235  1.0
  C  C92  1  0.73725435  0.49055110  0.02097997  1.0
  C  C93  1  0.53370753  0.48945386  0.01788683  1.0
  C  C94  1  0.38837146  0.46906440  0.97961114  1.0
  C  C95  1  0.45419912  0.45112147  0.93546802  1.0
  C  C96  1  0.33481193  0.42847535  0.89694414  1.0
  C  C97  1  0.40190763  0.41252599  0.85349004  1.0
  C  C98  1  0.26674377  0.39095184  0.81545484  1.0
  C  C99  1  0.32113511  0.37702619  0.77281147  1.0
  C  C100  1  0.52354841  0.38474380  0.76756527  1.0
  C  C101  1  0.66073334  0.40506115  0.80606569  1.0
  C  C102  1  0.60253432  0.41863963  0.84747057  1.0
  C  C103  1  0.16556361  0.35437807  0.73516697  1.0
  C  C104  1  0.78221347  0.61975264  0.26449064  1.0
  O  O105  1  0.64635201  0.39616060  0.65574578  1.0
  O  O106  1  0.86486117  0.35118139  0.65483718  1.0
  O  O107  1  0.21614034  0.35494381  0.62613292  1.0
  O  O108  1  0.99748947  0.65433623  0.39540026  1.0
  O  O109  1  0.21539747  0.65415850  0.35063635  1.0
  O  O110  1  0.56749963  0.62504057  0.35355496  1.0
  O  O111  1  0.73678048  0.51647368  0.53150192  1.0
  O  O112  1  0.35895496  0.51475173  0.52984274  1.0
  O  O113  1  0.25039958  0.25959223  0.60390305  1.0
  O  O114  1  0.51388839  0.30368098  0.64882534  1.0
  O  O115  1  0.86153170  0.27124230  0.64513654  1.0
  O  O116  1  0.34305215  0.74106512  0.34560773  1.0
  O  O117  1  0.56099120  0.69649736  0.34592180  1.0
  O  O118  1  0.94207416  0.72844561  0.37491957  1.0
  O  O119  1  0.22106591  0.01496253  0.48372397  1.0
  O  O120  1  0.84500907  0.01514205  0.48502196  1.0
  O  O121  1  0.99087236  0.34432003  0.74042495  1.0
  O  O122  1  0.21009912  0.34517611  0.69631095  1.0
  O  O123  1  0.59013674  0.37383505  0.72868363  1.0
  O  O124  1  0.60196999  0.60450145  0.25889611  1.0
  O  O125  1  0.86438178  0.64936643  0.30348876  1.0
  O  O126  1  0.21373127  0.64643471  0.27156246  1.0
  O  O127  1  0.20701173  0.46848986  0.98510150  1.0
  O  O128  1  0.83085296  0.47002269  0.98485936  1.0
