# generated using pymatgen
data_ZnH18C26(NO3)2
_symmetry_space_group_name_H-M   'P 1'
_cell_length_a   9.76732652
_cell_length_b   10.91574257
_cell_length_c   27.63468142
_cell_angle_alpha   89.17626210
_cell_angle_beta   82.89760756
_cell_angle_gamma   87.25378181
_symmetry_Int_Tables_number   1
_chemical_formula_structural   ZnH18C26(NO3)2
_chemical_formula_sum   'Zn2 H36 C52 N4 O12'
_cell_volume   2920.27210852
_cell_formula_units_Z   2
loop_
 _symmetry_equiv_pos_site_id
 _symmetry_equiv_pos_as_xyz
  1  'x, y, z'
loop_
 _atom_site_type_symbol
 _atom_site_label
 _atom_site_symmetry_multiplicity
 _atom_site_fract_x
 _atom_site_fract_y
 _atom_site_fract_z
 _atom_site_occupancy
  Zn  Zn0  1  0.87446280  0.48965724  0.48673120  1.0
  Zn  Zn1  1  0.13137330  0.50457058  0.51488668  1.0
  H  H2  1  0.37414289  0.51125491  0.36681346  1.0
  H  H3  1  0.54425285  0.45709702  0.72302778  1.0
  H  H4  1  0.35061166  0.19247005  0.11967587  1.0
  H  H5  1  0.62188605  0.80629849  0.87861209  1.0
  H  H6  1  0.03504732  0.54463444  0.66910183  1.0
  H  H7  1  0.96311050  0.47658813  0.33084826  1.0
  H  H8  1  0.94476922  0.54506579  0.75819038  1.0
  H  H9  1  0.05353311  0.47528033  0.24172208  1.0
  H  H10  1  0.60559551  0.19263925  0.87553027  1.0
  H  H11  1  0.43128775  0.79876746  0.12727035  1.0
  H  H12  1  0.52193522  0.18775652  0.96381952  1.0
  H  H13  1  0.63520217  0.45801637  0.63404916  1.0
  H  H14  1  0.50862801  0.80416641  0.03854453  1.0
  H  H15  1  0.43494603  0.18947674  0.03142148  1.0
  H  H16  1  0.54510584  0.80824574  0.96746280  1.0
  H  H17  1  0.48411917  0.86325385  0.40095482  1.0
  H  H18  1  0.39984819  0.76979610  0.36273909  1.0
  H  H19  1  0.46789975  0.91000186  0.33995892  1.0
  H  H20  1  0.20930269  0.93074387  0.36068480  1.0
  H  H21  1  0.29222193  0.02875352  0.39688252  1.0
  H  H22  1  0.27513302  0.87433600  0.46471376  1.0
  H  H23  1  0.19537261  0.77291672  0.42972290  1.0
  H  H24  1  0.86477451  0.91590340  0.49301101  1.0
  H  H25  1  0.81002153  0.30283438  0.38066413  1.0
  H  H26  1  0.81963666  0.17692231  0.34053137  1.0
  H  H27  1  0.66473372  0.20918185  0.37979546  1.0
  H  H28  1  0.79859835  0.03184608  0.41401488  1.0
  H  H29  1  0.79178332  0.15982887  0.45303409  1.0
  H  H30  1  0.02359464  0.21955451  0.40836791  1.0
  H  H31  1  0.03481784  0.07584051  0.37875450  1.0
  H  H32  1  0.12448872  0.07768400  0.52370720  1.0
  H  H33  1  0.59914221  0.58581233  0.52329313  1.0
  H  H34  1  0.40686824  0.41005130  0.47461890  1.0
  H  H35  1  0.65162918  0.38616114  0.45263401  1.0
  H  H36  1  0.35789848  0.60827093  0.54582939  1.0
  H  H37  1  0.46510679  0.51370456  0.27777987  1.0
  C  C38  1  0.05780986  0.26135568  0.50073426  1.0
  C  C39  1  0.61483183  0.38753086  0.87195317  1.0
  C  C40  1  0.16337667  0.49320974  0.35391020  1.0
  C  C41  1  0.84039002  0.50222451  0.64640733  1.0
  C  C42  1  0.51963174  0.38399475  0.97332974  1.0
  C  C43  1  0.49011622  0.61033379  0.02762477  1.0
  C  C44  1  0.53283907  0.61168516  0.97497546  1.0
  C  C45  1  0.46784776  0.38369712  0.02533302  1.0
  C  C46  1  0.54881047  0.49824080  0.94919508  1.0
  C  C47  1  0.45624274  0.49665349  0.05143925  1.0
  C  C48  1  0.54147904  0.27604207  0.94611443  1.0
  C  C49  1  0.96365043  0.73235776  0.48931682  1.0
  C  C50  1  0.48096588  0.71688087  0.05570691  1.0
  C  C51  1  0.58869834  0.27734159  0.89629953  1.0
  C  C52  1  0.43765991  0.71521569  0.10578937  1.0
  C  C53  1  0.10758637  0.49273184  0.40704377  1.0
  C  C54  1  0.89680377  0.50180367  0.59331036  1.0
  C  C55  1  0.42899927  0.27629798  0.05063516  1.0
  C  C56  1  0.55885750  0.72057759  0.94875754  1.0
  C  C57  1  0.07854292  0.12684125  0.49455628  1.0
  C  C58  1  0.96167001  0.86619783  0.48004383  1.0
  C  C59  1  0.04808686  0.06482402  0.45570909  1.0
  C  C60  1  0.40953654  0.49593824  0.10262423  1.0
  C  C61  1  0.06777414  0.92841749  0.45729080  1.0
  C  C62  1  0.43120495  0.48312907  0.49861152  1.0
  C  C63  1  0.57580286  0.51209849  0.49939300  1.0
  C  C64  1  0.32112123  0.38186913  0.17930574  1.0
  C  C65  1  0.66940907  0.61496508  0.82021397  1.0
  C  C66  1  0.35316435  0.60794517  0.18236811  1.0
  C  C67  1  0.66451411  0.38580106  0.81911659  1.0
  C  C68  1  0.12297228  0.48373098  0.26935590  1.0
  C  C69  1  0.87760247  0.52605102  0.73077794  1.0
  C  C70  1  0.07287620  0.48371284  0.31870348  1.0
  C  C71  1  0.59513583  0.49907860  0.89797992  1.0
  C  C72  1  0.92765975  0.52625619  0.68141798  1.0
  C  C73  1  0.30485101  0.50345438  0.33909953  1.0
  C  C74  1  0.70201468  0.47767936  0.66149490  1.0
  C  C75  1  0.35547554  0.50451469  0.28972377  1.0
  C  C76  1  0.65137363  0.47716754  0.71089625  1.0
  C  C77  1  0.26401232  0.49422916  0.25520339  1.0
  C  C78  1  0.73967633  0.50146522  0.74520325  1.0
  C  C79  1  0.20554455  0.87091610  0.43608187  1.0
  C  C80  1  0.27646703  0.93163183  0.38988111  1.0
  C  C81  1  0.41478788  0.86528665  0.37238582  1.0
  C  C82  1  0.37177366  0.38484860  0.12660569  1.0
  C  C83  1  0.99163369  0.12442585  0.41226545  1.0
  C  C84  1  0.83283649  0.12590606  0.41656705  1.0
  C  C85  1  0.77812173  0.20815425  0.37734956  1.0
  C  C86  1  0.62152807  0.61150503  0.87315866  1.0
  C  C87  1  0.38117956  0.27656790  0.10038450  1.0
  C  C88  1  0.60207254  0.72091137  0.89865282  1.0
  C  C89  1  0.40092761  0.60630152  0.12941184  1.0
  N  N90  1  0.31529344  0.49463291  0.20393203  1.0
  N  N91  1  0.68854590  0.50077206  0.79651126  1.0
  N  N92  1  0.33055211  0.53943841  0.52449685  1.0
  N  N93  1  0.67734293  0.45532805  0.47417561  1.0
  O  O94  1  0.94665143  0.31165458  0.48823098  1.0
  O  O95  1  0.69202751  0.71117843  0.79758735  1.0
  O  O96  1  0.68494096  0.29034929  0.79570977  1.0
  O  O97  1  0.34508612  0.70194224  0.20677136  1.0
  O  O98  1  0.07833644  0.68036296  0.49779053  1.0
  O  O99  1  0.15122496  0.31764969  0.51872986  1.0
  O  O100  1  0.85083824  0.67768595  0.48903667  1.0
  O  O101  1  0.97641064  0.50153095  0.41699258  1.0
  O  O102  1  0.02563501  0.51818295  0.58315350  1.0
  O  O103  1  0.19410168  0.48374873  0.43792693  1.0
  O  O104  1  0.81305235  0.48487901  0.56241446  1.0
  O  O105  1  0.28572386  0.28730963  0.20112433  1.0
