# generated using pymatgen
data_AlH9C27(ClO)6
_symmetry_space_group_name_H-M   'P 1'
_cell_length_a   4.02317530
_cell_length_b   27.83660344
_cell_length_c   27.85388506
_cell_angle_alpha   60.07423032
_cell_angle_beta   89.73090393
_cell_angle_gamma   89.58691821
_symmetry_Int_Tables_number   1
_chemical_formula_structural   AlH9C27(ClO)6
_chemical_formula_sum   'Al3 H27 C81 Cl18 O18'
_cell_volume   2703.42506825
_cell_formula_units_Z   3
loop_
 _symmetry_equiv_pos_site_id
 _symmetry_equiv_pos_as_xyz
  1  'x, y, z'
loop_
 _atom_site_type_symbol
 _atom_site_label
 _atom_site_symmetry_multiplicity
 _atom_site_fract_x
 _atom_site_fract_y
 _atom_site_fract_z
 _atom_site_occupancy
  Al  Al0  1  0.99991904  0.00008367  0.49990684  1.0
  Al  Al1  1  0.05121089  0.33365741  0.83325453  1.0
  Al  Al2  1  0.93780325  0.66729859  0.16625004  1.0
  H  H3  1  0.48726111  0.00033576  0.92273416  1.0
  H  H4  1  0.50535199  0.91129878  0.83362169  1.0
  H  H5  1  0.47162328  0.08931927  0.74486628  1.0
  H  H6  1  0.27776060  0.07293863  0.91469748  1.0
  H  H7  1  0.74964526  0.14959336  0.75348070  1.0
  H  H8  1  0.69935552  0.92829196  0.98650322  1.0
  H  H9  1  0.23296654  0.85047921  0.90305154  1.0
  H  H10  1  0.25209129  0.92028257  0.76253011  1.0
  H  H11  1  0.72852380  0.08022922  0.68283455  1.0
  H  H12  1  0.48675094  0.42286018  0.07736907  1.0
  H  H13  1  0.47239161  0.24485920  0.16610070  1.0
  H  H14  1  0.50467641  0.33380109  0.25526644  1.0
  H  H15  1  0.70630975  0.48621421  0.08566259  1.0
  H  H16  1  0.23186371  0.40398464  0.24667399  1.0
  H  H17  1  0.27026291  0.41458940  0.01357612  1.0
  H  H18  1  0.75052216  0.25362982  0.09646761  1.0
  H  H19  1  0.73568944  0.18297265  0.23702943  1.0
  H  H20  1  0.24414363  0.26260996  0.31719172  1.0
  H  H21  1  0.51750062  0.57688852  0.49974961  1.0
  H  H22  1  0.53698480  0.75482518  0.41079631  1.0
  H  H23  1  0.50554610  0.66615908  0.58868502  1.0
  H  H24  1  0.30237294  0.51356748  0.57158600  1.0
  H  H25  1  0.77120605  0.59618176  0.65005311  1.0
  H  H26  1  0.72658538  0.58507254  0.42664709  1.0
  H  H27  1  0.24927655  0.74624895  0.35120510  1.0
  H  H28  1  0.27799705  0.81678238  0.41995942  1.0
  H  H29  1  0.76192405  0.73743217  0.57950891  1.0
  C  C30  1  0.50494835  0.92621634  0.49992532  1.0
  C  C31  1  0.49712531  0.00018347  0.57364269  1.0
  C  C32  1  0.49782228  0.07380410  0.42610050  1.0
  C  C33  1  0.55292679  0.26011716  0.83327928  1.0
  C  C34  1  0.54775088  0.33360347  0.90679023  1.0
  C  C35  1  0.55025406  0.40718395  0.75992405  1.0
  C  C36  1  0.43720014  0.74057634  0.09265499  1.0
  C  C37  1  0.44188335  0.59346199  0.16672208  1.0
  C  C38  1  0.43783270  0.66727821  0.23979739  1.0
  C  C39  1  0.48150715  0.94964343  0.88437627  1.0
  C  C40  1  0.48717854  0.00033514  0.88364303  1.0
  C  C41  1  0.49376660  0.05100445  0.83382801  1.0
  C  C42  1  0.48631654  0.05027166  0.78388312  1.0
  C  C43  1  0.48796669  0.00029649  0.78312850  1.0
  C  C44  1  0.48919595  0.95033203  0.83371538  1.0
  C  C45  1  0.41749561  0.15784991  0.87967932  1.0
  C  C46  1  0.39346882  0.10810648  0.87937581  1.0
  C  C47  1  0.50925996  0.10406452  0.83392553  1.0
  C  C48  1  0.64532309  0.15137596  0.78868861  1.0
  C  C49  1  0.65589747  0.20144734  0.78855422  1.0
  C  C50  1  0.54444984  0.20574556  0.83404351  1.0
  C  C51  1  0.58634198  0.89284619  0.98659290  1.0
  C  C52  1  0.56687143  0.84303485  0.03653512  1.0
  C  C53  1  0.44406916  0.79482239  0.03902153  1.0
  C  C54  1  0.33176228  0.79885933  0.98955115  1.0
  C  C55  1  0.33770654  0.84894773  0.93974185  1.0
  C  C56  1  0.46980613  0.89657066  0.93745040  1.0
  C  C57  1  0.36248956  0.95546673  0.72653259  1.0
  C  C58  1  0.36682777  0.95517394  0.67667219  1.0
  C  C59  1  0.49470695  0.00019620  0.62737287  1.0
  C  C60  1  0.62010286  0.04523820  0.63180710  1.0
  C  C61  1  0.61960402  0.04504882  0.68189886  1.0
  C  C62  1  0.48970124  0.00028681  0.73005647  1.0
  C  C63  1  0.49317213  0.33387547  0.11551244  1.0
  C  C64  1  0.48706909  0.38377094  0.11639594  1.0
  C  C65  1  0.48228153  0.38457797  0.16629976  1.0
  C  C66  1  0.48907494  0.33388367  0.21617604  1.0
  C  C67  1  0.48803221  0.28322902  0.21677136  1.0
  C  C68  1  0.48675517  0.28392113  0.16611044  1.0
  C  C69  1  0.57454484  0.53671709  0.12077514  1.0
  C  C70  1  0.59248433  0.48662486  0.12097456  1.0
  C  C71  1  0.47260793  0.43774405  0.16630522  1.0
  C  C72  1  0.33916664  0.44042325  0.21156062  1.0
  C  C73  1  0.33454633  0.49034992  0.21178554  1.0
  C  C74  1  0.44958745  0.53958989  0.16637606  1.0
  C  C75  1  0.38736608  0.37937046  0.01330119  1.0
  C  C76  1  0.40995459  0.37969404  0.96322443  1.0
  C  C77  1  0.53864640  0.33413438  0.96052168  1.0
  C  C78  1  0.65281559  0.28865252  0.00991148  1.0
  C  C79  1  0.64375503  0.28876853  0.05984597  1.0
  C  C80  1  0.50652264  0.33396048  0.06234425  1.0
  C  C81  1  0.62345942  0.18200303  0.27312303  1.0
  C  C82  1  0.62402813  0.13190289  0.32296236  1.0
  C  C83  1  0.49464141  0.12747223  0.37238752  1.0
  C  C84  1  0.36233982  0.17676699  0.36809823  1.0
  C  C85  1  0.35798505  0.22662435  0.31801837  1.0
  C  C86  1  0.48954924  0.23016148  0.26974892  1.0
  C  C87  1  0.51270773  0.66587099  0.44912349  1.0
  C  C88  1  0.51924782  0.61599307  0.49977920  1.0
  C  C89  1  0.52617073  0.61527821  0.55044469  1.0
  C  C90  1  0.52084895  0.66600890  0.54970317  1.0
  C  C91  1  0.52245075  0.71661080  0.49975713  1.0
  C  C92  1  0.52238277  0.71582760  0.44983504  1.0
  C  C93  1  0.42659364  0.46346285  0.65725010  1.0
  C  C94  1  0.41363905  0.51331514  0.60724315  1.0
  C  C95  1  0.53398952  0.56220841  0.60358162  1.0
  C  C96  1  0.66360355  0.55974476  0.65145462  1.0
  C  C97  1  0.66307438  0.51006786  0.70169700  1.0
  C  C98  1  0.54696272  0.46083388  0.70568135  1.0
  C  C99  1  0.60834938  0.62047289  0.39172136  1.0
  C  C100  1  0.58018858  0.62035719  0.34194307  1.0
  C  C101  1  0.44989609  0.66612635  0.29433092  1.0
  C  C102  1  0.33865720  0.71146105  0.29901376  1.0
  C  C103  1  0.35343286  0.71114984  0.34911526  1.0
  C  C104  1  0.49333750  0.66584581  0.39608226  1.0
  C  C105  1  0.38795767  0.81783163  0.45502940  1.0
  C  C106  1  0.38525819  0.86796866  0.45482992  1.0
  C  C107  1  0.51094454  0.87248710  0.49982064  1.0
  C  C108  1  0.64252092  0.82326094  0.54472448  1.0
  C  C109  1  0.64903577  0.77337423  0.54441646  1.0
  C  C110  1  0.52058379  0.76973199  0.49971518  1.0
  Cl  Cl111  1  0.81320618  0.25923537  0.73108629  1.0
  Cl  Cl112  1  0.28348638  0.16021045  0.93747109  1.0
  Cl  Cl113  1  0.70177849  0.84096274  0.09634550  1.0
  Cl  Cl114  1  0.17879123  0.74072418  0.99009878  1.0
  Cl  Cl115  1  0.21772088  0.89569052  0.67959828  1.0
  Cl  Cl116  1  0.77242508  0.10464113  0.57547517  1.0
  Cl  Cl117  1  0.17974510  0.49133723  0.26926041  1.0
  Cl  Cl118  1  0.71314006  0.59621468  0.06312001  1.0
  Cl  Cl119  1  0.27155794  0.43739409  0.90356627  1.0
  Cl  Cl120  1  0.81154473  0.23119043  0.00914537  1.0
  Cl  Cl121  1  0.78170928  0.07556403  0.31989230  1.0
  Cl  Cl122  1  0.20731885  0.17972899  0.42455121  1.0
  Cl  Cl123  1  0.81196266  0.50946038  0.76010509  1.0
  Cl  Cl124  1  0.28667893  0.40390188  0.65933013  1.0
  Cl  Cl125  1  0.71274823  0.56262963  0.33919716  1.0
  Cl  Cl126  1  0.17614761  0.76899898  0.24165139  1.0
  Cl  Cl127  1  0.22969729  0.92420698  0.39552237  1.0
  Cl  Cl128  1  0.79343873  0.82043393  0.60407194  1.0
  O  O129  1  0.26088393  0.06498774  0.45979644  1.0
  O  O130  1  0.26614180  0.95955485  0.47518765  1.0
  O  O131  1  0.26186956  0.97530914  0.56487800  1.0
  O  O132  1  0.73686154  0.04036424  0.43476616  1.0
  O  O133  1  0.73390408  0.02502445  0.54010631  1.0
  O  O134  1  0.73966476  0.93515851  0.52480397  1.0
  O  O135  1  0.31383325  0.39914869  0.79336487  1.0
  O  O136  1  0.31833689  0.29400169  0.80770044  1.0
  O  O137  1  0.31434925  0.30819164  0.89850857  1.0
  O  O138  1  0.78924921  0.37403263  0.76804059  1.0
  O  O139  1  0.78631178  0.35850253  0.87392939  1.0
  O  O140  1  0.79138013  0.26803916  0.85806912  1.0
  O  O141  1  0.19853168  0.64267573  0.23187676  1.0
  O  O142  1  0.19742081  0.73272831  0.12543345  1.0
  O  O143  1  0.20262837  0.62639545  0.14172532  1.0
  O  O144  1  0.67037137  0.69299835  0.20575487  1.0
  O  O145  1  0.67587452  0.60184186  0.19199143  1.0
  O  O146  1  0.67307326  0.70680315  0.10097078  1.0
