# generated using pymatgen
data_ZnH6C16Br2NO4
_symmetry_space_group_name_H-M   'P 1'
_cell_length_a   13.99469210
_cell_length_b   14.44279201
_cell_length_c   15.34340771
_cell_angle_alpha   90.24841506
_cell_angle_beta   90.00229197
_cell_angle_gamma   89.99944353
_symmetry_Int_Tables_number   1
_chemical_formula_structural   ZnH6C16Br2NO4
_chemical_formula_sum   'Zn2 H12 C32 Br4 N2 O8'
_cell_volume   3101.21765742
_cell_formula_units_Z   2
loop_
 _symmetry_equiv_pos_site_id
 _symmetry_equiv_pos_as_xyz
  1  'x, y, z'
loop_
 _atom_site_type_symbol
 _atom_site_label
 _atom_site_symmetry_multiplicity
 _atom_site_fract_x
 _atom_site_fract_y
 _atom_site_fract_z
 _atom_site_occupancy
  Zn  Zn0  1  0.60163394  0.49999960  0.50000049  1.0
  Zn  Zn1  1  0.39813322  0.50000192  0.50000180  1.0
  H  H2  1  0.06820645  0.37427855  0.42270126  1.0
  H  H3  1  0.93175658  0.55300158  0.63212229  1.0
  H  H4  1  0.06820838  0.62572897  0.57729033  1.0
  H  H5  1  0.93174591  0.44700357  0.36786921  1.0
  H  H6  1  0.24707645  0.37981744  0.42611700  1.0
  H  H7  1  0.75275146  0.55046006  0.62629028  1.0
  H  H8  1  0.24707901  0.62018707  0.57388016  1.0
  H  H9  1  0.75274173  0.44953843  0.37370477  1.0
  H  H10  1  0.55624476  0.63901595  0.06049187  1.0
  H  H11  1  0.44300653  0.63933379  0.94066543  1.0
  H  H12  1  0.55621656  0.36094836  0.93951185  1.0
  H  H13  1  0.44295892  0.36066203  0.05934378  1.0
  C  C14  1  0.50297233  0.49869313  0.33120422  1.0
  C  C15  1  0.50299076  0.50130144  0.66880078  1.0
  C  C16  1  0.49635422  0.32054855  0.49953847  1.0
  C  C17  1  0.49635884  0.67945229  0.50045652  1.0
  C  C18  1  0.10457494  0.43073315  0.45634971  1.0
  C  C19  1  0.89537739  0.53025975  0.57302147  1.0
  C  C20  1  0.10457676  0.56927681  0.54363873  1.0
  C  C21  1  0.89537181  0.46974090  0.42697254  1.0
  C  C22  1  0.20379115  0.43282160  0.45806662  1.0
  C  C23  1  0.79616688  0.52892004  0.57074904  1.0
  C  C24  1  0.20379221  0.56718538  0.54192757  1.0
  C  C25  1  0.79616280  0.47107874  0.42924442  1.0
  C  C26  1  0.49736297  0.22059139  0.49967525  1.0
  C  C27  1  0.49736871  0.77941082  0.50031521  1.0
  C  C28  1  0.49844596  0.13559399  0.49981270  1.0
  C  C29  1  0.49845583  0.86440959  0.50017651  1.0
  C  C30  1  0.49909454  0.04274351  0.49994829  1.0
  C  C31  1  0.49910132  0.95725799  0.50004354  1.0
  C  C32  1  0.05276085  0.50000556  0.49999322  1.0
  C  C33  1  0.94724426  0.50000355  0.49999671  1.0
  C  C34  1  0.53086188  0.57799266  0.09491847  1.0
  C  C35  1  0.46919247  0.57858987  0.90578756  1.0
  C  C36  1  0.53085449  0.42198573  0.90508821  1.0
  C  C37  1  0.46915426  0.42140363  0.09422135  1.0
  C  C38  1  0.53212282  0.57651164  0.18562911  1.0
  C  C39  1  0.47040319  0.57789262  0.81507324  1.0
  C  C40  1  0.53212022  0.42347297  0.81437763  1.0
  C  C41  1  0.47034159  0.42211542  0.18493901  1.0
  C  C42  1  0.50191774  0.49901443  0.23289415  1.0
  C  C43  1  0.50194383  0.50098292  0.76711147  1.0
  C  C44  1  0.49955729  0.49988799  0.04824450  1.0
  C  C45  1  0.49956248  0.50008861  0.95176424  1.0
  Br  Br46  1  0.57661469  0.68326731  0.24650067  1.0
  Br  Br47  1  0.42811322  0.68567253  0.75501908  1.0
  Br  Br48  1  0.57659136  0.31671065  0.75350386  1.0
  Br  Br49  1  0.42792588  0.31438782  0.24499427  1.0
  N  N50  1  0.25233508  0.50000327  0.49999835  1.0
  N  N51  1  0.74755141  0.49999823  0.49999807  1.0
  O  O52  1  0.58232182  0.48031540  0.36722186  1.0
  O  O53  1  0.42444173  0.48302862  0.63158535  1.0
  O  O54  1  0.58233643  0.51967497  0.63278032  1.0
  O  O55  1  0.42442680  0.51697636  0.36841992  1.0
  O  O56  1  0.57542720  0.36033425  0.51616146  1.0
  O  O57  1  0.41648696  0.64108958  0.51713259  1.0
  O  O58  1  0.57543296  0.63966380  0.48383851  1.0
  O  O59  1  0.41648340  0.35891546  0.48286520  1.0
