# generated using pymatgen
data_Zn3H30C30(BrO9)2
_symmetry_space_group_name_H-M   'P 1'
_cell_length_a   18.97948178
_cell_length_b   19.47020975
_cell_length_c   19.47659153
_cell_angle_alpha   111.88196646
_cell_angle_beta   110.89715515
_cell_angle_gamma   105.13416276
_symmetry_Int_Tables_number   1
_chemical_formula_structural   Zn3H30C30(BrO9)2
_chemical_formula_sum   'Zn6 H60 C60 Br4 O36'
_cell_volume   5557.72746428
_cell_formula_units_Z   2
loop_
 _symmetry_equiv_pos_site_id
 _symmetry_equiv_pos_as_xyz
  1  'x, y, z'
loop_
 _atom_site_type_symbol
 _atom_site_label
 _atom_site_symmetry_multiplicity
 _atom_site_fract_x
 _atom_site_fract_y
 _atom_site_fract_z
 _atom_site_occupancy
  Zn  Zn0  1  0.43424688  0.48453496  0.41850613  1.0
  Zn  Zn1  1  0.54819992  0.04952131  0.98296210  1.0
  Zn  Zn2  1  0.43466880  0.93334117  0.98295200  1.0
  Zn  Zn3  1  0.55745658  0.48891763  0.54826648  1.0
  Zn  Zn4  1  0.98433339  0.93418468  0.41839638  1.0
  Zn  Zn5  1  0.99110473  0.05965117  0.54824081  1.0
  H  H6  1  0.52121697  0.64213815  0.85446270  1.0
  H  H7  1  0.71364697  0.37018502  0.13169498  1.0
  H  H8  1  0.84753480  0.86660849  0.19068533  1.0
  H  H9  1  0.68310532  0.79774664  0.92451951  1.0
  H  H10  1  0.70129467  0.83303405  0.85693495  1.0
  H  H11  1  0.78321224  0.75209505  0.83495689  1.0
  H  H12  1  0.82847318  0.82434677  0.94622346  1.0
  H  H13  1  0.76534637  0.71675837  0.90232165  1.0
  H  H14  1  0.43867402  0.39916349  0.15290631  1.0
  H  H15  1  0.45881408  0.31212225  0.11308985  1.0
  H  H16  1  0.30785439  0.26450862  0.07920037  1.0
  H  H17  1  0.36373586  0.23714764  0.15164237  1.0
  H  H18  1  0.33319636  0.21213205  0.85414687  1.0
  H  H19  1  0.34300751  0.32389049  0.19064021  1.0
  H  H20  1  0.24134789  0.12667404  0.92430349  1.0
  H  H21  1  0.15558848  0.02378618  0.85679535  1.0
  H  H22  1  0.05170050  0.08278612  0.83479464  1.0
  H  H23  1  0.11769308  0.12179986  0.94607076  1.0
  H  H24  1  0.13694673  0.18546211  0.90215069  1.0
  H  H25  1  0.71419203  0.75375295  0.15324534  1.0
  H  H26  1  0.65422295  0.80091387  0.11333953  1.0
  H  H27  1  0.77114952  0.81447571  0.07926848  1.0
  H  H28  1  0.78779908  0.91432864  0.15168515  1.0
  H  H29  1  0.37800974  0.15634035  0.80253145  1.0
  H  H30  1  0.51151512  0.22592555  0.94419630  1.0
  H  H31  1  0.48846272  0.30177204  0.92320971  1.0
  H  H32  1  0.46769486  0.28038881  0.99726926  1.0
  H  H33  1  0.54624491  0.88666364  0.27001999  1.0
  H  H34  1  0.60469740  0.82808028  0.26592039  1.0
  H  H35  1  0.47692996  0.70388324  0.13126664  1.0
  H  H36  1  0.45300376  0.73811352  0.21487279  1.0
  H  H37  1  0.42471577  0.64614656  0.80269226  1.0
  H  H38  1  0.41816905  0.76193177  0.13242253  1.0
  H  H39  1  0.43278217  0.71835757  0.94431939  1.0
  H  H40  1  0.43475075  0.62148179  0.92335142  1.0
  H  H41  1  0.52961783  0.71691389  0.99746585  1.0
  H  H42  1  0.72353036  0.38305360  0.26939950  1.0
  H  H43  1  0.66110124  0.43766158  0.26560501  1.0
  H  H44  1  0.65383672  0.42719902  0.13081137  1.0
  H  H45  1  0.76146171  0.47647035  0.21423697  1.0
  H  H46  1  0.53168385  0.94543487  0.74918888  1.0
  H  H47  1  0.44228721  0.84600115  0.69361750  1.0
  H  H48  1  0.49002940  0.78589126  0.59184857  1.0
  H  H49  1  0.47950920  0.87416287  0.59141729  1.0
  H  H50  1  0.58189386  0.88303091  0.64773672  1.0
  H  H51  1  0.53361696  0.13476981  0.26070230  1.0
  H  H52  1  0.42891365  0.05629470  0.17674178  1.0
  H  H53  1  0.37075329  0.13314720  0.26085724  1.0
  H  H54  1  0.43702289  0.10072705  0.31840379  1.0
  H  H55  1  0.47640322  0.20659716  0.34618314  1.0
  H  H56  1  0.21760942  0.80363812  0.74914930  1.0
  H  H57  1  0.25128943  0.84742238  0.69343856  1.0
  H  H58  1  0.10173153  0.80562938  0.59178495  1.0
  H  H59  1  0.11182930  0.71695179  0.59139759  1.0
  H  H60  1  0.06589410  0.76454346  0.64782418  1.0
  H  H61  1  0.72715265  0.12597742  0.26067039  1.0
  H  H62  1  0.74777096  0.12031570  0.17658544  1.0
  H  H63  1  0.88999966  0.12744505  0.26058114  1.0
  H  H64  1  0.88147076  0.21755375  0.31815094  1.0
  H  H65  1  0.86980831  0.13952157  0.34601869  1.0
  C  C66  1  0.49865717  0.59079575  0.61255881  1.0
  C  C67  1  0.57188462  0.59605378  0.45139795  1.0
  C  C68  1  0.43603118  0.14209611  0.29246266  1.0
  C  C69  1  0.20194710  0.83208829  0.71013258  1.0
  C  C70  1  0.11506376  0.77673421  0.63058474  1.0
  C  C71  1  0.76232863  0.10740471  0.22895493  1.0
  C  C72  1  0.85643253  0.15024875  0.29225401  1.0
  C  C73  1  0.69536337  0.78269152  0.87091067  1.0
  C  C74  1  0.77250952  0.76774113  0.88943343  1.0
  C  C75  1  0.44148936  0.34577670  0.15852982  1.0
  C  C76  1  0.35914944  0.28944501  0.14452239  1.0
  C  C77  1  0.17547208  0.08808593  0.87073305  1.0
  C  C78  1  0.08116793  0.07800415  0.44355910  1.0
  C  C79  1  0.11687365  0.12159485  0.88927641  1.0
  C  C80  1  0.71699894  0.81272904  0.15876617  1.0
  C  C81  1  0.78525806  0.85492052  0.14460567  1.0
  C  C82  1  0.87955153  0.85544666  0.45118368  1.0
  C  C83  1  0.36248693  0.36597845  0.44359149  1.0
  C  C84  1  0.29764392  0.29993528  0.43505273  1.0
  C  C85  1  0.63149307  0.65014737  0.44269736  1.0
  C  C86  1  0.13738389  0.13552917  0.43495044  1.0
  C  C87  1  0.55664022  0.40028174  0.41084693  1.0
  C  C88  1  0.81127473  0.79262226  0.44252542  1.0
  C  C89  1  0.24501011  0.24603692  0.43323401  1.0
  C  C90  1  0.68827795  0.69489039  0.44020053  1.0
  C  C91  1  0.18820024  0.18763510  0.43317180  1.0
  C  C92  1  0.75208057  0.74539705  0.44014110  1.0
  C  C93  1  0.11394762  0.02172531  0.61235485  1.0
  C  C94  1  0.53433837  0.76963110  0.81929919  1.0
  C  C95  1  0.55836918  0.28121002  0.20155314  1.0
  C  C96  1  0.28485091  0.04949321  0.81912401  1.0
  C  C97  1  0.64320559  0.92046963  0.20175704  1.0
  C  C98  1  0.85440551  0.01081327  0.41088559  1.0
  C  C99  1  0.53687536  0.83866053  0.81608814  1.0
  C  C100  1  0.51424215  0.19769645  0.16675868  1.0
  C  C101  1  0.27915643  0.97727789  0.81596886  1.0
  C  C102  1  0.65246154  0.96906268  0.16682297  1.0
  C  C103  1  0.54866475  0.70756873  0.76035893  1.0
  C  C104  1  0.54822763  0.34006674  0.26816356  1.0
  C  C105  1  0.21157182  0.05258066  0.76015516  1.0
  C  C106  1  0.72000195  0.92825963  0.26833857  1.0
  C  C107  1  0.48818108  0.65107605  0.67630309  1.0
  C  C108  1  0.58060622  0.35605914  0.35044007  1.0
  C  C109  1  0.18802248  0.02502760  0.67610068  1.0
  C  C110  1  0.77004272  0.99466174  0.35054459  1.0
  C  C111  1  0.58257954  0.96679442  0.09840320  1.0
  C  C112  1  0.35088632  0.97216187  0.87458805  1.0
  C  C113  1  0.51567740  0.13153142  0.09832581  1.0
  C  C114  1  0.52379199  0.90240256  0.87471849  1.0
  C  C115  1  0.48469781  0.67700586  0.86357405  1.0
  C  C116  1  0.46958234  0.68394745  0.93649445  1.0
  C  C117  1  0.67514645  0.39180774  0.22637012  1.0
  C  C118  1  0.70254907  0.41783389  0.17235171  1.0
  C  C119  1  0.37883456  0.18639017  0.86337594  1.0
  C  C120  1  0.46681499  0.25241652  0.93632309  1.0
  C  C121  1  0.55144076  0.83482341  0.22685422  1.0
  C  C122  1  0.46993560  0.75486509  0.17294635  1.0
  C  C123  1  0.50830355  0.87795064  0.71022898  1.0
  C  C124  1  0.51551683  0.85360416  0.63059441  1.0
  C  C125  1  0.46671486  0.12160499  0.22906732  1.0
  Br  Br126  1  0.38042118  0.65014467  0.63267735  1.0
  Br  Br127  1  0.66126102  0.31906999  0.39140748  1.0
  Br  Br128  1  0.25210324  0.98219603  0.63249546  1.0
  Br  Br129  1  0.73054775  0.07279133  0.39155368  1.0
  O  O130  1  0.44961005  0.56287543  0.53363283  1.0
  O  O131  1  0.49042181  0.40920591  0.38101206  1.0
  O  O132  1  0.08408159  0.07125831  0.64106814  1.0
  O  O133  1  0.89069500  0.97198151  0.38095264  1.0
  O  O134  1  0.55726465  0.56998942  0.64120886  1.0
  O  O135  1  0.33778246  0.39100712  0.39084505  1.0
  O  O136  1  0.60225805  0.58260054  0.51154128  1.0
  O  O137  1  0.05307016  0.00023229  0.39078769  1.0
  O  O138  1  0.60250352  0.42579222  0.49132985  1.0
  O  O139  1  0.90932570  0.92902870  0.51134687  1.0
  O  O140  1  0.43759621  0.39385527  0.50260981  1.0
  O  O141  1  0.49238920  0.56477646  0.39645156  1.0
  O  O142  1  0.06525245  0.10917494  0.50272272  1.0
  O  O143  1  0.90404889  0.83180182  0.39618501  1.0
  O  O144  1  0.08410251  0.97080963  0.53341034  1.0
  O  O145  1  0.60437850  0.01224362  0.06958015  1.0
  O  O146  1  0.33106300  0.92073560  0.89946399  1.0
  O  O147  1  0.46504554  0.05724525  0.06948904  1.0
  O  O148  1  0.56847540  0.97869767  0.89959751  1.0
  O  O149  1  0.88909163  0.06580316  0.49137575  1.0
  O  O150  1  0.50502321  0.92043894  0.07258745  1.0
  O  O151  1  0.42519349  0.01667906  0.89489741  1.0
  O  O152  1  0.56741893  0.15206598  0.07252399  1.0
  O  O153  1  0.46972793  0.87819181  0.89498045  1.0
  O  O154  1  0.53259388  0.76116218  0.88535543  1.0
  O  O155  1  0.59948268  0.31229964  0.16737829  1.0
  O  O156  1  0.35263459  0.12404832  0.88516835  1.0
  O  O157  1  0.56791479  0.85527374  0.16774493  1.0
  O  O158  1  0.55984555  0.85263808  0.76159953  1.0
  O  O159  1  0.45816851  0.17394243  0.19219964  1.0
  O  O160  1  0.20172441  0.90877360  0.76145838  1.0
  O  O161  1  0.73395261  0.01819554  0.19214142  1.0
  O  O162  1  0.62352107  0.70583955  0.79475184  1.0
  O  O163  1  0.51019256  0.38446195  0.24613055  1.0
  O  O164  1  0.17108206  0.08869966  0.79451774  1.0
  O  O165  1  0.73597092  0.86180394  0.24637249  1.0
