# generated using pymatgen
data_AlH18C27(NO2)3
_symmetry_space_group_name_H-M   'P 1'
_cell_length_a   3.94888048
_cell_length_b   14.98762239
_cell_length_c   15.68911715
_cell_angle_alpha   62.12878624
_cell_angle_beta   86.64751585
_cell_angle_gamma   88.95613618
_symmetry_Int_Tables_number   1
_chemical_formula_structural   AlH18C27(NO2)3
_chemical_formula_sum   'Al1 H18 C27 N3 O6'
_cell_volume   819.39017584
_cell_formula_units_Z   1
loop_
 _symmetry_equiv_pos_site_id
 _symmetry_equiv_pos_as_xyz
  1  'x, y, z'
loop_
 _atom_site_type_symbol
 _atom_site_label
 _atom_site_symmetry_multiplicity
 _atom_site_fract_x
 _atom_site_fract_y
 _atom_site_fract_z
 _atom_site_occupancy
  Al  Al0  1  0.96422097  0.49176754  0.50395398  1.0
  H  H1  1  0.51312247  0.14115879  0.95820369  1.0
  H  H2  1  0.08137788  0.95884963  0.39720540  1.0
  H  H3  1  0.79026365  0.40995692  0.13182103  1.0
  H  H4  1  0.66542720  0.22663738  0.48908339  1.0
  H  H5  1  0.88143946  0.13683050  0.39684997  1.0
  H  H6  1  0.71181223  0.76931448  0.25299731  1.0
  H  H7  1  0.60810960  0.95460184  0.15238690  1.0
  H  H8  1  0.17773932  0.49831328  0.76571983  1.0
  H  H9  1  0.08486121  0.41188097  0.94583001  1.0
  H  H10  1  0.44353338  0.19074024  0.72678744  1.0
  H  H11  1  0.83837984  0.25241955  0.70981320  1.0
  H  H12  1  0.74762618  0.13686153  0.81648058  1.0
  H  H13  1  0.25088362  0.54005385  0.20593482  1.0
  H  H14  1  0.62869148  0.57459283  0.23800231  1.0
  H  H15  1  0.62744632  0.56279103  0.13007164  1.0
  H  H16  1  0.88399012  0.72265035  0.53512784  1.0
  H  H17  1  0.29539711  0.70885666  0.57601045  1.0
  H  H18  1  0.06805585  0.82234810  0.54849398  1.0
  C  C19  1  0.43140525  0.41876109  0.65381685  1.0
  C  C20  1  0.50213811  0.41651031  0.42305997  1.0
  C  C21  1  0.46557395  0.64784062  0.43108084  1.0
  C  C22  1  0.39406109  0.36706014  0.76177418  1.0
  C  C23  1  0.43509281  0.75949035  0.37917430  1.0
  C  C24  1  0.59164284  0.36712089  0.36172233  1.0
  C  C25  1  0.48955850  0.26543414  0.81458864  1.0
  C  C26  1  0.43932953  0.21941756  0.91489712  1.0
  C  C27  1  0.25980009  0.81231732  0.42284637  1.0
  C  C28  1  0.21673819  0.91580863  0.36628281  1.0
  C  C29  1  0.61859081  0.42075388  0.25993234  1.0
  C  C30  1  0.75299160  0.36989598  0.21030668  1.0
  C  C31  1  0.68470580  0.26532958  0.41040754  1.0
  C  C32  1  0.80633694  0.21553425  0.35981158  1.0
  C  C33  1  0.56855304  0.81168900  0.28329907  1.0
  C  C34  1  0.51300615  0.91433343  0.22752817  1.0
  C  C35  1  0.25302464  0.42005285  0.80852784  1.0
  C  C36  1  0.20083252  0.37240172  0.90848970  1.0
  C  C37  1  0.29317701  0.27116537  0.96254418  1.0
  C  C38  1  0.22930201  0.21836674  0.06835752  1.0
  C  C39  1  0.33079783  0.96706790  0.26887439  1.0
  C  C40  1  0.24793941  0.07510489  0.21181046  1.0
  C  C41  1  0.84965895  0.26854667  0.25875181  1.0
  C  C42  1  0.00997547  0.21714370  0.20633343  1.0
  C  C43  1  0.63835965  0.20814471  0.76441157  1.0
  C  C44  1  0.52745610  0.53048474  0.20540625  1.0
  C  C45  1  0.12120745  0.76392447  0.52622267  1.0
  N  N46  1  0.32887393  0.12153233  0.11645131  1.0
  N  N47  1  0.08852049  0.11951967  0.25976250  1.0
  N  N48  1  0.07076214  0.26953389  0.11021533  1.0
  O  O49  1  0.71703892  0.60555821  0.40996823  1.0
  O  O50  1  0.67627207  0.48115678  0.61278745  1.0
  O  O51  1  0.69995862  0.39614406  0.49172456  1.0
  O  O52  1  0.22863012  0.59911649  0.49447045  1.0
  O  O53  1  0.24729263  0.47422114  0.40669401  1.0
  O  O54  1  0.21090896  0.39660056  0.61020588  1.0
