# generated using pymatgen
data_GdH27C36N7O8
_symmetry_space_group_name_H-M   'P 1'
_cell_length_a   8.18943799
_cell_length_b   14.90305894
_cell_length_c   36.87784312
_cell_angle_alpha   89.99999902
_cell_angle_beta   90.40074545
_cell_angle_gamma   89.99993482
_symmetry_Int_Tables_number   1
_chemical_formula_structural   GdH27C36N7O8
_chemical_formula_sum   'Gd4 H108 C144 N28 O32'
_cell_volume   4500.74499557
_cell_formula_units_Z   4
loop_
 _symmetry_equiv_pos_site_id
 _symmetry_equiv_pos_as_xyz
  1  'x, y, z'
loop_
 _atom_site_type_symbol
 _atom_site_label
 _atom_site_symmetry_multiplicity
 _atom_site_fract_x
 _atom_site_fract_y
 _atom_site_fract_z
 _atom_site_occupancy
  Gd  Gd0  1  0.16644367  0.09636137  0.48743525  1.0
  Gd  Gd1  1  0.83354883  0.90363838  0.51256770  1.0
  Gd  Gd2  1  0.66644210  0.90364044  0.98743429  1.0
  Gd  Gd3  1  0.33355779  0.09635797  0.01256624  1.0
  H  H4  1  0.54484341  0.96321819  0.26230032  1.0
  H  H5  1  0.43772859  0.30395424  0.37774476  1.0
  H  H6  1  0.65252335  0.28654432  0.37468502  1.0
  H  H7  1  0.56255056  0.37331513  0.07431632  1.0
  H  H8  1  0.06714447  0.32407907  0.77498995  1.0
  H  H9  1  0.41215403  0.34562287  0.56194886  1.0
  H  H10  1  0.75893177  0.08129246  0.65627834  1.0
  H  H11  1  0.92728637  0.41009940  0.88763818  1.0
  H  H12  1  0.41553234  0.94242048  0.47541728  1.0
  H  H13  1  0.40533348  0.29954374  0.88964132  1.0
  H  H14  1  0.63053230  0.07328341  0.38292035  1.0
  H  H15  1  0.91215789  0.65438282  0.06194800  1.0
  H  H16  1  0.06255340  0.62668340  0.57431937  1.0
  H  H17  1  0.93773599  0.69604539  0.87774409  1.0
  H  H18  1  0.67424085  0.68511551  0.49155994  1.0
  H  H19  1  0.86945555  0.07328334  0.11707956  1.0
  H  H20  1  0.58446509  0.05758128  0.52458352  1.0
  H  H21  1  0.63341896  0.08121400  0.43132289  1.0
  H  H22  1  0.93285298  0.67592067  0.22500976  1.0
  H  H23  1  0.38679556  0.36092644  0.97268097  1.0
  H  H24  1  0.90533721  0.70045390  0.38964181  1.0
  H  H25  1  0.84405960  0.41655314  0.54687496  1.0
  H  H26  1  0.04970877  0.92481348  0.09198639  1.0
  H  H27  1  0.58784096  0.65437956  0.43805166  1.0
  H  H28  1  0.42728329  0.58989621  0.38763750  1.0
  H  H29  1  0.82575671  0.68511614  0.00844053  1.0
  H  H30  1  0.14369124  0.76308088  0.00491677  1.0
  H  H31  1  0.09701150  0.65720531  0.28097360  1.0
  H  H32  1  0.04483289  0.03678437  0.76230008  1.0
  H  H33  1  0.31772964  0.24891792  0.42519371  1.0
  H  H34  1  0.98436468  0.21786168  0.15141600  1.0
  H  H35  1  0.61469454  0.03341174  0.13450431  1.0
  H  H36  1  0.98026899  0.18972047  0.56587328  1.0
  H  H37  1  0.13054679  0.92671573  0.88292017  1.0
  H  H38  1  0.91553739  0.05757849  0.97541742  1.0
  H  H39  1  0.40298395  0.65720723  0.21902544  1.0
  H  H40  1  0.21773136  0.51272150  0.91462253  1.0
  H  H41  1  0.35630885  0.76308081  0.49508335  1.0
  H  H42  1  0.24106691  0.91870728  0.34372083  1.0
  H  H43  1  0.54970766  0.07519244  0.59198788  1.0
  H  H44  1  0.11469916  0.96658809  0.63450492  1.0
  H  H45  1  0.15253220  0.71345414  0.87468347  1.0
  H  H46  1  0.62181340  0.05552061  0.79314049  1.0
  H  H47  1  0.19837369  0.29697386  0.82469403  1.0
  H  H48  1  0.84747260  0.28654628  0.12531545  1.0
  H  H49  1  0.17424806  0.31488629  0.99155974  1.0
  H  H50  1  0.86657011  0.08121594  0.06867648  1.0
  H  H51  1  0.25789205  0.90143029  0.01086071  1.0
  H  H52  1  0.36657481  0.91878575  0.56867762  1.0
  H  H53  1  0.37818770  0.94447779  0.20686031  1.0
  H  H54  1  0.07271349  0.58990035  0.11236343  1.0
  H  H55  1  0.34406018  0.58344924  0.04687509  1.0
  H  H56  1  0.01973457  0.81027928  0.43412672  1.0
  H  H57  1  0.45028613  0.92480999  0.40801210  1.0
  H  H58  1  0.27010585  0.85165727  0.90498507  1.0
  H  H59  1  0.08446251  0.94241925  0.02458202  1.0
  H  H60  1  0.93744768  0.37331971  0.42568225  1.0
  H  H61  1  0.71772822  0.48727893  0.41462247  1.0
  H  H62  1  0.38530048  0.96658532  0.86549512  1.0
  H  H63  1  0.68226533  0.75108048  0.57480790  1.0
  H  H64  1  0.18226541  0.24891663  0.07480695  1.0
  H  H65  1  0.75789213  0.09856878  0.51086085  1.0
  H  H66  1  0.59701960  0.34279252  0.78097483  1.0
  H  H67  1  0.90298718  0.34279444  0.71902585  1.0
  H  H68  1  0.56713849  0.67592146  0.27499015  1.0
  H  H69  1  0.81773938  0.75108178  0.92519224  1.0
  H  H70  1  0.11320896  0.36092586  0.52732125  1.0
  H  H71  1  0.28227042  0.51272350  0.58537914  1.0
  H  H72  1  0.78226487  0.48727556  0.08537745  1.0
  H  H73  1  0.57271538  0.41010689  0.61236249  1.0
  H  H74  1  0.87817935  0.05552389  0.70685907  1.0
  H  H75  1  0.01563765  0.78213740  0.84858372  1.0
  H  H76  1  0.24210408  0.90143029  0.48913995  1.0
  H  H77  1  0.13343101  0.91878380  0.93132325  1.0
  H  H78  1  0.36945903  0.92671499  0.61708016  1.0
  H  H79  1  0.48026788  0.81027847  0.06587287  1.0
  H  H80  1  0.12181689  0.94447586  0.29314036  1.0
  H  H81  1  0.51973692  0.18971927  0.93412578  1.0
  H  H82  1  0.48436968  0.78213927  0.65141688  1.0
  H  H83  1  0.85631236  0.23692155  0.99508051  1.0
  H  H84  1  0.74210786  0.09856945  0.98913819  1.0
  H  H85  1  0.61320796  0.63907733  0.02732092  1.0
  H  H86  1  0.45515892  0.03678491  0.73769968  1.0
  H  H87  1  0.69837743  0.70302391  0.32469399  1.0
  H  H88  1  0.08784322  0.34561491  0.93805227  1.0
  H  H89  1  0.74107190  0.08128710  0.84372179  1.0
  H  H90  1  0.09466512  0.29954585  0.61035845  1.0
  H  H91  1  0.43286382  0.32408097  0.72501066  1.0
  H  H92  1  0.25893166  0.91871399  0.15627766  1.0
  H  H93  1  0.34747407  0.71345408  0.62531686  1.0
  H  H94  1  0.95029357  0.07518560  0.90801306  1.0
  H  H95  1  0.56227495  0.69604685  0.62225606  1.0
  H  H96  1  0.51563019  0.21786182  0.34858392  1.0
  H  H97  1  0.88529827  0.03341232  0.36549615  1.0
  H  H98  1  0.88679212  0.63907389  0.47268009  1.0
  H  H99  1  0.64368860  0.23691894  0.50491663  1.0
  H  H100  1  0.30162489  0.29697718  0.67530628  1.0
  H  H101  1  0.22990135  0.85165796  0.59501526  1.0
  H  H102  1  0.72989771  0.14834247  0.09501466  1.0
  H  H103  1  0.43744814  0.62668126  0.92568204  1.0
  H  H104  1  0.59466887  0.70045400  0.11035786  1.0
  H  H105  1  0.06226880  0.30395436  0.12225510  1.0
  H  H106  1  0.65593968  0.41655386  0.95312652  1.0
  H  H107  1  0.32575416  0.31488491  0.50844004  1.0
  H  H108  1  0.95516212  0.96321538  0.23769963  1.0
  H  H109  1  0.80162620  0.70302388  0.17530568  1.0
  H  H110  1  0.77009365  0.14834111  0.40498526  1.0
  H  H111  1  0.15593905  0.58344728  0.45312584  1.0
  C  C112  1  0.12037484  0.79864472  0.29115372  1.0
  C  C113  1  0.53306723  0.25295394  0.37460229  1.0
  C  C114  1  0.03307722  0.74704460  0.87460156  1.0
  C  C115  1  0.98902005  0.00829999  0.56907697  1.0
  C  C116  1  0.68407209  0.80751521  0.14556789  1.0
  C  C117  1  0.43221179  0.17815389  0.72738690  1.0
  C  C118  1  0.21692136  0.78423423  0.32389657  1.0
  C  C119  1  0.15719569  0.71021185  0.98487525  1.0
  C  C120  1  0.30131735  0.70198933  0.96506258  1.0
  C  C121  1  0.38554897  0.03844432  0.87077105  1.0
  C  C122  1  0.61444850  0.96155408  0.12922785  1.0
  C  C123  1  0.94628180  0.14707286  0.90283054  1.0
  C  C124  1  0.44627819  0.85292274  0.40282876  1.0
  C  C125  1  0.28307381  0.78424025  0.17610328  1.0
  C  C126  1  0.41381459  0.54683660  0.02660019  1.0
  C  C127  1  0.02720238  0.26465303  0.76013939  1.0
  C  C128  1  0.53095946  0.79318397  0.42553350  1.0
  C  C129  1  0.34650299  0.46848828  0.01153797  1.0
  C  C130  1  0.93605638  0.33756932  0.89086688  1.0
  C  C131  1  0.84650096  0.53151209  0.51153728  1.0
  C  C132  1  0.39732024  0.22763166  0.88464406  1.0
  C  C133  1  0.19154418  0.09868772  0.65283381  1.0
  C  C134  1  0.88554726  0.96155466  0.37077234  1.0
  C  C135  1  0.96903788  0.79318787  0.07446643  1.0
  C  C136  1  0.43503414  0.42232926  0.98471525  1.0
  C  C137  1  0.09262552  0.19458687  0.07086200  1.0
  C  C138  1  0.93450018  0.23293779  0.47239769  1.0
  C  C139  1  0.18608253  0.43731218  0.02282489  1.0
  C  C140  1  0.64455608  0.27857012  0.63295888  1.0
  C  C141  1  0.69915011  0.43191849  0.43350043  1.0
  C  C142  1  0.54508832  0.92729469  0.09740586  1.0
  C  C143  1  0.34280446  0.71021180  0.51512561  1.0
  C  C144  1  0.40736841  0.19458676  0.42913974  1.0
  C  C145  1  0.13849407  0.81565264  0.12624741  1.0
  C  C146  1  0.97554314  0.69930378  0.08055409  1.0
  C  C147  1  0.58092754  0.11501781  0.77846574  1.0
  C  C148  1  0.43450280  0.76706184  0.97239693  1.0
  C  C149  1  0.46247619  0.16614896  0.90915247  1.0
  C  C150  1  0.03551539  0.64762474  0.97815150  1.0
  C  C151  1  0.56506251  0.27605455  0.77119794  1.0
  C  C152  1  0.56394675  0.33757481  0.60913353  1.0
  C  C153  1  0.45491282  0.07270304  0.90259277  1.0
  C  C154  1  0.78307976  0.21576619  0.67610288  1.0
  C  C155  1  0.31391823  0.43731079  0.47717605  1.0
  C  C156  1  0.56779176  0.82184787  0.27261364  1.0
  C  C157  1  0.11445506  0.03844643  0.62922847  1.0
  C  C158  1  0.46448369  0.64762394  0.52184855  1.0
  C  C159  1  0.53752495  0.83384878  0.09084644  1.0
  C  C160  1  0.16790709  0.16280879  0.80475802  1.0
  C  C161  1  0.02445551  0.30069462  0.91944671  1.0
  C  C162  1  0.14717533  0.88103920  0.90606296  1.0
  C  C163  1  0.17901693  0.63149445  0.56034054  1.0
  C  C164  1  0.44741264  0.57560719  0.54700129  1.0
  C  C165  1  0.68608044  0.56268829  0.52282420  1.0
  C  C166  1  0.48826276  0.10356314  0.74721613  1.0
  C  C167  1  0.64716198  0.11895725  0.40606260  1.0
  C  C168  1  0.31592782  0.19248051  0.85443129  1.0
  C  C169  1  0.13177305  0.16946448  0.95550974  1.0
  C  C170  1  0.06505547  0.72394397  0.27119779  1.0
  C  C171  1  0.03752757  0.16615043  0.59084704  1.0
  C  C172  1  0.66790931  0.83718899  0.30475905  1.0
  C  C173  1  0.05371687  0.85292622  0.09716945  1.0
  C  C174  1  0.93503084  0.57767171  0.48471410  1.0
  C  C175  1  0.80084434  0.43191712  0.06649814  1.0
  C  C176  1  0.63176675  0.83053198  0.45550967  1.0
  C  C177  1  0.93220796  0.82184776  0.22738657  1.0
  C  C178  1  0.35283179  0.88104048  0.59393791  1.0
  C  C179  1  0.47280483  0.26465423  0.73986067  1.0
  C  C180  1  0.33209668  0.16281210  0.69524149  1.0
  C  C181  1  0.30846217  0.09868567  0.84716544  1.0
  C  C182  1  0.63849520  0.18435456  0.62624728  1.0
  C  C183  1  0.81593133  0.80751517  0.35443178  1.0
  C  C184  1  0.47554550  0.30070187  0.58055388  1.0
  C  C185  1  0.51174079  0.89643862  0.25278414  1.0
  C  C186  1  0.30084977  0.56808260  0.56650010  1.0
  C  C187  1  0.01173501  0.10356262  0.75278392  1.0
  C  C188  1  0.62038082  0.20135309  0.79115387  1.0
  C  C189  1  0.05258902  0.57560730  0.95299957  1.0
  C  C190  1  0.96448452  0.35237568  0.02184741  1.0
  C  C191  1  0.98825878  0.89643713  0.24721552  1.0
  C  C192  1  0.18407588  0.19248458  0.64556850  1.0
  C  C193  1  0.36150715  0.81564787  0.37375190  1.0
  C  C194  1  0.82098172  0.36850798  0.43966053  1.0
  C  C195  1  0.36822579  0.16947046  0.54449139  1.0
  C  C196  1  0.69153897  0.90131273  0.15283347  1.0
  C  C197  1  0.94741088  0.42439379  0.04700015  1.0
  C  C198  1  0.69868136  0.29801041  0.03493497  1.0
  C  C199  1  0.65719297  0.28978862  0.48487519  1.0
  C  C200  1  0.41907114  0.88498328  0.22153343  1.0
  C  C201  1  0.06778950  0.17815198  0.77261287  1.0
  C  C202  1  0.06497148  0.42232938  0.51528644  1.0
  C  C203  1  0.96247720  0.83384931  0.40915323  1.0
  C  C204  1  0.35544870  0.72143097  0.36704058  1.0
  C  C205  1  0.19915313  0.56808129  0.93350076  1.0
  C  C206  1  0.52720115  0.73534753  0.26014042  1.0
  C  C207  1  0.90737804  0.80540952  0.92913800  1.0
  C  C208  1  0.52445196  0.69930123  0.41944556  1.0
  C  C209  1  0.85544962  0.27856468  0.86704126  1.0
  C  C210  1  0.85282822  0.11895988  0.09393731  1.0
  C  C211  1  0.67901777  0.36850601  0.06033751  1.0
  C  C212  1  0.06394226  0.66243177  0.10913474  1.0
  C  C213  1  0.91906753  0.11501972  0.72153356  1.0
  C  C214  1  0.80131583  0.29801239  0.46506279  1.0
  C  C215  1  0.51098257  0.00829812  0.93092262  1.0
  C  C216  1  0.19868038  0.70199138  0.53493827  1.0
  C  C217  1  0.46903677  0.20681846  0.57446648  1.0
  C  C218  1  0.56496816  0.57767318  0.01528637  1.0
  C  C219  1  0.14454903  0.72143641  0.13295981  1.0
  C  C220  1  0.03096322  0.20681255  0.92553411  1.0
  C  C221  1  0.32098339  0.63149239  0.93966032  1.0
  C  C222  1  0.55258724  0.42439323  0.45299897  1.0
  C  C223  1  0.83209037  0.83718961  0.19524115  1.0
  C  C224  1  0.56550447  0.23293657  0.02760063  1.0
  C  C225  1  0.71692607  0.21576151  0.82389726  1.0
  C  C226  1  0.43494105  0.72394788  0.22880206  1.0
  C  C227  1  0.08618473  0.54683535  0.47340021  1.0
  C  C228  1  0.86150703  0.18434845  0.87375312  1.0
  C  C229  1  0.81391856  0.56268891  0.97717619  1.0
  C  C230  1  0.96692513  0.25295515  0.12539735  1.0
  C  C231  1  0.95490996  0.92729590  0.40259434  1.0
  C  C232  1  0.43605437  0.66242695  0.39086565  1.0
  C  C233  1  0.89732016  0.77236665  0.38464481  1.0
  C  C234  1  0.93494198  0.27605578  0.72880220  1.0
  C  C235  1  0.04509358  0.07270384  0.59740648  1.0
  C  C236  1  0.58618650  0.45316583  0.97340116  1.0
  C  C237  1  0.37962152  0.79865001  0.20884586  1.0
  C  C238  1  0.48901980  0.99169894  0.06907548  1.0
  C  C239  1  0.97279508  0.73534672  0.23985978  1.0
  C  C240  1  0.84280790  0.28978991  0.01512286  1.0
  C  C241  1  0.55371805  0.14707969  0.59717067  1.0
  C  C242  1  0.87962261  0.20135637  0.70884626  1.0
  C  C243  1  0.53551253  0.35237514  0.47815171  1.0
  C  C244  1  0.10268461  0.22763376  0.61535546  1.0
  C  C245  1  0.46693264  0.74704648  0.62539878  1.0
  C  C246  1  0.86822805  0.83053258  0.04449107  1.0
  C  C247  1  0.60268333  0.77236675  0.11535486  1.0
  C  C248  1  0.06549726  0.76706263  0.52760284  1.0
  C  C249  1  0.01097372  0.99169975  0.43092381  1.0
  C  C250  1  0.08092626  0.88498070  0.27846614  1.0
  C  C251  1  0.15349770  0.46848766  0.48846352  1.0
  C  C252  1  0.65349932  0.53151281  0.98846366  1.0
  C  C253  1  0.59263264  0.80540426  0.57086350  1.0
  C  C254  1  0.91381271  0.45316574  0.52660005  1.0
  C  C255  1  0.80846426  0.90131336  0.34716620  1.0
  N  N256  1  0.61713167  0.63756019  0.50747534  1.0
  N  N257  1  0.72763512  0.14684479  0.65426094  1.0
  N  N258  1  0.22763637  0.85316303  0.15426026  1.0
  N  N259  1  0.77236474  0.14683806  0.84573973  1.0
  N  N260  1  0.88286962  0.63756144  0.99252452  1.0
  N  N261  1  0.73421902  0.29581487  0.66396347  1.0
  N  N262  1  0.26578455  0.70418622  0.33603545  1.0
  N  N263  1  0.78405187  0.91749059  0.18359351  1.0
  N  N264  1  0.58696355  0.52339974  0.54693019  1.0
  N  N265  1  0.21594926  0.08250781  0.81640540  1.0
  N  N266  1  0.02511759  0.81025310  0.90447283  1.0
  N  N267  1  0.38286823  0.36243889  0.49252411  1.0
  N  N268  1  0.47489093  0.81025498  0.59552669  1.0
  N  N269  1  0.11713514  0.36244032  0.00747630  1.0
  N  N270  1  0.77303970  0.76890700  0.17326792  1.0
  N  N271  1  0.22696020  0.23109207  0.82673153  1.0
  N  N272  1  0.72696380  0.76890702  0.32673175  1.0
  N  N273  1  0.23420834  0.70419160  0.16396439  1.0
  N  N274  1  0.41303389  0.47660202  0.45307033  1.0
  N  N275  1  0.91303430  0.52339896  0.95307047  1.0
  N  N276  1  0.27236356  0.85315832  0.34573824  1.0
  N  N277  1  0.28405957  0.08251048  0.68359359  1.0
  N  N278  1  0.27304220  0.23109474  0.67326798  1.0
  N  N279  1  0.08696314  0.47660213  0.04692979  1.0
  N  N280  1  0.71594886  0.91748994  0.31640669  1.0
  N  N281  1  0.76578664  0.29580949  0.83603694  1.0
  N  N282  1  0.97488718  0.18974396  0.09552717  1.0
  N  N283  1  0.52510410  0.18974477  0.40447248  1.0
  O  O284  1  0.70196553  0.04467181  0.52066165  1.0
  O  O285  1  0.11297112  0.08788661  0.96568997  1.0
  O  O286  1  0.59650394  0.94053624  0.92300102  1.0
  O  O287  1  0.29803068  0.95532861  0.47933915  1.0
  O  O288  1  0.38703274  0.08789122  0.53431307  1.0
  O  O289  1  0.10300306  0.14114482  0.04464288  1.0
  O  O290  1  0.96760103  0.97766073  0.46408592  1.0
  O  O291  1  0.90745486  0.16764784  0.49491260  1.0
  O  O292  1  0.92635791  0.76065294  0.54240516  1.0
  O  O293  1  0.88703119  0.91211113  0.03431111  1.0
  O  O294  1  0.09253770  0.83235257  0.50508764  1.0
  O  O295  1  0.09649703  0.05946360  0.42300304  1.0
  O  O296  1  0.24059171  0.21800818  0.97141897  1.0
  O  O297  1  0.07363833  0.23934882  0.45759428  1.0
  O  O298  1  0.59255115  0.16764795  0.00508546  1.0
  O  O299  1  0.61295736  0.91210919  0.46568825  1.0
  O  O300  1  0.25940460  0.21801019  0.52858134  1.0
  O  O301  1  0.57363947  0.76065304  0.95759441  1.0
  O  O302  1  0.39699588  0.14115009  0.45535752  1.0
  O  O303  1  0.03238542  0.02234036  0.53591404  1.0
  O  O304  1  0.74058306  0.78198620  0.47141971  1.0
  O  O305  1  0.40745489  0.83235113  0.99491238  1.0
  O  O306  1  0.60300648  0.85885234  0.54464112  1.0
  O  O307  1  0.90350405  0.94053749  0.57699831  1.0
  O  O308  1  0.20196413  0.95532663  0.02066096  1.0
  O  O309  1  0.79803578  0.04467043  0.97933821  1.0
  O  O310  1  0.75940938  0.78198822  0.02858211  1.0
  O  O311  1  0.89699926  0.85885225  0.95535766  1.0
  O  O312  1  0.53238129  0.97765953  0.03591261  1.0
  O  O313  1  0.42636412  0.23934201  0.04240369  1.0
  O  O314  1  0.46761497  0.02233955  0.96408574  1.0
  O  O315  1  0.40350208  0.05946216  0.07699736  1.0
