# generated using pymatgen
data_ZnH13C16(NO2)2
_symmetry_space_group_name_H-M   'P 1'
_cell_length_a   11.28570732
_cell_length_b   14.06557385
_cell_length_c   15.34737696
_cell_angle_alpha   91.57123620
_cell_angle_beta   91.40986869
_cell_angle_gamma   108.79692993
_symmetry_Int_Tables_number   1
_chemical_formula_structural   ZnH13C16(NO2)2
_chemical_formula_sum   'Zn2 H26 C32 N4 O8'
_cell_volume   2304.00162355
_cell_formula_units_Z   2
loop_
 _symmetry_equiv_pos_site_id
 _symmetry_equiv_pos_as_xyz
  1  'x, y, z'
loop_
 _atom_site_type_symbol
 _atom_site_label
 _atom_site_symmetry_multiplicity
 _atom_site_fract_x
 _atom_site_fract_y
 _atom_site_fract_z
 _atom_site_occupancy
  Zn  Zn0  1  0.47449686  0.38963863  0.50532335  1.0
  Zn  Zn1  1  0.51016451  0.60311074  0.50345814  1.0
  H  H2  1  0.12225912  0.58044477  0.51001337  1.0
  H  H3  1  0.39954828  0.60777196  0.23090962  1.0
  H  H4  1  0.54893281  0.65769574  0.95335420  1.0
  H  H5  1  0.56729035  0.38227583  0.05625566  1.0
  H  H6  1  0.69133196  0.99343793  0.55557365  1.0
  H  H7  1  0.38075948  0.02177755  0.38363986  1.0
  H  H8  1  0.33533684  0.70050816  0.45731451  1.0
  H  H9  1  0.58077223  0.27567348  0.61421201  1.0
  H  H10  1  0.50746601  0.71486172  0.74507968  1.0
  H  H11  1  0.61212465  0.75433717  0.83826310  1.0
  H  H12  1  0.65634716  0.70162035  0.74203655  1.0
  H  H13  1  0.86355398  0.40793321  0.50425117  1.0
  H  H14  1  0.65898584  0.39799884  0.28334283  1.0
  H  H15  1  0.53048268  0.29218236  0.25210759  1.0
  H  H16  1  0.65492011  0.33689021  0.17938010  1.0
  H  H17  1  0.73458401  0.74546373  0.54758691  1.0
  H  H18  1  0.80117136  0.87397086  0.57453454  1.0
  H  H19  1  0.32234781  0.15397561  0.31781989  1.0
  H  H20  1  0.37488825  0.27776836  0.35903589  1.0
  H  H21  1  0.30929881  0.87031403  0.45492457  1.0
  H  H22  1  0.60092253  0.10445020  0.62495018  1.0
  H  H23  1  0.05418650  0.34961845  0.50262380  1.0
  H  H24  1  0.93411821  0.63883159  0.51411776  1.0
  H  H25  1  0.40473509  0.33498422  0.93406260  1.0
  H  H26  1  0.38697760  0.60888998  0.06840786  1.0
  H  H27  1  0.41878951  0.34280222  0.77221592  1.0
  C  C28  1  0.49624677  0.49960945  0.67422898  1.0
  C  C29  1  0.53855220  0.21661722  0.56457755  1.0
  C  C30  1  0.39812542  0.86222616  0.47620181  1.0
  C  C31  1  0.54999839  0.12201893  0.56990829  1.0
  C  C32  1  0.50007975  0.94624648  0.50544406  1.0
  C  C33  1  0.49099219  0.04872178  0.50416261  1.0
  C  C34  1  0.73834214  0.53974840  0.50667296  1.0
  C  C35  1  0.24909309  0.44992796  0.50178012  1.0
  C  C36  1  0.87548945  0.56000537  0.51020621  1.0
  C  C37  1  0.11157347  0.42873305  0.50375818  1.0
  C  C38  1  0.92691178  0.48550489  0.50778891  1.0
  C  C39  1  0.48814220  0.49564936  0.33221412  1.0
  C  C40  1  0.05945352  0.50269415  0.50771482  1.0
  C  C41  1  0.44000249  0.40723133  0.90324613  1.0
  C  C42  1  0.42867808  0.55875573  0.10095550  1.0
  C  C43  1  0.44741923  0.41144084  0.81319576  1.0
  C  C44  1  0.43462691  0.55760896  0.19148943  1.0
  C  C45  1  0.49106696  0.50347925  0.77175697  1.0
  C  C46  1  0.48553509  0.49224754  0.23457034  1.0
  C  C47  1  0.52734718  0.59448890  0.82257655  1.0
  C  C48  1  0.53372455  0.42723413  0.18580735  1.0
  C  C49  1  0.51807826  0.58821577  0.91322144  1.0
  C  C50  1  0.47611052  0.49646445  0.95493200  1.0
  C  C51  1  0.52668635  0.42971016  0.09478658  1.0
  C  C52  1  0.57876911  0.69700136  0.78526978  1.0
  C  C53  1  0.59807245  0.36026322  0.22726941  1.0
  C  C54  1  0.47521478  0.49434895  0.05106425  1.0
  C  C55  1  0.60950045  0.93032438  0.53423105  1.0
  C  C56  1  0.42462527  0.07533197  0.43696244  1.0
  C  C57  1  0.61781280  0.83192100  0.53293971  1.0
  C  C58  1  0.41820231  0.17400669  0.43473665  1.0
  C  C59  1  0.41169122  0.76820101  0.47771976  1.0
  N  N60  1  0.51800164  0.75198267  0.50521167  1.0
  N  N61  1  0.47447785  0.24306719  0.49924037  1.0
  N  N62  1  0.72398777  0.81456517  0.55962945  1.0
  N  N63  1  0.35545491  0.20242317  0.36933198  1.0
  O  O64  1  0.49264352  0.41591340  0.63769281  1.0
  O  O65  1  0.51441850  0.58145463  0.37043060  1.0
  O  O66  1  0.50247723  0.57921743  0.63433997  1.0
  O  O67  1  0.46258646  0.41209652  0.37059228  1.0
  O  O68  1  0.66747637  0.44914530  0.49761244  1.0
  O  O69  1  0.31754501  0.54100147  0.49388352  1.0
  O  O70  1  0.70070490  0.61668046  0.51220603  1.0
  O  O71  1  0.28753303  0.37430718  0.50809443  1.0
