# generated using pymatgen
data_Al2H8C17S2(NO7)2
_symmetry_space_group_name_H-M   'P 1'
_cell_length_a   6.97872627
_cell_length_b   11.09769664
_cell_length_c   12.66250585
_cell_angle_alpha   92.89287794
_cell_angle_beta   104.98170944
_cell_angle_gamma   107.28529223
_symmetry_Int_Tables_number   1
_chemical_formula_structural   Al2H8C17S2(NO7)2
_chemical_formula_sum   'Al2 H8 C17 S2 N2 O14'
_cell_volume   895.90959936
_cell_formula_units_Z   1
loop_
 _symmetry_equiv_pos_site_id
 _symmetry_equiv_pos_as_xyz
  1  'x, y, z'
loop_
 _atom_site_type_symbol
 _atom_site_label
 _atom_site_symmetry_multiplicity
 _atom_site_fract_x
 _atom_site_fract_y
 _atom_site_fract_z
 _atom_site_occupancy
  Al  Al0  1  0.99852443  0.49943021  0.49722405  1.0
  Al  Al1  1  0.49873484  0.49928163  0.49941775  1.0
  H  H2  1  0.13495166  0.35663482  0.40312243  1.0
  H  H3  1  0.86302344  0.64545248  0.58802343  1.0
  H  H4  1  0.12244502  0.88269823  0.47082724  1.0
  H  H5  1  0.87587223  0.11635224  0.52663325  1.0
  H  H6  1  0.86596840  0.48074938  0.13959931  1.0
  H  H7  1  0.99281442  0.51172125  0.77253347  1.0
  H  H8  1  0.96820400  0.43056734  0.88836451  1.0
  H  H9  1  0.06144120  0.59917460  0.90629438  1.0
  C  C10  1  0.65040206  0.49346866  0.30373535  1.0
  C  C11  1  0.64883604  0.27544642  0.50314081  1.0
  C  C12  1  0.34380041  0.50436800  0.69324095  1.0
  C  C13  1  0.34870588  0.72349715  0.49399171  1.0
  C  C14  1  0.57187121  0.13400724  0.50334947  1.0
  C  C15  1  0.42637381  0.86499908  0.49421429  1.0
  C  C16  1  0.36099301  0.06604237  0.48921349  1.0
  C  C17  1  0.63733187  0.93302180  0.50862621  1.0
  C  C18  1  0.28745046  0.93467463  0.48379939  1.0
  C  C19  1  0.71090184  0.06437972  0.51387092  1.0
  C  C20  1  0.28034982  0.50741642  0.88586491  1.0
  C  C21  1  0.70968529  0.48892126  0.11222526  1.0
  C  C22  1  0.39518553  0.49995966  0.81248074  1.0
  C  C23  1  0.59319540  0.49645910  0.18434868  1.0
  C  C24  1  0.59693311  0.49286605  0.00300272  1.0
  C  C25  1  0.39755940  0.50356152  0.99436458  1.0
  C  C26  1  0.06447179  0.51330218  0.86039428  1.0
  S  S27  1  0.63870345  0.48692350  0.87508330  1.0
  S  S28  1  0.34793236  0.50835950  0.12051812  1.0
  N  N29  1  0.20676753  0.13311096  0.48572065  1.0
  N  N30  1  0.79108874  0.86561256  0.51204421  1.0
  O  O31  1  0.82894284  0.48157399  0.34887731  1.0
  O  O32  1  0.50990137  0.32980730  0.49383730  1.0
  O  O33  1  0.48498432  0.49663401  0.64783171  1.0
  O  O34  1  0.15606854  0.67262346  0.48551459  1.0
  O  O35  1  0.16810243  0.51820213  0.64510316  1.0
  O  O36  1  0.48776806  0.66896674  0.50508559  1.0
  O  O37  1  0.51190938  0.50098250  0.35097150  1.0
  O  O38  1  0.84055643  0.32654686  0.50968977  1.0
  O  O39  1  0.19659170  0.43951969  0.44860284  1.0
  O  O40  1  0.80145816  0.55931579  0.54830233  1.0
  O  O41  1  0.19174363  0.16894460  0.57644614  1.0
  O  O42  1  0.09757239  0.14253877  0.39448047  1.0
  O  O43  1  0.90015355  0.85576725  0.60323758  1.0
  O  O44  1  0.80547300  0.82933238  0.42132575  1.0
