# generated using pymatgen
data_ZnP2H6(C3O4)2
_symmetry_space_group_name_H-M   'P 1'
_cell_length_a   9.21595166
_cell_length_b   10.50690209
_cell_length_c   10.50691468
_cell_angle_alpha   83.85780912
_cell_angle_beta   79.12888819
_cell_angle_gamma   79.12872913
_symmetry_Int_Tables_number   1
_chemical_formula_structural   ZnP2H6(C3O4)2
_chemical_formula_sum   'Zn2 P4 H12 C12 O16'
_cell_volume   978.51213588
_cell_formula_units_Z   2
loop_
 _symmetry_equiv_pos_site_id
 _symmetry_equiv_pos_as_xyz
  1  'x, y, z'
loop_
 _atom_site_type_symbol
 _atom_site_label
 _atom_site_symmetry_multiplicity
 _atom_site_fract_x
 _atom_site_fract_y
 _atom_site_fract_z
 _atom_site_occupancy
  Zn  Zn0  1  0.25000013  0.02624741  0.97375229  1.0
  Zn  Zn1  1  0.75000031  0.97375208  0.02624705  1.0
  P  P2  1  0.01241663  0.04971009  0.79111141  1.0
  P  P3  1  0.48758389  0.20888947  0.95028949  1.0
  P  P4  1  0.98758491  0.95028940  0.20888871  1.0
  P  P5  1  0.51241635  0.79111100  0.04971074  1.0
  H  H6  1  0.99403868  0.26186158  0.76966642  1.0
  H  H7  1  0.50596153  0.23033450  0.73813824  1.0
  H  H8  1  0.00596027  0.73813985  0.23033487  1.0
  H  H9  1  0.49403982  0.76966596  0.26186181  1.0
  H  H10  1  0.27482477  0.96401238  0.66246681  1.0
  H  H11  1  0.22517444  0.33753413  0.03598789  1.0
  H  H12  1  0.72517548  0.03598809  0.33753342  1.0
  H  H13  1  0.77482489  0.66246537  0.96401259  1.0
  H  H14  1  0.77125167  0.08877799  0.65158072  1.0
  H  H15  1  0.72874718  0.34841932  0.91121869  1.0
  H  H16  1  0.22874857  0.91122248  0.34841951  1.0
  H  H17  1  0.27125215  0.65158018  0.08878083  1.0
  C  C18  1  0.14243241  0.97159997  0.54042113  1.0
  C  C19  1  0.35756774  0.45957952  0.02840110  1.0
  C  C20  1  0.85756857  0.02840243  0.45957877  1.0
  C  C21  1  0.64243141  0.54042095  0.97159836  1.0
  C  C22  1  0.01146944  0.02304210  0.62615670  1.0
  C  C23  1  0.48853021  0.37384340  0.97695713  1.0
  C  C24  1  0.98853154  0.97696030  0.37384321  1.0
  C  C25  1  0.51146894  0.62615707  0.02304137  1.0
  C  C26  1  0.87203902  0.05032945  0.58498129  1.0
  C  C27  1  0.62796129  0.41501816  0.94966845  1.0
  C  C28  1  0.12796306  0.94967296  0.41501844  1.0
  C  C29  1  0.37203805  0.58498134  0.05033013  1.0
  O  O30  1  0.93466024  0.19813425  0.81558594  1.0
  O  O31  1  0.56533978  0.18441329  0.80186570  1.0
  O  O32  1  0.06533889  0.80186622  0.18441542  1.0
  O  O33  1  0.43466176  0.81558620  0.19813442  1.0
  O  O34  1  0.17754924  0.02951968  0.80742088  1.0
  O  O35  1  0.32245087  0.19257897  0.97048051  1.0
  O  O36  1  0.82245081  0.97048176  0.19257928  1.0
  O  O37  1  0.67754956  0.80742052  0.02951979  1.0
  O  O38  1  0.91443750  0.96719153  0.88228919  1.0
  O  O39  1  0.58556232  0.11771084  0.03280884  1.0
  O  O40  1  0.08556256  0.03280991  0.11771097  1.0
  O  O41  1  0.41443811  0.88228865  0.96719146  1.0
  O  O42  1  0.28193928  0.94130975  0.57205459  1.0
  O  O43  1  0.21805973  0.42794567  0.05869134  1.0
  O  O44  1  0.71806096  0.05869072  0.42794564  1.0
  O  O45  1  0.78193960  0.57205382  0.94130818  1.0
