# generated using pymatgen
data_Al2H9C20S2N(ClO5)2
_symmetry_space_group_name_H-M   'P 1'
_cell_length_a   6.63166857
_cell_length_b   11.08122861
_cell_length_c   12.48447687
_cell_angle_alpha   93.91255261
_cell_angle_beta   101.61908980
_cell_angle_gamma   106.79178567
_symmetry_Int_Tables_number   1
_chemical_formula_structural   Al2H9C20S2N(ClO5)2
_chemical_formula_sum   'Al2 H9 C20 S2 N1 Cl2 O10'
_cell_volume   852.47585665
_cell_formula_units_Z   1
loop_
 _symmetry_equiv_pos_site_id
 _symmetry_equiv_pos_as_xyz
  1  'x, y, z'
loop_
 _atom_site_type_symbol
 _atom_site_label
 _atom_site_symmetry_multiplicity
 _atom_site_fract_x
 _atom_site_fract_y
 _atom_site_fract_z
 _atom_site_occupancy
  Al  Al0  1  0.01226205  0.50284693  0.50492751  1.0
  Al  Al1  1  0.51252708  0.49816365  0.50647008  1.0
  H  H2  1  0.36720089  0.65967311  0.55940642  1.0
  H  H3  1  0.66713989  0.41410709  0.37308992  1.0
  H  H4  1  0.77107731  0.42476657  0.15897517  1.0
  H  H5  1  0.51408785  0.75255920  0.36433375  1.0
  H  H6  1  0.74921486  0.22359780  0.38513997  1.0
  H  H7  1  0.37747541  0.12803403  0.57471070  1.0
  H  H8  1  0.25838079  0.89136009  0.56792556  1.0
  H  H9  1  0.43791026  0.56114898  0.88109172  1.0
  H  H10  1  0.27124754  0.56078098  0.75384423  1.0
  C  C11  1  0.87270199  0.72749957  0.49217220  1.0
  C  C12  1  0.83426393  0.50418546  0.70124941  1.0
  C  C13  1  0.14189870  0.27567297  0.50629226  1.0
  C  C14  1  0.18362595  0.48462093  0.30529306  1.0
  C  C15  1  0.11453670  0.52234749  0.87747896  1.0
  C  C16  1  0.91149927  0.45230065  0.12328304  1.0
  C  C17  1  0.89870973  0.49419145  0.81648889  1.0
  C  C18  1  0.12149967  0.48208630  0.18550682  1.0
  C  C19  1  0.90823741  0.46447213  0.01147970  1.0
  C  C20  1  0.11566172  0.50442671  0.98998630  1.0
  C  C21  1  0.93164391  0.86670505  0.48433281  1.0
  C  C22  1  0.77954864  0.92613139  0.43237581  1.0
  C  C23  1  0.14369237  0.93911057  0.53199206  1.0
  C  C24  1  0.56852557  0.85576240  0.37057309  1.0
  C  C25  1  0.43041687  0.91538866  0.31544476  1.0
  C  C26  1  0.06460827  0.13384883  0.49371544  1.0
  C  C27  1  0.21061454  0.07200300  0.53640447  1.0
  C  C28  1  0.84759994  0.06241674  0.43763997  1.0
  C  C29  1  0.70125098  0.12083512  0.38111926  1.0
  C  C30  1  0.49824827  0.05012158  0.32060361  1.0
  S  S31  1  0.70588387  0.44392043  0.89470642  1.0
  S  S32  1  0.31557949  0.52482169  0.10804788  1.0
  N  N33  1  0.29343189  0.56463695  0.83737523  1.0
  Cl  Cl34  1  0.17767624  0.82559875  0.23952533  1.0
  Cl  Cl35  1  0.33075990  0.12663480  0.25030210  1.0
  O  O36  1  0.01451398  0.67364172  0.48087626  1.0
  O  O37  1  0.63398075  0.48376655  0.65550096  1.0
  O  O38  1  0.33063927  0.32746809  0.49194449  1.0
  O  O39  1  0.02871624  0.46469560  0.35501257  1.0
  O  O40  1  0.01555854  0.33506316  0.53055374  1.0
  O  O41  1  0.38363842  0.50625820  0.35076270  1.0
  O  O42  1  0.68975504  0.67382256  0.51351886  1.0
  O  O43  1  0.98832427  0.53649064  0.65013162  1.0
  O  O44  1  0.31429586  0.56747847  0.55312421  1.0
  O  O45  1  0.71265574  0.43982829  0.45223797  1.0
