# generated using pymatgen
data_ZnH18C25N4O5
_symmetry_space_group_name_H-M   'P 1'
_cell_length_a   14.09124278
_cell_length_b   16.32107559
_cell_length_c   19.73518136
_cell_angle_alpha   104.54448346
_cell_angle_beta   89.99890453
_cell_angle_gamma   89.99979183
_symmetry_Int_Tables_number   1
_chemical_formula_structural   ZnH18C25N4O5
_chemical_formula_sum   'Zn4 H72 C100 N16 O20'
_cell_volume   4393.32616219
_cell_formula_units_Z   4
loop_
 _symmetry_equiv_pos_site_id
 _symmetry_equiv_pos_as_xyz
  1  'x, y, z'
loop_
 _atom_site_type_symbol
 _atom_site_label
 _atom_site_symmetry_multiplicity
 _atom_site_fract_x
 _atom_site_fract_y
 _atom_site_fract_z
 _atom_site_occupancy
  Zn  Zn0  1  0.56703960  0.74330519  0.66382056  1.0
  Zn  Zn1  1  0.93294694  0.24331528  0.16382346  1.0
  Zn  Zn2  1  0.43297593  0.25670211  0.33618221  1.0
  Zn  Zn3  1  0.06702672  0.75669203  0.83617983  1.0
  H  H4  1  0.73042719  0.94448801  0.29167221  1.0
  H  H5  1  0.44467248  0.43880509  0.57856383  1.0
  H  H6  1  0.91816258  0.46171396  0.07615505  1.0
  H  H7  1  0.32566216  0.39550282  0.49710352  1.0
  H  H8  1  0.76955367  0.44449228  0.79166896  1.0
  H  H9  1  0.51146740  0.91961396  0.74950274  1.0
  H  H10  1  0.61836581  0.06464441  0.50596849  1.0
  H  H11  1  0.75788746  0.64835542  0.97905489  1.0
  H  H12  1  0.72090078  0.54359532  0.72134881  1.0
  H  H13  1  0.79292682  0.87712368  0.36857036  1.0
  H  H14  1  0.05531642  0.93881040  0.07856690  1.0
  H  H15  1  0.88163068  0.56464909  0.00596291  1.0
  H  H16  1  0.17433774  0.89550457  0.99710010  1.0
  H  H17  1  0.17444509  0.22180650  0.34665005  1.0
  H  H18  1  0.74718783  0.27397620  0.93780555  1.0
  H  H19  1  0.42780329  0.67403439  0.74203274  1.0
  H  H20  1  0.77908153  0.04359647  0.22135093  1.0
  H  H21  1  0.07219656  0.17404411  0.24203491  1.0
  H  H22  1  0.78713327  0.24789003  0.40654694  1.0
  H  H23  1  0.08991321  0.47874262  0.35432294  1.0
  H  H24  1  0.74213222  0.14834673  0.47906307  1.0
  H  H25  1  0.23719336  0.32997564  0.42918218  1.0
  H  H26  1  0.71289290  0.74790224  0.90653909  1.0
  H  H27  1  0.20314881  0.12275198  0.99351984  1.0
  H  H28  1  0.09177980  0.23200283  0.06152912  1.0
  H  H29  1  0.32554963  0.72178999  0.84664887  1.0
  H  H30  1  0.94976516  0.05612305  0.14291104  1.0
  H  H31  1  0.98853243  0.41961854  0.24949765  1.0
  H  H32  1  0.40822179  0.73200150  0.56152845  1.0
  H  H33  1  0.41007879  0.97872165  0.85432830  1.0
  H  H34  1  0.26280082  0.82998429  0.92919267  1.0
  H  H35  1  0.58182467  0.96170059  0.57615077  1.0
  H  H36  1  0.75282035  0.77397871  0.43781040  1.0
  H  H37  1  0.70708988  0.37711831  0.86856394  1.0
  H  H38  1  0.55022061  0.55611563  0.64290640  1.0
  H  H39  1  0.29684666  0.62275732  0.49352113  1.0
  H  H40  1  0.59177601  0.26800897  0.43848309  1.0
  H  H41  1  0.91009806  0.52127481  0.64566015  1.0
  H  H42  1  0.41816106  0.03829215  0.42384443  1.0
  H  H43  1  0.05021419  0.94388109  0.85710070  1.0
  H  H44  1  0.67447797  0.27820403  0.15335165  1.0
  H  H45  1  0.25281209  0.72602604  0.06219618  1.0
  H  H46  1  0.82566503  0.10449894  0.00289530  1.0
  H  H47  1  0.57222218  0.32597544  0.25797107  1.0
  H  H48  1  0.24718809  0.22601530  0.56219164  1.0
  H  H49  1  0.55534873  0.56120032  0.42144008  1.0
  H  H50  1  0.21285530  0.75208436  0.59344140  1.0
  H  H51  1  0.24212098  0.35163479  0.02094738  1.0
  H  H52  1  0.90822083  0.76800257  0.93848340  1.0
  H  H53  1  0.70316533  0.37725125  0.50648343  1.0
  H  H54  1  0.29291218  0.62287570  0.13142999  1.0
  H  H55  1  0.20709297  0.12286527  0.63142607  1.0
  H  H56  1  0.92778066  0.82596699  0.75797220  1.0
  H  H57  1  0.48851053  0.08040284  0.25048580  1.0
  H  H58  1  0.23044129  0.55550299  0.20832878  1.0
  H  H59  1  0.25787693  0.85163019  0.52093339  1.0
  H  H60  1  0.27910270  0.45640375  0.27865328  1.0
  H  H61  1  0.01146962  0.58039129  0.75049147  1.0
  H  H62  1  0.94465441  0.06119754  0.92143551  1.0
  H  H63  1  0.82553426  0.77820966  0.65335559  1.0
  H  H64  1  0.67434132  0.60450069  0.50289695  1.0
  H  H65  1  0.22091485  0.95638425  0.77864328  1.0
  H  H66  1  0.58989701  0.02128249  0.14565862  1.0
  H  H67  1  0.73721543  0.17002111  0.07081681  1.0
  H  H68  1  0.38162063  0.93534327  0.49401045  1.0
  H  H69  1  0.08183734  0.53829968  0.92385563  1.0
  H  H70  1  0.76279024  0.67001584  0.57081376  1.0
  H  H71  1  0.11837776  0.43535125  0.99402322  1.0
  H  H72  1  0.26957061  0.05548258  0.70832041  1.0
  H  H73  1  0.44978641  0.44389167  0.35710651  1.0
  H  H74  1  0.28713542  0.25209621  0.09346134  1.0
  H  H75  1  0.79683266  0.87725405  0.00648420  1.0
  C  C76  1  0.68144763  0.71193066  0.76795731  1.0
  C  C77  1  0.13798951  0.02123621  0.02991817  1.0
  C  C78  1  0.06576468  0.00322975  0.07359751  1.0
  C  C79  1  0.72940171  0.56617577  0.77781336  1.0
  C  C80  1  0.79146320  0.47850410  0.93216347  1.0
  C  C81  1  0.36664198  0.76768875  0.82726712  1.0
  C  C82  1  0.77642056  0.33783400  0.95210159  1.0
  C  C83  1  0.77059532  0.06616939  0.27781556  1.0
  C  C84  1  0.72358059  0.83783041  0.45209798  1.0
  C  C85  1  0.14029222  0.35481411  0.35951564  1.0
  C  C86  1  0.75485862  0.39557751  0.91329621  1.0
  C  C87  1  0.14792393  0.10578084  0.02580242  1.0
  C  C88  1  0.83506382  0.36127959  0.01125580  1.0
  C  C89  1  0.77367076  0.18117131  0.38233818  1.0
  C  C90  1  0.35207206  0.60578121  0.52580337  1.0
  C  C91  1  0.42290188  0.74098099  0.76877335  1.0
  C  C92  1  0.74387121  0.01075610  0.31754813  1.0
  C  C93  1  0.26396418  0.95871582  0.94471531  1.0
  C  C94  1  0.85524614  0.29885945  0.05315212  1.0
  C  C95  1  0.62787378  0.94370188  0.53045093  1.0
  C  C96  1  0.76721027  0.53906071  0.89054289  1.0
  C  C97  1  0.74514544  0.89557122  0.41329681  1.0
  C  C98  1  0.00693107  0.06748420  0.10906477  1.0
  C  C99  1  0.64474313  0.79884117  0.55313684  1.0
  C  C100  1  0.08673084  0.41105028  0.33127240  1.0
  C  C101  1  0.71406817  0.65200447  0.80978174  1.0
  C  C102  1  0.43422337  0.50322505  0.57359629  1.0
  C  C103  1  0.64929244  0.00136304  0.49134940  1.0
  C  C104  1  0.81855613  0.21191948  0.26796241  1.0
  C  C105  1  0.03129300  0.37818456  0.27278385  1.0
  C  C106  1  0.13334383  0.26770242  0.32727232  1.0
  C  C107  1  0.35969734  0.85480049  0.85951258  1.0
  C  C108  1  0.23602691  0.45870084  0.44472886  1.0
  C  C109  1  0.41431292  0.66590104  0.56330383  1.0
  C  C110  1  0.72634782  0.68118214  0.88232985  1.0
  C  C111  1  0.08568180  0.16590179  0.06330547  1.0
  C  C112  1  0.74772799  0.12548139  0.42226310  1.0
  C  C113  1  0.75612215  0.51076037  0.81754513  1.0
  C  C114  1  0.85070696  0.50136658  0.99134395  1.0
  C  C115  1  0.36199891  0.52123270  0.52991667  1.0
  C  C116  1  0.46871083  0.87817263  0.77278674  1.0
  C  C117  1  0.70854072  0.97850062  0.43217073  1.0
  C  C118  1  0.78594821  0.15199607  0.30979141  1.0
  C  C119  1  0.66492772  0.86127002  0.51125066  1.0
  C  C120  1  0.41326633  0.91103372  0.83127305  1.0
  C  C121  1  0.87212116  0.44370674  0.03045154  1.0
  C  C122  1  0.49305433  0.56747967  0.60906328  1.0
  C  C123  1  0.07709555  0.24099130  0.26877660  1.0
  C  C124  1  0.73279734  0.03905019  0.39054728  1.0
  C  C125  1  0.75228904  0.62549266  0.92225400  1.0
  C  C126  1  0.91430180  0.83410045  0.93670031  1.0
  C  C127  1  0.28596014  0.34799777  0.19021644  1.0
  C  C128  1  0.85970700  0.64519889  0.64047818  1.0
  C  C129  1  0.50696050  0.43252826  0.39094216  1.0
  C  C130  1  0.24387778  0.48923490  0.18245262  1.0
  C  C131  1  0.99303834  0.93251994  0.89093583  1.0
  C  C132  1  0.16492971  0.63873341  0.98875323  1.0
  C  C133  1  0.23280385  0.46093457  0.10945485  1.0
  C  C134  1  0.63801804  0.47877081  0.47008026  1.0
  C  C135  1  0.57711082  0.25902694  0.23122854  1.0
  C  C136  1  0.25613581  0.98921703  0.68244350  1.0
  C  C137  1  0.37213253  0.05629403  0.46954948  1.0
  C  C138  1  0.22632774  0.81879675  0.61765391  1.0
  C  C139  1  0.29145069  0.02147883  0.56782069  1.0
  C  C140  1  0.14929297  0.49863692  0.00865146  1.0
  C  C141  1  0.92289515  0.75901917  0.73122430  1.0
  C  C142  1  0.21404816  0.84797642  0.69020464  1.0
  C  C143  1  0.56579785  0.49677972  0.42640140  1.0
  C  C144  1  0.73603007  0.04130035  0.05527715  1.0
  C  C145  1  0.18143244  0.78805428  0.73203492  1.0
  C  C146  1  0.27367482  0.31881123  0.11766902  1.0
  C  C147  1  0.86198273  0.97876730  0.97007622  1.0
  C  C148  1  0.22356588  0.66217393  0.04790942  1.0
  C  C149  1  0.86665609  0.73230994  0.67272441  1.0
  C  C150  1  0.26720187  0.96092357  0.60944447  1.0
  C  C151  1  0.93420473  0.99677439  0.92639853  1.0
  C  C152  1  0.25486513  0.10441203  0.58669793  1.0
  C  C153  1  0.27643282  0.16216486  0.54790230  1.0
  C  C154  1  0.33507575  0.13872589  0.48874924  1.0
  C  C155  1  0.96870763  0.62182781  0.72720832  1.0
  C  C156  1  0.58672366  0.08897106  0.16872109  1.0
  C  C157  1  0.27060602  0.43382141  0.22218934  1.0
  C  C158  1  0.12787167  0.55629993  0.96955769  1.0
  C  C159  1  0.24771443  0.37449945  0.07774664  1.0
  C  C160  1  0.24514059  0.60442284  0.08670208  1.0
  C  C161  1  0.85205684  0.89422203  0.97420096  1.0
  C  C162  1  0.31856861  0.28806968  0.23205010  1.0
  C  C163  1  0.64794419  0.39422293  0.47419976  1.0
  C  C164  1  0.58569623  0.33410690  0.43670212  1.0
  C  C165  1  0.35071103  0.99862971  0.50864579  1.0
  C  C166  1  0.25228754  0.87448857  0.57773243  1.0
  C  C167  1  0.64030472  0.14520365  0.14048650  1.0
  C  C168  1  0.20855447  0.52148675  0.06782677  1.0
  C  C169  1  0.35526886  0.20115980  0.44686767  1.0
  C  C170  1  0.53128767  0.12183658  0.22720934  1.0
  C  C171  1  0.91327547  0.58896335  0.66871801  1.0
  C  C172  1  0.14473178  0.70116178  0.94686723  1.0
  C  C173  1  0.76397585  0.54129824  0.55528032  1.0
  C  C174  1  0.63335936  0.23231412  0.17273321  1.0
  C  C175  1  0.22940532  0.93380184  0.72217871  1.0
  N  N176  1  0.01567399  0.14822014  0.10400744  1.0
  N  N177  1  0.02644946  0.29496069  0.24116764  1.0
  N  N178  1  0.19301806  0.95516806  0.99342816  1.0
  N  N179  1  0.47354848  0.79494936  0.74116806  1.0
  N  N180  1  0.20019173  0.37857361  0.41627845  1.0
  N  N181  1  0.30697530  0.45516773  0.49342858  1.0
  N  N182  1  0.29979975  0.87857122  0.91627904  1.0
  N  N183  1  0.48431902  0.64821315  0.60400456  1.0
  N  N184  1  0.79980394  0.62143559  0.58372117  1.0
  N  N185  1  0.51569155  0.35179352  0.39600265  1.0
  N  N186  1  0.98430890  0.85178527  0.89599849  1.0
  N  N187  1  0.97354124  0.70504914  0.75882907  1.0
  N  N188  1  0.52645783  0.20505858  0.25883283  1.0
  N  N189  1  0.69303740  0.54483768  0.50656975  1.0
  N  N190  1  0.70020088  0.12143988  0.08372148  1.0
  N  N191  1  0.80696200  0.04483418  0.00656596  1.0
  O  O192  1  0.67584444  0.72391162  0.53213033  1.0
  O  O193  1  0.90347599  0.32596374  0.11006097  1.0
  O  O194  1  0.20998030  0.52383897  0.42945363  1.0
  O  O195  1  0.65129153  0.67424979  0.70479228  1.0
  O  O196  1  0.84870983  0.17424090  0.20479289  1.0
  O  O197  1  0.59649390  0.82593380  0.61003886  1.0
  O  O198  1  0.68219156  0.78978820  0.79317395  1.0
  O  O199  1  0.81781758  0.28977512  0.29318222  1.0
  O  O200  1  0.82416842  0.22392065  0.03214868  1.0
  O  O201  1  0.29000169  0.02382663  0.92944058  1.0
  O  O202  1  0.40356209  0.17408806  0.38998316  1.0
  O  O203  1  0.34870485  0.32575055  0.29522121  1.0
  O  O204  1  0.15129223  0.82573159  0.79520519  1.0
  O  O205  1  0.70996346  0.97616802  0.07054741  1.0
  O  O206  1  0.09645013  0.67407902  0.88998160  1.0
  O  O207  1  0.17585138  0.77608792  0.96785842  1.0
  O  O208  1  0.31782894  0.21021404  0.20682777  1.0
  O  O209  1  0.32413987  0.27607986  0.46786258  1.0
  O  O210  1  0.18218163  0.71019737  0.70680877  1.0
  O  O211  1  0.79003027  0.47616960  0.57055093  1.0
