# generated using pymatgen
data_Al2H18C26O11
_symmetry_space_group_name_H-M   'P 1'
_cell_length_a   7.24992387
_cell_length_b   11.09253145
_cell_length_c   15.13109005
_cell_angle_alpha   82.97400661
_cell_angle_beta   76.16525254
_cell_angle_gamma   71.24398263
_symmetry_Int_Tables_number   1
_chemical_formula_structural   Al2H18C26O11
_chemical_formula_sum   'Al2 H18 C26 O11'
_cell_volume   1117.43024708
_cell_formula_units_Z   1
loop_
 _symmetry_equiv_pos_site_id
 _symmetry_equiv_pos_as_xyz
  1  'x, y, z'
loop_
 _atom_site_type_symbol
 _atom_site_label
 _atom_site_symmetry_multiplicity
 _atom_site_fract_x
 _atom_site_fract_y
 _atom_site_fract_z
 _atom_site_occupancy
  Al  Al0  1  0.50102391  0.49907026  0.50068746  1.0
  Al  Al1  1  0.00130915  0.49719975  0.50078109  1.0
  H  H2  1  0.25480146  0.59532842  0.39801480  1.0
  H  H3  1  0.77603493  0.36638537  0.58309660  1.0
  H  H4  1  0.14702866  0.11460173  0.49608527  1.0
  H  H5  1  0.73808813  0.12250837  0.49480460  1.0
  H  H6  1  0.26817122  0.87661725  0.50424404  1.0
  H  H7  1  0.80152098  0.56052724  0.76884777  1.0
  H  H8  1  0.42666319  0.44747210  0.77261670  1.0
  H  H9  1  0.14470966  0.55415183  0.22800182  1.0
  H  H10  1  0.63025447  0.43813413  0.23070202  1.0
  H  H11  1  0.63317626  0.64542422  0.00091469  1.0
  H  H12  1  0.55884293  0.57303847  0.92425013  1.0
  H  H13  1  0.36166137  0.35414445  0.00912615  1.0
  H  H14  1  0.51514230  0.42828608  0.92907551  1.0
  H  H15  1  0.22957624  0.64597298  0.99206255  1.0
  H  H16  1  0.37394719  0.57010720  0.07268924  1.0
  H  H17  1  0.78017023  0.35409630  0.99863077  1.0
  H  H18  1  0.55678471  0.42509714  0.07493823  1.0
  H  H19  1  0.92136475  0.78553020  0.50665721  1.0
  C  C20  1  0.83113985  0.49686972  0.34008386  1.0
  C  C21  1  0.63606250  0.72434597  0.50757049  1.0
  C  C22  1  0.16961776  0.50381705  0.66031883  1.0
  C  C23  1  0.36474561  0.27474929  0.49381382  1.0
  C  C24  1  0.56992104  0.86505357  0.50469861  1.0
  C  C25  1  0.43585810  0.13219877  0.49552813  1.0
  C  C26  1  0.70497786  0.93513082  0.50185132  1.0
  C  C27  1  0.30182681  0.06338011  0.49784968  1.0
  C  C28  1  0.63511466  0.06861874  0.49713934  1.0
  C  C29  1  0.36952735  0.93152157  0.50242062  1.0
  C  C30  1  0.67133394  0.55771997  0.96416430  1.0
  C  C31  1  0.36346397  0.44314433  0.96790362  1.0
  C  C32  1  0.27552618  0.55667203  0.03327459  1.0
  C  C33  1  0.69352052  0.44151433  0.03541143  1.0
  C  C34  1  0.91784122  0.53604434  0.80805713  1.0
  C  C35  1  0.87186061  0.53507149  0.90278411  1.0
  C  C36  1  0.27223775  0.47093576  0.81022459  1.0
  C  C37  1  0.22431706  0.46905550  0.90494161  1.0
  C  C38  1  0.05153799  0.53020553  0.19032410  1.0
  C  C39  1  0.09742199  0.53195461  0.09562862  1.0
  C  C40  1  0.76075413  0.46390905  0.19185344  1.0
  C  C41  1  0.80886374  0.46522651  0.09712026  1.0
  C  C42  1  0.11862521  0.50414086  0.76167151  1.0
  C  C43  1  0.02506879  0.50145919  0.95031545  1.0
  C  C44  1  0.88242482  0.49656573  0.23867781  1.0
  C  C45  1  0.97592544  0.49965134  0.04986808  1.0
  O  O46  1  0.65439776  0.49529890  0.37873263  1.0
  O  O47  1  0.82247335  0.66879976  0.50942575  1.0
  O  O48  1  0.03138375  0.50362636  0.62141333  1.0
  O  O49  1  0.49499427  0.32959273  0.49401868  1.0
  O  O50  1  0.34744520  0.50249828  0.62156825  1.0
  O  O51  1  0.17975366  0.32796755  0.49373990  1.0
  O  O52  1  0.96789885  0.50024465  0.37901094  1.0
  O  O53  1  0.50874373  0.66824197  0.50678828  1.0
  O  O54  1  0.24009592  0.55971164  0.46025530  1.0
  O  O55  1  0.76072745  0.44016407  0.54075441  1.0
  O  O56  1  0.89967736  0.87956169  0.50325175  1.0
