# generated using pymatgen
data_Zn4H18C32O13
_symmetry_space_group_name_H-M   'P 1'
_cell_length_a   13.06147210
_cell_length_b   13.25534793
_cell_length_c   18.12827982
_cell_angle_alpha   68.70930659
_cell_angle_beta   71.95816549
_cell_angle_gamma   88.55447295
_symmetry_Int_Tables_number   1
_chemical_formula_structural   Zn4H18C32O13
_chemical_formula_sum   'Zn4 H18 C32 O13'
_cell_volume   2767.11451777
_cell_formula_units_Z   1
loop_
 _symmetry_equiv_pos_site_id
 _symmetry_equiv_pos_as_xyz
  1  'x, y, z'
loop_
 _atom_site_type_symbol
 _atom_site_label
 _atom_site_symmetry_multiplicity
 _atom_site_fract_x
 _atom_site_fract_y
 _atom_site_fract_z
 _atom_site_occupancy
  Zn  Zn0  1  0.42640474  0.43903684  0.44581617  1.0
  Zn  Zn1  1  0.56360534  0.39003094  0.57134223  1.0
  Zn  Zn2  1  0.40361884  0.56631704  0.57413589  1.0
  Zn  Zn3  1  0.60561560  0.61932417  0.40507845  1.0
  H  H4  1  0.67434241  0.75599577  0.87899877  1.0
  H  H5  1  0.50786116  0.55726188  0.79360344  1.0
  H  H6  1  0.33926710  0.24429758  0.11527446  1.0
  H  H7  1  0.71204709  0.79175740  0.99157699  1.0
  H  H8  1  0.68355416  0.74255914  0.14377664  1.0
  H  H9  1  0.46873014  0.46499404  0.20435375  1.0
  H  H10  1  0.58767751  0.64247563  0.83069177  1.0
  H  H11  1  0.40911371  0.36730872  0.16526287  1.0
  H  H12  1  0.43884424  0.88901405  0.56909565  1.0
  H  H13  1  0.36473638  0.24041445  0.84757816  1.0
  H  H14  1  0.32631017  0.19506742  0.00036534  1.0
  H  H15  1  0.88523066  0.45069859  0.58227046  1.0
  H  H16  1  0.10848990  0.50401566  0.43978121  1.0
  H  H17  1  0.94846285  0.54999782  0.38959744  1.0
  H  H18  1  0.05153071  0.46809409  0.62662911  1.0
  H  H19  1  0.46821197  0.11941828  0.42856877  1.0
  H  H20  1  0.47123028  0.04593687  0.61017114  1.0
  H  H21  1  0.52154157  0.96226714  0.37667489  1.0
  C  C22  1  0.77906648  0.51136699  0.46940368  1.0
  C  C23  1  0.42490912  0.39062222  0.09833441  1.0
  C  C24  1  0.38536852  0.32150607  0.07070999  1.0
  C  C25  1  0.21886668  0.48967931  0.54313318  1.0
  C  C26  1  0.40385924  0.34765736  0.98389680  1.0
  C  C27  1  0.46064262  0.45039069  0.92525715  1.0
  C  C28  1  0.36852428  0.27354340  0.95475639  1.0
  C  C29  1  0.38841868  0.29858427  0.87051457  1.0
  C  C30  1  0.47131715  0.47751153  0.84012689  1.0
  C  C31  1  0.10011984  0.47875658  0.56285544  1.0
  C  C32  1  0.05464048  0.48833604  0.50334189  1.0
  C  C33  1  0.64334367  0.69335879  0.12212973  1.0
  C  C34  1  0.89697304  0.51385212  0.45482916  1.0
  C  C35  1  0.93985725  0.48155343  0.51770850  1.0
  C  C36  1  0.49157672  0.90815871  0.44236004  1.0
  C  C37  1  0.47954221  0.21807965  0.53200784  1.0
  C  C38  1  0.46221425  0.94720583  0.50439531  1.0
  C  C39  1  0.46806622  0.10026295  0.54914773  1.0
  C  C40  1  0.46479375  0.06148009  0.49047506  1.0
  C  C41  1  0.49553318  0.79023116  0.46022550  1.0
  C  C42  1  0.45534107  0.43247205  0.72200516  1.0
  C  C43  1  0.55296725  0.57255986  0.27280759  1.0
  C  C44  1  0.52185383  0.53540382  0.15590860  1.0
  C  C45  1  0.57304240  0.60060204  0.18176186  1.0
  C  C46  1  0.43762758  0.40296924  0.81291567  1.0
  C  C47  1  0.65877136  0.71987319  0.03832357  1.0
  C  C48  1  0.53771522  0.55928305  0.07046752  1.0
  C  C49  1  0.60660635  0.65498031  0.01068895  1.0
  C  C50  1  0.48849772  0.49052158  0.04155510  1.0
  C  C51  1  0.50620417  0.52098454  0.95463932  1.0
  C  C52  1  0.57295657  0.61888307  0.89752294  1.0
  C  C53  1  0.62188317  0.68273694  0.92417255  1.0
  O  O54  1  0.50128519  0.50422344  0.49851512  1.0
  O  O55  1  0.49193593  0.36080111  0.69150539  1.0
  O  O56  1  0.60729994  0.63060109  0.29328434  1.0
  O  O57  1  0.43298100  0.52667835  0.68147133  1.0
  O  O58  1  0.48247211  0.49249292  0.32365087  1.0
  O  O59  1  0.43646699  0.28122356  0.48021255  1.0
  O  O60  1  0.56687065  0.76410980  0.40531674  1.0
  O  O61  1  0.71724157  0.44112188  0.53787630  1.0
  O  O62  1  0.25385863  0.51320216  0.59427649  1.0
  O  O63  1  0.75039930  0.58146390  0.41101431  1.0
  O  O64  1  0.27636865  0.47572263  0.47692306  1.0
  O  O65  1  0.53330219  0.24580025  0.57098405  1.0
  O  O66  1  0.42888281  0.72533524  0.52867718  1.0
