# generated using pymatgen
data_Zn4H14C22O17
_symmetry_space_group_name_H-M   'P 1'
_cell_length_a   15.95336184
_cell_length_b   15.96349218
_cell_length_c   17.11284960
_cell_angle_alpha   117.57179624
_cell_angle_beta   117.67166194
_cell_angle_gamma   90.00299245
_symmetry_Int_Tables_number   1
_chemical_formula_structural   Zn4H14C22O17
_chemical_formula_sum   'Zn8 H28 C44 O34'
_cell_volume   3290.52730243
_cell_formula_units_Z   2
loop_
 _symmetry_equiv_pos_site_id
 _symmetry_equiv_pos_as_xyz
  1  'x, y, z'
loop_
 _atom_site_type_symbol
 _atom_site_label
 _atom_site_symmetry_multiplicity
 _atom_site_fract_x
 _atom_site_fract_y
 _atom_site_fract_z
 _atom_site_occupancy
  Zn  Zn0  1  0.30730779  0.70832713  0.41259662  1.0
  Zn  Zn1  1  0.70571801  0.30681026  0.41257978  1.0
  Zn  Zn2  1  0.10558748  0.70415613  0.40735156  1.0
  Zn  Zn3  1  0.89441463  0.29584742  0.59264801  1.0
  Zn  Zn4  1  0.29428136  0.69319110  0.58741998  1.0
  Zn  Zn5  1  0.69269199  0.29167570  0.58740220  1.0
  Zn  Zn6  1  0.29545522  0.89473664  0.59263539  1.0
  Zn  Zn7  1  0.70454435  0.10526545  0.40736536  1.0
  H  H8  1  0.02863052  0.58543170  0.92276317  1.0
  H  H9  1  0.18381579  0.42587487  0.92590796  1.0
  H  H10  1  0.29659945  0.52321892  0.02015023  1.0
  H  H11  1  0.81616945  0.57414711  0.07407356  1.0
  H  H12  1  0.81258139  0.45500603  0.05839987  1.0
  H  H13  1  0.70340074  0.47678023  0.97984426  1.0
  H  H14  1  0.74357913  0.07740206  0.03781642  1.0
  H  H15  1  0.68651906  0.17440390  0.03841254  1.0
  H  H16  1  0.71887089  0.10919940  0.94288954  1.0
  H  H17  1  0.31348102  0.82559746  0.96158637  1.0
  H  H18  1  0.25642095  0.92259930  0.96218423  1.0
  H  H19  1  0.97137017  0.41457701  0.07723917  1.0
  H  H20  1  0.28112929  0.89079975  0.05710962  1.0
  H  H21  1  0.18743527  0.54502985  0.94161998  1.0
  H  H22  1  0.66217572  0.97061143  0.07578802  1.0
  H  H23  1  0.07863437  0.29542887  0.04018302  1.0
  H  H24  1  0.17554931  0.35266150  0.04029309  1.0
  H  H25  1  0.11034209  0.22523309  0.94546337  1.0
  H  H26  1  0.82444895  0.64734867  0.95971176  1.0
  H  H27  1  0.92136551  0.70457689  0.95981828  1.0
  H  H28  1  0.88966396  0.77477708  0.05454018  1.0
  H  H29  1  0.39692091  0.18749744  0.94200330  1.0
  H  H30  1  0.33782467  0.02938846  0.92421155  1.0
  H  H31  1  0.49998224  0.18374786  0.92539198  1.0
  H  H32  1  0.49686479  0.29639718  0.02004344  1.0
  H  H33  1  0.50001875  0.81625423  0.07460938  1.0
  H  H34  1  0.60308058  0.81250391  0.05799913  1.0
  H  H35  1  0.50313600  0.70360417  0.97995927  1.0
  C  C36  1  0.39180518  0.88514892  0.78005897  1.0
  C  C37  1  0.97397916  0.02772479  0.50165046  1.0
  C  C38  1  0.47076732  0.52435659  0.49661851  1.0
  C  C39  1  0.52923317  0.47564623  0.50338179  1.0
  C  C40  1  0.02601971  0.97227730  0.49834765  1.0
  C  C41  1  0.02626919  0.52801241  0.50053975  1.0
  C  C42  1  0.97372544  0.47198454  0.49944904  1.0
  C  C43  1  0.60819359  0.11485023  0.21994074  1.0
  C  C44  1  0.40266757  0.58426903  0.49213192  1.0
  C  C45  1  0.59733110  0.41573232  0.50786987  1.0
  C  C46  1  0.09016687  0.90804525  0.49704538  1.0
  C  C47  1  0.90983312  0.09195831  0.50295326  1.0
  C  C48  1  0.08981558  0.59397608  0.50172034  1.0
  C  C49  1  0.11482680  0.61267797  0.21991037  1.0
  C  C50  1  0.91018622  0.40602381  0.49827808  1.0
  C  C51  1  0.41516644  0.91290149  0.50965546  1.0
  C  C52  1  0.58483586  0.08710279  0.49035035  1.0
  C  C53  1  0.47541596  0.97576094  0.50469434  1.0
  C  C54  1  0.52458644  0.02424114  0.49530939  1.0
  C  C55  1  0.88517258  0.38732853  0.78008812  1.0
  C  C56  1  0.09748015  0.51657433  0.02906080  1.0
  C  C57  1  0.90252368  0.48343291  0.97093993  1.0
  C  C58  1  0.55124482  0.01937325  0.96239180  1.0
  C  C59  1  0.44875577  0.98062737  0.03760817  1.0
  C  C60  1  0.01733732  0.54897343  0.95900636  1.0
  C  C61  1  0.98266387  0.45103454  0.04099471  1.0
  C  C62  1  0.58968307  0.98226406  0.04019456  1.0
  C  C63  1  0.41031771  0.01773729  0.95980640  1.0
  C  C64  1  0.94097873  0.44628985  0.89482534  1.0
  C  C65  1  0.05902378  0.55372033  0.10517843  1.0
  C  C66  1  0.55174281  0.05899717  0.10519848  1.0
  C  C67  1  0.44825666  0.94100198  0.89480096  1.0
  C  C68  1  0.01984651  0.41157725  0.96334173  1.0
  C  C69  1  0.98015559  0.58843145  0.03666181  1.0
  C  C70  1  0.51252971  0.09735095  0.02893579  1.0
  C  C71  1  0.48747067  0.90264893  0.97106494  1.0
  C  C72  1  0.21630904  0.50532611  0.98248427  1.0
  C  C73  1  0.78368983  0.49468628  0.01751188  1.0
  C  C74  1  0.69193316  0.10254932  0.98868582  1.0
  C  C75  1  0.30806672  0.89745130  0.01131384  1.0
  C  C76  1  0.10365650  0.29778974  0.99085272  1.0
  C  C77  1  0.89634520  0.70221749  0.00914943  1.0
  C  C78  1  0.47725343  0.21621858  0.98237906  1.0
  C  C79  1  0.52274715  0.78378204  0.01762208  1.0
  O  O80  1  0.24969153  0.75071988  0.49998162  1.0
  O  O81  1  0.64306694  0.06411912  0.26159930  1.0
  O  O82  1  0.20677216  0.65111542  0.26691777  1.0
  O  O83  1  0.79322953  0.34889181  0.73308438  1.0
  O  O84  1  0.36785837  0.59872823  0.54943444  1.0
  O  O85  1  0.63214364  0.40127239  0.45056264  1.0
  O  O86  1  0.04817050  0.81661558  0.43109013  1.0
  O  O87  1  0.95182666  0.18338284  0.56890331  1.0
  O  O88  1  0.75030926  0.24928147  0.50001818  1.0
  O  O89  1  0.18116158  0.61867876  0.56871050  1.0
  O  O90  1  0.81883405  0.38131673  0.43128101  1.0
  O  O91  1  0.04764821  0.61988752  0.43590234  1.0
  O  O92  1  0.95234752  0.38011605  0.56409272  1.0
  O  O93  1  0.38294569  0.95529481  0.56967594  1.0
  O  O94  1  0.61705489  0.04470581  0.43032286  1.0
  O  O95  1  0.40081626  0.82121918  0.45237737  1.0
  O  O96  1  0.59918756  0.17877776  0.54762416  1.0
  O  O97  1  0.38517738  0.61615128  0.43177258  1.0
  O  O98  1  0.61481967  0.38384934  0.56822177  1.0
  O  O99  1  0.18155116  0.95035405  0.56235445  1.0
  O  O100  1  0.81844478  0.04964510  0.43764463  1.0
  O  O101  1  0.38298053  0.79322041  0.73298971  1.0
  O  O102  1  0.61701742  0.20678094  0.26701061  1.0
  O  O103  1  0.06401073  0.61988819  0.26159058  1.0
  O  O104  1  0.93599279  0.38011536  0.73841251  1.0
  O  O105  1  0.35693273  0.93588076  0.73840054  1.0
  O  O106  1  0.19625988  0.53638664  0.06395963  1.0
  O  O107  1  0.80374171  0.46361766  0.93604003  1.0
  O  O108  1  0.59699700  0.03174896  0.91565894  1.0
  O  O109  1  0.40300268  0.96825092  0.08434090  1.0
  O  O110  1  0.03253427  0.31944420  0.91730863  1.0
  O  O111  1  0.96746601  0.68056304  0.08269174  1.0
  O  O112  1  0.52774299  0.19602319  0.06376959  1.0
  O  O113  1  0.47225831  0.80397742  0.93623186  1.0
