# generated using pymatgen
data_Zn2H24C36S5Br4(N2O3)5
_symmetry_space_group_name_H-M   'P 1'
_cell_length_a   20.01943731
_cell_length_b   20.23228928
_cell_length_c   20.28955612
_cell_angle_alpha   108.44478935
_cell_angle_beta   104.69009033
_cell_angle_gamma   113.03553233
_symmetry_Int_Tables_number   1
_chemical_formula_structural   Zn2H24C36S5Br4(N2O3)5
_chemical_formula_sum   'Zn4 H48 C72 S10 Br8 N20 O30'
_cell_volume   6469.24034989
_cell_formula_units_Z   2
loop_
 _symmetry_equiv_pos_site_id
 _symmetry_equiv_pos_as_xyz
  1  'x, y, z'
loop_
 _atom_site_type_symbol
 _atom_site_label
 _atom_site_symmetry_multiplicity
 _atom_site_fract_x
 _atom_site_fract_y
 _atom_site_fract_z
 _atom_site_occupancy
  Zn  Zn0  1  0.61060329  0.60622288  0.49264973  1.0
  Zn  Zn1  1  0.39377391  0.40355751  0.51020670  1.0
  Zn  Zn2  1  0.50288469  0.60941476  0.60204685  1.0
  Zn  Zn3  1  0.50373499  0.40044762  0.41869391  1.0
  H  H4  1  0.76442811  0.79686848  0.60685585  1.0
  H  H5  1  0.08882976  0.61233091  0.60797731  1.0
  H  H6  1  0.04408387  0.52417477  0.51856678  1.0
  H  H7  1  0.92498651  0.39478296  0.64095353  1.0
  H  H8  1  0.87027669  0.36994200  0.54506540  1.0
  H  H9  1  0.09317237  0.51298994  0.73300594  1.0
  H  H10  1  0.98046287  0.39302762  0.51481760  1.0
  H  H11  1  0.64428878  0.63454672  0.75010480  1.0
  H  H12  1  0.49625163  0.04764717  0.52503788  1.0
  H  H13  1  0.40216387  0.94096372  0.31901494  1.0
  H  H14  1  0.40506348  0.83380551  0.32596036  1.0
  H  H15  1  0.22212427  0.37363459  0.53581681  1.0
  H  H16  1  0.26602980  0.90889267  0.41822445  1.0
  H  H17  1  0.28573938  0.80710410  0.43183754  1.0
  H  H18  1  0.39554935  0.90412760  0.54232021  1.0
  H  H19  1  0.62112810  0.37326406  0.52909308  1.0
  H  H20  1  0.28819693  0.77523185  0.34115340  1.0
  H  H21  1  0.65552639  0.61131168  0.86671018  1.0
  H  H22  1  0.76744830  0.60000939  0.17207400  1.0
  H  H23  1  0.74075848  0.60137612  0.28529179  1.0
  H  H24  1  0.60837564  0.37428423  0.72192896  1.0
  H  H25  1  0.57103594  0.34255551  0.15116189  1.0
  H  H26  1  0.35786660  0.61186317  0.49659914  1.0
  H  H27  1  0.23594249  0.35960528  0.15651454  1.0
  H  H28  1  0.49795713  0.37133963  0.62665177  1.0
  H  H29  1  0.11015377  0.26379323  0.03385316  1.0
  H  H30  1  0.83954101  0.04818390  0.93820576  1.0
  H  H31  1  0.71879309  0.92585956  0.82520518  1.0
  H  H32  1  0.85560213  0.93332480  0.69059519  1.0
  H  H33  1  0.47486099  0.21555443  0.37597911  1.0
  H  H34  1  0.61312604  0.80029579  0.72606056  1.0
  H  H35  1  0.66927804  0.60913082  0.35506427  1.0
  H  H36  1  0.53419651  0.77151350  0.35855138  1.0
  H  H37  1  0.38920301  0.36665457  0.25598475  1.0
  H  H38  1  0.29669247  0.69461887  0.63555165  1.0
  H  H39  1  0.02784338  0.34700264  0.69956556  1.0
  H  H40  1  0.48890342  0.00650644  0.67337591  1.0
  H  H41  1  0.13669219  0.74140025  0.23456457  1.0
  H  H42  1  0.31622333  0.05269119  0.49989891  1.0
  H  H43  1  0.59172552  0.59829902  0.02490182  1.0
  H  H44  1  0.58049834  0.35434094  0.94477899  1.0
  H  H45  1  0.18077628  0.06193231  0.20014377  1.0
  H  H46  1  0.05115045  0.15321829  0.90720738  1.0
  H  H47  1  0.23212341  0.34851367  0.37068279  1.0
  H  H48  1  0.13781863  0.60800784  0.73412220  1.0
  H  H49  1  0.91303190  0.48466990  0.50953970  1.0
  H  H50  1  0.32468437  0.21567973  0.49703714  1.0
  H  H51  1  0.95682322  0.58650112  0.57897485  1.0
  C  C52  1  0.71834982  0.78456082  0.62768748  1.0
  C  C53  1  0.50304635  0.66756131  0.44307033  1.0
  C  C54  1  0.57890202  0.41506787  0.30385992  1.0
  C  C55  1  0.36468206  0.22914110  0.46954462  1.0
  C  C56  1  0.34658270  0.57010297  0.62470121  1.0
  C  C57  1  0.62508749  0.47601260  0.28768388  1.0
  C  C58  1  0.26875257  0.50693248  0.60254684  1.0
  C  C59  1  0.43925307  0.67749689  0.45212394  1.0
  C  C60  1  0.28078881  0.33832810  0.28154985  1.0
  C  C61  1  0.00984146  0.55476078  0.70554950  1.0
  C  C62  1  0.96005521  0.53145277  0.56771343  1.0
  C  C63  1  0.39199401  0.18113834  0.43210331  1.0
  C  C64  1  0.04385796  0.54703301  0.57529925  1.0
  C  C65  1  0.20419233  0.51210752  0.61339068  1.0
  C  C66  1  0.93786985  0.49945180  0.62422772  1.0
  C  C67  1  0.60109168  0.57078105  0.70995628  1.0
  C  C68  1  0.08329734  0.54770877  0.70376319  1.0
  C  C69  1  0.07034591  0.50463733  0.61935521  1.0
  C  C70  1  0.99800357  0.41525257  0.57709808  1.0
  C  C71  1  0.92779574  0.41363454  0.59613994  1.0
  C  C72  1  0.14408116  0.51001751  0.61773349  1.0
  C  C73  1  0.86335834  0.49610412  0.62146364  1.0
  C  C74  1  0.59116356  0.50085512  0.71706604  1.0
  C  C75  1  0.79946837  0.49399895  0.60534583  1.0
  C  C76  1  0.43462705  0.00069572  0.50914395  1.0
  C  C77  1  0.43388239  0.95777746  0.37946200  1.0
  C  C78  1  0.44153096  0.88561244  0.38391324  1.0
  C  C79  1  0.64800611  0.43682925  0.54264279  1.0
  C  C80  1  0.42010048  0.73464606  0.44262059  1.0
  C  C81  1  0.38408786  0.97572054  0.42332994  1.0
  C  C82  1  0.43682915  0.92917926  0.51845198  1.0
  C  C83  1  0.40615141  0.85872223  0.43722499  1.0
  C  C84  1  0.31462074  0.82801562  0.39739148  1.0
  C  C85  1  0.72969747  0.49836109  0.58138781  1.0
  C  C86  1  0.30179629  0.89555940  0.38895083  1.0
  C  C87  1  0.41359248  0.79116852  0.44023330  1.0
  C  C88  1  0.37502988  0.04216435  0.41911473  1.0
  C  C89  1  0.37921418  0.10550824  0.42486586  1.0
  C  C90  1  0.65021872  0.47280397  0.22615076  1.0
  C  C91  1  0.52691677  0.43635561  0.64637225  1.0
  C  C92  1  0.61450115  0.40008225  0.15746610  1.0
  C  C93  1  0.63113557  0.39883292  0.09496944  1.0
  C  C94  1  0.68464653  0.47289285  0.09838879  1.0
  C  C95  1  0.72540278  0.54417614  0.16973088  1.0
  C  C96  1  0.63865734  0.54716526  0.34581556  1.0
  C  C97  1  0.70910171  0.54454636  0.23204566  1.0
  C  C98  1  0.67096421  0.54235897  0.92355641  1.0
  C  C99  1  0.65318221  0.55460082  0.85906617  1.0
  C  C100  1  0.66105614  0.46615169  0.91576656  1.0
  C  C101  1  0.62609185  0.49344302  0.78477011  1.0
  C  C102  1  0.62458768  0.42148445  0.77774172  1.0
  C  C103  1  0.72709356  0.56692378  0.58030963  1.0
  C  C104  1  0.64131389  0.40851702  0.84160375  1.0
  C  C105  1  0.77941522  0.91681916  0.75081158  1.0
  C  C106  1  0.85109201  0.95724655  0.74448654  1.0
  C  C107  1  0.26992158  0.43667548  0.56271470  1.0
  C  C108  1  0.91854160  0.02569174  0.80773903  1.0
  C  C109  1  0.91605012  0.05677819  0.87957229  1.0
  C  C110  1  0.84184775  0.02188385  0.88356151  1.0
  C  C111  1  0.77501012  0.95366594  0.82037934  1.0
  C  C112  1  0.12217940  0.24825372  0.08060176  1.0
  C  C113  1  0.19253293  0.30080582  0.14819469  1.0
  C  C114  1  0.06260837  0.17643742  0.07329365  1.0
  C  C115  1  0.44171516  0.22932117  0.40763409  1.0
  C  C116  1  0.20890762  0.28079912  0.20832487  1.0
  C  C117  1  0.15236653  0.20405940  0.19767208  1.0
  C  C118  1  0.40712951  0.62312747  0.48005639  1.0
  C  C119  1  0.07655089  0.15622444  0.13416739  1.0
  C  C120  1  0.64155455  0.78644222  0.68900741  1.0
  C  C121  1  0.71552804  0.83626715  0.69111439  1.0
  C  C122  1  0.36223962  0.37146383  0.29619614  1.0
  C  C123  1  0.28219986  0.36147072  0.35516792  1.0
  S  S124  1  0.58334847  0.73018094  0.43059485  1.0
  S  S125  1  0.01070626  0.06080519  0.79736120  1.0
  S  S126  1  0.39215407  0.67489140  0.67793447  1.0
  S  S127  1  0.01673036  0.33773743  0.58908544  1.0
  S  S128  1  0.53680699  0.96695449  0.59597001  1.0
  S  S129  1  0.23951792  0.86093966  0.28844064  1.0
  S  S130  1  0.41173443  0.05864279  0.58085014  1.0
  S  S131  1  0.69948378  0.62824563  0.01113348  1.0
  S  S132  1  0.58541935  0.29966243  0.01575745  1.0
  S  S133  1  0.18418752  0.16906195  0.26470522  1.0
  Br  Br134  1  0.53502701  0.30211185  0.25637341  1.0
  Br  Br135  1  0.03603070  0.66871227  0.74100431  1.0
  Br  Br136  1  0.97981925  0.52238880  0.78114382  1.0
  Br  Br137  1  0.53483528  0.05826203  0.41521964  1.0
  Br  Br138  1  0.54935191  0.90077403  0.40704603  1.0
  Br  Br139  1  0.63764213  0.31009274  0.82851558  1.0
  Br  Br140  1  0.99030660  0.06487162  0.12582965  1.0
  Br  Br141  1  0.81570065  0.67051877  0.61928186  1.0
  N  N142  1  0.65268125  0.71057509  0.59194817  1.0
  N  N143  1  0.65614648  0.43841853  0.97050094  1.0
  N  N144  1  0.98902610  0.11578649  0.94444136  1.0
  N  N145  1  0.39619597  0.29998342  0.46769566  1.0
  N  N146  1  0.98864817  0.12165127  0.00861696  1.0
  N  N147  1  0.54624730  0.54858871  0.64080275  1.0
  N  N148  1  0.60218048  0.46684157  0.52019120  1.0
  N  N149  1  0.50028575  0.46605629  0.60210047  1.0
  N  N150  1  0.65098224  0.54755941  0.54387786  1.0
  N  N151  1  0.44383598  0.30014356  0.42943778  1.0
  N  N152  1  0.60435634  0.71179540  0.62973288  1.0
  N  N153  1  0.34241178  0.45807542  0.56193569  1.0
  N  N154  1  0.60390970  0.52988645  0.39116210  1.0
  N  N155  1  0.44961986  0.58566253  0.48825113  1.0
  N  N156  1  0.40805915  0.40893558  0.37293509  1.0
  N  N157  1  0.35854865  0.40315041  0.40893608  1.0
  N  N158  1  0.50709281  0.61151289  0.46332829  1.0
  N  N159  1  0.56721813  0.44752208  0.36540637  1.0
  N  N160  1  0.38981814  0.54031385  0.59964966  1.0
  N  N161  1  0.69937843  0.49097946  0.04100122  1.0
  O  O162  1  0.62203908  0.81248481  0.48892706  1.0
  O  O163  1  0.55882233  0.90638785  0.58237584  1.0
  O  O164  1  0.59028869  0.04760002  0.60964493  1.0
  O  O165  1  0.51365593  0.97215391  0.66650025  1.0
  O  O166  1  0.22615268  0.92323097  0.28082438  1.0
  O  O167  1  0.26670845  0.82043316  0.23855368  1.0
  O  O168  1  0.15769724  0.79138741  0.28140558  1.0
  O  O169  1  0.41261702  0.02946040  0.63742038  1.0
  O  O170  1  0.46037438  0.14328336  0.60418759  1.0
  O  O171  1  0.31841240  0.02839017  0.53532567  1.0
  O  O172  1  0.77824422  0.65879672  0.06717353  1.0
  O  O173  1  0.62943115  0.69063700  0.42166884  1.0
  O  O174  1  0.67971863  0.68178450  0.98896981  1.0
  O  O175  1  0.63568961  0.58881192  0.04315449  1.0
  O  O176  1  0.65059326  0.29127510  0.00459635  1.0
  O  O177  1  0.52878248  0.24172763  0.02953479  1.0
  O  O178  1  0.53607616  0.30655030  0.94715333  1.0
  O  O179  1  0.26904700  0.19879875  0.28898124  1.0
  O  O180  1  0.15105378  0.18104919  0.31940281  1.0
  O  O181  1  0.14013052  0.07239374  0.21167775  1.0
  O  O182  1  0.04726238  0.01774392  0.81969372  1.0
  O  O183  1  0.99454025  0.05710076  0.72272086  1.0
  O  O184  1  0.54113363  0.72353261  0.34885270  1.0
  O  O185  1  0.06098191  0.15351382  0.85974813  1.0
  O  O186  1  0.38187112  0.69600186  0.74753100  1.0
  O  O187  1  0.47069521  0.70918432  0.67839331  1.0
  O  O188  1  0.34141168  0.69742584  0.62260358  1.0
  O  O189  1  0.93980102  0.26790255  0.56452689  1.0
  O  O190  1  0.07173157  0.33079267  0.55776407  1.0
  O  O191  1  0.06459784  0.37725685  0.68206188  1.0
