# generated using pymatgen
data_AlH12C27(ClO2)3
_symmetry_space_group_name_H-M   'P 1'
_cell_length_a   4.00963044
_cell_length_b   27.78018240
_cell_length_c   27.81809893
_cell_angle_alpha   60.08401119
_cell_angle_beta   89.16426898
_cell_angle_gamma   89.99812069
_symmetry_Int_Tables_number   1
_chemical_formula_structural   AlH12C27(ClO2)3
_chemical_formula_sum   'Al3 H36 C81 Cl9 O18'
_cell_volume   2685.36414865
_cell_formula_units_Z   3
loop_
 _symmetry_equiv_pos_site_id
 _symmetry_equiv_pos_as_xyz
  1  'x, y, z'
loop_
 _atom_site_type_symbol
 _atom_site_label
 _atom_site_symmetry_multiplicity
 _atom_site_fract_x
 _atom_site_fract_y
 _atom_site_fract_z
 _atom_site_occupancy
  Al  Al0  1  0.99671902  0.00045428  0.50009320  1.0
  Al  Al1  1  0.05559399  0.33435460  0.83294924  1.0
  Al  Al2  1  0.94669647  0.66698678  0.16698102  1.0
  H  H3  1  0.47931974  0.00141976  0.92206300  1.0
  H  H4  1  0.49594336  0.91062104  0.83431058  1.0
  H  H5  1  0.48298464  0.08902902  0.74382575  1.0
  H  H6  1  0.27398507  0.16525086  0.90870832  1.0
  H  H7  1  0.23356435  0.07597143  0.90982887  1.0
  H  H8  1  0.78217686  0.14813012  0.75432042  1.0
  H  H9  1  0.71699459  0.92950388  0.98399509  1.0
  H  H10  1  0.20219285  0.76186665  0.99498598  1.0
  H  H11  1  0.19909833  0.85064050  0.90623219  1.0
  H  H12  1  0.21369200  0.92147211  0.76429758  1.0
  H  H13  1  0.77071169  0.07091962  0.59603483  1.0
  H  H14  1  0.77439220  0.07513606  0.68296820  1.0
  H  H15  1  0.49549382  0.42297154  0.07834823  1.0
  H  H16  1  0.48070306  0.24453635  0.16598910  1.0
  H  H17  1  0.49580958  0.33245897  0.25659291  1.0
  H  H18  1  0.71828644  0.57300452  0.09037584  1.0
  H  H19  1  0.75009309  0.48427249  0.09021332  1.0
  H  H20  1  0.20788355  0.40316205  0.24644861  1.0
  H  H21  1  0.25712609  0.41252419  0.01598412  1.0
  H  H22  1  0.79498393  0.25709147  0.00556691  1.0
  H  H23  1  0.78709782  0.25713896  0.09437201  1.0
  H  H24  1  0.76657677  0.18568591  0.23621915  1.0
  H  H25  1  0.20986657  0.16701031  0.40456796  1.0
  H  H26  1  0.19887935  0.25770556  0.31726157  1.0
  H  H27  1  0.50768745  0.57704527  0.50088764  1.0
  H  H28  1  0.52781307  0.75543188  0.41021864  1.0
  H  H29  1  0.51369285  0.66807923  0.58845168  1.0
  H  H30  1  0.29485979  0.42694535  0.66427009  1.0
  H  H31  1  0.26462000  0.51505557  0.57527269  1.0
  H  H32  1  0.79236472  0.59811108  0.64790586  1.0
  H  H33  1  0.73645482  0.58674470  0.42702407  1.0
  H  H34  1  0.20379181  0.74308929  0.26409631  1.0
  H  H35  1  0.22001081  0.74341534  0.35270293  1.0
  H  H36  1  0.24643460  0.81433713  0.42182586  1.0
  H  H37  1  0.78151431  0.83451508  0.56988289  1.0
  H  H38  1  0.79772181  0.74341597  0.57388672  1.0
  C  C39  1  0.50056558  0.92791554  0.49725045  1.0
  C  C40  1  0.49168249  0.99762578  0.57534470  1.0
  C  C41  1  0.49930280  0.07366237  0.42562498  1.0
  C  C42  1  0.55533019  0.26132204  0.83079582  1.0
  C  C43  1  0.54605256  0.33348645  0.90726490  1.0
  C  C44  1  0.56089239  0.40892055  0.76035287  1.0
  C  C45  1  0.45306598  0.74114600  0.09320127  1.0
  C  C46  1  0.44551898  0.59264057  0.16773338  1.0
  C  C47  1  0.44356905  0.66592651  0.24113588  1.0
  C  C48  1  0.47495028  0.94978205  0.88444232  1.0
  C  C49  1  0.48199444  0.00088219  0.88315095  1.0
  C  C50  1  0.49388379  0.05136436  0.83294945  1.0
  C  C51  1  0.49132898  0.05011840  0.78316140  1.0
  C  C52  1  0.48763005  0.99975426  0.78300016  1.0
  C  C53  1  0.48300051  0.94998333  0.83396389  1.0
  C  C54  1  0.38726675  0.16101696  0.87514704  1.0
  C  C55  1  0.36792564  0.11065870  0.87589632  1.0
  C  C56  1  0.50787690  0.10479394  0.83249525  1.0
  C  C57  1  0.66269911  0.15130073  0.78803670  1.0
  C  C58  1  0.67351130  0.20205172  0.78673147  1.0
  C  C59  1  0.54141089  0.20739232  0.83067266  1.0
  C  C60  1  0.59671668  0.89355084  0.98566650  1.0
  C  C61  1  0.58551525  0.84391591  0.03606798  1.0
  C  C62  1  0.45331831  0.79551781  0.03971689  1.0
  C  C63  1  0.31723652  0.79879687  0.99210927  1.0
  C  C64  1  0.31911983  0.84872597  0.94204821  1.0
  C  C65  1  0.46426439  0.89682861  0.93774480  1.0
  C  C66  1  0.33984079  0.95461350  0.72786281  1.0
  C  C67  1  0.33961311  0.95232076  0.67895164  1.0
  C  C68  1  0.49016341  0.99509765  0.63016250  1.0
  C  C69  1  0.64523472  0.03880579  0.63331547  1.0
  C  C70  1  0.64406194  0.04123927  0.68193319  1.0
  C  C71  1  0.48950978  0.99888626  0.73033910  1.0
  C  C72  1  0.50036098  0.33380509  0.11589022  1.0
  C  C73  1  0.49337686  0.38356643  0.11725227  1.0
  C  C74  1  0.48413250  0.38389125  0.16747752  1.0
  C  C75  1  0.48550232  0.33290895  0.21723747  1.0
  C  C76  1  0.48735301  0.28240189  0.21732869  1.0
  C  C77  1  0.49211119  0.28355682  0.16634942  1.0
  C  C78  1  0.60422424  0.53558092  0.12425848  1.0
  C  C79  1  0.61853931  0.48568575  0.12404044  1.0
  C  C80  1  0.47679057  0.43693688  0.16781555  1.0
  C  C81  1  0.32729028  0.43967179  0.21230594  1.0
  C  C82  1  0.32169974  0.48939934  0.21313060  1.0
  C  C83  1  0.45387430  0.53823687  0.16860110  1.0
  C  C84  1  0.38223159  0.37850958  0.01444863  1.0
  C  C85  1  0.40014872  0.37939076  0.96395464  1.0
  C  C86  1  0.53852837  0.33486090  0.96053465  1.0
  C  C87  1  0.67466240  0.29084765  0.00833381  1.0
  C  C88  1  0.66635131  0.29069407  0.05841751  1.0
  C  C89  1  0.51473506  0.33416199  0.06255008  1.0
  C  C90  1  0.64016501  0.18239812  0.27265739  1.0
  C  C91  1  0.64430416  0.13140602  0.32173584  1.0
  C  C92  1  0.49453157  0.12552753  0.37058616  1.0
  C  C93  1  0.33519086  0.17216207  0.36725797  1.0
  C  C94  1  0.33216501  0.22295568  0.31843567  1.0
  C  C95  1  0.48699501  0.22896553  0.27003259  1.0
  C  C96  1  0.50507313  0.66619933  0.44940923  1.0
  C  C97  1  0.51230632  0.61651197  0.50039901  1.0
  C  C98  1  0.52354225  0.61635621  0.55082303  1.0
  C  C99  1  0.52319944  0.66748614  0.54956619  1.0
  C  C100  1  0.52066824  0.71791375  0.49927945  1.0
  C  C101  1  0.51556141  0.71653570  0.44958507  1.0
  C  C102  1  0.40542056  0.46468854  0.66018503  1.0
  C  C103  1  0.39222672  0.51429628  0.60997096  1.0
  C  C104  1  0.53038253  0.56346024  0.60419860  1.0
  C  C105  1  0.67529368  0.56136520  0.65082277  1.0
  C  C106  1  0.67929378  0.51199406  0.70147607  1.0
  C  C107  1  0.55080020  0.46278728  0.70654120  1.0
  C  C108  1  0.61111287  0.62086113  0.39226049  1.0
  C  C109  1  0.58649952  0.61967168  0.34297825  1.0
  C  C110  1  0.44904604  0.66434033  0.29581014  1.0
  C  C111  1  0.32103539  0.70895127  0.30010377  1.0
  C  C112  1  0.33458151  0.70933580  0.34985364  1.0
  C  C113  1  0.48533369  0.66566486  0.39660494  1.0
  C  C114  1  0.36871058  0.81796520  0.45457070  1.0
  C  C115  1  0.36214135  0.86923188  0.45226491  1.0
  C  C116  1  0.50613473  0.87559360  0.49471643  1.0
  C  C117  1  0.66127732  0.82906890  0.53802437  1.0
  C  C118  1  0.66681924  0.77799594  0.54036960  1.0
  C  C119  1  0.51866784  0.77153475  0.49839689  1.0
  Cl  Cl120  1  0.85260658  0.25882509  0.72966363  1.0
  Cl  Cl121  1  0.73902828  0.84283104  0.09437586  1.0
  Cl  Cl122  1  0.16084910  0.89387238  0.68275014  1.0
  Cl  Cl123  1  0.15001800  0.49010938  0.27012039  1.0
  Cl  Cl124  1  0.24930475  0.43641391  0.90535197  1.0
  Cl  Cl125  1  0.82666639  0.07690021  0.31819472  1.0
  Cl  Cl126  1  0.84498911  0.51208859  0.75847805  1.0
  Cl  Cl127  1  0.72998151  0.56211072  0.34078420  1.0
  Cl  Cl128  1  0.18467360  0.92343918  0.39429068  1.0
  O  O129  1  0.26523009  0.06666039  0.46032450  1.0
  O  O130  1  0.26486128  0.96183230  0.47331237  1.0
  O  O131  1  0.25465589  0.97366804  0.56538404  1.0
  O  O132  1  0.73915049  0.04033568  0.43518492  1.0
  O  O133  1  0.72844716  0.02511662  0.54132573  1.0
  O  O134  1  0.73069383  0.93471251  0.52470973  1.0
  O  O135  1  0.32553412  0.39924592  0.79511732  1.0
  O  O136  1  0.32530623  0.29596218  0.80589291  1.0
  O  O137  1  0.31256431  0.30692073  0.89973187  1.0
  O  O138  1  0.80089940  0.37629610  0.76693164  1.0
  O  O139  1  0.78782272  0.35802461  0.87395658  1.0
  O  O140  1  0.79285099  0.26790404  0.85690330  1.0
  O  O141  1  0.20484980  0.64163011  0.23225953  1.0
  O  O142  1  0.21441253  0.73208893  0.12719053  1.0
  O  O143  1  0.21051859  0.62590021  0.14135366  1.0
  O  O144  1  0.68000663  0.69275640  0.20694559  1.0
  O  O145  1  0.67825600  0.60215751  0.19232126  1.0
  O  O146  1  0.68963742  0.70778516  0.10025663  1.0
