# generated using pymatgen
data_Al6H56C89N5Cl3O28
_symmetry_space_group_name_H-M   'P 1'
_cell_length_a   12.94706087
_cell_length_b   12.97567870
_cell_length_c   27.66074807
_cell_angle_alpha   89.41199329
_cell_angle_beta   88.52991247
_cell_angle_gamma   60.86626617
_symmetry_Int_Tables_number   1
_chemical_formula_structural   Al6H56C89N5Cl3O28
_chemical_formula_sum   'Al6 H56 C89 N5 Cl3 O28'
_cell_volume   4057.66909779
_cell_formula_units_Z   1
loop_
 _symmetry_equiv_pos_site_id
 _symmetry_equiv_pos_as_xyz
  1  'x, y, z'
loop_
 _atom_site_type_symbol
 _atom_site_label
 _atom_site_symmetry_multiplicity
 _atom_site_fract_x
 _atom_site_fract_y
 _atom_site_fract_z
 _atom_site_occupancy
  Al  Al0  1  0.58609063  0.58627068  0.49517550  1.0
  Al  Al1  1  0.34699153  0.57094869  0.49991498  1.0
  Al  Al2  1  0.57810040  0.34406714  0.49989774  1.0
  Al  Al3  1  0.09163968  0.05680062  0.98454075  1.0
  Al  Al4  1  0.08731845  0.30719628  0.98452302  1.0
  Al  Al5  1  0.32236402  0.09179439  0.98357071  1.0
  H  H6  1  0.12109274  0.45425259  0.22585743  1.0
  H  H7  1  0.20497132  0.26708635  0.29432139  1.0
  H  H8  1  0.50398868  0.18870619  0.78576386  1.0
  H  H9  1  0.46674514  0.16947213  0.87195882  1.0
  H  H10  1  0.20998637  0.54215435  0.71644092  1.0
  H  H11  1  0.17102485  0.51310369  0.78220691  1.0
  H  H12  1  0.49592247  0.18266446  0.71455764  1.0
  H  H13  1  0.52168331  0.19681843  0.62659826  1.0
  H  H14  1  0.82889235  0.17961295  0.61449349  1.0
  H  H15  1  0.01957535  0.37658766  0.84564613  1.0
  H  H16  1  0.27353633  0.52962221  0.26353649  1.0
  H  H17  1  0.76627863  0.50847560  0.27250323  1.0
  H  H18  1  0.89509418  0.15431089  0.70000544  1.0
  H  H19  1  0.77010655  0.21695872  0.78249988  1.0
  H  H20  1  0.84049425  0.17374145  0.86755182  1.0
  H  H21  1  0.66948568  0.55509705  0.63154549  1.0
  H  H22  1  0.51537823  0.77735727  0.60774951  1.0
  H  H23  1  0.35274677  0.03863403  0.75285681  1.0
  H  H24  1  0.35346856  0.06781784  0.84063713  1.0
  H  H25  1  0.28769237  0.74694864  0.77906830  1.0
  H  H26  1  0.45402336  0.37917990  0.19589631  1.0
  H  H27  1  0.27184426  0.78786854  0.86734722  1.0
  H  H28  1  0.99197379  0.40152915  0.22615414  1.0
  H  H29  1  0.17724458  0.79347807  0.62324501  1.0
  H  H30  1  0.53644789  0.19642452  0.26535388  1.0
  H  H31  1  0.38614663  0.11899811  0.22694220  1.0
  H  H32  1  0.99424836  0.09467629  0.21864146  1.0
  H  H33  1  0.06313939  0.20532821  0.28944897  1.0
  H  H34  1  0.68289181  0.43351842  0.16190569  1.0
  H  H35  1  0.49104187  0.53298907  0.19587817  1.0
  H  H36  1  0.57873611  0.56202689  0.23663290  1.0
  H  H37  1  0.54172929  0.44966522  0.25017039  1.0
  H  H38  1  0.07593853  0.59212208  0.84758946  1.0
  H  H39  1  0.50723223  0.74690221  0.21027335  1.0
  H  H40  1  0.09292633  0.67451765  0.91686697  1.0
  H  H41  1  0.20696227  0.53569422  0.93694914  1.0
  H  H42  1  0.05678326  0.57080710  0.94450148  1.0
  H  H43  1  0.65499195  0.63005671  0.70345273  1.0
  H  H44  1  0.60829940  0.66710416  0.78116372  1.0
  H  H45  1  0.72346413  0.52802246  0.79981173  1.0
  H  H46  1  0.59155030  0.53903624  0.77623202  1.0
  H  H47  1  0.59721318  0.79636814  0.67997708  1.0
  H  H48  1  0.57950844  0.98329859  0.69643495  1.0
  H  H49  1  0.51295932  0.98255330  0.64038445  1.0
  H  H50  1  0.37113230  0.65701964  0.25950669  1.0
  H  H51  1  0.42312029  0.04625592  0.69273591  1.0
  H  H52  1  0.70136508  0.19169724  0.23418905  1.0
  H  H53  1  0.72551665  0.05643857  0.29779691  1.0
  H  H54  1  0.81329233  0.10345163  0.32893092  1.0
  H  H55  1  0.87106979  0.01591960  0.27524510  1.0
  H  H56  1  0.17019589  0.81513319  0.20607184  1.0
  H  H57  1  0.10927025  0.98520732  0.28122104  1.0
  H  H58  1  0.24224602  0.07513350  0.23213531  1.0
  H  H59  1  0.23257739  0.55199372  0.62830269  1.0
  H  H60  1  0.70212508  0.66704939  0.46469936  1.0
  H  H61  1  0.96955353  0.98244293  0.96006591  1.0
  C  C62  1  0.37988152  0.70753624  0.42901114  1.0
  C  C63  1  0.35885193  0.34730494  0.34349882  1.0
  C  C64  1  0.98117119  0.24768901  0.26928171  1.0
  C  C65  1  0.39238517  0.38786481  0.43373265  1.0
  C  C66  1  0.94219322  0.18562394  0.23147425  1.0
  C  C67  1  0.92019240  0.29047972  0.10214248  1.0
  C  C68  1  0.78749598  0.33263658  0.38621292  1.0
  C  C69  1  0.94074203  0.35745879  0.23547523  1.0
  C  C70  1  0.90086764  0.29557084  0.19695566  1.0
  C  C71  1  0.81509942  0.41704948  0.25989750  1.0
  C  C72  1  0.85414429  0.30710063  0.29461232  1.0
  C  C73  1  0.36984314  0.36028003  0.38635687  1.0
  C  C74  1  0.77373563  0.35512192  0.22194048  1.0
  C  C75  1  0.81318413  0.24527838  0.25571263  1.0
  C  C76  1  0.91457997  0.29328073  0.14621383  1.0
  C  C77  1  0.72337099  0.36822804  0.43159549  1.0
  C  C78  1  0.82386077  0.31739498  0.34439482  1.0
  C  C79  1  0.38343380  0.89355791  0.26655570  1.0
  C  C80  1  0.41853919  0.79843318  0.22622708  1.0
  C  C81  1  0.31296346  0.91758081  0.10243502  1.0
  C  C82  1  0.33969716  0.77113443  0.38437423  1.0
  C  C83  1  0.27127145  0.98185376  0.23831037  1.0
  C  C84  1  0.35996589  0.21049469  0.23543785  1.0
  C  C85  1  0.30705193  0.88651405  0.19653330  1.0
  C  C86  1  0.19714303  0.93179272  0.26480870  1.0
  C  C87  1  0.30850587  0.84343115  0.29435212  1.0
  C  C88  1  0.23114117  0.83722774  0.22401909  1.0
  C  C89  1  0.37454712  0.71610492  0.56352218  1.0
  C  C90  1  0.34302642  0.74964256  0.25227288  1.0
  C  C91  1  0.30981581  0.90550762  0.14613772  1.0
  C  C92  1  0.31859357  0.81048462  0.34346968  1.0
  C  C93  1  0.37710501  0.37451061  0.62155151  1.0
  C  C94  1  0.28880474  0.47077189  0.64757984  1.0
  C  C95  1  0.31245548  0.31386603  0.19687437  1.0
  C  C96  1  0.27668900  0.46405883  0.69738134  1.0
  C  C97  1  0.35014951  0.36038522  0.72309480  1.0
  C  C98  1  0.43757063  0.26445046  0.69623158  1.0
  C  C99  1  0.45187349  0.27110703  0.64654156  1.0
  C  C100  1  0.42324308  0.25620513  0.80318587  1.0
  C  C101  1  0.39827028  0.38835351  0.56956163  1.0
  C  C102  1  0.40412344  0.24655415  0.85192481  1.0
  C  C103  1  0.22119105  0.43468130  0.85208872  1.0
  C  C104  1  0.23882117  0.43756948  0.80144336  1.0
  C  C105  1  0.33680564  0.35148840  0.77618151  1.0
  C  C106  1  0.44426683  0.25267916  0.25584663  1.0
  C  C107  1  0.30186849  0.33067015  0.87748023  1.0
  C  C108  1  0.74743296  0.37003542  0.61807581  1.0
  C  C109  1  0.80796264  0.25565080  0.63720317  1.0
  C  C110  1  0.84242559  0.24250334  0.68504448  1.0
  C  C111  1  0.81480355  0.33979926  0.71518773  1.0
  C  C112  1  0.74627359  0.45563671  0.69660969  1.0
  C  C113  1  0.70244270  0.39379734  0.56802037  1.0
  C  C114  1  0.71887983  0.46735455  0.64736454  1.0
  C  C115  1  0.93224569  0.35799683  0.78348487  1.0
  C  C116  1  0.96525885  0.34117780  0.83167575  1.0
  C  C117  1  0.34504156  0.33497922  0.29365680  1.0
  C  C118  1  0.86446873  0.22664383  0.84383499  1.0
  C  C119  1  0.82705487  0.24948759  0.79639424  1.0
  C  C120  1  0.85818509  0.31682267  0.76517335  1.0
  C  C121  1  0.93106952  0.27554074  0.86198775  1.0
  C  C122  1  0.35070828  0.77568566  0.61135524  1.0
  C  C123  1  0.43740981  0.79711155  0.63029168  1.0
  C  C124  1  0.42621857  0.84133037  0.67701755  1.0
  C  C125  1  0.25964864  0.29242459  0.27188253  1.0
  C  C126  1  0.32614998  0.86396072  0.70682743  1.0
  C  C127  1  0.23595051  0.84994111  0.68500292  1.0
  C  C128  1  0.39835196  0.35572627  0.21849672  1.0
  C  C129  1  0.24744009  0.80545381  0.63841792  1.0
  C  C130  1  0.33962682  0.97987592  0.77740278  1.0
  C  C131  1  0.33858242  0.99773502  0.82699844  1.0
  C  C132  1  0.29299712  0.84000223  0.84191315  1.0
  C  C133  1  0.29976497  0.81896553  0.79247128  1.0
  C  C134  1  0.32106514  0.88988261  0.75920524  1.0
  C  C135  1  0.31343173  0.92916329  0.85954466  1.0
  C  C136  1  0.95653057  0.26669013  0.05217504  1.0
  C  C137  1  0.21352999  0.39621882  0.23478863  1.0
  C  C138  1  0.26293742  0.26623820  0.05624884  1.0
  C  C139  1  0.29840478  0.43822393  0.25496189  1.0
  C  C140  1  0.29056800  0.95168591  0.05238650  1.0
  C  C141  1  0.97279499  0.25310776  0.91253215  1.0
  C  C142  1  0.27346650  0.29347611  0.92398051  1.0
  C  C143  1  0.29629254  0.96077529  0.91181357  1.0
  C  C144  1  0.28392844  0.29141296  0.10431696  1.0
  C  C145  1  0.56545021  0.49195251  0.22056011  1.0
  C  C146  1  0.12006653  0.58027834  0.92024759  1.0
  C  C147  1  0.65520442  0.57244555  0.77279948  1.0
  C  C148  1  0.50820680  0.97370345  0.68006264  1.0
  C  C149  1  0.79043965  0.08727216  0.29288695  1.0
  C  C150  1  0.29728229  0.30237368  0.14711629  1.0
  N  N151  1  0.66985995  0.40334362  0.19446230  1.0
  N  N152  1  0.12666336  0.53158882  0.87237543  1.0
  N  N153  1  0.70534028  0.55829293  0.72382208  1.0
  N  N154  1  0.51903550  0.85947418  0.69488468  1.0
  N  N155  1  0.73793358  0.19761126  0.26560218  1.0
  Cl  Cl156  1  0.48181692  0.92787783  0.29468518  1.0
  Cl  Cl157  1  0.98676245  0.42917388  0.74595461  1.0
  Cl  Cl158  1  0.10273591  0.88976775  0.71593781  1.0
  O  O159  1  0.69792694  0.46881018  0.44779536  1.0
  O  O160  1  0.34388314  0.17135575  0.03649268  1.0
  O  O161  1  0.36786070  0.96766225  0.02795974  1.0
  O  O162  1  0.48681020  0.67098306  0.43883860  1.0
  O  O163  1  0.21095633  0.95910472  0.93420897  1.0
  O  O164  1  0.99160675  0.15709114  0.93214986  1.0
  O  O165  1  0.99022938  0.33272849  0.93207735  1.0
  O  O166  1  0.16892367  0.35616122  0.94255284  1.0
  O  O167  1  0.34963757  0.19450292  0.94226487  1.0
  O  O168  1  0.36673849  0.99384544  0.92988442  1.0
  O  O169  1  0.16742625  0.15207616  0.98447147  1.0
  O  O170  1  0.32100991  0.48030158  0.54783288  1.0
  O  O171  1  0.30424364  0.69036765  0.45415005  1.0
  O  O172  1  0.31626367  0.48817542  0.45152207  1.0
  O  O173  1  0.48852188  0.31381218  0.45359119  1.0
  O  O174  1  0.69268086  0.29585534  0.45092565  1.0
  O  O175  1  0.67214191  0.49487400  0.55071040  1.0
  O  O176  1  0.46785665  0.69753901  0.54093254  1.0
  O  O177  1  0.30084180  0.68297269  0.54940923  1.0
  O  O178  1  0.49629450  0.31107486  0.54991185  1.0
  O  O179  1  0.69248875  0.31155619  0.54613217  1.0
  O  O180  1  0.50251360  0.49931255  0.49790689  1.0
  O  O181  1  0.19276034  0.96749442  0.03730921  1.0
  O  O182  1  0.98435371  0.16567403  0.03629628  1.0
  O  O183  1  0.96337519  0.34975862  0.02829317  1.0
  O  O184  1  0.16376389  0.33693460  0.03759280  1.0
  O  O185  1  0.65859484  0.67072329  0.49413072  1.0
  O  O186  1  0.02345638  0.96831711  0.98600939  1.0
