# generated using pymatgen
data_ZnH20C24NO4
_symmetry_space_group_name_H-M   'P 1'
_cell_length_a   11.03612054
_cell_length_b   13.86018088
_cell_length_c   15.30153873
_cell_angle_alpha   89.97844943
_cell_angle_beta   91.18892187
_cell_angle_gamma   89.99435281
_symmetry_Int_Tables_number   1
_chemical_formula_structural   ZnH20C24NO4
_chemical_formula_sum   'Zn2 H40 C48 N2 O8'
_cell_volume   2340.05949038
_cell_formula_units_Z   2
loop_
 _symmetry_equiv_pos_site_id
 _symmetry_equiv_pos_as_xyz
  1  'x, y, z'
loop_
 _atom_site_type_symbol
 _atom_site_label
 _atom_site_symmetry_multiplicity
 _atom_site_fract_x
 _atom_site_fract_y
 _atom_site_fract_z
 _atom_site_occupancy
  Zn  Zn0  1  0.50001175  0.39959512  0.50008560  1.0
  Zn  Zn1  1  0.49995728  0.59397356  0.49998366  1.0
  H  H2  1  0.79410239  0.32107782  0.56006817  1.0
  H  H3  1  0.21665793  0.68111004  0.46383966  1.0
  H  H4  1  0.20578123  0.32103443  0.43986060  1.0
  H  H5  1  0.78341947  0.68124318  0.53607191  1.0
  H  H6  1  0.56452603  0.35773538  0.94104062  1.0
  H  H7  1  0.57242471  0.64853395  0.06030327  1.0
  H  H8  1  0.43485301  0.35772941  0.05921180  1.0
  H  H9  1  0.42617507  0.64836278  0.93953509  1.0
  H  H10  1  0.55368238  0.35573180  0.77814499  1.0
  H  H11  1  0.58268794  0.64523815  0.22340065  1.0
  H  H12  1  0.44616230  0.35576116  0.22208546  1.0
  H  H13  1  0.41642175  0.64505834  0.77646030  1.0
  H  H14  1  0.54990416  0.92803681  0.63749956  1.0
  H  H15  1  0.58561374  0.06567793  0.37408880  1.0
  H  H16  1  0.45017574  0.92827606  0.36243952  1.0
  H  H17  1  0.41450286  0.06545465  0.62593541  1.0
  H  H18  1  0.54540472  0.74695117  0.63154966  1.0
  H  H19  1  0.58124986  0.24668686  0.37977676  1.0
  H  H20  1  0.45460955  0.74715936  0.36832737  1.0
  H  H21  1  0.41893137  0.24649219  0.62042847  1.0
  H  H22  1  0.87517533  0.91246827  0.39001875  1.0
  H  H23  1  0.74405934  0.84437175  0.41384212  1.0
  H  H24  1  0.75840726  0.96545741  0.45215238  1.0
  H  H25  1  0.79849727  0.84780309  0.57374469  1.0
  H  H26  1  0.92862434  0.91681829  0.55255872  1.0
  H  H27  1  0.96397326  0.09868034  0.36159449  1.0
  H  H28  1  0.07640297  0.16767115  0.30911153  1.0
  H  H29  1  0.10477902  0.04441761  0.33570433  1.0
  H  H30  1  0.21348880  0.15433808  0.44199038  1.0
  H  H31  1  0.10357137  0.08440902  0.49511236  1.0
  H  H32  1  0.12489566  0.91244026  0.60982362  1.0
  H  H33  1  0.25611018  0.84438267  0.58615084  1.0
  H  H34  1  0.24171474  0.96544108  0.54769139  1.0
  H  H35  1  0.20177019  0.84770233  0.42621321  1.0
  H  H36  1  0.07162606  0.91673660  0.44724955  1.0
  H  H37  1  0.03596391  0.09867797  0.63833874  1.0
  H  H38  1  0.92353850  0.16762907  0.69083367  1.0
  H  H39  1  0.89520625  0.04436417  0.66430581  1.0
  H  H40  1  0.78640450  0.15433767  0.55798053  1.0
  H  H41  1  0.89631986  0.08445398  0.50486913  1.0
  C  C42  1  0.48285059  0.49832686  0.66958238  1.0
  C  C43  1  0.51699286  0.49837815  0.33046122  1.0
  C  C44  1  0.49629820  0.50326414  0.95183982  1.0
  C  C45  1  0.50273329  0.50330441  0.04823458  1.0
  C  C46  1  0.52666366  0.89123879  0.57650999  1.0
  C  C47  1  0.54627465  0.10241883  0.42965323  1.0
  C  C48  1  0.47341154  0.89137446  0.42341931  1.0
  C  C49  1  0.45381440  0.10230659  0.57040668  1.0
  C  C50  1  0.52574760  0.79105526  0.57389797  1.0
  C  C51  1  0.54533472  0.20264861  0.43231667  1.0
  C  C52  1  0.47426526  0.79118327  0.42599223  1.0
  C  C53  1  0.45478297  0.20253810  0.56783370  1.0
  C  C54  1  0.50003164  0.94353754  0.49997994  1.0
  C  C55  1  0.50002592  0.05002609  0.50000763  1.0
  C  C56  1  0.73489243  0.49783203  0.51698527  1.0
  C  C57  1  0.26509606  0.49768756  0.48305766  1.0
  C  C58  1  0.88392589  0.32159220  0.53238562  1.0
  C  C59  1  0.12178828  0.68133692  0.48099123  1.0
  C  C60  1  0.11596260  0.32156260  0.46757046  1.0
  C  C61  1  0.87831159  0.68140589  0.51897273  1.0
  C  C62  1  0.94183395  0.23502088  0.52024543  1.0
  C  C63  1  0.06240650  0.76813006  0.48849766  1.0
  C  C64  1  0.05802623  0.23499477  0.47967309  1.0
  C  C65  1  0.93777011  0.76816027  0.51146952  1.0
  C  C66  1  0.06312427  0.41264544  0.48868152  1.0
  C  C67  1  0.93543790  0.58985456  0.50835097  1.0
  C  C68  1  0.93680347  0.41266788  0.51128389  1.0
  C  C69  1  0.06458038  0.58982210  0.49161722  1.0
  C  C70  1  0.12830863  0.50085409  0.48451763  1.0
  C  C71  1  0.87167751  0.50091075  0.51544645  1.0
  C  C72  1  0.53052624  0.42053089  0.90519862  1.0
  C  C73  1  0.54321562  0.58449563  0.09561602  1.0
  C  C74  1  0.46882283  0.42054700  0.09497218  1.0
  C  C75  1  0.45562119  0.58434790  0.90432750  1.0
  C  C76  1  0.52505009  0.41908770  0.81443131  1.0
  C  C77  1  0.54963182  0.58289981  0.18658763  1.0
  C  C78  1  0.47449192  0.41916266  0.18572509  1.0
  C  C79  1  0.44954858  0.58276265  0.81335573  1.0
  C  C80  1  0.48474580  0.50021750  0.76744463  1.0
  C  C81  1  0.51473058  0.50030277  0.23260668  1.0
  C  C82  1  0.86858815  0.86076135  0.52499915  1.0
  C  C83  1  0.80800076  0.89810045  0.44042230  1.0
  C  C84  1  0.11515873  0.14304823  0.44755245  1.0
  C  C85  1  0.06218181  0.11138015  0.35841458  1.0
  C  C86  1  0.13164284  0.86068675  0.47490573  1.0
  C  C87  1  0.19215393  0.89807468  0.55947196  1.0
  C  C88  1  0.88472487  0.14306071  0.55242351  1.0
  C  C89  1  0.93776293  0.11135082  0.64156408  1.0
  N  N90  1  0.49995393  0.74218448  0.49993959  1.0
  N  N91  1  0.50005352  0.25157035  0.50009202  1.0
  O  O92  1  0.51480268  0.41956404  0.63346934  1.0
  O  O93  1  0.54851933  0.57541915  0.37060717  1.0
  O  O94  1  0.48536569  0.41954127  0.36664063  1.0
  O  O95  1  0.45138334  0.57536324  0.62935197  1.0
  O  O96  1  0.68336416  0.42258163  0.48569038  1.0
  O  O97  1  0.32479861  0.56994644  0.45492246  1.0
  O  O98  1  0.31659051  0.42243341  0.51445032  1.0
  O  O99  1  0.67522905  0.57012251  0.54505905  1.0
