# generated using pymatgen
data_ZnH18C36(NO5)2
_symmetry_space_group_name_H-M   'P 1'
_cell_length_a   9.72736242
_cell_length_b   10.84988561
_cell_length_c   27.82931818
_cell_angle_alpha   90.87155934
_cell_angle_beta   90.78893660
_cell_angle_gamma   93.03733622
_symmetry_Int_Tables_number   1
_chemical_formula_structural   ZnH18C36(NO5)2
_chemical_formula_sum   'Zn2 H36 C72 N4 O20'
_cell_volume   2932.34984054
_cell_formula_units_Z   2
loop_
 _symmetry_equiv_pos_site_id
 _symmetry_equiv_pos_as_xyz
  1  'x, y, z'
loop_
 _atom_site_type_symbol
 _atom_site_label
 _atom_site_symmetry_multiplicity
 _atom_site_fract_x
 _atom_site_fract_y
 _atom_site_fract_z
 _atom_site_occupancy
  Zn  Zn0  1  0.37767980  0.47414873  0.49899493  1.0
  Zn  Zn1  1  0.66588622  0.49658007  0.49702995  1.0
  H  H2  1  0.31797553  0.75037473  0.87146917  1.0
  H  H3  1  0.63717913  0.75409046  0.26922785  1.0
  H  H4  1  0.33333333  0.77928144  0.96031107  1.0
  H  H5  1  0.73093305  0.55154239  0.64887905  1.0
  H  H6  1  0.76586159  0.30028931  0.88200260  1.0
  H  H7  1  0.67591688  0.29510407  0.12831513  1.0
  H  H8  1  0.77623347  0.31959224  0.97138999  1.0
  H  H9  1  0.73485748  0.09954267  0.51437991  1.0
  H  H10  1  0.43080391  0.07316998  0.48142726  1.0
  H  H11  1  0.70409721  0.86777833  0.49952426  1.0
  H  H12  1  0.13785260  0.55454330  0.50888762  1.0
  H  H13  1  0.87302959  0.36820401  0.55059615  1.0
  H  H14  1  0.93545403  0.53727621  0.47211945  1.0
  H  H15  1  0.32418579  0.26520132  0.62384642  1.0
  H  H16  1  0.84118148  0.63409347  0.71437805  1.0
  H  H17  1  0.59581362  0.21198635  0.00145943  1.0
  H  H18  1  0.25967586  0.33685013  0.31982420  1.0
  H  H19  1  0.48852937  0.23660616  0.26935146  1.0
  H  H20  1  0.37861386  0.07593445  0.21448969  1.0
  H  H21  1  0.21398364  0.13457987  0.15108190  1.0
  H  H22  1  0.15085474  0.35431024  0.14467005  1.0
  H  H23  1  0.25773970  0.51416100  0.20027687  1.0
  H  H24  1  0.16361985  0.52881763  0.73544294  1.0
  H  H25  1  0.97506289  0.44937746  0.78815441  1.0
  H  H26  1  0.00060556  0.25589193  0.83338996  1.0
  H  H27  1  0.21678592  0.14284668  0.82661581  1.0
  H  H28  1  0.40529416  0.22355836  0.77444079  1.0
  H  H29  1  0.30782945  0.83000200  0.56281305  1.0
  H  H30  1  0.99591043  0.20463436  0.57692293  1.0
  H  H31  1  0.01065820  0.97883175  0.56549614  1.0
  H  H32  1  0.11256530  0.89504300  0.49090298  1.0
  H  H33  1  0.20458044  0.03830262  0.42849863  1.0
  H  H34  1  0.19461641  0.26389829  0.44020165  1.0
  H  H35  1  0.68832767  0.83860519  0.34297135  1.0
  H  H36  1  0.51722602  0.94218367  0.15026620  1.0
  H  H37  1  0.54375216  0.97742609  0.04748203  1.0
  C  C38  1  0.51010324  0.71627658  0.52133652  1.0
  C  C39  1  0.53366290  0.44960396  0.59196654  1.0
  C  C40  1  0.54215670  0.25285384  0.48612718  1.0
  C  C41  1  0.50784523  0.53526411  0.40698764  1.0
  C  C42  1  0.45571525  0.59710936  0.81670300  1.0
  C  C43  1  0.61211689  0.42194536  0.82143800  1.0
  C  C44  1  0.64251802  0.53469675  0.71955588  1.0
  C  C45  1  0.64307272  0.51756644  0.66977395  1.0
  C  C46  1  0.41434229  0.41621640  0.67104564  1.0
  C  C47  1  0.41193664  0.43026999  0.72161874  1.0
  C  C48  1  0.52698088  0.48874003  0.74482064  1.0
  C  C49  1  0.54496459  0.53106443  0.89720364  1.0
  C  C50  1  0.46193250  0.60847721  0.86989286  1.0
  C  C51  1  0.38513467  0.69510976  0.89301338  1.0
  C  C52  1  0.62060478  0.43994390  0.87420675  1.0
  C  C53  1  0.53137608  0.45831416  0.64569000  1.0
  C  C54  1  0.50516725  0.55586966  0.35326465  1.0
  C  C55  1  0.50963047  0.66685234  0.02183160  1.0
  C  C56  1  0.60984208  0.45979240  0.02716178  1.0
  C  C57  1  0.56193988  0.56882913  0.04963716  1.0
  C  C58  1  0.48841872  0.78139615  0.04550857  1.0
  C  C59  1  0.48619438  0.78763490  0.09660019  1.0
  C  C60  1  0.51620832  0.68527523  0.12379612  1.0
  C  C61  1  0.56395361  0.57877787  0.10079799  1.0
  C  C62  1  0.61260470  0.48166375  0.12871351  1.0
  C  C63  1  0.61916904  0.49228366  0.18152297  1.0
  C  C64  1  0.49401534  0.68700050  0.17606791  1.0
  C  C65  1  0.58139523  0.67352962  0.28386398  1.0
  C  C66  1  0.57013045  0.66278959  0.33375648  1.0
  C  C67  1  0.44037223  0.46767179  0.32171993  1.0
  C  C68  1  0.44621821  0.48116125  0.27129425  1.0
  C  C69  1  0.52267022  0.58327155  0.25303509  1.0
  C  C70  1  0.48461665  0.64353103  0.97086729  1.0
  C  C71  1  0.55191298  0.54479731  0.94819014  1.0
  C  C72  1  0.62532775  0.45875850  0.97542055  1.0
  C  C73  1  0.39608947  0.71243889  0.94295570  1.0
  C  C74  1  0.70458176  0.36623681  0.90095452  1.0
  C  C75  1  0.64036620  0.35829172  0.05631269  1.0
  C  C76  1  0.64747642  0.37288825  0.10661738  1.0
  C  C77  1  0.70734723  0.37595802  0.95105922  1.0
  C  C78  1  0.63377142  0.05267750  0.50788547  1.0
  C  C79  1  0.53104800  0.11772771  0.49033295  1.0
  C  C80  1  0.62017104  0.92079217  0.51338925  1.0
  C  C81  1  0.51130721  0.85247036  0.53098294  1.0
  C  C82  1  0.07647434  0.38242460  0.51369604  1.0
  C  C83  1  0.93413425  0.41776158  0.52356646  1.0
  C  C84  1  0.29648879  0.34980659  0.64381246  1.0
  C  C85  1  0.76475996  0.60119578  0.74159753  1.0
  C  C86  1  0.64485698  0.23015072  0.03744716  1.0
  C  C87  1  0.35748357  0.35922093  0.34025901  1.0
  C  C88  1  0.37986671  0.38585181  0.23866904  1.0
  C  C89  1  0.41266045  0.26171240  0.24250260  1.0
  C  C90  1  0.35242395  0.17205932  0.21126315  1.0
  C  C91  1  0.25879084  0.20505033  0.17577932  1.0
  C  C92  1  0.22516040  0.32825279  0.17190699  1.0
  C  C93  1  0.28556315  0.41832833  0.20296008  1.0
  C  C94  1  0.29576617  0.38092982  0.75137214  1.0
  C  C95  1  0.17437768  0.44417140  0.75539806  1.0
  C  C96  1  0.06903125  0.39948781  0.78506058  1.0
  C  C97  1  0.08395501  0.29118896  0.81072526  1.0
  C  C98  1  0.20471683  0.22774346  0.80684938  1.0
  C  C99  1  0.31061322  0.27260744  0.77743260  1.0
  C  C100  1  0.39610228  0.89892902  0.55930806  1.0
  C  C101  1  0.09263329  0.24901270  0.50895179  1.0
  C  C102  1  0.03888356  0.16803870  0.54399612  1.0
  C  C103  1  0.04834406  0.04128728  0.53772925  1.0
  C  C104  1  0.10660518  0.99453304  0.49600237  1.0
  C  C105  1  0.15866845  0.07457709  0.46098168  1.0
  C  C106  1  0.15329698  0.20178118  0.46744126  1.0
  C  C107  1  0.62458474  0.76904114  0.36350751  1.0
  C  C108  1  0.44710774  0.90514105  0.12107044  1.0
  C  C109  1  0.50403707  0.90396922  0.02185894  1.0
  N  N110  1  0.52764164  0.50072459  0.79638296  1.0
  N  N111  1  0.54577551  0.58963448  0.20210419  1.0
  N  N112  1  0.17083495  0.46672071  0.50485828  1.0
  N  N113  1  0.87548587  0.49871135  0.49861271  1.0
  O  O114  1  0.39394210  0.65604057  0.52221390  1.0
  O  O115  1  0.62503867  0.67152674  0.51198286  1.0
  O  O116  1  0.41713772  0.42875201  0.57109399  1.0
  O  O117  1  0.64908539  0.46735326  0.57185600  1.0
  O  O118  1  0.42771629  0.30371362  0.48091551  1.0
  O  O119  1  0.65996392  0.30931990  0.48998748  1.0
  O  O120  1  0.39453824  0.53746952  0.42872993  1.0
  O  O121  1  0.62565386  0.51536599  0.42435107  1.0
  O  O122  1  0.39264511  0.66708839  0.79125787  1.0
  O  O123  1  0.43188740  0.76944394  0.19627738  1.0
  O  O124  1  0.67305315  0.34150627  0.80018466  1.0
  O  O125  1  0.67906783  0.42078817  0.20713793  1.0
  O  O126  1  0.17755043  0.38110991  0.64545582  1.0
  O  O127  1  0.78710492  0.62110319  0.78455893  1.0
  O  O128  1  0.68964324  0.14493791  0.06061975  1.0
  O  O129  1  0.38975549  0.29828062  0.37479542  1.0
  O  O130  1  0.39602975  0.99949420  0.58009978  1.0
  O  O131  1  0.60170236  0.78563210  0.40614083  1.0
  O  O132  1  0.34645801  0.95980405  0.10801698  1.0
  O  O133  1  0.49214461  0.92904091  0.97928396  1.0
