# generated using pymatgen
data_Zn2H22C40IN6ClO8
_symmetry_space_group_name_H-M   'P 1'
_cell_length_a   13.59414627
_cell_length_b   15.96891387
_cell_length_c   17.25554663
_cell_angle_alpha   94.46363496
_cell_angle_beta   90.05871268
_cell_angle_gamma   111.30126013
_symmetry_Int_Tables_number   1
_chemical_formula_structural   Zn2H22C40IN6ClO8
_chemical_formula_sum   'Zn2 H22 C40 I1 N6 Cl1 O8'
_cell_volume   3477.67460683
_cell_formula_units_Z   1
loop_
 _symmetry_equiv_pos_site_id
 _symmetry_equiv_pos_as_xyz
  1  'x, y, z'
loop_
 _atom_site_type_symbol
 _atom_site_label
 _atom_site_symmetry_multiplicity
 _atom_site_fract_x
 _atom_site_fract_y
 _atom_site_fract_z
 _atom_site_occupancy
  Zn  Zn0  1  0.48852443  0.40811058  0.49553092  1.0
  Zn  Zn1  1  0.51134665  0.59132376  0.50264567  1.0
  H  H2  1  0.84506982  0.71039974  0.56848651  1.0
  H  H3  1  0.38369886  0.06744851  0.41578335  1.0
  H  H4  1  0.36176751  0.80788544  0.39633634  1.0
  H  H5  1  0.18737653  0.69821125  0.61179961  1.0
  H  H6  1  0.39363445  0.66388379  0.41411446  1.0
  H  H7  1  0.61675412  0.33236673  0.58015476  1.0
  H  H8  1  0.58583451  0.93512056  0.58634206  1.0
  H  H9  1  0.63955637  0.18195480  0.58640054  1.0
  H  H10  1  0.03519531  0.74532523  0.60400340  1.0
  H  H11  1  0.81071639  0.44175028  0.48616444  1.0
  H  H12  1  0.15360721  0.28344251  0.46387685  1.0
  H  H13  1  0.59910556  0.45707749  0.90149491  1.0
  H  H14  1  0.87269531  0.34757671  0.47640214  1.0
  H  H15  1  0.95704025  0.23638025  0.44842579  1.0
  H  H16  1  0.27126378  0.58772593  0.57864138  1.0
  H  H17  1  0.53755653  0.36358575  0.10484843  1.0
  H  H18  1  0.53030046  0.36844122  0.25130726  1.0
  H  H19  1  0.38589483  0.57265266  0.73607439  1.0
  H  H20  1  0.43637918  0.58932465  0.10759881  1.0
  H  H21  1  0.36374592  0.57613197  0.88096953  1.0
  H  H22  1  0.43790111  0.59869898  0.25380783  1.0
  H  H23  1  0.37410160  0.22271388  0.41457038  1.0
  C  C24  1  0.48744997  0.49054126  0.34784921  1.0
  C  C25  1  0.17697933  0.41900176  0.50534466  1.0
  C  C26  1  0.48410974  0.48398681  0.26072872  1.0
  C  C27  1  0.29456658  0.44457151  0.50347927  1.0
  C  C28  1  0.45767697  0.54647263  0.22042529  1.0
  C  C29  1  0.45735568  0.54190608  0.13983180  1.0
  C  C30  1  0.48707342  0.47576922  0.09828751  1.0
  C  C31  1  0.51392325  0.41347668  0.13848173  1.0
  C  C32  1  0.51047722  0.41655551  0.21915475  1.0
  C  C33  1  0.55116832  0.48076716  0.86479181  1.0
  C  C34  1  0.56289389  0.47944432  0.78477202  1.0
  C  C35  1  0.01768320  0.45776430  0.51446910  1.0
  C  C36  1  0.47765054  0.51406592  0.89923746  1.0
  C  C37  1  0.50157599  0.51096053  0.73711519  1.0
  C  C38  1  0.43110906  0.54665036  0.77322135  1.0
  C  C39  1  0.50472834  0.50754454  0.65007481  1.0
  C  C40  1  0.41884983  0.54878211  0.85313675  1.0
  C  C41  1  0.55500934  0.79406127  0.55271691  1.0
  C  C42  1  0.54313849  0.87640130  0.54702479  1.0
  C  C43  1  0.47427930  0.88223952  0.48918312  1.0
  C  C44  1  0.41741051  0.80523221  0.44063621  1.0
  C  C45  1  0.43483425  0.72614008  0.45014724  1.0
  C  C46  1  0.12903716  0.48308211  0.52740179  1.0
  C  C47  1  0.43624764  0.12471241  0.45258534  1.0
  C  C48  1  0.43076942  0.20972507  0.45200575  1.0
  C  C49  1  0.51225208  0.11441479  0.50216783  1.0
  C  C50  1  0.56789885  0.27184441  0.54477470  1.0
  C  C51  1  0.70365201  0.54974722  0.50610071  1.0
  C  C52  1  0.57981675  0.18931322  0.54825929  1.0
  C  C53  1  0.98598144  0.67863620  0.57784790  1.0
  C  C54  1  0.81835215  0.57304945  0.52531622  1.0
  C  C55  1  0.11476727  0.33114786  0.47881472  1.0
  C  C56  1  0.00494180  0.30541544  0.46972541  1.0
  C  C57  1  0.96939921  0.52483056  0.53030379  1.0
  C  C58  1  0.95776377  0.36815114  0.48582985  1.0
  C  C59  1  0.03237900  0.61275134  0.56392889  1.0
  C  C60  1  0.14124605  0.63221002  0.58268835  1.0
  C  C61  1  0.18795060  0.57087957  0.56453866  1.0
  C  C62  1  0.86238779  0.50731643  0.51222515  1.0
  C  C63  1  0.88113366  0.65983506  0.55850526  1.0
  I  I64  1  0.65921451  0.78838278  0.64025349  1.0
  N  N65  1  0.49641038  0.46846768  0.01682326  1.0
  N  N66  1  0.46114353  0.51786517  0.98003784  1.0
  N  N67  1  0.50295261  0.72033174  0.50486615  1.0
  N  N68  1  0.45635503  0.96295322  0.47864471  1.0
  N  N69  1  0.52830484  0.03258302  0.50958218  1.0
  N  N70  1  0.49481266  0.28145190  0.49736095  1.0
  Cl  Cl71  1  0.66006227  0.44254274  0.74721187  1.0
  O  O72  1  0.46699399  0.41684587  0.37959057  1.0
  O  O73  1  0.51147766  0.56902912  0.38266477  1.0
  O  O74  1  0.33179094  0.38345953  0.51407118  1.0
  O  O75  1  0.34866699  0.52490221  0.48820054  1.0
  O  O76  1  0.51988855  0.44109921  0.61412111  1.0
  O  O77  1  0.48802641  0.57114850  0.61897694  1.0
  O  O78  1  0.64983062  0.46798896  0.48312395  1.0
  O  O79  1  0.66734154  0.61315630  0.51549305  1.0
