# generated using pymatgen
data_Zn2H16C25N8O3F
_symmetry_space_group_name_H-M   'P 1'
_cell_length_a   15.16703081
_cell_length_b   15.18118629
_cell_length_c   22.80684201
_cell_angle_alpha   90.00397531
_cell_angle_beta   90.00020971
_cell_angle_gamma   82.27926837
_symmetry_Int_Tables_number   1
_chemical_formula_structural   Zn2H16C25N8O3F
_chemical_formula_sum   'Zn8 H64 C100 N32 O12 F4'
_cell_volume   5203.75028828
_cell_formula_units_Z   4
loop_
 _symmetry_equiv_pos_site_id
 _symmetry_equiv_pos_as_xyz
  1  'x, y, z'
loop_
 _atom_site_type_symbol
 _atom_site_label
 _atom_site_symmetry_multiplicity
 _atom_site_fract_x
 _atom_site_fract_y
 _atom_site_fract_z
 _atom_site_occupancy
  Zn  Zn0  1  0.56651504  0.53244025  0.41932481  1.0
  Zn  Zn1  1  0.41288341  0.40063331  0.42285839  1.0
  Zn  Zn2  1  0.08713632  0.09931637  0.92296871  1.0
  Zn  Zn3  1  0.93347572  0.96759955  0.91931594  1.0
  Zn  Zn4  1  0.41262389  0.40050069  0.57187419  1.0
  Zn  Zn5  1  0.55231456  0.54767081  0.56311552  1.0
  Zn  Zn6  1  0.94768022  0.95230365  0.06307937  1.0
  Zn  Zn7  1  0.08742914  0.09941976  0.07193770  1.0
  H  H8  1  0.52931947  0.02400357  0.59393879  1.0
  H  H9  1  0.43746634  0.86251503  0.62414738  1.0
  H  H10  1  0.06261274  0.63757143  0.12419799  1.0
  H  H11  1  0.97102732  0.47585077  0.09413410  1.0
  H  H12  1  0.42367633  0.02622260  0.62952581  1.0
  H  H13  1  0.54235190  0.85792162  0.58788325  1.0
  H  H14  1  0.95772436  0.64191373  0.08797437  1.0
  H  H15  1  0.07671753  0.47384322  0.12964051  1.0
  H  H16  1  0.33647768  0.80379024  0.65995841  1.0
  H  H17  1  0.66394080  0.16252676  0.70197534  1.0
  H  H18  1  0.83591105  0.33761757  0.20173416  1.0
  H  H19  1  0.16346707  0.69627883  0.16002467  1.0
  H  H20  1  0.69844299  0.13191856  0.33168194  1.0
  H  H21  1  0.39802509  0.76536079  0.29678999  1.0
  H  H22  1  0.10202004  0.73473246  0.79681229  1.0
  H  H23  1  0.80163640  0.36824812  0.83178821  1.0
  H  H24  1  0.20397611  0.61215734  0.75369887  1.0
  H  H25  1  0.73096157  0.42453978  0.73923181  1.0
  H  H26  1  0.76910713  0.07557773  0.23912327  1.0
  H  H27  1  0.29602546  0.88792148  0.25372664  1.0
  H  H28  1  0.07749634  0.51813136  0.40263294  1.0
  H  H29  1  0.91419440  0.53739989  0.40567479  1.0
  H  H30  1  0.58568341  0.96304677  0.90572634  1.0
  H  H31  1  0.42237825  0.98211456  0.90264706  1.0
  H  H32  1  0.27670169  0.50656387  0.67298360  1.0
  H  H33  1  0.71793722  0.44612193  0.62996938  1.0
  H  H34  1  0.78201679  0.05391427  0.12984163  1.0
  H  H35  1  0.22319019  0.99352862  0.17311226  1.0
  H  H36  1  0.25005906  0.56685122  0.40093827  1.0
  H  H37  1  0.76836430  0.59124497  0.39734575  1.0
  H  H38  1  0.73156877  0.90903174  0.89722140  1.0
  H  H39  1  0.24980927  0.93310243  0.90093309  1.0
  H  H40  1  0.41791551  0.72269707  0.57407569  1.0
  H  H41  1  0.40263916  0.18126837  0.58609424  1.0
  H  H42  1  0.09760316  0.31857280  0.08623409  1.0
  H  H43  1  0.08209661  0.77730489  0.07406246  1.0
  H  H44  1  0.45139487  0.72041322  0.38591091  1.0
  H  H45  1  0.36514415  0.20321069  0.39854322  1.0
  H  H46  1  0.13501679  0.29671325  0.89866952  1.0
  H  H47  1  0.04842206  0.77949252  0.88590894  1.0
  H  H48  1  0.47048684  0.69007715  0.66511456  1.0
  H  H49  1  0.53335020  0.25339668  0.64566557  1.0
  H  H50  1  0.96655838  0.24669078  0.14549042  1.0
  H  H51  1  0.02953952  0.80990123  0.16508212  1.0
  H  H52  1  0.29599410  0.49310841  0.31116721  1.0
  H  H53  1  0.74542022  0.40249581  0.41811813  1.0
  H  H54  1  0.75461375  0.09762512  0.91819226  1.0
  H  H55  1  0.20399085  0.00702355  0.81117433  1.0
  H  H56  1  0.34528364  0.88522797  0.39517581  1.0
  H  H57  1  0.33192923  0.04680773  0.40056424  1.0
  H  H58  1  0.16816464  0.45306770  0.90064423  1.0
  H  H59  1  0.15470709  0.61463206  0.89521127  1.0
  H  H60  1  0.52331677  0.67515125  0.26299958  1.0
  H  H61  1  0.56735013  0.21019729  0.32040502  1.0
  H  H62  1  0.93269986  0.28999812  0.82059644  1.0
  H  H63  1  0.97669288  0.82491032  0.76300210  1.0
  H  H64  1  0.72395261  0.42638416  0.32647498  1.0
  H  H65  1  0.31315796  0.51853572  0.21250208  1.0
  H  H66  1  0.18678698  0.98153622  0.71254596  1.0
  H  H67  1  0.77596101  0.07378983  0.82666888  1.0
  H  H68  1  0.85820524  0.66121601  0.59399736  1.0
  H  H69  1  0.04736749  0.67640790  0.60861736  1.0
  H  H70  1  0.45255344  0.82297734  0.10834792  1.0
  H  H71  1  0.64177772  0.83843366  0.09383297  1.0
  C  C72  1  0.48063539  0.58130741  0.30549316  1.0
  C  C73  1  0.58099108  0.29598531  0.37873885  1.0
  C  C74  1  0.91906348  0.20414988  0.87888418  1.0
  C  C75  1  0.01940055  0.91872079  0.80553196  1.0
  C  C76  1  0.34592769  0.62781340  0.68130652  1.0
  C  C77  1  0.64699652  0.33273309  0.65984103  1.0
  C  C78  1  0.85289737  0.16738156  0.15965734  1.0
  C  C79  1  0.15402465  0.87224254  0.18136111  1.0
  C  C80  1  0.18932048  0.54892855  0.48947256  1.0
  C  C81  1  0.80653529  0.59994698  0.49241317  1.0
  C  C82  1  0.69338690  0.90017856  0.99228989  1.0
  C  C83  1  0.31059385  0.95084357  0.98946759  1.0
  C  C84  1  0.42125038  0.76321310  0.47940375  1.0
  C  C85  1  0.38338864  0.15018137  0.49069234  1.0
  C  C86  1  0.11683366  0.34971553  0.99083176  1.0
  C  C87  1  0.07868675  0.73671199  0.97940121  1.0
  C  C88  1  0.42742027  0.90602561  0.53054222  1.0
  C  C89  1  0.42042927  0.99817426  0.53356115  1.0
  C  C90  1  0.07978207  0.50176818  0.03367321  1.0
  C  C91  1  0.07269262  0.59392199  0.03061458  1.0
  C  C92  1  0.40269951  0.85991974  0.48146297  1.0
  C  C93  1  0.38709205  0.05401233  0.48771573  1.0
  C  C94  1  0.11311802  0.44589211  0.98783692  1.0
  C  C95  1  0.09731808  0.64000653  0.98150084  1.0
  C  C96  1  0.36766297  0.91549625  0.43497860  1.0
  C  C97  1  0.36005685  0.00826419  0.43812609  1.0
  C  C98  1  0.14006611  0.49161739  0.93821553  1.0
  C  C99  1  0.13238482  0.58438626  0.93503766  1.0
  C  C100  1  0.46545712  0.99720845  0.59314807  1.0
  C  C101  1  0.47387406  0.89261590  0.58948756  1.0
  C  C102  1  0.02625345  0.60734284  0.08956982  1.0
  C  C103  1  0.03483234  0.50275409  0.09328561  1.0
  C  C104  1  0.28654163  0.78728380  0.69089525  1.0
  C  C105  1  0.69295342  0.20908490  0.73009340  1.0
  C  C106  1  0.80694357  0.29107783  0.22988913  1.0
  C  C107  1  0.21341230  0.71279545  0.19095085  1.0
  C  C108  1  0.76620857  0.32331380  0.28180483  1.0
  C  C109  1  0.27247443  0.64343642  0.21409360  1.0
  C  C110  1  0.22748078  0.85664534  0.71404956  1.0
  C  C111  1  0.73374348  0.17686395  0.78199303  1.0
  C  C112  1  0.72443288  0.26716308  0.31947261  1.0
  C  C113  1  0.33976718  0.66035283  0.25369237  1.0
  C  C114  1  0.16023420  0.83972394  0.75368228  1.0
  C  C115  1  0.77559633  0.23300186  0.81962459  1.0
  C  C116  1  0.33445794  0.54031416  0.66634865  1.0
  C  C117  1  0.66399450  0.40609720  0.62623044  1.0
  C  C118  1  0.83595085  0.09394553  0.12609905  1.0
  C  C119  1  0.16544665  0.95976730  0.16645558  1.0
  C  C120  1  0.72626818  0.17789533  0.30225451  1.0
  C  C121  1  0.34772369  0.74998988  0.26553194  1.0
  C  C122  1  0.15228720  0.75009274  0.76552902  1.0
  C  C123  1  0.77377496  0.32226057  0.80238592  1.0
  C  C124  1  0.21068884  0.68053309  0.74198270  1.0
  C  C125  1  0.73347482  0.35443360  0.75035212  1.0
  C  C126  1  0.76654230  0.14570201  0.25021735  1.0
  C  C127  1  0.28929830  0.81954683  0.24200993  1.0
  C  C128  1  0.28101748  0.69832119  0.70551490  1.0
  C  C129  1  0.69244760  0.29792556  0.71322479  1.0
  C  C130  1  0.80747131  0.20222215  0.21304592  1.0
  C  C131  1  0.21894704  0.80175594  0.20556365  1.0
  C  C132  1  0.95288567  0.63182712  0.53626741  1.0
  C  C133  1  0.04666588  0.62113082  0.53425255  1.0
  C  C134  1  0.45331960  0.87867033  0.03411216  1.0
  C  C135  1  0.54710000  0.86801814  0.03612082  1.0
  C  C136  1  0.09328114  0.57771580  0.48696089  1.0
  C  C137  1  0.90301481  0.60035996  0.49085851  1.0
  C  C138  1  0.59691378  0.89973506  0.99077092  1.0
  C  C139  1  0.40665891  0.92220699  0.98688649  1.0
  C  C140  1  0.04272634  0.55221630  0.43971157  1.0
  C  C141  1  0.95066392  0.56292587  0.44162780  1.0
  C  C142  1  0.54922062  0.93736231  0.94161975  1.0
  C  C143  1  0.45716206  0.94797268  0.93969486  1.0
  C  C144  1  0.25490429  0.54144319  0.44544619  1.0
  C  C145  1  0.75127263  0.59118607  0.44357424  1.0
  C  C146  1  0.74864400  0.90901125  0.94345682  1.0
  C  C147  1  0.24498492  0.95842456  0.94546335  1.0
  C  C148  1  0.43270856  0.70722985  0.52854057  1.0
  C  C149  1  0.39312189  0.20222148  0.54077403  1.0
  C  C150  1  0.10713576  0.29765771  0.04090607  1.0
  C  C151  1  0.06726629  0.79272783  0.02852929  1.0
  C  C152  1  0.23547357  0.50465888  0.53636268  1.0
  C  C153  1  0.74556808  0.59616352  0.53826923  1.0
  C  C154  1  0.75435514  0.90386374  0.03815507  1.0
  C  C155  1  0.26445498  0.99495740  0.03642701  1.0
  C  C156  1  0.44755068  0.70597373  0.43231034  1.0
  C  C157  1  0.37190344  0.21319834  0.44534811  1.0
  C  C158  1  0.12827379  0.28670830  0.94547338  1.0
  C  C159  1  0.05234235  0.79393411  0.93230842  1.0
  C  C160  1  0.43228586  0.63469913  0.66124224  1.0
  C  C161  1  0.57049634  0.30708347  0.63363556  1.0
  C  C162  1  0.92943256  0.19298076  0.13347897  1.0
  C  C163  1  0.06769718  0.86531554  0.16125192  1.0
  C  C164  1  0.36165992  0.51419369  0.31312832  1.0
  C  C165  1  0.68472303  0.37451688  0.40821309  1.0
  C  C166  1  0.81532342  0.12559159  0.90830368  1.0
  C  C167  1  0.13834612  0.98588852  0.81314749  1.0
  C  C168  1  0.39221070  0.58751410  0.28540207  1.0
  C  C169  1  0.67120732  0.30618706  0.36890064  1.0
  C  C170  1  0.82883946  0.19396616  0.86903795  1.0
  C  C171  1  0.10780820  0.91255947  0.78541494  1.0
  N  N172  1  0.50051485  0.51280606  0.34261864  1.0
  N  N173  1  0.54465579  0.35298633  0.41958009  1.0
  N  N174  1  0.95539857  0.14708317  0.91968423  1.0
  N  N175  1  0.99951885  0.98721107  0.84267076  1.0
  N  N176  1  0.40639799  0.49968765  0.63777106  1.0
  N  N177  1  0.60128712  0.42342762  0.58427123  1.0
  N  N178  1  0.89871329  0.07654612  0.08417904  1.0
  N  N179  1  0.09351953  0.00036868  0.13786005  1.0
  N  N180  1  0.33241391  0.49696585  0.46575338  1.0
  N  N181  1  0.66794941  0.58269330  0.46023160  1.0
  N  N182  1  0.83197629  0.91743615  0.96013375  1.0
  N  N183  1  0.16748429  0.00285210  0.96582912  1.0
  N  N184  1  0.46533191  0.62379389  0.51205616  1.0
  N  N185  1  0.38711306  0.28874018  0.52643082  1.0
  N  N186  1  0.11311810  0.21113821  0.02654254  1.0
  N  N187  1  0.03462187  0.87615130  0.01204246  1.0
  N  N188  1  0.31979531  0.47511051  0.52301799  1.0
  N  N189  1  0.66384309  0.58594522  0.52047591  1.0
  N  N190  1  0.83608814  0.91408729  0.02037618  1.0
  N  N191  1  0.18012820  0.02456233  0.02312101  1.0
  N  N192  1  0.47425715  0.62333258  0.45268677  1.0
  N  N193  1  0.37393321  0.29558042  0.46673882  1.0
  N  N194  1  0.12624437  0.20431577  0.96684265  1.0
  N  N195  1  0.02563893  0.87658197  0.95267941  1.0
  N  N196  1  0.46801053  0.55880804  0.63488003  1.0
  N  N197  1  0.54308517  0.36265055  0.58905333  1.0
  N  N198  1  0.95691015  0.13733020  0.08894364  1.0
  N  N199  1  0.03195162  0.94120348  0.13490320  1.0
  N  N200  1  0.42513631  0.47052290  0.34724442  1.0
  N  N201  1  0.60849611  0.40323734  0.43811120  1.0
  N  N202  1  0.89155279  0.09681567  0.93817973  1.0
  N  N203  1  0.07487612  0.02952164  0.84729388  1.0
  O  O204  1  0.54442420  0.63415547  0.29445081  1.0
  O  O205  1  0.53042661  0.24185785  0.35098460  1.0
  O  O206  1  0.96961748  0.25832122  0.85116824  1.0
  O  O207  1  0.95563661  0.86583449  0.79450785  1.0
  O  O208  1  0.76548029  0.41167946  0.29377141  1.0
  O  O209  1  0.26213485  0.55852343  0.19755607  1.0
  O  O210  1  0.23775917  0.94156762  0.69750360  1.0
  O  O211  1  0.73444842  0.08850294  0.79395919  1.0
  O  O212  1  0.91785963  0.67549389  0.58592559  1.0
  O  O213  1  0.09201486  0.65204715  0.57986878  1.0
  O  O214  1  0.40794718  0.84755820  0.07964489  1.0
  O  O215  1  0.58215841  0.82412256  0.08568680  1.0
  F  F216  1  0.20190211  0.48390462  0.58836861  1.0
  F  F217  1  0.76072672  0.60076423  0.59726680  1.0
  F  F218  1  0.73915738  0.89920259  0.09714139  1.0
  F  F219  1  0.29804884  0.01551819  0.08846624  1.0
