# generated using pymatgen
data_ZnHC4O3
_symmetry_space_group_name_H-M   'P 1'
_cell_length_a   6.66840881
_cell_length_b   15.17697920
_cell_length_c   15.17767345
_cell_angle_alpha   117.88647139
_cell_angle_beta   98.42534820
_cell_angle_gamma   98.41418703
_symmetry_Int_Tables_number   1
_chemical_formula_structural   ZnHC4O3
_chemical_formula_sum   'Zn6 H6 C24 O18'
_cell_volume   1301.86495988
_cell_formula_units_Z   6
loop_
 _symmetry_equiv_pos_site_id
 _symmetry_equiv_pos_as_xyz
  1  'x, y, z'
loop_
 _atom_site_type_symbol
 _atom_site_label
 _atom_site_symmetry_multiplicity
 _atom_site_fract_x
 _atom_site_fract_y
 _atom_site_fract_z
 _atom_site_occupancy
  Zn  Zn0  1  0.03558843  0.41032115  0.73586106  1.0
  Zn  Zn1  1  0.62529070  0.32548689  0.58964978  1.0
  Zn  Zn2  1  0.29969860  0.26411134  0.67448453  1.0
  Zn  Zn3  1  0.96441211  0.58967914  0.26413919  1.0
  Zn  Zn4  1  0.37470984  0.67451340  0.41035048  1.0
  Zn  Zn5  1  0.70030155  0.73588818  0.32551535  1.0
  H  H6  1  0.31338508  0.46020527  0.43649908  1.0
  H  H7  1  0.85316554  0.97631539  0.53990827  1.0
  H  H8  1  0.87682489  0.56359146  0.02364494  1.0
  H  H9  1  0.68661546  0.53979502  0.56350052  1.0
  H  H10  1  0.14683349  0.02368490  0.46009124  1.0
  H  H11  1  0.12317565  0.43640883  0.97635532  1.0
  C  C12  1  0.27134663  0.40188386  0.57089100  1.0
  C  C13  1  0.86933825  0.16894481  0.59810167  1.0
  C  C14  1  0.70035745  0.42913448  0.83099947  1.0
  C  C15  1  0.72865391  0.59811642  0.42910926  1.0
  C  C16  1  0.13066077  0.83105548  0.40189849  1.0
  C  C17  1  0.29964308  0.57086581  0.16900145  1.0
  C  C18  1  0.12577676  0.45094442  0.53663093  1.0
  C  C19  1  0.67471806  0.08566971  0.54907032  1.0
  C  C20  1  0.58907673  0.46339205  0.91431640  1.0
  C  C21  1  0.87422227  0.54905586  0.46336857  1.0
  C  C22  1  0.32528132  0.91432827  0.45092944  1.0
  C  C23  1  0.41092190  0.53660746  0.08568470  1.0
  C  C24  1  0.94338251  0.47265824  0.57337628  1.0
  C  C25  1  0.47064294  0.10070292  0.52729101  1.0
  C  C26  1  0.36998241  0.42659517  0.89930606  1.0
  C  C27  1  0.05661916  0.52734128  0.42662435  1.0
  C  C28  1  0.52935760  0.89929736  0.47270859  1.0
  C  C29  1  0.63001927  0.57340434  0.10069391  1.0
  C  C30  1  0.17494408  0.47790592  0.46428974  1.0
  C  C31  1  0.69703348  0.98639784  0.52219179  1.0
  C  C32  1  0.71062728  0.53577553  0.01359652  1.0
  C  C33  1  0.82505647  0.52209437  0.53570986  1.0
  C  C34  1  0.30296668  0.01360167  0.47780743  1.0
  C  C35  1  0.28937516  0.46422552  0.98640488  1.0
  O  O36  1  0.25799022  0.39125303  0.64973449  1.0
  O  O37  1  0.86666467  0.25839981  0.60867023  1.0
  O  O38  1  0.60821360  0.35026267  0.74156122  1.0
  O  O39  1  0.74200993  0.60874648  0.35026538  1.0
  O  O40  1  0.13333436  0.74160047  0.39132993  1.0
  O  O41  1  0.39178694  0.64973762  0.25843904  1.0
  O  O42  1  0.41321724  0.37278302  0.52387305  1.0
  O  O43  1  0.04031454  0.15101452  0.62720248  1.0
  O  O44  1  0.88924161  0.47615540  0.84891301  1.0
  O  O45  1  0.58678331  0.62721727  0.47612655  1.0
  O  O46  1  0.95968600  0.84898577  0.37279778  1.0
  O  O47  1  0.11075855  0.52384411  0.15108687  1.0
  O  O48  1  0.87414413  0.44766430  0.64036215  1.0
  O  O49  1  0.42631340  0.19269287  0.55230246  1.0
  O  O50  1  0.23372560  0.35960563  0.80732012  1.0
  O  O51  1  0.12585642  0.55233599  0.35963745  1.0
  O  O52  1  0.57368562  0.80730742  0.44769704  1.0
  O  O53  1  0.76627494  0.64039466  0.19268014  1.0
