# generated using pymatgen
data_AlH30C45(NO2)3
_symmetry_space_group_name_H-M   'P 1'
_cell_length_a   4.01332969
_cell_length_b   23.53137343
_cell_length_c   23.55868756
_cell_angle_alpha   60.05589923
_cell_angle_beta   87.28007724
_cell_angle_gamma   87.28316985
_symmetry_Int_Tables_number   1
_chemical_formula_structural   AlH30C45(NO2)3
_chemical_formula_sum   'Al1 H30 C45 N3 O6'
_cell_volume   1924.97726019
_cell_formula_units_Z   1
loop_
 _symmetry_equiv_pos_site_id
 _symmetry_equiv_pos_as_xyz
  1  'x, y, z'
loop_
 _atom_site_type_symbol
 _atom_site_label
 _atom_site_symmetry_multiplicity
 _atom_site_fract_x
 _atom_site_fract_y
 _atom_site_fract_z
 _atom_site_occupancy
  Al  Al0  1  0.00099620  0.50023066  0.50032914  1.0
  H  H1  1  0.36208976  0.32191164  0.68094023  1.0
  H  H2  1  0.37297846  0.20137787  0.74434016  1.0
  H  H3  1  0.16293001  0.98191723  0.83425353  1.0
  H  H4  1  0.68227373  0.67445775  0.31539078  1.0
  H  H5  1  0.62194738  0.73545027  0.19605970  1.0
  H  H6  1  0.77560370  0.76499902  0.10677732  1.0
  H  H7  1  0.79691692  0.82830352  0.98782015  1.0
  H  H8  1  0.51223115  0.89294888  0.89598910  1.0
  H  H9  1  0.35074387  0.50001746  0.32270571  1.0
  H  H10  1  0.36196520  0.55607080  0.20262647  1.0
  H  H11  1  0.18749022  0.68587529  0.98186532  1.0
  H  H12  1  0.63495437  0.50878826  0.67408752  1.0
  H  H13  1  0.57921525  0.56804696  0.73538701  1.0
  H  H14  1  0.76128551  0.62679299  0.76113203  1.0
  H  H15  1  0.79898965  0.68172539  0.82483442  1.0
  H  H16  1  0.50098719  0.71180208  0.89279763  1.0
  H  H17  1  0.28059702  0.68011259  0.50157994  1.0
  H  H18  1  0.29700823  0.74418354  0.55756822  1.0
  H  H19  1  0.14953585  0.83693110  0.69016243  1.0
  H  H20  1  0.66480546  0.31537503  0.50687193  1.0
  H  H21  1  0.60947377  0.19534919  0.56664543  1.0
  H  H22  1  0.81883363  0.10629152  0.62872485  1.0
  H  H23  1  0.83878444  0.98639505  0.68481676  1.0
  H  H24  1  0.50388527  0.89604286  0.71211453  1.0
  H  H25  1  0.93281505  0.75765727  0.60553132  1.0
  H  H26  1  0.87290789  0.81984163  0.61998889  1.0
  H  H27  1  0.97668481  0.15130783  0.75212578  1.0
  H  H28  1  0.89311006  0.07634023  0.81364027  1.0
  H  H29  1  0.98935611  0.59997570  0.14901303  1.0
  H  H30  1  0.93798598  0.61231202  0.07393039  1.0
  C  C31  1  0.51270231  0.39956824  0.55244436  1.0
  C  C32  1  0.47305873  0.55282190  0.54845750  1.0
  C  C33  1  0.51416908  0.54827015  0.39987453  1.0
  C  C34  1  0.42250638  0.29370888  0.65638392  1.0
  C  C35  1  0.41967508  0.22551912  0.69159546  1.0
  C  C36  1  0.28636537  0.07808394  0.75645000  1.0
  C  C37  1  0.31423833  0.00926945  0.78951950  1.0
  C  C38  1  0.59989718  0.64951599  0.29026058  1.0
  C  C39  1  0.57034329  0.68329956  0.22266094  1.0
  C  C40  1  0.63402703  0.74808038  0.08002205  1.0
  C  C41  1  0.64837492  0.78437096  0.01219541  1.0
  C  C42  1  0.51085562  0.32671047  0.58965874  1.0
  C  C43  1  0.48035340  0.18766165  0.66061076  1.0
  C  C44  1  0.47239759  0.11517064  0.69676261  1.0
  C  C45  1  0.50327098  0.97501094  0.76449275  1.0
  C  C46  1  0.51231098  0.90259428  0.80003683  1.0
  C  C47  1  0.51298275  0.86676851  0.86866808  1.0
  C  C48  1  0.41663205  0.55148210  0.29437488  1.0
  C  C49  1  0.41227054  0.58421472  0.22628522  1.0
  C  C50  1  0.29696085  0.66690722  0.07802419  1.0
  C  C51  1  0.32541939  0.70275870  0.00928662  1.0
  C  C52  1  0.54816855  0.55991960  0.64967675  1.0
  C  C53  1  0.52155695  0.59415052  0.68356597  1.0
  C  C54  1  0.61421105  0.67184595  0.74628367  1.0
  C  C55  1  0.63768849  0.70284741  0.78274263  1.0
  C  C56  1  0.51219781  0.58355104  0.32720686  1.0
  C  C57  1  0.47670243  0.65195090  0.18813792  1.0
  C  C58  1  0.46375958  0.68860910  0.11570380  1.0
  C  C59  1  0.49636594  0.76131040  0.97525140  1.0
  C  C60  1  0.50897808  0.79802616  0.90290134  1.0
  C  C61  1  0.50590797  0.76524099  0.86696231  1.0
  C  C62  1  0.35172947  0.65612666  0.55268657  1.0
  C  C63  1  0.35053975  0.69164859  0.58544131  1.0
  C  C64  1  0.25307411  0.75865036  0.66950316  1.0
  C  C65  1  0.29144352  0.79107786  0.70519303  1.0
  C  C66  1  0.59116936  0.28999965  0.55867739  1.0
  C  C67  1  0.56438225  0.22221625  0.59297717  1.0
  C  C68  1  0.66290083  0.07939068  0.67269630  1.0
  C  C69  1  0.67642553  0.01140763  0.70433923  1.0
  C  C70  1  0.45522137  0.59011707  0.58407752  1.0
  C  C71  1  0.42681452  0.66146516  0.65250589  1.0
  C  C72  1  0.42664577  0.69760376  0.68897206  1.0
  C  C73  1  0.47848440  0.76439921  0.76170749  1.0
  C  C74  1  0.50146439  0.79976068  0.79835173  1.0
  C  C75  1  0.50801851  0.86843966  0.76551487  1.0
  N  N76  1  0.04634015  0.78907738  0.61580976  1.0
  N  N77  1  0.07663941  0.10672852  0.78467003  1.0
  N  N78  1  0.10640073  0.61071673  0.10567292  1.0
  O  O79  1  0.74041746  0.56184776  0.42724830  1.0
  O  O80  1  0.75401802  0.42689243  0.51160574  1.0
  O  O81  1  0.71527192  0.51123844  0.56159304  1.0
  O  O82  1  0.28635739  0.50647780  0.43014128  1.0
  O  O83  1  0.24694610  0.56468534  0.50725842  1.0
  O  O84  1  0.26999381  0.42971234  0.56421772  1.0
