# generated using pymatgen
data_ZnH16C19NO6
_symmetry_space_group_name_H-M   'P 1'
_cell_length_a   7.96361783
_cell_length_b   17.78690611
_cell_length_c   33.96722798
_cell_angle_alpha   89.82503893
_cell_angle_beta   90.11094052
_cell_angle_gamma   89.61523718
_symmetry_Int_Tables_number   1
_chemical_formula_structural   ZnH16C19NO6
_chemical_formula_sum   'Zn4 H64 C76 N4 O24'
_cell_volume   4811.25394327
_cell_formula_units_Z   4
loop_
 _symmetry_equiv_pos_site_id
 _symmetry_equiv_pos_as_xyz
  1  'x, y, z'
loop_
 _atom_site_type_symbol
 _atom_site_label
 _atom_site_symmetry_multiplicity
 _atom_site_fract_x
 _atom_site_fract_y
 _atom_site_fract_z
 _atom_site_occupancy
  Zn  Zn0  1  0.63288743  0.99816215  0.50059368  1.0
  Zn  Zn1  1  0.30098268  0.99969573  0.50103307  1.0
  Zn  Zn2  1  0.26886875  0.00032777  0.00023637  1.0
  Zn  Zn3  1  0.60091397  0.99886615  0.00169898  1.0
  H  H4  1  0.62514197  0.61442392  0.50226043  1.0
  H  H5  1  0.08253182  0.63075271  0.49224836  1.0
  H  H6  1  0.62778506  0.38327827  0.49828891  1.0
  H  H7  1  0.08373295  0.37002364  0.50033734  1.0
  H  H8  1  0.27554308  0.61547569  0.99459293  1.0
  H  H9  1  0.81966512  0.62856741  0.99726494  1.0
  H  H10  1  0.27607921  0.38461572  0.99854963  1.0
  H  H11  1  0.81880643  0.36764089  0.98971206  1.0
  H  H12  1  0.00538227  0.98122593  0.88888562  1.0
  H  H13  1  0.11928193  0.90115791  0.90381992  1.0
  H  H14  1  0.01896949  0.90237384  0.85717691  1.0
  H  H15  1  0.10330493  0.87522234  0.80081318  1.0
  H  H16  1  0.16623799  0.93584644  0.76193629  1.0
  H  H17  1  0.01234719  0.96569019  0.79656709  1.0
  H  H18  1  0.74653335  0.04299817  0.90081830  1.0
  H  H19  1  0.58474049  0.10548660  0.91459585  1.0
  H  H20  1  0.69898144  0.12228742  0.87091955  1.0
  H  H21  1  0.71847701  0.09797936  0.79357652  1.0
  H  H22  1  0.75249159  0.00164452  0.78681952  1.0
  H  H23  1  0.81074291  0.04356096  0.83226671  1.0
  H  H24  1  0.79487503  0.90479371  0.72043888  1.0
  H  H25  1  0.83467683  0.00052084  0.73009707  1.0
  H  H26  1  0.93172041  0.95600811  0.68933940  1.0
  H  H27  1  0.90973886  0.96977946  0.61092581  1.0
  H  H28  1  0.76527081  0.90172373  0.59515066  1.0
  H  H29  1  0.86358398  0.89167469  0.64164562  1.0
  H  H30  1  0.23043111  0.14089689  0.69138773  1.0
  H  H31  1  0.24828122  0.07627831  0.73105523  1.0
  H  H32  1  0.12156429  0.05481819  0.69001985  1.0
  H  H33  1  0.15282327  0.04008075  0.60771210  1.0
  H  H34  1  0.29552734  0.10338725  0.58644362  1.0
  H  H35  1  0.19703606  0.12587634  0.63162190  1.0
  H  H36  1  0.98910753  0.02788592  0.11090953  1.0
  H  H37  1  0.13373627  0.09566623  0.09473797  1.0
  H  H38  1  0.03681638  0.10598565  0.14126573  1.0
  H  H39  1  0.10607534  0.09372999  0.21933350  1.0
  H  H40  1  0.06882595  0.99831652  0.23055534  1.0
  H  H41  1  0.96861000  0.04062886  0.18931786  1.0
  H  H42  1  0.74668501  0.95443917  0.10826374  1.0
  H  H43  1  0.60078464  0.89370051  0.08618048  1.0
  H  H44  1  0.69632947  0.86838537  0.13145463  1.0
  H  H45  1  0.66698306  0.85466334  0.19154632  1.0
  H  H46  1  0.65257839  0.91972418  0.23089898  1.0
  H  H47  1  0.77788203  0.94022273  0.18955109  1.0
  H  H48  1  0.81860117  0.11562777  0.30216456  1.0
  H  H49  1  0.73483768  0.06425264  0.26160466  1.0
  H  H50  1  0.88583776  0.02261513  0.29365666  1.0
  H  H51  1  0.92814693  0.02942639  0.36812665  1.0
  H  H52  1  0.81478623  0.06854364  0.40781394  1.0
  H  H53  1  0.83756172  0.11946451  0.36298025  1.0
  H  H54  1  0.18764443  0.89926044  0.29320268  1.0
  H  H55  1  0.14976326  0.99571594  0.28753473  1.0
  H  H56  1  0.09476878  0.95095625  0.33252522  1.0
  H  H57  1  0.15945102  0.95520883  0.40109460  1.0
  H  H58  1  0.32212384  0.89332856  0.41539172  1.0
  H  H59  1  0.20757302  0.87540771  0.37189148  1.0
  H  H60  1  0.66115270  0.81144222  0.50214459  1.0
  H  H61  1  0.10089852  0.82871397  0.49239234  1.0
  H  H62  1  0.66378666  0.18600495  0.50068700  1.0
  H  H63  1  0.10277664  0.17211474  0.50251541  1.0
  H  H64  1  0.23965046  0.81259923  0.99946714  1.0
  H  H65  1  0.80081899  0.82631811  0.00196447  1.0
  H  H66  1  0.23939420  0.18764950  0.00072788  1.0
  H  H67  1  0.79962096  0.16977204  0.99243848  1.0
  C  C68  1  0.38655040  0.85316591  0.49795111  1.0
  C  C69  1  0.53087266  0.00032114  0.57480408  1.0
  C  C70  1  0.38918509  0.14588833  0.50154620  1.0
  C  C71  1  0.54278695  0.99833256  0.42683204  1.0
  C  C72  1  0.51434867  0.85258712  0.00116659  1.0
  C  C73  1  0.36268991  0.00033894  0.92680806  1.0
  C  C74  1  0.51401384  0.14555936  0.99763877  1.0
  C  C75  1  0.36826908  0.99738895  0.07469296  1.0
  C  C76  1  0.37168582  0.00262890  0.88292289  1.0
  C  C77  1  0.51827661  0.03339757  0.86568670  1.0
  C  C78  1  0.54612895  0.02448601  0.82519137  1.0
  C  C79  1  0.41669228  0.99335171  0.80160541  1.0
  C  C80  1  0.26619442  0.96594197  0.81865082  1.0
  C  C81  1  0.24483534  0.96908881  0.85980572  1.0
  C  C82  1  0.66853842  0.98444806  0.68132566  1.0
  C  C83  1  0.52553999  0.01495566  0.69999742  1.0
  C  C84  1  0.38772120  0.04438923  0.67868197  1.0
  C  C85  1  0.39403670  0.04254992  0.63723497  1.0
  C  C86  1  0.53155548  0.00661320  0.61840017  1.0
  C  C87  1  0.66809982  0.97618922  0.64027181  1.0
  C  C88  1  0.36714576  0.99043091  0.11828653  1.0
  C  C89  1  0.50432292  0.95380746  0.13714986  1.0
  C  C90  1  0.51153758  0.95187512  0.17859285  1.0
  C  C91  1  0.37478520  0.98181920  0.19988748  1.0
  C  C92  1  0.23188605  0.01286913  0.18117427  1.0
  C  C93  1  0.23151634  0.02115958  0.14009663  1.0
  C  C94  1  0.63801312  0.03041176  0.31807695  1.0
  C  C95  1  0.48716673  0.00314869  0.30132707  1.0
  C  C96  1  0.35834764  0.97256488  0.32531141  1.0
  C  C97  1  0.38738741  0.96451809  0.36585143  1.0
  C  C98  1  0.53456021  0.99569497  0.38287854  1.0
  C  C99  1  0.66028855  0.02874231  0.35929959  1.0
  C  C100  1  0.37401808  0.77194394  0.49735971  1.0
  C  C101  1  0.52226299  0.72600223  0.50013842  1.0
  C  C102  1  0.51073685  0.64797235  0.50006603  1.0
  C  C103  1  0.35269367  0.61350937  0.49733879  1.0
  C  C104  1  0.20504115  0.65709145  0.49439341  1.0
  C  C105  1  0.21486676  0.73525678  0.49433836  1.0
  C  C106  1  0.34521314  0.53396347  0.49770824  1.0
  C  C107  1  0.34630735  0.46533900  0.49832528  1.0
  C  C108  1  0.35456955  0.38577985  0.49913475  1.0
  C  C109  1  0.51311861  0.35041242  0.49900188  1.0
  C  C110  1  0.52483967  0.27230867  0.49984406  1.0
  C  C111  1  0.37637111  0.22722285  0.50086342  1.0
  C  C112  1  0.21666752  0.26480797  0.50105713  1.0
  C  C113  1  0.20665708  0.34301730  0.50016825  1.0
  C  C114  1  0.52712696  0.77132956  0.99935677  1.0
  C  C115  1  0.37857348  0.72634800  0.99759736  1.0
  C  C116  1  0.39021429  0.64830701  0.99578804  1.0
  C  C117  1  0.54875396  0.61291550  0.99575442  1.0
  C  C118  1  0.69673661  0.65558041  0.99732126  1.0
  C  C119  1  0.68678917  0.73372482  0.99914954  1.0
  C  C120  1  0.55655855  0.53338926  0.99449499  1.0
  C  C121  1  0.55663838  0.46478302  0.99393126  1.0
  C  C122  1  0.54866830  0.38527943  0.99414245  1.0
  C  C123  1  0.39045850  0.35095815  0.99694643  1.0
  C  C124  1  0.37863389  0.27292679  0.99795033  1.0
  C  C125  1  0.52677644  0.22679898  0.99609460  1.0
  C  C126  1  0.68606966  0.26334846  0.99291553  1.0
  C  C127  1  0.69615332  0.34149579  0.99196028  1.0
  C  C128  1  0.08919271  0.93642529  0.87818160  1.0
  C  C129  1  0.12997722  0.93394723  0.79291315  1.0
  C  C130  1  0.64347619  0.07819853  0.88927127  1.0
  C  C131  1  0.71600054  0.04341522  0.80884308  1.0
  C  C132  1  0.81538271  0.95981246  0.70633995  1.0
  C  C133  1  0.80876179  0.93252205  0.62104677  1.0
  C  C134  1  0.24025002  0.08085213  0.69904847  1.0
  C  C135  1  0.25347761  0.08012459  0.61455476  1.0
  C  C136  1  0.09074934  0.06500984  0.12078592  1.0
  C  C137  1  0.08595678  0.03799584  0.20612834  1.0
  C  C138  1  0.64331189  0.91543154  0.11454491  1.0
  C  C139  1  0.65898669  0.91480765  0.19890904  1.0
  C  C140  1  0.77579488  0.06020479  0.29225237  1.0
  C  C141  1  0.81713925  0.06353726  0.37584494  1.0
  C  C142  1  0.18861557  0.95303017  0.30904171  1.0
  C  C143  1  0.26277678  0.92004110  0.38984021  1.0
  N  N144  1  0.42151098  0.98594610  0.76009345  1.0
  N  N145  1  0.53442121  0.02088323  0.74157102  1.0
  N  N146  1  0.36674517  0.97603956  0.24148252  1.0
  N  N147  1  0.48162254  0.01008806  0.25978758  1.0
  O  O148  1  0.53105067  0.88493109  0.49988447  1.0
  O  O149  1  0.24803062  0.89373810  0.49627933  1.0
  O  O150  1  0.39121841  0.99098048  0.55718173  1.0
  O  O151  1  0.67267169  0.00450502  0.55612229  1.0
  O  O152  1  0.25012294  0.10641377  0.50240516  1.0
  O  O153  1  0.53375487  0.11320722  0.50157643  1.0
  O  O154  1  0.68485727  0.99068448  0.44521658  1.0
  O  O155  1  0.40549660  0.00934092  0.44502965  1.0
  O  O156  1  0.36972425  0.88522977  0.00145997  1.0
  O  O157  1  0.65322192  0.89211280  0.00277665  1.0
  O  O158  1  0.49984699  0.99065105  0.94542473  1.0
  O  O159  1  0.21946158  0.00638691  0.94463232  1.0
  O  O160  1  0.65270176  0.10504910  0.99685840  1.0
  O  O161  1  0.36942285  0.11387597  0.99951363  1.0
  O  O162  1  0.22698345  0.99336359  0.05568085  1.0
  O  O163  1  0.50831531  0.00723794  0.05741580  1.0
  O  O164  1  0.67670606  0.75582130  0.50301769  1.0
  O  O165  1  0.07005971  0.77461233  0.49133785  1.0
  O  O166  1  0.67967516  0.24153065  0.49966659  1.0
  O  O167  1  0.07141602  0.22640037  0.50208675  1.0
  O  O168  1  0.22373574  0.75716077  0.99762344  1.0
  O  O169  1  0.83203572  0.77206859  0.00078825  1.0
  O  O170  1  0.22403043  0.24330633  0.00089959  1.0
  O  O171  1  0.83079153  0.22380012  0.99068957  1.0
