# generated using pymatgen
data_Zn4H26C30S2O17
_symmetry_space_group_name_H-M   'P 1'
_cell_length_a   17.88115733
_cell_length_b   18.57665438
_cell_length_c   19.36812631
_cell_angle_alpha   118.02200237
_cell_angle_beta   116.73710643
_cell_angle_gamma   90.06915121
_symmetry_Int_Tables_number   1
_chemical_formula_structural   Zn4H26C30S2O17
_chemical_formula_sum   'Zn8 H52 C60 S4 O34'
_cell_volume   4884.24145724
_cell_formula_units_Z   2
loop_
 _symmetry_equiv_pos_site_id
 _symmetry_equiv_pos_as_xyz
  1  'x, y, z'
loop_
 _atom_site_type_symbol
 _atom_site_label
 _atom_site_symmetry_multiplicity
 _atom_site_fract_x
 _atom_site_fract_y
 _atom_site_fract_z
 _atom_site_occupancy
  Zn  Zn0  1  0.12971181  0.53191947  0.07751848  1.0
  Zn  Zn1  1  0.96040720  0.37962176  0.92978886  1.0
  Zn  Zn2  1  0.97453673  0.55730343  0.93846013  1.0
  Zn  Zn3  1  0.95065728  0.54614482  0.08705501  1.0
  Zn  Zn4  1  0.37803905  0.96593783  0.94157453  1.0
  Zn  Zn5  1  0.54676430  0.95282068  0.08080829  1.0
  Zn  Zn6  1  0.53711991  0.12812522  0.08608097  1.0
  Zn  Zn7  1  0.55465494  0.96855322  0.92775713  1.0
  H  H8  1  0.20799497  0.80164098  0.11618100  1.0
  H  H9  1  0.13472071  0.77801962  0.00460904  1.0
  H  H10  1  0.23608011  0.88307778  0.03309038  1.0
  H  H11  1  0.31650986  0.88971963  0.13402016  1.0
  H  H12  1  0.20532357  0.75977477  0.88137978  1.0
  H  H13  1  0.28072559  0.69943254  0.87448876  1.0
  H  H14  1  0.12592094  0.64881240  0.86779953  1.0
  H  H15  1  0.21309675  0.60119072  0.88547027  1.0
  H  H16  1  0.32908571  0.72673146  0.13890469  1.0
  H  H17  1  0.32237145  0.63529935  0.04552046  1.0
  H  H18  1  0.40074334  0.71413014  0.02251411  1.0
  H  H19  1  0.42514853  0.80116420  0.12844621  1.0
  H  H20  1  0.90537613  0.29917836  0.10681172  1.0
  H  H21  1  0.86655427  0.21904474  0.99208163  1.0
  H  H22  1  0.78961455  0.13550868  0.01167952  1.0
  H  H23  1  0.81460855  0.22232606  0.11931424  1.0
  H  H24  1  0.66916731  0.12291882  0.86966878  1.0
  H  H25  1  0.59331507  0.18309690  0.87419090  1.0
  H  H26  1  0.74072443  0.22347583  0.86357273  1.0
  H  H27  1  0.67573393  0.29172216  0.88872747  1.0
  H  H28  1  0.81406008  0.40140477  0.14129568  1.0
  H  H29  1  0.72841285  0.40736379  0.05334963  1.0
  H  H30  1  0.62763348  0.30659108  0.03085184  1.0
  H  H31  1  0.70976390  0.31460887  0.13058314  1.0
  H  H32  1  0.17730563  0.27395378  0.09431382  1.0
  H  H33  1  0.26265629  0.36386665  0.14759087  1.0
  H  H34  1  0.36332745  0.28359821  0.15192114  1.0
  H  H35  1  0.28072937  0.19853364  0.11364116  1.0
  H  H36  1  0.39519495  0.29212254  0.04096705  1.0
  H  H37  1  0.32143475  0.22499792  0.92279153  1.0
  H  H38  1  0.30893250  0.38693174  0.05241439  1.0
  H  H39  1  0.24474064  0.32699385  0.93238636  1.0
  H  H40  1  0.08414273  0.18465177  0.92080964  1.0
  H  H41  1  0.11926734  0.19994528  0.85610370  1.0
  H  H42  1  0.19974341  0.10254533  0.86508757  1.0
  H  H43  1  0.17735649  0.09973222  0.94336156  1.0
  H  H44  1  0.91654041  0.81319889  0.10137292  1.0
  H  H45  1  0.86462644  0.78621946  0.14854044  1.0
  H  H46  1  0.79320566  0.89057144  0.14381175  1.0
  H  H47  1  0.82882187  0.90073895  0.07607762  1.0
  H  H48  1  0.66774341  0.76465894  0.06790304  1.0
  H  H49  1  0.59881974  0.70549723  0.94849222  1.0
  H  H50  1  0.73796547  0.65630044  0.04973274  1.0
  H  H51  1  0.68225282  0.60933706  0.93027982  1.0
  H  H52  1  0.83777562  0.74179497  0.92830642  1.0
  H  H53  1  0.75182184  0.64933619  0.85778869  1.0
  H  H54  1  0.64796648  0.72623634  0.85244751  1.0
  H  H55  1  0.73204371  0.81499056  0.90282724  1.0
  H  H56  1  0.27242089  0.63513641  0.27222298  1.0
  H  H57  1  0.23117207  0.87168851  0.74569332  1.0
  H  H58  1  0.86904153  0.50709680  0.73928970  1.0
  H  H59  1  0.63662551  0.00486292  0.27913799  1.0
  C  C60  1  0.13699764  0.35568516  0.00065901  1.0
  C  C61  1  0.88244700  0.39007201  0.76266359  1.0
  C  C62  1  0.15517166  0.63425442  0.00759044  1.0
  C  C63  1  0.86424995  0.64563527  0.00781194  1.0
  C  C64  1  0.12908354  0.62647278  0.25370741  1.0
  C  C65  1  0.85451249  0.37116319  0.00779656  1.0
  C  C66  1  0.37256791  0.85863573  0.01265321  1.0
  C  C67  1  0.62462362  0.12141892  0.25489738  1.0
  C  C68  1  0.35627130  0.13812051  0.01177262  1.0
  C  C69  1  0.63809589  0.14636635  0.00550087  1.0
  C  C70  1  0.37397586  0.88324904  0.76332696  1.0
  C  C71  1  0.64968901  0.86815228  0.00101708  1.0
  C  C72  1  0.27094169  0.70786515  0.41401159  1.0
  C  C73  1  0.23161201  0.80293767  0.60317435  1.0
  C  C74  1  0.18044933  0.67739055  0.35377882  1.0
  C  C75  1  0.32208418  0.83348918  0.66324087  1.0
  C  C76  1  0.21396165  0.75745037  0.51231961  1.0
  C  C77  1  0.28842190  0.75383149  0.50475126  1.0
  C  C78  1  0.79850888  0.36714319  0.59995049  1.0
  C  C79  1  0.70843337  0.14498436  0.41776220  1.0
  C  C80  1  0.83179961  0.34110434  0.66279400  1.0
  C  C81  1  0.67510743  0.17083798  0.35474705  1.0
  C  C82  1  0.75350483  0.21750440  0.50698842  1.0
  C  C83  1  0.75356641  0.29469103  0.51059067  1.0
  C  C84  1  0.20162419  0.78172851  0.05012457  1.0
  C  C85  1  0.26857524  0.84545755  0.06161269  1.0
  C  C86  1  0.31694701  0.79689013  0.01257650  1.0
  C  C87  1  0.24818543  0.72891713  0.91327755  1.0
  C  C88  1  0.19600908  0.66143822  0.91202632  1.0
  C  C89  1  0.21666930  0.69248155  0.00963092  1.0
  C  C90  1  0.31258069  0.69902022  0.06803829  1.0
  C  C91  1  0.37109272  0.75335010  0.06084015  1.0
  C  C92  1  0.84607902  0.25797430  0.04041748  1.0
  C  C93  1  0.78927148  0.20198714  0.04777717  1.0
  C  C94  1  0.69454912  0.20864489  0.00625650  1.0
  C  C95  1  0.66283063  0.18624014  0.90823248  1.0
  C  C96  1  0.71640118  0.25363969  0.91039721  1.0
  C  C97  1  0.79404282  0.31331058  0.00778318  1.0
  C  C98  1  0.75933754  0.36276457  0.07103592  1.0
  C  C99  1  0.69396011  0.30050508  0.06308498  1.0
  C  C100  1  0.23120144  0.29773393  0.09092686  1.0
  C  C101  1  0.29701282  0.24362870  0.09755875  1.0
  C  C102  1  0.29497128  0.19440749  0.00607519  1.0
  C  C103  1  0.32627483  0.25933840  0.98958875  1.0
  C  C104  1  0.27029590  0.32300284  0.99348904  1.0
  C  C105  1  0.19351614  0.29461843  0.99988278  1.0
  C  C106  1  0.14247170  0.20312591  0.92082288  1.0
  C  C107  1  0.20100962  0.14292151  0.92922590  1.0
  C  C108  1  0.85278127  0.79148169  0.09048630  1.0
  C  C109  1  0.79818845  0.85481010  0.08274291  1.0
  C  C110  1  0.70570646  0.80647528  0.99813291  1.0
  C  C111  1  0.66724219  0.73576722  0.00350411  1.0
  C  C112  1  0.72048670  0.66960149  0.99565551  1.0
  C  C113  1  0.80390428  0.70293029  0.00216189  1.0
  C  C114  1  0.77877822  0.71230621  0.92017243  1.0
  C  C115  1  0.71253468  0.76575514  0.91224531  1.0
  C  C116  1  0.34821208  0.70222314  0.40174897  1.0
  C  C117  1  0.15471750  0.80959357  0.61601038  1.0
  C  C118  1  0.80074846  0.45186837  0.60900362  1.0
  C  C119  1  0.70561594  0.06044067  0.40925385  1.0
  S  S120  1  0.12014925  0.70514209  0.40817987  1.0
  S  S121  1  0.38229988  0.80682270  0.60876564  1.0
  S  S122  1  0.80829177  0.23138131  0.61291498  1.0
  S  S123  1  0.69863668  0.28060134  0.40452389  1.0
  O  O124  1  0.00297646  0.50374481  0.00957254  1.0
  O  O125  1  0.17648684  0.43433610  0.05871779  1.0
  O  O126  1  0.90080521  0.34773052  0.80119059  1.0
  O  O127  1  0.07399938  0.61984790  0.95430348  1.0
  O  O128  1  0.05527989  0.32502625  0.94518043  1.0
  O  O129  1  0.18779338  0.60524013  0.05956555  1.0
  O  O130  1  0.90514480  0.47163454  0.80482432  1.0
  O  O131  1  0.89805958  0.62840496  0.95814063  1.0
  O  O132  1  0.04672231  0.60992813  0.21643261  1.0
  O  O133  1  0.87858272  0.62071609  0.06285541  1.0
  O  O134  1  0.17044908  0.60173859  0.21018733  1.0
  O  O135  1  0.87836739  0.33473051  0.94938462  1.0
  O  O136  1  0.87816926  0.45038733  0.06612563  1.0
  O  O137  1  0.50469641  0.00404593  0.00747070  1.0
  O  O138  1  0.33201364  0.89101247  0.96573904  1.0
  O  O139  1  0.60283832  0.03983931  0.21334953  1.0
  O  O140  1  0.43702072  0.17507949  0.07019172  1.0
  O  O141  1  0.45498447  0.87402757  0.05903383  1.0
  O  O142  1  0.32298512  0.05827386  0.95812453  1.0
  O  O143  1  0.60543029  0.16310254  0.21560451  1.0
  O  O144  1  0.60981004  0.17762302  0.06031959  1.0
  O  O145  1  0.45603100  0.90558023  0.79956633  1.0
  O  O146  1  0.62400164  0.06740817  0.95059217  1.0
  O  O147  1  0.33355924  0.90058862  0.80778824  1.0
  O  O148  1  0.63544238  0.89775266  0.06709104  1.0
  O  O149  1  0.62141502  0.88661861  0.93966257  1.0
  O  O150  1  0.33658045  0.65973887  0.31829223  1.0
  O  O151  1  0.42116353  0.73751765  0.46990811  1.0
  O  O152  1  0.16696944  0.85047999  0.69976706  1.0
  O  O153  1  0.08154783  0.77683976  0.54812582  1.0
  O  O154  1  0.84258032  0.52227738  0.69139690  1.0
  O  O155  1  0.76347211  0.45421140  0.53943293  1.0
  O  O156  1  0.66239745  0.98981841  0.32718329  1.0
  O  O157  1  0.74333186  0.05850326  0.47905591  1.0
