# generated using pymatgen
data_Al4H71C69N21O20
_symmetry_space_group_name_H-M   'P 1'
_cell_length_a   6.64334799
_cell_length_b   22.70307962
_cell_length_c   23.13359830
_cell_angle_alpha   111.69286465
_cell_angle_beta   91.61205653
_cell_angle_gamma   93.14365116
_symmetry_Int_Tables_number   1
_chemical_formula_structural   Al4H71C69N21O20
_chemical_formula_sum   'Al4 H71 C69 N21 O20'
_cell_volume   3232.72172723
_cell_formula_units_Z   1
loop_
 _symmetry_equiv_pos_site_id
 _symmetry_equiv_pos_as_xyz
  1  'x, y, z'
loop_
 _atom_site_type_symbol
 _atom_site_label
 _atom_site_symmetry_multiplicity
 _atom_site_fract_x
 _atom_site_fract_y
 _atom_site_fract_z
 _atom_site_occupancy
  Al  Al0  1  0.88318785  0.49968334  0.49812780  1.0
  Al  Al1  1  0.38298997  0.50074534  0.49789206  1.0
  Al  Al2  1  0.35372291  0.00268586  0.00268038  1.0
  Al  Al3  1  0.85256827  0.99920841  0.00296278  1.0
  H  H4  1  0.81995074  0.77893035  0.12999900  1.0
  H  H5  1  0.43653171  0.69852919  0.34302877  1.0
  H  H6  1  0.38022062  0.35038303  0.56135473  1.0
  H  H7  1  0.34823220  0.16137491  0.94263087  1.0
  H  H8  1  0.29267669  0.83760953  0.92084262  1.0
  H  H9  1  0.60189873  0.84940337  0.87446622  1.0
  H  H10  1  0.56809948  0.76909876  0.82453188  1.0
  H  H11  1  0.61175433  0.78799695  0.90576705  1.0
  H  H12  1  0.79798145  0.85673439  0.07646866  1.0
  H  H13  1  0.57609291  0.68047812  0.41666591  1.0
  H  H14  1  0.59812540  0.70245656  0.51910294  1.0
  H  H15  1  0.40092393  0.64540716  0.51504121  1.0
  H  H16  1  0.34399615  0.72010603  0.51069217  1.0
  H  H17  1  0.78687949  0.53563628  0.37848936  1.0
  H  H18  1  0.68693925  0.50730392  0.24805130  1.0
  H  H19  1  0.56091541  0.57534921  0.29363012  1.0
  H  H20  1  0.52047342  0.50311469  0.30599350  1.0
  H  H21  1  0.85497655  0.60925403  0.26436382  1.0
  H  H22  1  0.20722055  0.27336769  0.59385246  1.0
  H  H23  1  0.46764367  0.19732483  0.54331208  1.0
  H  H24  1  0.27788703  0.16817607  0.58170254  1.0
  H  H25  1  0.52071130  0.19654111  0.61869178  1.0
  H  H26  1  0.84589326  0.37925295  0.78496827  1.0
  H  H27  1  0.20033562  0.40445837  0.78483722  1.0
  H  H28  1  0.16231481  0.40790212  0.70975813  1.0
  H  H29  1  0.12606569  0.33374893  0.71949488  1.0
  H  H30  1  0.94130059  0.48290970  0.74046580  1.0
  H  H31  1  0.01574704  0.52915932  0.64512958  1.0
  H  H32  1  0.97434676  0.57531575  0.72437015  1.0
  H  H33  1  0.76913670  0.54895999  0.66777293  1.0
  H  H34  1  0.36953134  0.22689022  0.87667087  1.0
  H  H35  1  0.65546080  0.87883204  0.76802978  1.0
  H  H36  1  0.72258048  0.98861838  0.80755164  1.0
  H  H37  1  0.93606586  0.95541279  0.76445582  1.0
  H  H38  1  0.94528853  0.98184525  0.84748692  1.0
  H  H39  1  0.91175718  0.08552620  0.87639210  1.0
  H  H40  1  0.96280164  0.17291427  0.77186329  1.0
  H  H41  1  0.18539436  0.09762607  0.82970118  1.0
  H  H42  1  0.22431680  0.10634942  0.75798719  1.0
  H  H43  1  0.03343209  0.04960220  0.76209436  1.0
  H  H44  1  0.41938266  0.18494603  0.13949734  1.0
  H  H45  1  0.93379077  0.08812444  0.25405596  1.0
  H  H46  1  0.21165054  0.12808585  0.20986486  1.0
  H  H47  1  0.09071880  0.08481281  0.13516862  1.0
  H  H48  1  0.17988901  0.04325111  0.18130707  1.0
  H  H49  1  0.18966871  0.32988936  0.21108788  1.0
  H  H50  1  0.24371430  0.29896363  0.10318664  1.0
  H  H51  1  0.47073133  0.26574934  0.11405415  1.0
  H  H52  1  0.45609071  0.34961979  0.14657423  1.0
  H  H53  1  0.91376318  0.19303796  0.30641501  1.0
  H  H54  1  0.36052911  0.38859126  0.30438041  1.0
  H  H55  1  0.83523094  0.25276646  0.38667673  1.0
  H  H56  1  0.11668401  0.29140291  0.33885479  1.0
  H  H57  1  0.14309376  0.31468190  0.42158191  1.0
  H  H58  1  0.06037920  0.36927074  0.38935101  1.0
  H  H59  1  0.36978550  0.69315406  0.80397665  1.0
  H  H60  1  0.79509174  0.80143338  0.70225938  1.0
  H  H61  1  0.40886487  0.56456634  0.65524395  1.0
  H  H62  1  0.52301545  0.53357999  0.73374754  1.0
  H  H63  1  0.35738937  0.58551391  0.78469592  1.0
  H  H64  1  0.60576565  0.61442952  0.77668407  1.0
  H  H65  1  0.80087483  0.73533098  0.63567364  1.0
  H  H66  1  0.92900725  0.73506475  0.54640434  1.0
  H  H67  1  0.87865290  0.65070433  0.52037825  1.0
  H  H68  1  0.11953726  0.68603175  0.55302380  1.0
  H  H69  1  0.41834379  0.92215633  0.13250572  1.0
  H  H70  1  0.43728554  0.84762029  0.18958213  1.0
  H  H71  1  0.65563626  0.57993603  0.54345969  1.0
  H  H72  1  0.12369995  0.43097161  0.51337371  1.0
  H  H73  1  0.58170752  0.92505387  0.94977122  1.0
  H  H74  1  0.10908740  0.07640630  0.99971288  1.0
  C  C75  1  0.63392518  0.44512869  0.57201235  1.0
  C  C76  1  0.60188870  0.40769707  0.40313212  1.0
  C  C77  1  0.13268785  0.55970963  0.42864264  1.0
  C  C78  1  0.16015412  0.59616236  0.59433373  1.0
  C  C79  1  0.05521659  0.85338642  0.84226553  1.0
  C  C80  1  0.16617648  0.65046027  0.65469217  1.0
  C  C81  1  0.28363823  0.69618694  0.76477855  1.0
  C  C82  1  0.29034076  0.64821536  0.70631179  1.0
  C  C83  1  0.03072902  0.69851039  0.66543212  1.0
  C  C84  1  0.02928224  0.74874663  0.72608633  1.0
  C  C85  1  0.16656152  0.74881498  0.77451539  1.0
  C  C86  1  0.18320208  0.80330637  0.83240306  1.0
  C  C87  1  0.90591836  0.84944159  0.79475038  1.0
  C  C88  1  0.90128191  0.79908933  0.73810825  1.0
  C  C89  1  0.28768699  0.89114537  0.13299906  1.0
  C  C90  1  0.29845378  0.84966713  0.16438716  1.0
  C  C91  1  0.13068392  0.80813998  0.16237415  1.0
  C  C92  1  0.94912165  0.81110169  0.13105527  1.0
  C  C93  1  0.93728943  0.85391336  0.10108729  1.0
  C  C94  1  0.10760468  0.89309502  0.10071561  1.0
  C  C95  1  0.15680306  0.68815944  0.25475564  1.0
  C  C96  1  0.14713143  0.76111717  0.19172124  1.0
  C  C97  1  0.30852446  0.66617856  0.34257538  1.0
  C  C98  1  0.30212717  0.63886793  0.38797130  1.0
  C  C99  1  0.13276057  0.59736556  0.38849440  1.0
  C  C100  1  0.96529689  0.58764172  0.34332986  1.0
  C  C101  1  0.97856237  0.61625696  0.29854588  1.0
  C  C102  1  0.14885999  0.65493759  0.29843801  1.0
  C  C103  1  0.48128351  0.36056525  0.60237786  1.0
  C  C104  1  0.47043310  0.32034828  0.63533099  1.0
  C  C105  1  0.61364588  0.33209562  0.68572666  1.0
  C  C106  1  0.75819448  0.38329715  0.70216599  1.0
  C  C107  1  0.76225164  0.42654322  0.66990515  1.0
  C  C108  1  0.62627541  0.41251998  0.61725943  1.0
  C  C109  1  0.63394081  0.22519496  0.79370759  1.0
  C  C110  1  0.61455479  0.29023736  0.72175545  1.0
  C  C111  1  0.48829820  0.19575850  0.87694228  1.0
  C  C112  1  0.47526335  0.15922769  0.91330629  1.0
  C  C113  1  0.62856870  0.11815420  0.91134727  1.0
  C  C114  1  0.79357296  0.11636132  0.87533203  1.0
  C  C115  1  0.80827397  0.15182512  0.83638552  1.0
  C  C116  1  0.64692995  0.19182966  0.83651062  1.0
  C  C117  1  0.65555063  0.13882772  0.16597617  1.0
  C  C118  1  0.58867739  0.34971998  0.34502733  1.0
  C  C119  1  0.43123932  0.29728753  0.23965509  1.0
  C  C120  1  0.45148263  0.34794918  0.29634401  1.0
  C  C121  1  0.70680286  0.29870816  0.33817938  1.0
  C  C122  1  0.68665153  0.24508767  0.28032430  1.0
  C  C123  1  0.54976947  0.24397161  0.23082185  1.0
  C  C124  1  0.53387515  0.18899234  0.17562862  1.0
  C  C125  1  0.79611258  0.14001217  0.21459164  1.0
  C  C126  1  0.80463412  0.19238396  0.26998384  1.0
  C  C127  1  0.63251957  0.08520861  0.10436787  1.0
  C  C128  1  0.61469906  0.07381410  0.94579713  1.0
  C  C129  1  0.07453096  0.91024644  0.90183613  1.0
  C  C130  1  0.10143309  0.93475517  0.06386415  1.0
  C  C131  1  0.53596690  0.80243397  0.87082423  1.0
  C  C132  1  0.44958606  0.68192737  0.49709598  1.0
  C  C133  1  0.63464727  0.53348950  0.29490839  1.0
  C  C134  1  0.40238477  0.20439482  0.58872373  1.0
  C  C135  1  0.10736344  0.38496145  0.74113250  1.0
  C  C136  1  0.91279798  0.53572901  0.68268943  1.0
  C  C137  1  0.84765124  0.95839051  0.80526449  1.0
  C  C138  1  0.10813887  0.09734205  0.78698948  1.0
  C  C139  1  0.10923901  0.08633312  0.18272468  1.0
  C  C140  1  0.37020973  0.30344846  0.13647690  1.0
  C  C141  1  0.05096971  0.31912229  0.38338589  1.0
  C  C142  1  0.47510317  0.58225283  0.75111099  1.0
  C  C143  1  0.95782062  0.69240253  0.55646713  1.0
  N  N144  1  0.99830239  0.71427620  0.17931068  1.0
  N  N145  1  0.00295891  0.67716201  0.21166983  1.0
  N  N146  1  0.32525084  0.72559977  0.25694866  1.0
  N  N147  1  0.32011849  0.76288866  0.22497253  1.0
  N  N148  1  0.44957274  0.28595030  0.75402862  1.0
  N  N149  1  0.45711903  0.25180842  0.78895146  1.0
  N  N150  1  0.78941949  0.22516410  0.75678081  1.0
  N  N151  1  0.77756242  0.25679091  0.71898593  1.0
  N  N152  1  0.31757182  0.80243578  0.87967060  1.0
  N  N153  1  0.46899326  0.65513393  0.43004989  1.0
  N  N154  1  0.79772954  0.55011433  0.34189018  1.0
  N  N155  1  0.32766115  0.26742519  0.61883730  1.0
  N  N156  1  0.89520264  0.39909678  0.75459416  1.0
  N  N157  1  0.88998734  0.47952104  0.69737647  1.0
  N  N158  1  0.76649592  0.89633632  0.80246634  1.0
  N  N159  1  0.96746880  0.14651818  0.79955264  1.0
  N  N160  1  0.91099397  0.08779202  0.21013073  1.0
  N  N161  1  0.29073155  0.29662991  0.19243470  1.0
  N  N162  1  0.83982764  0.29790960  0.38711942  1.0
  N  N163  1  0.39939356  0.59662272  0.69911481  1.0
  N  N164  1  0.89989323  0.70152189  0.61915564  1.0
  O  O165  1  0.43831316  0.43390310  0.42195272  1.0
  O  O166  1  0.80736909  0.45960109  0.55636176  1.0
  O  O167  1  0.98925404  0.57548390  0.56528219  1.0
  O  O168  1  0.77535481  0.42817776  0.42973811  1.0
  O  O169  1  0.96145362  0.53760194  0.43980572  1.0
  O  O170  1  0.46455231  0.45307009  0.54876107  1.0
  O  O171  1  0.64170271  0.53992728  0.50786620  1.0
  O  O172  1  0.30015831  0.54906672  0.45008436  1.0
  O  O173  1  0.32694456  0.57108882  0.57509092  1.0
  O  O174  1  0.12677276  0.46274897  0.49457474  1.0
  O  O175  1  0.78059604  0.05493956  0.95919407  1.0
  O  O176  1  0.45540711  0.06845845  0.07879248  1.0
  O  O177  1  0.27127687  0.95357931  0.05018673  1.0
  O  O178  1  0.43863896  0.05766839  0.95803889  1.0
  O  O179  1  0.25208658  0.93374598  0.92489200  1.0
  O  O180  1  0.79274140  0.06140369  0.08009466  1.0
  O  O181  1  0.59205599  0.96200100  0.98846211  1.0
  O  O182  1  0.91198069  0.93228236  0.92649043  1.0
  O  O183  1  0.92946802  0.94706036  0.04737609  1.0
  O  O184  1  0.10947527  0.03935833  0.01104624  1.0
