# generated using pymatgen
data_Al6H39C80(ClO10)3
_symmetry_space_group_name_H-M   'P 1'
_cell_length_a   12.24230368
_cell_length_b   12.30251365
_cell_length_c   28.02591343
_cell_angle_alpha   89.36020471
_cell_angle_beta   89.32747842
_cell_angle_gamma   62.05755270
_symmetry_Int_Tables_number   1
_chemical_formula_structural   Al6H39C80(ClO10)3
_chemical_formula_sum   'Al6 H39 C80 Cl3 O30'
_cell_volume   3728.58911283
_cell_formula_units_Z   1
loop_
 _symmetry_equiv_pos_site_id
 _symmetry_equiv_pos_as_xyz
  1  'x, y, z'
loop_
 _atom_site_type_symbol
 _atom_site_label
 _atom_site_symmetry_multiplicity
 _atom_site_fract_x
 _atom_site_fract_y
 _atom_site_fract_z
 _atom_site_occupancy
  Al  Al0  1  0.59836908  0.59101349  0.49560240  1.0
  Al  Al1  1  0.33913462  0.58607390  0.49764283  1.0
  Al  Al2  1  0.57237867  0.34365315  0.49781603  1.0
  Al  Al3  1  0.08055212  0.07135283  0.98189700  1.0
  Al  Al4  1  0.08276005  0.33123982  0.98139201  1.0
  Al  Al5  1  0.32714433  0.10098074  0.98213526  1.0
  H  H6  1  0.52510823  0.75703018  0.19325831  1.0
  H  H7  1  0.13178268  0.99410081  0.20178302  1.0
  H  H8  1  0.13762980  0.95878101  0.28990313  1.0
  H  H9  1  0.22276863  0.55990589  0.62641382  1.0
  H  H10  1  0.52860977  0.23851302  0.78343027  1.0
  H  H11  1  0.49637956  0.22218406  0.87021447  1.0
  H  H12  1  0.21230414  0.53156783  0.71410366  1.0
  H  H13  1  0.13366888  0.42305865  0.76331736  1.0
  H  H14  1  0.10286372  0.41446283  0.85070672  1.0
  H  H15  1  0.49921489  0.18159371  0.61433374  1.0
  H  H16  1  0.70231532  0.22133090  0.63000141  1.0
  H  H17  1  0.80074314  0.51858732  0.77465906  1.0
  H  H18  1  0.86000520  0.49267272  0.86036855  1.0
  H  H19  1  0.75601037  0.20206063  0.71594627  1.0
  H  H20  1  0.91299940  0.13070874  0.76633374  1.0
  H  H21  1  0.96440883  0.10801383  0.85282290  1.0
  H  H22  1  0.87282648  0.48091439  0.69830320  1.0
  H  H23  1  0.81058790  0.50462510  0.61277389  1.0
  H  H24  1  0.55544759  0.72866514  0.62262678  1.0
  H  H25  1  0.27875264  0.18725964  0.20624064  1.0
  H  H26  1  0.21067609  0.77477965  0.78595422  1.0
  H  H27  1  0.19221338  0.84183528  0.87043483  1.0
  H  H28  1  0.53497441  0.78036528  0.70908234  1.0
  H  H29  1  0.44929484  0.93857569  0.75787075  1.0
  H  H30  1  0.15797198  0.84279561  0.70760530  1.0
  H  H31  1  0.18167994  0.78625507  0.62157694  1.0
  H  H32  1  0.29399167  0.20263665  0.29412550  1.0
  H  H33  1  0.99731970  0.30978727  0.29558480  1.0
  H  H34  1  0.03025883  0.31100613  0.20788970  1.0
  H  H35  1  0.67499256  0.32783907  0.18417958  1.0
  H  H36  1  0.64218338  0.32688351  0.27191411  1.0
  H  H37  1  0.63140362  0.87221748  0.82961485  1.0
  H  H38  1  0.57734402  0.88353416  0.89047857  1.0
  H  H39  1  0.61167672  0.99944526  0.86606296  1.0
  H  H40  1  0.68699861  0.70924465  0.24531707  1.0
  H  H41  1  0.65383501  0.58357624  0.23461117  1.0
  H  H42  1  0.73050395  0.58663426  0.28829393  1.0
  H  H43  1  0.68871388  0.70864600  0.46580223  1.0
  H  H44  1  0.98273352  0.96112047  0.01224524  1.0
  C  C45  1  0.38048334  0.72699067  0.42945837  1.0
  C  C46  1  0.29912763  0.25710009  0.22117689  1.0
  C  C47  1  0.30770215  0.26548440  0.27011722  1.0
  C  C48  1  0.33514379  0.35471942  0.28979829  1.0
  C  C49  1  0.31743068  0.33772097  0.18976684  1.0
  C  C50  1  0.30585698  0.32892224  0.13996065  1.0
  C  C51  1  0.34433751  0.36446450  0.33969861  1.0
  C  C52  1  0.29353960  0.31796802  0.09748359  1.0
  C  C53  1  0.77054130  0.33719051  0.38179068  1.0
  C  C54  1  0.92762815  0.31274055  0.27101351  1.0
  C  C55  1  0.94576623  0.31380887  0.22210443  1.0
  C  C56  1  0.38038063  0.39716777  0.43020052  1.0
  C  C57  1  0.74553107  0.32298752  0.20872835  1.0
  C  C58  1  0.72751440  0.32184279  0.25764035  1.0
  C  C59  1  0.81789700  0.31735741  0.28956046  1.0
  C  C60  1  0.85494940  0.31905661  0.19018489  1.0
  C  C61  1  0.87545190  0.31757483  0.14038305  1.0
  C  C62  1  0.79483641  0.32442783  0.33928773  1.0
  C  C63  1  0.89643316  0.31258050  0.09763574  1.0
  C  C64  1  0.34992034  0.78340073  0.38307211  1.0
  C  C65  1  0.44472678  0.78098998  0.26409232  1.0
  C  C66  1  0.44165063  0.80113502  0.21496674  1.0
  C  C67  1  0.71942897  0.37269085  0.42903626  1.0
  C  C68  1  0.21863407  0.93563841  0.21961696  1.0
  C  C69  1  0.22210989  0.91600472  0.26855435  1.0
  C  C70  1  0.33373812  0.83904808  0.29175761  1.0
  C  C71  1  0.32876714  0.87776917  0.19244555  1.0
  C  C72  1  0.32555753  0.89637013  0.14246567  1.0
  C  C73  1  0.33881197  0.81302032  0.34103876  1.0
  C  C74  1  0.31983005  0.91450665  0.09949892  1.0
  C  C75  1  0.36044336  0.37222561  0.61477384  1.0
  C  C76  1  0.27837562  0.47054322  0.64303984  1.0
  C  C77  1  0.27302549  0.45395410  0.69191073  1.0
  C  C78  1  0.38955587  0.71389330  0.56664452  1.0
  C  C79  1  0.34705983  0.34042835  0.71470028  1.0
  C  C80  1  0.42792352  0.24263688  0.68520932  1.0
  C  C81  1  0.43510044  0.25804688  0.63616583  1.0
  C  C82  1  0.43508765  0.27625204  0.79782773  1.0
  C  C83  1  0.41749993  0.26818705  0.84658179  1.0
  C  C84  1  0.19574697  0.37720927  0.83566456  1.0
  C  C85  1  0.21356857  0.38225816  0.78680389  1.0
  C  C86  1  0.33339838  0.33122582  0.76694643  1.0
  C  C87  1  0.29785316  0.31801567  0.86588930  1.0
  C  C88  1  0.75434217  0.36341658  0.61631661  1.0
  C  C89  1  0.37840446  0.39343643  0.56369270  1.0
  C  C90  1  0.74039937  0.27716802  0.64533888  1.0
  C  C91  1  0.77145801  0.26627689  0.69329179  1.0
  C  C92  1  0.81900893  0.33966444  0.71336344  1.0
  C  C93  1  0.83363316  0.42510410  0.68368441  1.0
  C  C94  1  0.80087387  0.43773513  0.63586519  1.0
  C  C95  1  0.83868054  0.42786144  0.79139712  1.0
  C  C96  1  0.87013060  0.41430597  0.83943472  1.0
  C  C97  1  0.92793010  0.19735372  0.83511443  1.0
  C  C98  1  0.89807004  0.21103327  0.78705936  1.0
  C  C99  1  0.85222625  0.32650606  0.76429158  1.0
  C  C100  1  0.71105145  0.38345651  0.56618874  1.0
  C  C101  1  0.91438721  0.29895643  0.86168146  1.0
  C  C102  1  0.36983889  0.75481468  0.61707232  1.0
  C  C103  1  0.46896133  0.75437212  0.64180510  1.0
  C  C104  1  0.45648760  0.78390050  0.68985779  1.0
  C  C105  1  0.34483878  0.81569942  0.71452872  1.0
  C  C106  1  0.24599747  0.81590480  0.68934062  1.0
  C  C107  1  0.25827507  0.78564624  0.64119666  1.0
  C  C108  1  0.25971810  0.82400910  0.79783122  1.0
  C  C109  1  0.25081093  0.85918421  0.84520179  1.0
  C  C110  1  0.39062148  0.94396356  0.82999145  1.0
  C  C111  1  0.35357389  0.37482388  0.38246286  1.0
  C  C112  1  0.39685286  0.91083902  0.78227478  1.0
  C  C113  1  0.33321898  0.84981607  0.76531020  1.0
  C  C114  1  0.31649509  0.91846681  0.86252717  1.0
  C  C115  1  0.94454171  0.28731427  0.04962730  1.0
  C  C116  1  0.27221522  0.29103147  0.04964328  1.0
  C  C117  1  0.29198141  0.95768701  0.05107333  1.0
  C  C118  1  0.95550783  0.27842766  0.91209234  1.0
  C  C119  1  0.27511032  0.29695852  0.91638464  1.0
  C  C120  1  0.29417413  0.96198620  0.91266772  1.0
  C  C121  1  0.35527267  0.43518258  0.25859027  1.0
  C  C122  1  0.34664655  0.42670585  0.20903156  1.0
  C  C123  1  0.57515988  0.93570335  0.85806885  1.0
  C  C124  1  0.66117600  0.64309208  0.26204324  1.0
  Cl  Cl125  1  0.39141575  0.54184312  0.28224730  1.0
  Cl  Cl126  1  0.52133726  0.09670921  0.70841150  1.0
  Cl  Cl127  1  0.37187364  0.52321549  0.17114600  1.0
  O  O128  1  0.69450675  0.47946275  0.44213073  1.0
  O  O129  1  0.30213769  0.49604248  0.54487292  1.0
  O  O130  1  0.47381802  0.31102282  0.54221302  1.0
  O  O131  1  0.68133061  0.30443746  0.54840356  1.0
  O  O132  1  0.50187783  0.50547487  0.49652577  1.0
  O  O133  1  0.18687311  0.97914770  0.03606716  1.0
  O  O134  1  0.96905913  0.18380872  0.03276493  1.0
  O  O135  1  0.96374616  0.37126316  0.02895166  1.0
  O  O136  1  0.17186492  0.36688926  0.02957228  1.0
  O  O137  1  0.35362109  0.18902694  0.03237744  1.0
  O  O138  1  0.37354007  0.97599067  0.02772445  1.0
  O  O139  1  0.48772045  0.69718173  0.44461072  1.0
  O  O140  1  0.19704723  0.97185903  0.93281447  1.0
  O  O141  1  0.98164304  0.17506560  0.93043076  1.0
  O  O142  1  0.96662237  0.36549553  0.93339068  1.0
  O  O143  1  0.16956673  0.37042800  0.93451112  1.0
  O  O144  1  0.35772733  0.20253678  0.93812525  1.0
  O  O145  1  0.37228276  0.99026779  0.93240181  1.0
  O  O146  1  0.16444360  0.16943471  0.98261724  1.0
  O  O147  1  0.29775283  0.70684850  0.45106913  1.0
  O  O148  1  0.30375585  0.49807519  0.44964393  1.0
  O  O149  1  0.48242237  0.31689195  0.44790576  1.0
  O  O150  1  0.69866324  0.29380506  0.45300310  1.0
  O  O151  1  0.70137202  0.47831051  0.54470119  1.0
  O  O152  1  0.49166000  0.69085147  0.54728547  1.0
  O  O153  1  0.30274459  0.69953478  0.54633507  1.0
  O  O154  1  0.45067975  0.00985635  0.84233057  1.0
  O  O155  1  0.54788219  0.70559596  0.28846893  1.0
  O  O156  1  0.68817507  0.66770110  0.49536645  1.0
  O  O157  1  0.00354891  0.98190070  0.98128932  1.0
