# generated using pymatgen
data_Tb2Zn3H36(C2O3)12
_symmetry_space_group_name_H-M   'P 1'
_cell_length_a   14.70942101
_cell_length_b   14.70945018
_cell_length_c   15.91571448
_cell_angle_alpha   89.99997084
_cell_angle_beta   89.99993922
_cell_angle_gamma   60.00003556
_symmetry_Int_Tables_number   1
_chemical_formula_structural   Tb2Zn3H36(C2O3)12
_chemical_formula_sum   'Tb4 Zn6 H72 C48 O72'
_cell_volume   2982.28363143
_cell_formula_units_Z   2
loop_
 _symmetry_equiv_pos_site_id
 _symmetry_equiv_pos_as_xyz
  1  'x, y, z'
loop_
 _atom_site_type_symbol
 _atom_site_label
 _atom_site_symmetry_multiplicity
 _atom_site_fract_x
 _atom_site_fract_y
 _atom_site_fract_z
 _atom_site_occupancy
  Tb  Tb0  1  0.33333333  0.33333333  0.25000187  1.0
  Tb  Tb1  1  0.66666667  0.66666667  0.25000187  1.0
  Tb  Tb2  1  0.66666667  0.66666667  0.74999827  1.0
  Tb  Tb3  1  0.33333333  0.33333333  0.74999828  1.0
  Zn  Zn4  1  0.50000025  0.00000014  0.50000007  1.0
  Zn  Zn5  1  0.99999982  0.50000013  0.50000020  1.0
  Zn  Zn6  1  0.50000025  0.49999920  0.49999995  1.0
  Zn  Zn7  1  0.49999986  0.00000014  0.00000053  1.0
  Zn  Zn8  1  0.50000025  0.50000030  0.00000002  1.0
  Zn  Zn9  1  0.99999992  0.49999936  0.99999974  1.0
  H  H10  1  0.28049897  0.07947416  0.26787172  1.0
  H  H11  1  0.07947591  0.64002389  0.26787294  1.0
  H  H12  1  0.64002459  0.28049984  0.26787150  1.0
  H  H13  1  0.71950083  0.92052533  0.26787091  1.0
  H  H14  1  0.92052458  0.35997559  0.26787283  1.0
  H  H15  1  0.35997482  0.71950044  0.26787051  1.0
  H  H16  1  0.35996889  0.92053172  0.23212654  1.0
  H  H17  1  0.71950008  0.35996938  0.23212776  1.0
  H  H18  1  0.92053132  0.71950027  0.23212757  1.0
  H  H19  1  0.64003124  0.07946856  0.23212700  1.0
  H  H20  1  0.28050005  0.64003090  0.23212704  1.0
  H  H21  1  0.07946949  0.28050001  0.23212848  1.0
  H  H22  1  0.71950085  0.92052612  0.73212842  1.0
  H  H23  1  0.92052499  0.35997560  0.73212783  1.0
  H  H24  1  0.35997455  0.71950045  0.73212865  1.0
  H  H25  1  0.28049938  0.07947417  0.73212860  1.0
  H  H26  1  0.07947564  0.64002390  0.73212731  1.0
  H  H27  1  0.64002500  0.28049984  0.73212901  1.0
  H  H28  1  0.64003093  0.07946857  0.76787360  1.0
  H  H29  1  0.28049974  0.64003091  0.76787239  1.0
  H  H30  1  0.07946957  0.28049923  0.76787194  1.0
  H  H31  1  0.35996897  0.92053094  0.76787315  1.0
  H  H32  1  0.71950045  0.35996938  0.76787248  1.0
  H  H33  1  0.92053101  0.71950028  0.76787229  1.0
  H  H34  1  0.19211694  0.16869556  0.34517144  1.0
  H  H35  1  0.16869627  0.63918627  0.34517197  1.0
  H  H36  1  0.63918709  0.19211686  0.34517122  1.0
  H  H37  1  0.80788306  0.83130472  0.34517185  1.0
  H  H38  1  0.83130373  0.36081401  0.34517195  1.0
  H  H39  1  0.36081330  0.80788264  0.34517082  1.0
  H  H40  1  0.36082106  0.83129857  0.15483126  1.0
  H  H41  1  0.80788130  0.36082108  0.15483178  1.0
  H  H42  1  0.83129913  0.80788093  0.15483166  1.0
  H  H43  1  0.63917916  0.16870171  0.15483104  1.0
  H  H44  1  0.19211931  0.63917841  0.15483178  1.0
  H  H45  1  0.16870109  0.19211934  0.15483127  1.0
  H  H46  1  0.80788288  0.83130472  0.65482870  1.0
  H  H47  1  0.83130394  0.36081324  0.65482817  1.0
  H  H48  1  0.36081312  0.80788265  0.65482892  1.0
  H  H49  1  0.19211744  0.16869557  0.65482829  1.0
  H  H50  1  0.16869609  0.63918627  0.65482819  1.0
  H  H51  1  0.63918720  0.19211764  0.65482870  1.0
  H  H52  1  0.63917944  0.16870172  0.84516889  1.0
  H  H53  1  0.19211852  0.63917920  0.84516837  1.0
  H  H54  1  0.16870069  0.19211935  0.84516848  1.0
  H  H55  1  0.36082066  0.83129858  0.84516910  1.0
  H  H56  1  0.80788158  0.36082109  0.84516836  1.0
  H  H57  1  0.83129873  0.80788094  0.84516888  1.0
  H  H58  1  0.46085492  0.18122889  0.44971516  1.0
  H  H59  1  0.18122825  0.35791644  0.44971588  1.0
  H  H60  1  0.35791537  0.46085651  0.44971514  1.0
  H  H61  1  0.53914388  0.81877219  0.44971583  1.0
  H  H62  1  0.81877162  0.64208385  0.44971511  1.0
  H  H63  1  0.64208422  0.53914299  0.44971585  1.0
  H  H64  1  0.64208575  0.81877058  0.05028476  1.0
  H  H65  1  0.53914344  0.64208549  0.05028486  1.0
  H  H66  1  0.81877164  0.53914214  0.05028474  1.0
  H  H67  1  0.35791431  0.18122891  0.05028482  1.0
  H  H68  1  0.46085623  0.35791477  0.05028473  1.0
  H  H69  1  0.18122803  0.46085813  0.05028484  1.0
  H  H70  1  0.53914490  0.81877140  0.55028499  1.0
  H  H71  1  0.81877157  0.64208384  0.55028426  1.0
  H  H72  1  0.64208445  0.53914377  0.55028500  1.0
  H  H73  1  0.46085594  0.18122810  0.55028431  1.0
  H  H74  1  0.18122927  0.35791565  0.55028441  1.0
  H  H75  1  0.35791560  0.46085730  0.55028430  1.0
  H  H76  1  0.35791447  0.18122892  0.94971475  1.0
  H  H77  1  0.46085638  0.35791479  0.94971466  1.0
  H  H78  1  0.18122818  0.46085815  0.94971540  1.0
  H  H79  1  0.64208590  0.81877060  0.94971470  1.0
  H  H80  1  0.53914359  0.64208551  0.94971479  1.0
  H  H81  1  0.81877179  0.53914216  0.94971530  1.0
  C  C82  1  0.25989647  0.15087199  0.30457380  1.0
  C  C83  1  0.15087443  0.58922774  0.30457501  1.0
  C  C84  1  0.58922851  0.25989817  0.30457487  1.0
  C  C85  1  0.74010397  0.84912751  0.30457364  1.0
  C  C86  1  0.84912601  0.41077176  0.30457557  1.0
  C  C87  1  0.41076939  0.74010368  0.30457320  1.0
  C  C88  1  0.41076976  0.84912839  0.19542884  1.0
  C  C89  1  0.74010216  0.41077022  0.19542941  1.0
  C  C90  1  0.84912883  0.74010197  0.19542991  1.0
  C  C91  1  0.58922973  0.15087189  0.19542931  1.0
  C  C92  1  0.25989909  0.58922927  0.19542937  1.0
  C  C93  1  0.15087096  0.25989908  0.19542950  1.0
  C  C94  1  0.74010375  0.84912750  0.69542697  1.0
  C  C95  1  0.84912618  0.41077097  0.69542576  1.0
  C  C96  1  0.41077170  0.74010134  0.69542527  1.0
  C  C97  1  0.25989624  0.15087200  0.69542650  1.0
  C  C98  1  0.15087381  0.58922853  0.69542457  1.0
  C  C99  1  0.58922828  0.25989818  0.69542506  1.0
  C  C100  1  0.58923006  0.15087190  0.80457130  1.0
  C  C101  1  0.25989834  0.58923007  0.80457073  1.0
  C  C102  1  0.15087128  0.25989910  0.80457086  1.0
  C  C103  1  0.41077009  0.84912839  0.80457083  1.0
  C  C104  1  0.74010180  0.41077023  0.80457077  1.0
  C  C105  1  0.84912847  0.74010199  0.80457064  1.0
  C  C106  1  0.35136977  0.13223907  0.35986754  1.0
  C  C107  1  0.13224127  0.51639180  0.35986819  1.0
  C  C108  1  0.51639167  0.35136703  0.35986804  1.0
  C  C109  1  0.64863050  0.86776199  0.35986809  1.0
  C  C110  1  0.86775628  0.48360927  0.35986870  1.0
  C  C111  1  0.48360774  0.64863168  0.35986759  1.0
  C  C112  1  0.48360944  0.86776282  0.14013816  1.0
  C  C113  1  0.64862917  0.48360856  0.14013817  1.0
  C  C114  1  0.86776194  0.64862842  0.14013803  1.0
  C  C115  1  0.51638933  0.13223902  0.14013809  1.0
  C  C116  1  0.35137106  0.51639173  0.14013808  1.0
  C  C117  1  0.13223908  0.35137029  0.14014011  1.0
  C  C118  1  0.64863005  0.86776121  0.64013260  1.0
  C  C119  1  0.86775962  0.48360771  0.64013196  1.0
  C  C120  1  0.48360787  0.64863246  0.64013273  1.0
  C  C121  1  0.35137010  0.13223673  0.64013143  1.0
  C  C122  1  0.13224354  0.51639101  0.64013082  1.0
  C  C123  1  0.51639150  0.35136704  0.64013192  1.0
  C  C124  1  0.51638959  0.13223904  0.85986198  1.0
  C  C125  1  0.35137132  0.51639174  0.85986134  1.0
  C  C126  1  0.13223798  0.35137030  0.85986149  1.0
  C  C127  1  0.48361049  0.86776126  0.85986206  1.0
  C  C128  1  0.64862944  0.48360856  0.85986270  1.0
  C  C129  1  0.86776220  0.64862843  0.85986192  1.0
  O  O130  1  0.23613179  0.23613773  0.25000446  1.0
  O  O131  1  0.23613855  0.52773038  0.25000439  1.0
  O  O132  1  0.52773080  0.23613058  0.25000369  1.0
  O  O133  1  0.76386939  0.76386177  0.25000368  1.0
  O  O134  1  0.76386156  0.47226989  0.25000438  1.0
  O  O135  1  0.47226931  0.76386970  0.25000382  1.0
  O  O136  1  0.76386910  0.76386177  0.74999631  1.0
  O  O137  1  0.76386127  0.47226990  0.74999576  1.0
  O  O138  1  0.47226902  0.76386971  0.74999583  1.0
  O  O139  1  0.23613150  0.23613774  0.74999583  1.0
  O  O140  1  0.23613866  0.52772960  0.74999514  1.0
  O  O141  1  0.52773051  0.23613058  0.74999632  1.0
  O  O142  1  0.38544086  0.19699809  0.35390422  1.0
  O  O143  1  0.19700484  0.41755252  0.35390552  1.0
  O  O144  1  0.41755325  0.38544258  0.35390479  1.0
  O  O145  1  0.61455884  0.80300141  0.35390420  1.0
  O  O146  1  0.80299554  0.58244698  0.35390542  1.0
  O  O147  1  0.58244080  0.61456006  0.35390426  1.0
  O  O148  1  0.58243695  0.80300769  0.14609953  1.0
  O  O149  1  0.61455513  0.58243761  0.14610083  1.0
  O  O150  1  0.80300768  0.61455606  0.14610010  1.0
  O  O151  1  0.41756328  0.19699259  0.14609952  1.0
  O  O152  1  0.38544492  0.41756031  0.14610074  1.0
  O  O153  1  0.19699419  0.38544501  0.14610084  1.0
  O  O154  1  0.61455896  0.80300219  0.64609592  1.0
  O  O155  1  0.80299576  0.58244620  0.64609588  1.0
  O  O156  1  0.58244589  0.61455770  0.64609473  1.0
  O  O157  1  0.38544098  0.19699888  0.64609594  1.0
  O  O158  1  0.19700467  0.41755252  0.64609473  1.0
  O  O159  1  0.41755376  0.38544259  0.64609463  1.0
  O  O160  1  0.41756355  0.19699260  0.85390061  1.0
  O  O161  1  0.38544469  0.41756268  0.85389932  1.0
  O  O162  1  0.19699446  0.38544501  0.85389879  1.0
  O  O163  1  0.58243654  0.80300770  0.85390062  1.0
  O  O164  1  0.61455500  0.58243841  0.85389940  1.0
  O  O165  1  0.80300659  0.61455607  0.85389993  1.0
  O  O166  1  0.38409048  0.05427232  0.40765742  1.0
  O  O167  1  0.05427648  0.56163169  0.40765746  1.0
  O  O168  1  0.56163411  0.38409155  0.40765788  1.0
  O  O169  1  0.61590944  0.94572797  0.40765670  1.0
  O  O170  1  0.94572383  0.43836782  0.40765855  1.0
  O  O171  1  0.43836367  0.61591031  0.40765687  1.0
  O  O172  1  0.43836292  0.94573194  0.09233950  1.0
  O  O173  1  0.61590562  0.43836477  0.09234016  1.0
  O  O174  1  0.94573053  0.61590622  0.09233995  1.0
  O  O175  1  0.56163738  0.05426833  0.09233941  1.0
  O  O176  1  0.38409614  0.56163393  0.09234189  1.0
  O  O177  1  0.05426898  0.38409562  0.09234147  1.0
  O  O178  1  0.61590934  0.94572796  0.59234272  1.0
  O  O179  1  0.94572237  0.43836781  0.59234268  1.0
  O  O180  1  0.43836553  0.61590638  0.59234289  1.0
  O  O181  1  0.38409038  0.05427232  0.59234344  1.0
  O  O182  1  0.05427638  0.56163169  0.59234160  1.0
  O  O183  1  0.56163440  0.38409076  0.59234202  1.0
  O  O184  1  0.56163690  0.05426835  0.90766065  1.0
  O  O185  1  0.38409420  0.56163552  0.90765999  1.0
  O  O186  1  0.05426987  0.38409563  0.90765768  1.0
  O  O187  1  0.43836352  0.94573116  0.90766073  1.0
  O  O188  1  0.61590583  0.43836478  0.90765951  1.0
  O  O189  1  0.94573084  0.61590466  0.90765868  1.0
  O  O190  1  0.50411342  0.14655753  0.50000004  1.0
  O  O191  1  0.14655766  0.34932928  0.49999953  1.0
  O  O192  1  0.34932913  0.50411424  0.50000003  1.0
  O  O193  1  0.49588640  0.85344275  0.50000011  1.0
  O  O194  1  0.85344216  0.65067101  0.50000061  1.0
  O  O195  1  0.65067108  0.49588526  0.49999949  1.0
  O  O196  1  0.65067119  0.85344270  0.00000049  1.0
  O  O197  1  0.49588632  0.65067034  0.99999970  1.0
  O  O198  1  0.85344417  0.49588519  0.00000047  1.0
  O  O199  1  0.34932863  0.14655759  0.99999966  1.0
  O  O200  1  0.50411389  0.34932916  0.00000044  1.0
  O  O201  1  0.14655565  0.50411510  0.99999967  1.0
