# generated using pymatgen
data_Tm2H21C27NO14
_symmetry_space_group_name_H-M   'P 1'
_cell_length_a   10.82230815
_cell_length_b   18.63176945
_cell_length_c   19.45220767
_cell_angle_alpha   97.95369798
_cell_angle_beta   94.56271598
_cell_angle_gamma   106.14755242
_symmetry_Int_Tables_number   1
_chemical_formula_structural   Tm2H21C27NO14
_chemical_formula_sum   'Tm8 H84 C108 N4 O56'
_cell_volume   3702.50232511
_cell_formula_units_Z   4
loop_
 _symmetry_equiv_pos_site_id
 _symmetry_equiv_pos_as_xyz
  1  'x, y, z'
loop_
 _atom_site_type_symbol
 _atom_site_label
 _atom_site_symmetry_multiplicity
 _atom_site_fract_x
 _atom_site_fract_y
 _atom_site_fract_z
 _atom_site_occupancy
  Tm  Tm0  1  0.82411766  0.10790113  0.20686423  1.0
  Tm  Tm1  1  0.17587996  0.89209848  0.79313357  1.0
  Tm  Tm2  1  0.82565146  0.39965130  0.20425919  1.0
  Tm  Tm3  1  0.17434849  0.60034548  0.79573630  1.0
  Tm  Tm4  1  0.76189240  0.60893968  0.26664574  1.0
  Tm  Tm5  1  0.23811048  0.39106330  0.73335792  1.0
  Tm  Tm6  1  0.76071880  0.89754600  0.26904161  1.0
  Tm  Tm7  1  0.23928188  0.10245983  0.73096026  1.0
  H  H8  1  0.03855105  0.10804110  0.08658797  1.0
  H  H9  1  0.96144987  0.89196700  0.91341370  1.0
  H  H10  1  0.94458166  0.37652406  0.92988024  1.0
  H  H11  1  0.05541193  0.62348012  0.07011331  1.0
  H  H12  1  0.08168461  0.34255204  0.91855879  1.0
  H  H13  1  0.91831426  0.65744985  0.08143629  1.0
  H  H14  1  0.10321023  0.44163939  0.93974648  1.0
  H  H15  1  0.89679119  0.55836760  0.06025044  1.0
  H  H16  1  0.86823193  0.37549956  0.02847593  1.0
  H  H17  1  0.13175901  0.62451030  0.97151721  1.0
  H  H18  1  0.48406834  0.10431927  0.21962372  1.0
  H  H19  1  0.51593907  0.89568145  0.78037628  1.0
  H  H20  1  0.26067014  0.11950820  0.20305918  1.0
  H  H21  1  0.73933421  0.88049538  0.79693693  1.0
  H  H22  1  0.22529081  0.34284749  0.02830934  1.0
  H  H23  1  0.77469500  0.65714928  0.97169310  1.0
  H  H24  1  0.17965000  0.37589906  0.11081350  1.0
  H  H25  1  0.82032305  0.62409435  0.88918576  1.0
  H  H26  1  0.25573458  0.44189272  0.05690252  1.0
  H  H27  1  0.74425789  0.55810458  0.94310395  1.0
  H  H28  1  0.10105035  0.90193309  0.26246754  1.0
  H  H29  1  0.89894555  0.09806825  0.73752422  1.0
  H  H30  1  0.32401790  0.88596291  0.27716808  1.0
  H  H31  1  0.67597368  0.11403730  0.72282485  1.0
  H  H32  1  0.96378897  0.21933577  0.42129001  1.0
  H  H33  1  0.03620329  0.78067573  0.57871781  1.0
  H  H34  1  0.05652130  0.27901309  0.54625707  1.0
  H  H35  1  0.94348560  0.72099610  0.45374969  1.0
  H  H36  1  0.96676677  0.05845474  0.60544821  1.0
  H  H37  1  0.03323811  0.94154826  0.39455094  1.0
  H  H38  1  0.86975227  0.99969354  0.48303163  1.0
  H  H39  1  0.13025346  0.00032023  0.51696847  1.0
  H  H40  1  0.58727368  0.27992004  0.03637157  1.0
  H  H41  1  0.41272530  0.72007725  0.96363422  1.0
  H  H42  1  0.43297681  0.21634166  0.92611713  1.0
  H  H43  1  0.56703710  0.78365562  0.07388586  1.0
  H  H44  1  0.36348684  0.00273872  0.99814248  1.0
  H  H45  1  0.63651620  0.99725914  0.00186155  1.0
  H  H46  1  0.52231165  0.06494509  0.10540391  1.0
  H  H47  1  0.47768326  0.93505163  0.89460416  1.0
  H  H48  1  0.14124044  0.43786739  0.30273534  1.0
  H  H49  1  0.85875522  0.56213392  0.69726412  1.0
  H  H50  1  0.37958487  0.49891884  0.30646901  1.0
  H  H51  1  0.62041746  0.50107563  0.69353196  1.0
  H  H52  1  0.42510228  0.28774523  0.20967964  1.0
  H  H53  1  0.57490301  0.71225321  0.79032098  1.0
  H  H54  1  0.18519033  0.22507638  0.20989306  1.0
  H  H55  1  0.81481803  0.77492433  0.79010597  1.0
  H  H56  1  0.15451409  0.73283986  0.22757662  1.0
  H  H57  1  0.84548536  0.26715461  0.77242728  1.0
  H  H58  1  0.39681829  0.78806064  0.23006587  1.0
  H  H59  1  0.60318054  0.21193782  0.76993390  1.0
  H  H60  1  0.43559201  0.56305171  0.19433422  1.0
  H  H61  1  0.56441396  0.43694446  0.80566717  1.0
  H  H62  1  0.19478705  0.50850430  0.19047094  1.0
  H  H63  1  0.80521649  0.49149074  0.80953016  1.0
  H  H64  1  0.58324697  0.59988748  0.10523754  1.0
  H  H65  1  0.41673466  0.40011779  0.89477094  1.0
  H  H66  1  0.58085115  0.38676105  0.98720576  1.0
  H  H67  1  0.41912678  0.61324251  0.01280437  1.0
  H  H68  1  0.92784987  0.61258998  0.48360644  1.0
  H  H69  1  0.07216536  0.38741249  0.51637930  1.0
  H  H70  1  0.96546764  0.39561782  0.39876681  1.0
  H  H71  1  0.03455142  0.60438177  0.60122750  1.0
  H  H72  1  0.59307716  0.58274042  0.36459542  1.0
  H  H73  1  0.40692437  0.41725631  0.63540888  1.0
  H  H74  1  0.68779630  0.66168171  0.40236312  1.0
  H  H75  1  0.31220122  0.33831617  0.59763959  1.0
  H  H76  1  0.70725314  0.91649645  0.40144809  1.0
  H  H77  1  0.29274679  0.08350993  0.59855741  1.0
  H  H78  1  0.58448171  0.85120718  0.36672182  1.0
  H  H79  1  0.41552150  0.14879465  0.63328222  1.0
  H  H80  1  0.10469573  0.14944188  0.92931491  1.0
  H  H81  1  0.89530727  0.85056111  0.07068517  1.0
  H  H82  1  0.00440806  0.05382457  0.91554587  1.0
  H  H83  1  0.99559687  0.94617672  0.08445357  1.0
  H  H84  1  0.12108213  0.08983094  0.99159591  1.0
  H  H85  1  0.87892245  0.91017148  0.00840366  1.0
  H  H86  1  0.80430437  0.10251462  0.91218471  1.0
  H  H87  1  0.19569532  0.89747817  0.08781333  1.0
  H  H88  1  0.89810587  0.19963210  0.93279499  1.0
  H  H89  1  0.10188573  0.80036297  0.06720241  1.0
  H  H90  1  0.78665122  0.16017038  0.99074541  1.0
  H  H91  1  0.21334358  0.83982186  0.00925177  1.0
  C  C92  1  0.95947288  0.12736130  0.06337674  1.0
  C  C93  1  0.04052504  0.87263545  0.93662430  1.0
  C  C94  1  0.54935195  0.98315041  0.25518260  1.0
  C  C95  1  0.45064865  0.01684803  0.74481983  1.0
  C  C96  1  0.04679881  0.38561199  0.94888092  1.0
  C  C97  1  0.95320125  0.61439046  0.05111482  1.0
  C  C98  1  0.41685030  0.99379619  0.24845467  1.0
  C  C99  1  0.58314184  0.00619831  0.75154576  1.0
  C  C100  1  0.95921420  0.37717443  0.05955017  1.0
  C  C101  1  0.04077568  0.62283147  0.94044136  1.0
  C  C102  1  0.39935946  0.06006252  0.22811996  1.0
  C  C103  1  0.60063887  0.93993482  0.77187706  1.0
  C  C104  1  0.27545730  0.06838783  0.21897138  1.0
  C  C105  1  0.72453958  0.93161405  0.78102771  1.0
  C  C106  1  0.16764462  0.01126229  0.23091703  1.0
  C  C107  1  0.83235685  0.98873391  0.76908001  1.0
  C  C108  1  0.18765901  0.38570003  0.05693661  1.0
  C  C109  1  0.81232868  0.61429674  0.94306543  1.0
  C  C110  1  0.03458018  0.02090296  0.22285559  1.0
  C  C111  1  0.96542036  0.97909666  0.77713773  1.0
  C  C112  1  0.18534084  0.94542062  0.25230750  1.0
  C  C113  1  0.81465786  0.05457559  0.74768888  1.0
  C  C114  1  0.30901662  0.93678947  0.26071618  1.0
  C  C115  1  0.69097411  0.06320562  0.73927962  1.0
  C  C116  1  0.86414143  0.06898908  0.37027934  1.0
  C  C117  1  0.13586152  0.93102693  0.62972760  1.0
  C  C118  1  0.91207516  0.10591942  0.44471931  1.0
  C  C119  1  0.08791375  0.89408871  0.55528120  1.0
  C  C120  1  0.96404005  0.18495302  0.46232607  1.0
  C  C121  1  0.03593801  0.81505228  0.53767812  1.0
  C  C122  1  0.01650409  0.21773254  0.53096561  1.0
  C  C123  1  0.98349277  0.78227499  0.46903782  1.0
  C  C124  1  0.02010406  0.17210858  0.58236738  1.0
  C  C125  1  0.97989505  0.82789782  0.41763448  1.0
  C  C126  1  0.08906343  0.20680299  0.65431575  1.0
  C  C127  1  0.91093640  0.79320509  0.34569100  1.0
  C  C128  1  0.96434352  0.09348505  0.56521874  1.0
  C  C129  1  0.03564855  0.90651628  0.43477693  1.0
  C  C130  1  0.91009414  0.06089968  0.49696515  1.0
  C  C131  1  0.08989339  0.93910734  0.50303103  1.0
  C  C132  1  0.65998168  0.21332531  0.14047839  1.0
  C  C133  1  0.34001198  0.78667427  0.85952690  1.0
  C  C134  1  0.56357902  0.17596290  0.07679875  1.0
  C  C135  1  0.43641530  0.82403439  0.92320782  1.0
  C  C136  1  0.53772542  0.21918675  0.02679283  1.0
  C  C137  1  0.46227449  0.78081055  0.97321301  1.0
  C  C138  1  0.45205241  0.18432501  0.96654512  1.0
  C  C139  1  0.54795603  0.81567058  0.03345684  1.0
  C  C140  1  0.38941030  0.10601847  0.95626973  1.0
  C  C141  1  0.61059447  0.89397714  0.04373101  1.0
  C  C142  1  0.30304575  0.06755386  0.88953304  1.0
  C  C143  1  0.69696575  0.93244401  0.11046732  1.0
  C  C144  1  0.41266136  0.06337159  0.00713501  1.0
  C  C145  1  0.58733720  0.93662460  0.99286598  1.0
  C  C146  1  0.50039091  0.09796181  0.06663274  1.0
  C  C147  1  0.49960509  0.90203494  0.93337025  1.0
  C  C148  1  0.00704074  0.29229668  0.25152714  1.0
  C  C149  1  0.99295956  0.70769896  0.74846822  1.0
  C  C150  1  0.15031766  0.32816752  0.25563736  1.0
  C  C151  1  0.84969087  0.67182637  0.74436335  1.0
  C  C152  1  0.20440848  0.40516591  0.28347686  1.0
  C  C153  1  0.79560076  0.59483308  0.71652559  1.0
  C  C154  1  0.33679358  0.43892935  0.28554423  1.0
  C  C155  1  0.66322245  0.56106848  0.71445946  1.0
  C  C156  1  0.41596451  0.39673185  0.25828335  1.0
  C  C157  1  0.58404170  0.60326316  0.74172099  1.0
  C  C158  1  0.55650523  0.43471436  0.25592972  1.0
  C  C159  1  0.44349184  0.56528069  0.74407053  1.0
  C  C160  1  0.36180576  0.31944366  0.23074026  1.0
  C  C161  1  0.63820129  0.68055305  0.76926537  1.0
  C  C162  1  0.22983775  0.28516572  0.23020979  1.0
  C  C163  1  0.77017111  0.71483045  0.76978815  1.0
  C  C164  1  0.02050574  0.58488275  0.21456346  1.0
  C  C165  1  0.97950076  0.41511455  0.78543913  1.0
  C  C166  1  0.16179920  0.61766701  0.20944116  1.0
  C  C167  1  0.83819500  0.38232974  0.79056020  1.0
  C  C168  1  0.21741989  0.69658956  0.21947188  1.0
  C  C169  1  0.78257838  0.30340606  0.78052902  1.0
  C  C170  1  0.35063810  0.72698615  0.22116793  1.0
  C  C171  1  0.64936135  0.27301003  0.77883414  1.0
  C  C172  1  0.42955296  0.67873692  0.21328409  1.0
  C  C173  1  0.57045589  0.32126320  0.78671951  1.0
  C  C174  1  0.57381086  0.71207165  0.22213509  1.0
  C  C175  1  0.42620154  0.28793529  0.77786652  1.0
  C  C176  1  0.37340702  0.59993221  0.20058836  1.0
  C  C177  1  0.62659612  0.40006567  0.79941259  1.0
  C  C178  1  0.24000309  0.56956276  0.19842427  1.0
  C  C179  1  0.75999405  0.43043625  0.80157959  1.0
  C  C180  1  0.68690693  0.48473069  0.10832250  1.0
  C  C181  1  0.31308579  0.51527573  0.89167645  1.0
  C  C182  1  0.59152534  0.49256704  0.05163146  1.0
  C  C183  1  0.40847090  0.50743197  0.94837132  1.0
  C  C184  1  0.54624178  0.55660437  0.05882480  1.0
  C  C185  1  0.45375437  0.44339463  0.94118107  1.0
  C  C186  1  0.54480621  0.43611296  0.99239525  1.0
  C  C187  1  0.45518027  0.56388719  0.00761179  1.0
  C  C188  1  0.87971666  0.50998776  0.36480247  1.0
  C  C189  1  0.12028229  0.49000506  0.63518987  1.0
  C  C190  1  0.94086623  0.50463471  0.43488480  1.0
  C  C191  1  0.05916302  0.49536090  0.56510438  1.0
  C  C192  1  0.95993913  0.56357245  0.49159276  1.0
  C  C193  1  0.04008994  0.43642827  0.50839658  1.0
  C  C194  1  0.98125865  0.44080038  0.44353427  1.0
  C  C195  1  0.01874930  0.55919014  0.55645928  1.0
  C  C196  1  0.05155045  0.10388205  0.95558590  1.0
  C  C197  1  0.94845284  0.89611980  0.04441558  1.0
  C  C198  1  0.85510349  0.14868257  0.95530029  1.0
  C  C199  1  0.14489149  0.85131193  0.04469823  1.0
  N  N200  1  0.95591352  0.12728398  0.99436942  1.0
  N  N201  1  0.04408897  0.87271447  0.00563209  1.0
  N  N202  1  0.05986452  0.38082672  0.02300730  1.0
  N  N203  1  0.94012913  0.61917234  0.97698970  1.0
  O  O204  1  0.64391847  0.03416374  0.24023997  1.0
  O  O205  1  0.35607674  0.96583474  0.75975704  1.0
  O  O206  1  0.56159205  0.92234494  0.27404712  1.0
  O  O207  1  0.43840189  0.07765126  0.72595311  1.0
  O  O208  1  0.01875696  0.07808454  0.19835655  1.0
  O  O209  1  0.98124584  0.92192184  0.80164601  1.0
  O  O210  1  0.94224063  0.97127493  0.24143529  1.0
  O  O211  1  0.05775857  0.02872582  0.75856017  1.0
  O  O212  1  0.87803031  0.11012005  0.32320473  1.0
  O  O213  1  0.12196411  0.88988806  0.67679711  1.0
  O  O214  1  0.81429622  0.99677146  0.35912849  1.0
  O  O215  1  0.18571880  0.00324401  0.64086925  1.0
  O  O216  1  0.13254538  0.27808561  0.66862856  1.0
  O  O217  1  0.86746328  0.72192305  0.33137205  1.0
  O  O218  1  0.10132991  0.16195830  0.69682676  1.0
  O  O219  1  0.89866598  0.83804185  0.30317616  1.0
  O  O220  1  0.68514379  0.17079732  0.18236781  1.0
  O  O221  1  0.31485862  0.82920677  0.81763958  1.0
  O  O222  1  0.70863736  0.28427521  0.14879912  1.0
  O  O223  1  0.29136292  0.71572609  0.85120059  1.0
  O  O224  1  0.28870279  0.10981479  0.84508304  1.0
  O  O225  1  0.71129248  0.89018423  0.15492123  1.0
  O  O226  1  0.25146496  0.99633496  0.88110223  1.0
  O  O227  1  0.74855529  0.00366176  0.11889640  1.0
  O  O228  1  0.96641105  0.22080953  0.24195405  1.0
  O  O229  1  0.03359156  0.77918499  0.75803819  1.0
  O  O230  1  0.93564065  0.33607998  0.25871078  1.0
  O  O231  1  0.06436188  0.66391966  0.74127855  1.0
  O  O232  1  0.60079884  0.50506985  0.28273916  1.0
  O  O233  1  0.39920630  0.49492462  0.71726093  1.0
  O  O234  1  0.62174847  0.39551161  0.22615921  1.0
  O  O235  1  0.37824953  0.60449029  0.77383377  1.0
  O  O236  1  0.97539916  0.51338109  0.20851255  1.0
  O  O237  1  0.02460188  0.48661452  0.79148850  1.0
  O  O238  1  0.95489975  0.63162933  0.22610647  1.0
  O  O239  1  0.04510596  0.36836628  0.77389380  1.0
  O  O240  1  0.61942620  0.78290556  0.23968568  1.0
  O  O241  1  0.38057136  0.21710141  0.76031617  1.0
  O  O242  1  0.64291231  0.66705102  0.21170526  1.0
  O  O243  1  0.35709309  0.33295138  0.78829743  1.0
  O  O244  1  0.73483009  0.42949277  0.10015331  1.0
  O  O245  1  0.26515992  0.57051419  0.89985225  1.0
  O  O246  1  0.71480288  0.53449903  0.16344798  1.0
  O  O247  1  0.28520195  0.46550567  0.83655088  1.0
  O  O248  1  0.85108474  0.45197187  0.31745121  1.0
  O  O249  1  0.14890496  0.54801584  0.68254563  1.0
  O  O250  1  0.86099423  0.57314692  0.35669428  1.0
  O  O251  1  0.13900594  0.42684646  0.64329820  1.0
  O  O252  1  0.88084910  0.14675836  0.10019010  1.0
  O  O253  1  0.11913903  0.85323333  0.89980357  1.0
  O  O254  1  0.63159282  0.63559438  0.35940133  1.0
  O  O255  1  0.36840160  0.36440293  0.64060216  1.0
  O  O256  1  0.67793285  0.86303391  0.37888269  1.0
  O  O257  1  0.32207308  0.13697476  0.62111623  1.0
  O  O258  1  0.96508447  0.37643273  0.12390806  1.0
  O  O259  1  0.03490086  0.62356068  0.87608415  1.0
