# generated using pymatgen
data_AlH12C33(BrO2)3
_symmetry_space_group_name_H-M   'P 1'
_cell_length_a   3.99486280
_cell_length_b   20.43657404
_cell_length_c   20.47746302
_cell_angle_alpha   60.07641450
_cell_angle_beta   86.27588877
_cell_angle_gamma   86.08839346
_symmetry_Int_Tables_number   1
_chemical_formula_structural   AlH12C33(BrO2)3
_chemical_formula_sum   'Al1 H12 C33 Br3 O6'
_cell_volume   1444.64077329
_cell_formula_units_Z   1
loop_
 _symmetry_equiv_pos_site_id
 _symmetry_equiv_pos_as_xyz
  1  'x, y, z'
loop_
 _atom_site_type_symbol
 _atom_site_label
 _atom_site_symmetry_multiplicity
 _atom_site_fract_x
 _atom_site_fract_y
 _atom_site_fract_z
 _atom_site_occupancy
  Al  Al0  1  0.03702408  0.49951122  0.49986490  1.0
  H  H1  1  0.83915998  0.30915119  0.70625620  1.0
  H  H2  1  0.81673009  0.23632226  0.84708739  1.0
  H  H3  1  0.23260127  0.70953525  0.30743229  1.0
  H  H4  1  0.22719550  0.85069601  0.23616370  1.0
  H  H5  1  0.28141894  0.30982753  0.48453381  1.0
  H  H6  1  0.29405939  0.23827786  0.41489203  1.0
  H  H7  1  0.77273147  0.70675094  0.48369193  1.0
  H  H8  1  0.74591609  0.84794074  0.41592643  1.0
  H  H9  1  0.17591699  0.48209102  0.70965830  1.0
  H  H10  1  0.17219322  0.41286673  0.85049765  1.0
  H  H11  1  0.88752515  0.47906132  0.30743115  1.0
  H  H12  1  0.88098550  0.41111698  0.23438125  1.0
  C  C13  1  0.51948160  0.44209151  0.61590514  1.0
  C  C14  1  0.57261820  0.44061002  0.44219934  1.0
  C  C15  1  0.51687098  0.61582384  0.44118278  1.0
  C  C16  1  0.68899430  0.33053236  0.73847496  1.0
  C  C17  1  0.67755051  0.29021487  0.81669403  1.0
  C  C18  1  0.34916064  0.74038079  0.32999560  1.0
  C  C19  1  0.34505464  0.81879220  0.29051778  1.0
  C  C20  1  0.41737048  0.33063783  0.43045376  1.0
  C  C21  1  0.42370105  0.29098289  0.39169908  1.0
  C  C22  1  0.64862768  0.73888593  0.43017379  1.0
  C  C23  1  0.63477161  0.81727539  0.39243673  1.0
  C  C24  1  0.31984142  0.42893760  0.74035398  1.0
  C  C25  1  0.31697138  0.39035393  0.81859464  1.0
  C  C26  1  0.75373906  0.42701528  0.32974590  1.0
  C  C27  1  0.75120678  0.38912075  0.28930009  1.0
  C  C28  1  0.50857068  0.39983578  0.69966950  1.0
  C  C29  1  0.49426905  0.32007494  0.85794600  1.0
  C  C30  1  0.49114435  0.28028652  0.93761125  1.0
  C  C31  1  0.49280176  0.24603395  0.00629349  1.0
  C  C32  1  0.50008135  0.20678351  0.08565562  1.0
  C  C33  1  0.50409619  0.69979392  0.39964847  1.0
  C  C34  1  0.48614027  0.85841293  0.32147539  1.0
  C  C35  1  0.48297170  0.93818134  0.28172525  1.0
  C  C36  1  0.48609493  0.00698937  0.24747319  1.0
  C  C37  1  0.49621245  0.08635494  0.20722924  1.0
  C  C38  1  0.58354666  0.39868110  0.40009785  1.0
  C  C39  1  0.58702167  0.32029023  0.31989283  1.0
  C  C40  1  0.57982886  0.28142469  0.27912447  1.0
  C  C41  1  0.56410633  0.24748495  0.24456854  1.0
  C  C42  1  0.54021513  0.20751903  0.20556692  1.0
  C  C43  1  0.48137089  0.12731290  0.12774824  1.0
  C  C44  1  0.52530162  0.12791323  0.24470373  1.0
  C  C45  1  0.52898634  0.24543982  0.12606260  1.0
  Br  Br46  1  0.54831977  0.07526360  0.35069597  1.0
  Br  Br47  1  0.55571208  0.35148313  0.07188749  1.0
  Br  Br48  1  0.43348474  0.07396617  0.07592511  1.0
  O  O49  1  0.29773038  0.58244007  0.42685877  1.0
  O  O50  1  0.27882510  0.48983908  0.58280504  1.0
  O  O51  1  0.33128334  0.42697076  0.49087852  1.0
  O  O52  1  0.74731000  0.58237546  0.48890341  1.0
  O  O53  1  0.80120270  0.48728420  0.42744315  1.0
  O  O54  1  0.77055298  0.42770081  0.58242251  1.0
