# generated using pymatgen
data_CuH7C9N2
_symmetry_space_group_name_H-M   'P 1'
_cell_length_a   33.04142403
_cell_length_b   33.40237712
_cell_length_c   35.36334182
_cell_angle_alpha   90.64325133
_cell_angle_beta   90.99069382
_cell_angle_gamma   90.58751917
_symmetry_Int_Tables_number   1
_chemical_formula_structural   CuH7C9N2
_chemical_formula_sum   'Cu12 H84 C108 N24'
_cell_volume   39018.75606059
_cell_formula_units_Z   12
loop_
 _symmetry_equiv_pos_site_id
 _symmetry_equiv_pos_as_xyz
  1  'x, y, z'
loop_
 _atom_site_type_symbol
 _atom_site_label
 _atom_site_symmetry_multiplicity
 _atom_site_fract_x
 _atom_site_fract_y
 _atom_site_fract_z
 _atom_site_occupancy
  Cu  Cu0  1  0.66282257  0.37157270  0.59459697  1.0
  Cu  Cu1  1  0.58782189  0.33014630  0.63374232  1.0
  Cu  Cu2  1  0.62813574  0.40940382  0.66992280  1.0
  Cu  Cu3  1  0.15399147  0.61709423  0.91748801  1.0
  Cu  Cu4  1  0.09146365  0.66771911  0.86966895  1.0
  Cu  Cu5  1  0.12255274  0.58388763  0.83800923  1.0
  Cu  Cu6  1  0.83578740  0.87083283  0.40275718  1.0
  Cu  Cu7  1  0.91474470  0.83293684  0.36771804  1.0
  Cu  Cu8  1  0.87487058  0.91035656  0.33088007  1.0
  Cu  Cu9  1  0.34784291  0.12242717  0.08333039  1.0
  Cu  Cu10  1  0.41223270  0.17442717  0.12946360  1.0
  Cu  Cu11  1  0.37236625  0.09743635  0.16684706  1.0
  H  H12  1  0.67539793  0.31284213  0.52531265  1.0
  H  H13  1  0.57207441  0.25600559  0.57718313  1.0
  H  H14  1  0.68855455  0.48288706  0.68269677  1.0
  H  H15  1  0.73477158  0.43272061  0.57864488  1.0
  H  H16  1  0.51836309  0.31400044  0.69223362  1.0
  H  H17  1  0.57155018  0.42250357  0.74062772  1.0
  H  H18  1  0.16472792  0.67277744  0.99056311  1.0
  H  H19  1  0.08783259  0.74685893  0.92040907  1.0
  H  H20  1  0.18269455  0.51045318  0.82654643  1.0
  H  H21  1  0.22057266  0.55370584  0.93778022  1.0
  H  H22  1  0.02329532  0.68684824  0.80812407  1.0
  H  H23  1  0.06392654  0.57146497  0.76732179  1.0
  H  H24  1  0.82073445  0.81226230  0.47068129  1.0
  H  H25  1  0.92998634  0.76131787  0.42515677  1.0
  H  H26  1  0.81522255  0.98300403  0.31740024  1.0
  H  H27  1  0.76228787  0.92968352  0.41645793  1.0
  H  H28  1  0.98823027  0.81969771  0.31218311  1.0
  H  H29  1  0.93457015  0.92573035  0.26373009  1.0
  H  H30  1  0.33899468  0.17379119  0.00857390  1.0
  H  H31  1  0.41892076  0.25051430  0.07630096  1.0
  H  H32  1  0.30968558  0.02529054  0.17895332  1.0
  H  H33  1  0.28221981  0.05647607  0.06270453  1.0
  H  H34  1  0.48319533  0.19307880  0.18901374  1.0
  H  H35  1  0.42441517  0.09263393  0.24269109  1.0
  H  H36  1  0.07117471  0.81875405  0.12179954  1.0
  H  H37  1  0.12127835  0.92821070  0.16929295  1.0
  H  H38  1  0.16823139  0.87948458  0.06584494  1.0
  H  H39  1  0.67637934  0.12690663  0.42797282  1.0
  H  H40  1  0.62747172  0.08222973  0.32176649  1.0
  H  H41  1  0.56633322  0.17601158  0.38166620  1.0
  H  H42  1  0.42960462  0.31872428  0.87329001  1.0
  H  H43  1  0.37547035  0.42509914  0.82775412  1.0
  H  H44  1  0.33368714  0.37659920  0.93271569  1.0
  H  H45  1  0.93335233  0.68356774  0.61718770  1.0
  H  H46  1  0.87755823  0.58291486  0.67160550  1.0
  H  H47  1  0.82383136  0.63055079  0.57020357  1.0
  H  H48  1  0.11360791  0.80424243  0.96407754  1.0
  H  H49  1  0.12960043  0.85445805  0.01402622  1.0
  H  H50  1  0.14269823  0.74501531  0.02438447  1.0
  H  H51  1  0.10491207  0.78672458  0.06719349  1.0
  H  H52  1  0.68215431  0.24873826  0.48961852  1.0
  H  H53  1  0.68355488  0.19085616  0.44764167  1.0
  H  H54  1  0.59672779  0.21935672  0.50945945  1.0
  H  H55  1  0.59107625  0.19887734  0.44389515  1.0
  H  H56  1  0.39338903  0.30607649  0.03229652  1.0
  H  H57  1  0.37537255  0.35450848  0.98280913  1.0
  H  H58  1  0.36179820  0.24459368  0.97329515  1.0
  H  H59  1  0.39833845  0.28621621  0.92869540  1.0
  H  H60  1  0.81597613  0.75009366  0.50834006  1.0
  H  H61  1  0.81540359  0.69276684  0.55013288  1.0
  H  H62  1  0.90295830  0.72466694  0.49110367  1.0
  H  H63  1  0.90725042  0.70696039  0.55678701  1.0
  H  H64  1  0.23697973  0.99781827  0.06076271  1.0
  H  H65  1  0.19252647  0.93940897  0.05931791  1.0
  H  H66  1  0.24724559  0.98000882  0.14551234  1.0
  H  H67  1  0.18024324  0.95812276  0.14360043  1.0
  H  H68  1  0.75187683  0.52567511  0.68408466  1.0
  H  H69  1  0.81282886  0.56743976  0.68238182  1.0
  H  H70  1  0.77532996  0.50108804  0.60339842  1.0
  H  H71  1  0.79665259  0.56888340  0.59659540  1.0
  H  H72  1  0.75139249  0.02298586  0.31308114  1.0
  H  H73  1  0.69099276  0.06464486  0.31351501  1.0
  H  H74  1  0.72447666  0.99937767  0.39266001  1.0
  H  H75  1  0.70558908  0.06788392  0.39952883  1.0
  H  H76  1  0.26483861  0.49438045  0.94065140  1.0
  H  H77  1  0.30964969  0.43659169  0.94081801  1.0
  H  H78  1  0.24840329  0.47010468  0.85760485  1.0
  H  H79  1  0.31669353  0.45322706  0.85589897  1.0
  H  H80  1  0.99841887  0.93219611  0.22807838  1.0
  H  H81  1  0.05659863  0.93447063  0.18728309  1.0
  H  H82  1  0.02599476  0.84695199  0.24684207  1.0
  H  H83  1  0.04737456  0.84295226  0.18272963  1.0
  H  H84  1  0.48192419  0.30827730  0.75400759  1.0
  H  H85  1  0.44347265  0.30812211  0.81264428  1.0
  H  H86  1  0.50382703  0.39454151  0.77837582  1.0
  H  H87  1  0.43535856  0.39828023  0.79844422  1.0
  H  H88  1  0.00102738  0.57018252  0.72802022  1.0
  H  H89  1  0.94095497  0.57127792  0.68744828  1.0
  H  H90  1  0.98246285  0.65888938  0.74313437  1.0
  H  H91  1  0.96016400  0.66081960  0.67845553  1.0
  H  H92  1  0.46033625  0.12247671  0.30358071  1.0
  H  H93  1  0.51151301  0.13836535  0.35440407  1.0
  H  H94  1  0.52447541  0.16218848  0.25408030  1.0
  H  H95  1  0.57041458  0.11792563  0.29100589  1.0
  C  C96  1  0.65043288  0.30356399  0.54285190  1.0
  C  C97  1  0.62387618  0.27046567  0.53868766  1.0
  C  C98  1  0.59743010  0.27486793  0.56922172  1.0
  C  C99  1  0.69516519  0.46556698  0.65744081  1.0
  C  C100  1  0.72556390  0.47129053  0.63048478  1.0
  C  C101  1  0.71847720  0.43993092  0.60420118  1.0
  C  C102  1  0.53625295  0.34049856  0.69950045  1.0
  C  C103  1  0.53228238  0.36777292  0.72987058  1.0
  C  C104  1  0.56329250  0.39609067  0.72393264  1.0
  C  C105  1  0.14554618  0.68576460  0.96879321  1.0
  C  C106  1  0.12761706  0.72377246  0.96790340  1.0
  C  C107  1  0.10673850  0.72392831  0.93282308  1.0
  C  C108  1  0.18694333  0.52592087  0.85352063  1.0
  C  C109  1  0.21497404  0.51833273  0.88295963  1.0
  C  C110  1  0.20628020  0.54776356  0.91040823  1.0
  C  C111  1  0.03811669  0.65848231  0.80299761  1.0
  C  C112  1  0.03002390  0.62948204  0.77461325  1.0
  C  C113  1  0.05853829  0.59942218  0.78223958  1.0
  C  C114  1  0.84724782  0.80429540  0.45467646  1.0
  C  C115  1  0.87514050  0.77325590  0.46058287  1.0
  C  C116  1  0.90322119  0.77858165  0.43151654  1.0
  C  C117  1  0.80693224  0.96491864  0.34142919  1.0
  C  C118  1  0.77490745  0.96960629  0.36686460  1.0
  C  C119  1  0.78017990  0.93777509  0.39217768  1.0
  C  C120  1  0.97012637  0.84555698  0.30494577  1.0
  C  C121  1  0.97535000  0.87321163  0.27563027  1.0
  C  C122  1  0.94301656  0.89989065  0.28031665  1.0
  C  C123  1  0.35884267  0.18763966  0.02984457  1.0
  C  C124  1  0.37783838  0.22553305  0.02973386  1.0
  C  C125  1  0.39924312  0.22714796  0.06453859  1.0
  C  C126  1  0.30790650  0.03796134  0.15082849  1.0
  C  C127  1  0.28246225  0.02695684  0.12000657  1.0
  C  C128  1  0.29388570  0.05363162  0.09141116  1.0
  C  C129  1  0.46403739  0.16813241  0.19715943  1.0
  C  C130  1  0.46627810  0.14436527  0.22971192  1.0
  C  C131  1  0.43360980  0.11729078  0.22492579  1.0
  C  C132  1  0.11862258  0.84654375  0.08959896  1.0
  C  C133  1  0.09251892  0.84388320  0.12049755  1.0
  C  C134  1  0.09171642  0.87397391  0.14855648  1.0
  C  C135  1  0.12003122  0.90562853  0.14672069  1.0
  C  C136  1  0.14740262  0.90855252  0.11686941  1.0
  C  C137  1  0.14614549  0.87874810  0.08838737  1.0
  C  C138  1  0.62170842  0.15558576  0.40812095  1.0
  C  C139  1  0.65346272  0.12797543  0.40540155  1.0
  C  C140  1  0.65652139  0.10182489  0.37421962  1.0
  C  C141  1  0.62631034  0.10307222  0.34570188  1.0
  C  C142  1  0.59307883  0.12866405  0.34857785  1.0
  C  C143  1  0.59115526  0.15476773  0.37997327  1.0
  C  C144  1  0.38276600  0.34505664  0.90684554  1.0
  C  C145  1  0.40735416  0.34257239  0.87490645  1.0
  C  C146  1  0.40533052  0.37131086  0.84620161  1.0
  C  C147  1  0.37744430  0.40257364  0.84987904  1.0
  C  C148  1  0.35155791  0.40533732  0.88094882  1.0
  C  C149  1  0.35455848  0.37613300  0.90916949  1.0
  C  C150  1  0.87801770  0.66137072  0.59063004  1.0
  C  C151  1  0.90900142  0.66125007  0.61838566  1.0
  C  C152  1  0.90963965  0.63283037  0.64743876  1.0
  C  C153  1  0.87775664  0.60478629  0.64895425  1.0
  C  C154  1  0.84634415  0.60395600  0.62162913  1.0
  C  C155  1  0.84744714  0.63181652  0.59216962  1.0
  C  C156  1  0.13087224  0.75452029  0.99684345  1.0
  C  C157  1  0.12181385  0.79373887  0.99239798  1.0
  C  C158  1  0.12337113  0.82356212  0.02241832  1.0
  C  C159  1  0.11595032  0.81645274  0.05935815  1.0
  C  C160  1  0.62354817  0.23886039  0.51044924  1.0
  C  C161  1  0.65411129  0.23119507  0.48631289  1.0
  C  C162  1  0.65381615  0.20096724  0.45673693  1.0
  C  C163  1  0.62066337  0.18590452  0.43812633  1.0
  C  C164  1  0.37454217  0.25515760  0.00043201  1.0
  C  C165  1  0.38418628  0.29459608  0.00428312  1.0
  C  C166  1  0.38150885  0.32357950  0.97422848  1.0
  C  C167  1  0.38743860  0.31582487  0.93701762  1.0
  C  C168  1  0.87553612  0.74269111  0.48914906  1.0
  C  C169  1  0.84449927  0.73420139  0.51251903  1.0
  C  C170  1  0.84498220  0.70471732  0.54213402  1.0
  C  C171  1  0.87813618  0.69207533  0.56159589  1.0
  C  C172  1  0.25206412  0.99565993  0.11892336  1.0
  C  C173  1  0.23006242  0.98398566  0.08784331  1.0
  C  C174  1  0.19883938  0.95337897  0.08696497  1.0
  C  C175  1  0.17672800  0.94145602  0.11689044  1.0
  C  C176  1  0.75741828  0.50112663  0.62915000  1.0
  C  C177  1  0.76768506  0.52761350  0.65719155  1.0
  C  C178  1  0.79944310  0.55763905  0.65524110  1.0
  C  C179  1  0.81283692  0.57520455  0.62331187  1.0
  C  C180  1  0.74339069  0.99921020  0.36755280  1.0
  C  C181  1  0.73475698  0.02540081  0.33950819  1.0
  C  C182  1  0.70368530  0.05553900  0.34085753  1.0
  C  C183  1  0.69001030  0.07373101  0.37260088  1.0
  C  C184  1  0.24544884  0.48773002  0.88366306  1.0
  C  C185  1  0.26981904  0.47892596  0.91369219  1.0
  C  C186  1  0.30150223  0.44942571  0.91341343  1.0
  C  C187  1  0.32200919  0.43738684  0.88243413  1.0
  C  C188  1  0.00702821  0.87359212  0.24801009  1.0
  C  C189  1  0.01542899  0.90447636  0.22466339  1.0
  C  C190  1  0.04597534  0.90484739  0.19588912  1.0
  C  C191  1  0.06089719  0.87240912  0.17757162  1.0
  C  C192  1  0.50403426  0.36754487  0.76055593  1.0
  C  C193  1  0.47929563  0.33655015  0.76968992  1.0
  C  C194  1  0.45062973  0.33712057  0.80011736  1.0
  C  C195  1  0.43162517  0.37004321  0.81349899  1.0
  C  C196  1  0.99864632  0.63060563  0.74575607  1.0
  C  C197  1  0.98686851  0.59923520  0.72328678  1.0
  C  C198  1  0.95542415  0.60012367  0.69440387  1.0
  C  C199  1  0.94318923  0.63267881  0.67483080  1.0
  C  C200  1  0.49579320  0.14718656  0.26032884  1.0
  C  C201  1  0.49035678  0.13361616  0.29590503  1.0
  C  C202  1  0.52144624  0.13388675  0.32528614  1.0
  C  C203  1  0.56122335  0.12714126  0.31937654  1.0
  N  N204  1  0.60770113  0.30766322  0.58996975  1.0
  N  N205  1  0.64060377  0.32549474  0.57344912  1.0
  N  N206  1  0.68670381  0.41733424  0.61478353  1.0
  N  N207  1  0.67223018  0.43334120  0.64786623  1.0
  N  N208  1  0.58412794  0.38627108  0.69279733  1.0
  N  N209  1  0.56722321  0.35172928  0.67759223  1.0
  N  N210  1  0.11210796  0.68888057  0.91447419  1.0
  N  N211  1  0.13634147  0.66517704  0.93675966  1.0
  N  N212  1  0.17561434  0.57072835  0.89816877  1.0
  N  N213  1  0.16353824  0.55722965  0.86279487  1.0
  N  N214  1  0.08136861  0.60976766  0.81276726  1.0
  N  N215  1  0.06869438  0.64647280  0.82576928  1.0
  N  N216  1  0.89269642  0.81002292  0.41001648  1.0
  N  N217  1  0.85793080  0.82599935  0.42452238  1.0
  N  N218  1  0.81248150  0.91587325  0.38242272  1.0
  N  N219  1  0.82910660  0.93282952  0.35090152  1.0
  N  N220  1  0.92072262  0.88896441  0.31006485  1.0
  N  N221  1  0.93756336  0.85521159  0.32548128  1.0
  N  N222  1  0.39313796  0.19303787  0.08367750  1.0
  N  N223  1  0.36790169  0.16851351  0.06219289  1.0
  N  N224  1  0.32362988  0.07825305  0.10433169  1.0
  N  N225  1  0.33238790  0.06862004  0.14129169  1.0
  N  N226  1  0.41358816  0.12459462  0.19226329  1.0
  N  N227  1  0.43235363  0.15635939  0.17506701  1.0
