# generated using pymatgen
data_Zn2H28C47N2O13
_symmetry_space_group_name_H-M   'P 1'
_cell_length_a   12.51720947
_cell_length_b   13.41408695
_cell_length_c   16.00531600
_cell_angle_alpha   90.13042852
_cell_angle_beta   106.90716972
_cell_angle_gamma   101.89908141
_symmetry_Int_Tables_number   1
_chemical_formula_structural   Zn2H28C47N2O13
_chemical_formula_sum   'Zn2 H28 C47 N2 O13'
_cell_volume   2510.43014038
_cell_formula_units_Z   1
loop_
 _symmetry_equiv_pos_site_id
 _symmetry_equiv_pos_as_xyz
  1  'x, y, z'
loop_
 _atom_site_type_symbol
 _atom_site_label
 _atom_site_symmetry_multiplicity
 _atom_site_fract_x
 _atom_site_fract_y
 _atom_site_fract_z
 _atom_site_occupancy
  Zn  Zn0  1  0.61483164  0.49057665  0.51850854  1.0
  Zn  Zn1  1  0.38118109  0.50901802  0.47374022  1.0
  H  H2  1  0.57307622  0.65228194  0.93531190  1.0
  H  H3  1  0.72577328  0.33637562  0.61966644  1.0
  H  H4  1  0.10653503  0.30809056  0.62883034  1.0
  H  H5  1  0.91212442  0.27938270  0.64746466  1.0
  H  H6  1  0.81966156  0.56273055  0.46466985  1.0
  H  H7  1  0.27508052  0.66305655  0.38144053  1.0
  H  H8  1  0.94139333  0.64349633  0.41179139  1.0
  H  H9  1  0.34862699  0.57399178  0.02844897  1.0
  H  H10  1  0.36981459  0.57731740  0.88847340  1.0
  H  H11  1  0.60732400  0.39420137  0.10179365  1.0
  H  H12  1  0.46017386  0.33429003  0.06855080  1.0
  H  H13  1  0.66730333  0.58661912  0.11081051  1.0
  H  H14  1  0.16507352  0.92711189  0.59293880  1.0
  H  H15  1  0.68346594  0.10369129  0.50885417  1.0
  H  H16  1  0.90487333  0.96211939  0.49095265  1.0
  H  H17  1  0.56376543  0.66213984  0.07901666  1.0
  H  H18  1  0.16421520  0.78557575  0.31289774  1.0
  H  H19  1  0.24994217  0.40100608  0.56279608  1.0
  H  H20  1  0.31117143  0.43936682  0.02149714  1.0
  H  H21  1  0.28267146  0.34353329  0.88489653  1.0
  H  H22  1  0.64367331  0.36357407  0.88630182  1.0
  H  H23  1  0.67573973  0.57642016  0.96741106  1.0
  H  H24  1  0.46294552  0.32586366  0.92368246  1.0
  H  H25  1  0.24802126  0.19763080  0.54413206  1.0
  H  H26  1  0.28488483  0.84760300  0.59742985  1.0
  H  H27  1  0.55874524  0.17565803  0.49199425  1.0
  H  H28  1  0.76908423  0.81062755  0.50565257  1.0
  H  H29  1  0.41526461  0.74567649  0.57724849  1.0
  C  C30  1  0.57422799  0.69524587  0.51722240  1.0
  C  C31  1  0.40621385  0.19630461  0.51490696  1.0
  C  C32  1  0.71019369  0.85719377  0.51345099  1.0
  C  C33  1  0.48622057  0.50531999  0.33274655  1.0
  C  C34  1  0.73764227  0.96393230  0.50908987  1.0
  C  C35  1  0.65935240  0.02178140  0.51471512  1.0
  C  C36  1  0.55463136  0.97648075  0.52849075  1.0
  C  C37  1  0.52986731  0.86909698  0.53825585  1.0
  C  C38  1  0.47103236  0.03581137  0.53294790  1.0
  C  C39  1  0.37131321  0.98966283  0.55684719  1.0
  C  C40  1  0.35676082  0.88400692  0.57490522  1.0
  C  C41  1  0.59039099  0.58342683  0.96889702  1.0
  C  C42  1  0.43056112  0.82612292  0.56411118  1.0
  C  C43  1  0.48541968  0.13832392  0.51230208  1.0
  C  C44  1  0.31026617  0.15280125  0.54092948  1.0
  C  C45  1  0.42931896  0.30564871  0.49331133  1.0
  C  C46  1  0.60704895  0.80965850  0.52567333  1.0
  C  C47  1  0.89534779  0.34346573  0.60774201  1.0
  C  C48  1  0.20634854  0.62726024  0.40796029  1.0
  C  C49  1  0.10529784  0.66396635  0.39152217  1.0
  C  C50  1  0.02008870  0.61516212  0.42640964  1.0
  C  C51  1  0.03727371  0.53281795  0.47866572  1.0
  C  C52  1  0.50140363  0.48992727  0.91566986  1.0
  C  C53  1  0.14384062  0.50194460  0.49451926  1.0
  C  C54  1  0.95351247  0.47797514  0.51788533  1.0
  C  C55  1  0.97894444  0.39606003  0.57114605  1.0
  C  C56  1  0.08775418  0.36991960  0.58671144  1.0
  C  C57  1  0.51132996  0.49541992  0.66124103  1.0
  C  C58  1  0.16732256  0.42124809  0.55028965  1.0
  C  C59  1  0.84625181  0.50217493  0.50569138  1.0
  C  C60  1  0.79302358  0.37364644  0.59255278  1.0
  C  C61  1  0.58457668  0.58985444  0.06389507  1.0
  C  C62  1  0.37528167  0.50503498  0.01273340  1.0
  C  C63  1  0.52767663  0.39127820  0.96212343  1.0
  C  C64  1  0.38081597  0.50435979  0.91708296  1.0
  C  C65  1  0.51106775  0.49023370  0.75147888  1.0
  C  C66  1  0.49256233  0.50003817  0.07739169  1.0
  C  C67  1  0.18957711  0.01149174  0.59016354  1.0
  C  C68  1  0.84832149  0.01460664  0.49671142  1.0
  C  C69  1  0.09105243  0.75313119  0.33834820  1.0
  C  C70  1  0.28451413  0.42247719  0.86145966  1.0
  C  C71  1  0.64057902  0.37241109  0.95484992  1.0
  C  C72  1  0.52337099  0.39847406  0.05699048  1.0
  C  C73  1  0.50680697  0.48743745  0.82631679  1.0
  C  C74  1  0.48780488  0.50415542  0.16685798  1.0
  C  C75  1  0.48404000  0.50557710  0.24185466  1.0
  C  C76  1  0.29235961  0.05130660  0.56235275  1.0
  N  N77  1  0.76961676  0.45253694  0.54234458  1.0
  N  N78  1  0.22499056  0.54900174  0.45711327  1.0
  O  O79  1  0.65198945  0.64569130  0.54751547  1.0
  O  O80  1  0.87861509  0.10697286  0.49288825  1.0
  O  O81  1  0.00658129  0.79060988  0.32281464  1.0
  O  O82  1  0.21018295  0.43751777  0.79720653  1.0
  O  O83  1  0.72254948  0.36642615  0.01686040  1.0
  O  O84  1  0.46980716  0.65728309  0.47647510  1.0
  O  O85  1  0.58518626  0.51859085  0.38831782  1.0
  O  O86  1  0.39038541  0.49160449  0.34875831  1.0
  O  O87  1  0.52562677  0.34143098  0.48163952  1.0
  O  O88  1  0.35208118  0.35563918  0.49038708  1.0
  O  O89  1  0.58972496  0.46350945  0.64043121  1.0
  O  O90  1  0.43142976  0.53157239  0.61073690  1.0
  O  O91  1  0.13111409  0.06556928  0.60964844  1.0
