# generated using pymatgen
data_MgH8C13NO5
_symmetry_space_group_name_H-M   'P 1'
_cell_length_a   12.52254199
_cell_length_b   12.52252458
_cell_length_c   13.42452820
_cell_angle_alpha   63.16835585
_cell_angle_beta   63.16824020
_cell_angle_gamma   88.10420029
_symmetry_Int_Tables_number   1
_chemical_formula_structural   MgH8C13NO5
_chemical_formula_sum   'Mg4 H32 C52 N4 O20'
_cell_volume   1637.30659671
_cell_formula_units_Z   4
loop_
 _symmetry_equiv_pos_site_id
 _symmetry_equiv_pos_as_xyz
  1  'x, y, z'
loop_
 _atom_site_type_symbol
 _atom_site_label
 _atom_site_symmetry_multiplicity
 _atom_site_fract_x
 _atom_site_fract_y
 _atom_site_fract_z
 _atom_site_occupancy
  Mg  Mg0  1  0.30778730  0.69221311  0.74999976  1.0
  Mg  Mg1  1  0.69221391  0.30778711  0.24999883  1.0
  Mg  Mg2  1  0.49999993  0.99999971  0.49999990  1.0
  Mg  Mg3  1  0.00000059  0.50000049  0.99999906  1.0
  H  H4  1  0.39763253  0.65408689  0.00800397  1.0
  H  H5  1  0.34591499  0.60236842  0.49199632  1.0
  H  H6  1  0.60236819  0.34591518  0.99199778  1.0
  H  H7  1  0.65408642  0.39763272  0.50800254  1.0
  H  H8  1  0.51889385  0.54104378  0.11362830  1.0
  H  H9  1  0.45895928  0.48110799  0.38637084  1.0
  H  H10  1  0.48110814  0.45896011  0.88637064  1.0
  H  H11  1  0.54104213  0.51889315  0.61362802  1.0
  H  H12  1  0.85247755  0.74460174  0.75963159  1.0
  H  H13  1  0.25539847  0.14752276  0.74036751  1.0
  H  H14  1  0.14752386  0.25539940  0.24036727  1.0
  H  H15  1  0.74460363  0.85247746  0.25963070  1.0
  H  H16  1  0.73043327  0.86230668  0.65638243  1.0
  H  H17  1  0.13769402  0.26956766  0.84361572  1.0
  H  H18  1  0.26956724  0.13769445  0.34361682  1.0
  H  H19  1  0.86230718  0.73043255  0.15638213  1.0
  H  H20  1  0.25530925  0.79337940  0.50757028  1.0
  H  H21  1  0.20661894  0.74468931  0.99243109  1.0
  H  H22  1  0.74469088  0.20661991  0.49243065  1.0
  H  H23  1  0.79337741  0.25530907  0.00757109  1.0
  H  H24  1  0.09227895  0.85002259  0.44690862  1.0
  H  H25  1  0.14997579  0.90771944  0.05309330  1.0
  H  H26  1  0.90772028  0.14997671  0.55309269  1.0
  H  H27  1  0.85002145  0.09227893  0.94690775  1.0
  H  H28  1  0.04470775  0.10560854  0.59176103  1.0
  H  H29  1  0.89439109  0.95528952  0.90824054  1.0
  H  H30  1  0.95528969  0.89439076  0.40824030  1.0
  H  H31  1  0.10560921  0.04471068  0.09175621  1.0
  H  H32  1  0.21502074  0.04020264  0.63956063  1.0
  H  H33  1  0.95979671  0.78497877  0.86043909  1.0
  H  H34  1  0.78497869  0.95979758  0.36043946  1.0
  H  H35  1  0.04020359  0.21502144  0.13955765  1.0
  C  C36  1  0.55750877  0.76742560  0.82621153  1.0
  C  C37  1  0.23257594  0.44249155  0.67378810  1.0
  C  C38  1  0.44249175  0.23257555  0.17378919  1.0
  C  C39  1  0.76742617  0.55750867  0.32621011  1.0
  C  C40  1  0.49745355  0.67681171  0.95547159  1.0
  C  C41  1  0.32318991  0.50254681  0.54452945  1.0
  C  C42  1  0.50254806  0.32319035  0.04452903  1.0
  C  C43  1  0.67681130  0.49745341  0.45546914  1.0
  C  C44  1  0.56435850  0.61336216  0.01391793  1.0
  C  C45  1  0.38664043  0.43564257  0.48608177  1.0
  C  C46  1  0.43564311  0.38663991  0.98608195  1.0
  C  C47  1  0.61336239  0.56435675  0.51391802  1.0
  C  C48  1  0.69265612  0.63746468  0.94353236  1.0
  C  C49  1  0.36253811  0.30734400  0.55646802  1.0
  C  C50  1  0.30734459  0.36253738  0.05646716  1.0
  C  C51  1  0.63746470  0.69265532  0.44353176  1.0
  C  C52  1  0.75293961  0.72864289  0.81444314  1.0
  C  C53  1  0.27135791  0.24706104  0.68555715  1.0
  C  C54  1  0.24706200  0.27135917  0.18555673  1.0
  C  C55  1  0.72864331  0.75293919  0.31444293  1.0
  C  C56  1  0.68570676  0.79347495  0.75701637  1.0
  C  C57  1  0.20652527  0.31429423  0.74298268  1.0
  C  C58  1  0.31429465  0.20652619  0.24298323  1.0
  C  C59  1  0.79347594  0.68570599  0.25701666  1.0
  C  C60  1  0.48606817  0.82750885  0.75863426  1.0
  C  C61  1  0.17249113  0.51393258  0.74136675  1.0
  C  C62  1  0.51393215  0.17249137  0.24136620  1.0
  C  C63  1  0.82750919  0.48606765  0.25863371  1.0
  C  C64  1  0.76245806  0.56060067  0.00569291  1.0
  C  C65  1  0.43940148  0.23754171  0.49430575  1.0
  C  C66  1  0.23754136  0.43939954  0.99430645  1.0
  C  C67  1  0.56059973  0.76245852  0.50569358  1.0
  C  C68  1  0.20453746  0.86188089  0.52178413  1.0
  C  C69  1  0.13811970  0.79546109  0.97821419  1.0
  C  C70  1  0.79546197  0.13811933  0.47821671  1.0
  C  C71  1  0.86188003  0.20453638  0.02178471  1.0
  C  C72  1  0.11262828  0.89473134  0.49133514  1.0
  C  C73  1  0.10526667  0.88737039  0.00866685  1.0
  C  C74  1  0.88737056  0.10526613  0.50866711  1.0
  C  C75  1  0.89473057  0.11262798  0.99133272  1.0
  C  C76  1  0.04885514  0.98208852  0.51627525  1.0
  C  C77  1  0.01790970  0.95114236  0.98372707  1.0
  C  C78  1  0.95114153  0.01790712  0.48372870  1.0
  C  C79  1  0.98208951  0.04885693  0.01627127  1.0
  C  C80  1  0.08593784  0.03485681  0.57174560  1.0
  C  C81  1  0.96514182  0.91405982  0.92825610  1.0
  C  C82  1  0.91406011  0.96514066  0.42825703  1.0
  C  C83  1  0.03485760  0.08594038  0.07174177  1.0
  C  C84  1  0.17829547  0.00045849  0.60117041  1.0
  C  C85  1  0.99954145  0.82170235  0.89883051  1.0
  C  C86  1  0.82170395  0.99954172  0.39882968  1.0
  C  C87  1  0.00045867  0.17829694  0.10116819  1.0
  N  N88  1  0.23468848  0.91301108  0.57835775  1.0
  N  N89  1  0.08698907  0.76530968  0.92164168  1.0
  N  N90  1  0.76531095  0.08698914  0.42164308  1.0
  N  N91  1  0.91301105  0.23468961  0.07835702  1.0
  O  O92  1  0.37277755  0.77717346  0.81681778  1.0
  O  O93  1  0.22282637  0.62722348  0.68318325  1.0
  O  O94  1  0.62722258  0.22282585  0.18318315  1.0
  O  O95  1  0.77717395  0.37277674  0.31681647  1.0
  O  O96  1  0.54206809  0.92009663  0.64756982  1.0
  O  O97  1  0.07990336  0.45793177  0.85243086  1.0
  O  O98  1  0.45793133  0.07990359  0.35243028  1.0
  O  O99  1  0.92009785  0.54206845  0.14756847  1.0
  O  O100  1  0.69942907  0.47601461  0.12040965  1.0
  O  O101  1  0.52398809  0.30057152  0.37958841  1.0
  O  O102  1  0.30057054  0.52398653  0.87958998  1.0
  O  O103  1  0.47601222  0.69942869  0.62040983  1.0
  O  O104  1  0.87911471  0.58470169  0.93910175  1.0
  O  O105  1  0.41529960  0.12088442  0.56089867  1.0
  O  O106  1  0.12088472  0.41529853  0.06089909  1.0
  O  O107  1  0.58470091  0.87911672  0.43910058  1.0
  O  O108  1  0.31992779  0.87851974  0.61101198  1.0
  O  O109  1  0.12148120  0.68007162  0.88898794  1.0
  O  O110  1  0.68007055  0.12147956  0.38899045  1.0
  O  O111  1  0.87852001  0.31992860  0.11101065  1.0
