# generated using pymatgen
data_Zn4H4C24S4Br2N2O17
_symmetry_space_group_name_H-M   'P 1'
_cell_length_a   19.63789250
_cell_length_b   19.69787437
_cell_length_c   33.28160306
_cell_angle_alpha   79.18811985
_cell_angle_beta   79.36833094
_cell_angle_gamma   64.02893210
_symmetry_Int_Tables_number   1
_chemical_formula_structural   Zn4H4C24S4Br2N2O17
_chemical_formula_sum   'Zn16 H16 C96 S16 Br8 N8 O68'
_cell_volume   11291.98032856
_cell_formula_units_Z   4
loop_
 _symmetry_equiv_pos_site_id
 _symmetry_equiv_pos_as_xyz
  1  'x, y, z'
loop_
 _atom_site_type_symbol
 _atom_site_label
 _atom_site_symmetry_multiplicity
 _atom_site_fract_x
 _atom_site_fract_y
 _atom_site_fract_z
 _atom_site_occupancy
  Zn  Zn0  1  0.05822841  0.40005996  0.47805666  1.0
  Zn  Zn1  1  0.98396250  0.48372639  0.55999367  1.0
  Zn  Zn2  1  0.05903197  0.56100673  0.48186156  1.0
  Zn  Zn3  1  0.89936000  0.55399879  0.48018254  1.0
  Zn  Zn4  1  0.69396182  0.35113692  0.27008801  1.0
  Zn  Zn5  1  0.68968439  0.18945140  0.26742681  1.0
  Zn  Zn6  1  0.76803124  0.26753248  0.18967330  1.0
  Zn  Zn7  1  0.84662905  0.19276042  0.27310756  1.0
  Zn  Zn8  1  0.26631235  0.76839059  0.68945985  1.0
  Zn  Zn9  1  0.34923861  0.69545738  0.77161307  1.0
  Zn  Zn10  1  0.19265307  0.84934618  0.77094339  1.0
  Zn  Zn11  1  0.19376337  0.68614503  0.76767990  1.0
  Zn  Zn12  1  0.56222684  0.05875450  0.98245192  1.0
  Zn  Zn13  1  0.39985756  0.05584476  0.97909889  1.0
  Zn  Zn14  1  0.55752849  0.90226084  0.97780865  1.0
  Zn  Zn15  1  0.48068020  0.98356171  0.06029282  1.0
  H  H16  1  0.74845309  0.45210419  0.35010559  1.0
  H  H17  1  0.00152437  0.29702005  0.40017668  1.0
  H  H18  1  0.20170810  0.70064471  0.59864329  1.0
  H  H19  1  0.04989091  0.54972214  0.65046863  1.0
  H  H20  1  0.46359031  0.24093306  0.34007566  1.0
  H  H21  1  0.47912681  0.70362587  0.60085379  1.0
  H  H22  1  0.20273977  0.98019150  0.60065623  1.0
  H  H23  1  0.94736032  0.96928671  0.34950806  1.0
  H  H24  1  0.65127075  0.15109182  0.04912042  1.0
  H  H25  1  0.59906364  0.09861170  0.20073225  1.0
  H  H26  1  0.55030706  0.77188937  0.14801659  1.0
  H  H27  1  0.15986553  0.14083296  0.04084873  1.0
  H  H28  1  0.29671447  0.00202876  0.89997385  1.0
  H  H29  1  0.45139445  0.74969523  0.85045288  1.0
  H  H30  1  0.30099434  0.28003908  0.90188863  1.0
  H  H31  1  0.79118445  0.00827614  0.90924671  1.0
  C  C32  1  0.06308459  0.31700854  0.56162166  1.0
  C  C33  1  0.06948332  0.56939583  0.56852653  1.0
  C  C34  1  0.18428524  0.43950731  0.43778858  1.0
  C  C35  1  0.93578965  0.68286972  0.43929575  1.0
  C  C36  1  0.93125827  0.42867135  0.43209533  1.0
  C  C37  1  0.81641796  0.56032946  0.56300108  1.0
  C  C38  1  0.56659675  0.31159326  0.31122736  1.0
  C  C39  1  0.67985613  0.18171264  0.18131235  1.0
  C  C40  1  0.68979511  0.43497705  0.18724938  1.0
  C  C41  1  0.93344420  0.18808274  0.19030571  1.0
  C  C42  1  0.81737397  0.31911194  0.31955139  1.0
  C  C43  1  0.81079175  0.06427937  0.31201614  1.0
  C  C44  1  0.43305355  0.69049228  0.68803478  1.0
  C  C45  1  0.31920947  0.81991152  0.81846443  1.0
  C  C46  1  0.18735691  0.93443834  0.68762212  1.0
  C  C47  1  0.06777611  0.80834895  0.81078027  1.0
  C  C48  1  0.18336716  0.67966660  0.68064236  1.0
  C  C49  1  0.31513967  0.56511057  0.81213104  1.0
  C  C50  1  0.43861097  0.18284662  0.93854836  1.0
  C  C51  1  0.43009281  0.93301635  0.93071137  1.0
  C  C52  1  0.68681318  0.93868911  0.93845314  1.0
  C  C53  1  0.56006867  0.81754386  0.06097324  1.0
  C  C54  1  0.56855307  0.06998024  0.06851565  1.0
  C  C55  1  0.31350634  0.06189583  0.06155589  1.0
  C  C56  1  0.90188803  0.40270254  0.40209208  1.0
  C  C57  1  0.84896497  0.34727343  0.34735358  1.0
  C  C58  1  0.83093943  0.44595179  0.38719632  1.0
  C  C59  1  0.92064832  0.30477955  0.36149496  1.0
  C  C60  1  0.80425086  0.41859099  0.36086622  1.0
  C  C61  1  0.94635401  0.33114538  0.38880609  1.0
  C  C62  1  0.09772310  0.60011861  0.59668879  1.0
  C  C63  1  0.15161816  0.65248798  0.65243767  1.0
  C  C64  1  0.14004034  0.64350673  0.58268936  1.0
  C  C65  1  0.10792050  0.61049491  0.66642141  1.0
  C  C66  1  0.16765810  0.66822498  0.60986868  1.0
  C  C67  1  0.08250969  0.58358320  0.63925442  1.0
  C  C68  1  0.30577906  0.45492935  0.40096430  1.0
  C  C69  1  0.44689228  0.29732981  0.34843037  1.0
  C  C70  1  0.25931834  0.41613578  0.41336649  1.0
  C  C71  1  0.49208359  0.33700051  0.33638549  1.0
  C  C72  1  0.37894234  0.34013518  0.37215055  1.0
  C  C73  1  0.37405225  0.41154989  0.37751058  1.0
  C  C74  1  0.72527586  0.57583513  0.63107001  1.0
  C  C75  1  0.52365270  0.67478242  0.62113767  1.0
  C  C76  1  0.74245547  0.58509013  0.58848480  1.0
  C  C77  1  0.50817004  0.66510776  0.66358426  1.0
  C  C78  1  0.60304299  0.64259917  0.60914444  1.0
  C  C79  1  0.64585559  0.60883810  0.64291498  1.0
  C  C80  1  0.07600200  0.22610946  0.62979957  1.0
  C  C81  1  0.17323949  0.02477478  0.62067162  1.0
  C  C82  1  0.08604809  0.24310248  0.58719034  1.0
  C  C83  1  0.16237448  0.00952954  0.66311154  1.0
  C  C84  1  0.14119646  0.10392194  0.60838340  1.0
  C  C85  1  0.10715034  0.14682155  0.64192279  1.0
  C  C86  1  0.84138200  0.79940999  0.39706019  1.0
  C  C87  1  0.90312735  0.94866810  0.35361771  1.0
  C  C88  1  0.90939019  0.75741478  0.41441639  1.0
  C  C89  1  0.83485172  0.98951069  0.33687899  1.0
  C  C90  1  0.90553918  0.87931463  0.37583256  1.0
  C  C91  1  0.83903398  0.86900905  0.37519432  1.0
  C  C92  1  0.65380633  0.15159454  0.15171153  1.0
  C  C93  1  0.59864604  0.09601051  0.09814551  1.0
  C  C94  1  0.66878170  0.16486318  0.10877911  1.0
  C  C95  1  0.58540416  0.08103755  0.14108475  1.0
  C  C96  1  0.64076348  0.13891521  0.08240580  1.0
  C  C97  1  0.61112988  0.10925027  0.16744749  1.0
  C  C98  1  0.67239114  0.52561892  0.11886614  1.0
  C  C99  1  0.57737850  0.72719414  0.12796415  1.0
  C  C100  1  0.66498420  0.50880743  0.16157978  1.0
  C  C101  1  0.58528048  0.74238197  0.08542643  1.0
  C  C102  1  0.60897917  0.64803562  0.14025397  1.0
  C  C103  1  0.64041339  0.60494923  0.10669465  1.0
  C  C104  1  0.08117010  0.12446919  0.17909442  1.0
  C  C105  1  0.16782515  0.12468986  0.07330418  1.0
  C  C106  1  0.00876464  0.16239096  0.16616062  1.0
  C  C107  1  0.23919974  0.08657308  0.08691618  1.0
  C  C108  1  0.10990078  0.13830855  0.10689389  1.0
  C  C109  1  0.13884409  0.11052035  0.14531866  1.0
  C  C110  1  0.34541102  0.84919459  0.84838086  1.0
  C  C111  1  0.40168533  0.90160023  0.90296600  1.0
  C  C112  1  0.30228269  0.91985765  0.86319851  1.0
  C  C113  1  0.44396024  0.83006092  0.88903167  1.0
  C  C114  1  0.33011668  0.94636617  0.88937784  1.0
  C  C115  1  0.41727055  0.80467682  0.86173385  1.0
  C  C116  1  0.40970105  0.44732418  0.85379487  1.0
  C  C117  1  0.34586417  0.29980532  0.89767446  1.0
  C  C118  1  0.34121230  0.49060538  0.83712203  1.0
  C  C119  1  0.41446720  0.25785993  0.91393402  1.0
  C  C120  1  0.34382294  0.36925174  0.87580511  1.0
  C  C121  1  0.41122864  0.37820703  0.87594148  1.0
  C  C122  1  0.94636165  0.79354236  0.84846864  1.0
  C  C123  1  0.80732506  0.95175625  0.90123853  1.0
  C  C124  1  0.99341882  0.83166764  0.83583061  1.0
  C  C125  1  0.76159711  0.91268394  0.91359523  1.0
  C  C126  1  0.87509176  0.90818145  0.87764651  1.0
  C  C127  1  0.87896106  0.83705583  0.87243391  1.0
  S  S128  1  0.29963898  0.32654945  0.39640542  1.0
  S  S129  1  0.45285458  0.42600504  0.35366708  1.0
  S  S130  1  0.66112011  0.63412573  0.56303767  1.0
  S  S131  1  0.58903354  0.61719734  0.68924661  1.0
  S  S132  1  0.13355700  0.16169924  0.56210872  1.0
  S  S133  1  0.11372842  0.09030216  0.68839704  1.0
  S  S134  1  0.97019192  0.80345438  0.40388521  1.0
  S  S135  1  0.77341157  0.94448867  0.34775262  1.0
  S  S136  1  0.61853100  0.59037824  0.18662441  1.0
  S  S137  1  0.63075886  0.66139247  0.06010858  1.0
  S  S138  1  0.01164412  0.18072345  0.11264087  1.0
  S  S139  1  0.23678061  0.06719942  0.14026301  1.0
  S  S140  1  0.27881879  0.44639016  0.84864213  1.0
  S  S141  1  0.47674143  0.30194073  0.90301553  1.0
  S  S142  1  0.95494424  0.92067035  0.85336875  1.0
  S  S143  1  0.79999347  0.82336128  0.89674023  1.0
  Br  Br144  1  0.28621359  0.55153363  0.41308338  1.0
  Br  Br145  1  0.79441585  0.52686278  0.67043158  1.0
  Br  Br146  1  0.02749520  0.29525056  0.66888657  1.0
  Br  Br147  1  0.76019406  0.77185829  0.40045931  1.0
  Br  Br148  1  0.71658320  0.45600431  0.07993878  1.0
  Br  Br149  1  0.10492741  0.09361848  0.23351622  1.0
  Br  Br150  1  0.49283696  0.47247497  0.84932806  1.0
  Br  Br151  1  0.96499177  0.69709518  0.83660941  1.0
  N  N152  1  0.78102005  0.52421412  0.39735209  1.0
  N  N153  1  0.97461051  0.23059488  0.34726270  1.0
  N  N154  1  0.15569857  0.66800411  0.53833431  1.0
  N  N155  1  0.08380763  0.59420884  0.71073937  1.0
  N  N156  1  0.71704529  0.20523812  0.08881439  1.0
  N  N157  1  0.54529008  0.03261694  0.16112782  1.0
  N  N158  1  0.22378250  0.96967538  0.85294021  1.0
  N  N159  1  0.51834860  0.77611541  0.90342018  1.0
  O  O160  1  0.00065544  0.49881159  0.49964934  1.0
  O  O161  1  0.07433620  0.31521758  0.52253113  1.0
  O  O162  1  0.02379981  0.53962093  0.58559830  1.0
  O  O163  1  0.15261093  0.50713763  0.44732605  1.0
  O  O164  1  0.03456253  0.37614942  0.58023161  1.0
  O  O165  1  0.15701318  0.38929610  0.44722410  1.0
  O  O166  1  0.09422043  0.57516055  0.53059253  1.0
  O  O167  1  0.00021104  0.66013107  0.45304566  1.0
  O  O168  1  0.88388430  0.48747077  0.44854194  1.0
  O  O169  1  0.89352564  0.64708729  0.44508016  1.0
  O  O170  1  0.00044068  0.38876101  0.43852958  1.0
  O  O171  1  0.87595411  0.52148144  0.58124253  1.0
  O  O172  1  0.81422766  0.58029593  0.52413851  1.0
  O  O173  1  0.74879905  0.25071533  0.25016287  1.0
  O  O174  1  0.59947306  0.35691930  0.30464340  1.0
  O  O175  1  0.66925862  0.15831179  0.21926766  1.0
  O  O176  1  0.72850370  0.37563222  0.16916864  1.0
  O  O177  1  0.59158062  0.24689640  0.29819671  1.0
  O  O178  1  0.67029135  0.43683312  0.22620682  1.0
  O  O179  1  0.70915197  0.22819328  0.16576916  1.0
  O  O180  1  0.87607578  0.21817168  0.16947780  1.0
  O  O181  1  0.85343303  0.24938812  0.31424183  1.0
  O  O182  1  0.93104012  0.17878644  0.22942174  1.0
  O  O183  1  0.75694868  0.36749691  0.30444855  1.0
  O  O184  1  0.74349366  0.09326655  0.30110328  1.0
  O  O185  1  0.85887628  0.09380458  0.30345619  1.0
  O  O186  1  0.25039971  0.75012950  0.74972657  1.0
  O  O187  1  0.37470268  0.72144043  0.66827715  1.0
  O  O188  1  0.36053670  0.75142192  0.81154913  1.0
  O  O189  1  0.16804112  0.93394008  0.72652044  1.0
  O  O190  1  0.43327762  0.67905025  0.72720705  1.0
  O  O191  1  0.22591023  0.87664440  0.66807516  1.0
  O  O192  1  0.25912125  0.86614385  0.80253624  1.0
  O  O193  1  0.09931642  0.85485394  0.80563374  1.0
  O  O194  1  0.17916511  0.65323382  0.71840322  1.0
  O  O195  1  0.09461665  0.74498899  0.79625147  1.0
  O  O196  1  0.21245562  0.72600482  0.66376918  1.0
  O  O197  1  0.36153555  0.59640881  0.80192406  1.0
  O  O198  1  0.24691509  0.59220881  0.80266127  1.0
  O  O199  1  0.49984407  0.00069074  0.99985101  1.0
  O  O200  1  0.50393098  0.15661678  0.95159376  1.0
  O  O201  1  0.38178176  0.99382346  0.94522772  1.0
  O  O202  1  0.65636512  0.89123097  0.94755886  1.0
  O  O203  1  0.39280581  0.15073870  0.94466933  1.0
  O  O204  1  0.65857797  0.00587440  0.94880194  1.0
  O  O205  1  0.49977072  0.89668280  0.93658739  1.0
  O  O206  1  0.57230927  0.81791647  0.02176422  1.0
  O  O207  1  0.52102260  0.04182112  0.08388763  1.0
  O  O208  1  0.52846400  0.87550824  0.08078855  1.0
  O  O209  1  0.59300665  0.07954729  0.03065941  1.0
  O  O210  1  0.31336260  0.08019449  0.02260574  1.0
  O  O211  1  0.37215916  0.02394702  0.08090610  1.0
  O  O212  1  0.79999378  0.57505123  0.37920325  1.0
  O  O213  1  0.72262258  0.53242790  0.42125912  1.0
  O  O214  1  0.00845577  0.23284873  0.31223998  1.0
  O  O215  1  0.98426553  0.17337823  0.37241608  1.0
  O  O216  1  0.10219540  0.72093509  0.52206441  1.0
  O  O217  1  0.22177111  0.63622870  0.52209756  1.0
  O  O218  1  0.03194752  0.64764522  0.72736506  1.0
  O  O219  1  0.11472528  0.52772956  0.72658969  1.0
  O  O220  1  0.78657984  0.16824624  0.08865641  1.0
  O  O221  1  0.68395733  0.27072882  0.07217936  1.0
  O  O222  1  0.58174968  0.96336206  0.16049531  1.0
  O  O223  1  0.48047685  0.06533986  0.17862542  1.0
  O  O224  1  0.17284737  0.95099527  0.87134102  1.0
  O  O225  1  0.21561229  0.02754784  0.82857272  1.0
  O  O226  1  0.51620612  0.74314190  0.93871697  1.0
  O  O227  1  0.57547269  0.76592673  0.87816341  1.0
