# generated using pymatgen
data_Zn2H24C41(NO)8
_symmetry_space_group_name_H-M   'P 1'
_cell_length_a   19.57337818
_cell_length_b   19.63033652
_cell_length_c   20.03062693
_cell_angle_alpha   67.96893450
_cell_angle_beta   75.95729834
_cell_angle_gamma   112.27751088
_symmetry_Int_Tables_number   1
_chemical_formula_structural   Zn2H24C41(NO)8
_chemical_formula_sum   'Zn4 H48 C82 N16 O16'
_cell_volume   5900.16949821
_cell_formula_units_Z   2
loop_
 _symmetry_equiv_pos_site_id
 _symmetry_equiv_pos_as_xyz
  1  'x, y, z'
loop_
 _atom_site_type_symbol
 _atom_site_label
 _atom_site_symmetry_multiplicity
 _atom_site_fract_x
 _atom_site_fract_y
 _atom_site_fract_z
 _atom_site_occupancy
  Zn  Zn0  1  0.10330973  0.61096897  0.00522461  1.0
  Zn  Zn1  1  0.87772773  0.37830611  0.00228695  1.0
  Zn  Zn2  1  0.98861071  0.59379591  0.90406715  1.0
  Zn  Zn3  1  0.99650971  0.39957585  0.09640113  1.0
  H  H4  1  0.75250765  0.45228879  0.60077334  1.0
  H  H5  1  0.01803921  0.54515718  0.39562242  1.0
  H  H6  1  0.56683613  0.98086622  0.54776156  1.0
  H  H7  1  0.43357680  0.76735871  0.47875472  1.0
  H  H8  1  0.40460822  0.91690258  0.56021460  1.0
  H  H9  1  0.59576688  0.83131113  0.46627789  1.0
  H  H10  1  0.53416158  0.80976608  0.62146029  1.0
  H  H11  1  0.46649364  0.93849384  0.40492374  1.0
  H  H12  1  0.43193794  0.42406562  0.08103240  1.0
  H  H13  1  0.52664823  0.54497086  0.23893811  1.0
  H  H14  1  0.58762600  0.57084175  0.01991935  1.0
  H  H15  1  0.37175686  0.39806901  0.30000057  1.0
  H  H16  1  0.00573661  0.05157048  0.84552784  1.0
  H  H17  1  0.27269503  0.22727797  0.83092144  1.0
  H  H18  1  0.02786259  0.07835598  0.97090156  1.0
  H  H19  1  0.24939751  0.20084164  0.70646209  1.0
  H  H20  1  0.71070857  0.18187358  0.15766571  1.0
  H  H21  1  0.26416219  0.63934427  0.87928852  1.0
  H  H22  1  0.86585143  0.62626236  0.01310721  1.0
  H  H23  1  0.12164577  0.35438013  0.16655801  1.0
  H  H24  1  0.85677555  0.35711421  0.25395398  1.0
  H  H25  1  0.98052567  0.64183200  0.73049732  1.0
  H  H26  1  0.71961552  0.34748165  0.13563883  1.0
  H  H27  1  0.26137838  0.63146383  0.05630844  1.0
  H  H28  1  0.00041154  0.63529564  0.13899965  1.0
  H  H29  1  0.83660325  0.36400899  0.85165410  1.0
  H  H30  1  0.87718759  0.21087741  0.26698338  1.0
  H  H31  1  0.11144487  0.60684962  0.75563301  1.0
  H  H32  1  0.02567122  0.79969351  0.81722851  1.0
  H  H33  1  0.15235713  0.40655908  0.97505398  1.0
  H  H34  1  0.21797086  0.75922492  0.03489220  1.0
  H  H35  1  0.82860791  0.22869337  0.93440852  1.0
  H  H36  1  0.03604592  0.76588473  0.45313279  1.0
  H  H37  1  0.73861918  0.23154036  0.54268852  1.0
  H  H38  1  0.35286197  0.26484092  0.20336842  1.0
  H  H39  1  0.32589196  0.25420729  0.30066303  1.0
  H  H40  1  0.36839283  0.19460761  0.27799018  1.0
  H  H41  1  0.63168753  0.71681844  0.01864742  1.0
  H  H42  1  0.60456117  0.70551889  0.11618454  1.0
  H  H43  1  0.58689650  0.77422525  0.04260953  1.0
  H  H44  1  0.15613828  0.35631475  0.63544209  1.0
  H  H45  1  0.23559883  0.98720923  0.95585693  1.0
  H  H46  1  0.85136039  0.67650978  0.47989169  1.0
  H  H47  1  0.74872528  0.58383369  0.53081824  1.0
  H  H48  1  0.78188511  0.67434104  0.43510055  1.0
  H  H49  1  0.02714030  0.41632619  0.46859993  1.0
  H  H50  1  0.92539306  0.32368642  0.51479741  1.0
  H  H51  1  0.99019749  0.32425087  0.56494291  1.0
  C  C52  1  0.13158883  0.79561871  0.92173261  1.0
  C  C53  1  0.00103392  0.33829989  0.92699404  1.0
  C  C54  1  0.76571987  0.16230984  0.24481185  1.0
  C  C55  1  0.21914000  0.63795026  0.78583475  1.0
  C  C56  1  0.76188037  0.48690228  0.09318237  1.0
  C  C57  1  0.21785846  0.49032708  0.12300359  1.0
  C  C58  1  0.91109289  0.49323384  0.22898396  1.0
  C  C59  1  0.90723788  0.50542149  0.75969367  1.0
  C  C60  1  0.81140908  0.47374314  0.55416864  1.0
  C  C61  1  0.95911143  0.52370047  0.44219153  1.0
  C  C62  1  0.85768157  0.55036673  0.46467032  1.0
  C  C63  1  0.91286405  0.44715908  0.53153443  1.0
  C  C64  1  0.88346078  0.48816604  0.30339026  1.0
  C  C65  1  0.90487027  0.50956974  0.68881673  1.0
  C  C66  1  0.82636382  0.41524009  0.52552154  1.0
  C  C67  1  0.94429012  0.58228710  0.47065316  1.0
  C  C68  1  0.87603044  0.49285917  0.43400200  1.0
  C  C69  1  0.89433202  0.50470667  0.56210501  1.0
  C  C70  1  0.87262006  0.48887753  0.36567514  1.0
  C  C71  1  0.90170437  0.50900001  0.62901032  1.0
  C  C72  1  0.44799735  0.89900200  0.53839542  1.0
  C  C73  1  0.55260064  0.84952483  0.48790916  1.0
  C  C74  1  0.76219929  0.20288411  0.17186834  1.0
  C  C75  1  0.21507975  0.62615139  0.86095675  1.0
  C  C76  1  0.53647724  0.93273182  0.53318613  1.0
  C  C77  1  0.46374111  0.81528023  0.49360624  1.0
  C  C78  1  0.70132320  0.08570066  0.31662737  1.0
  C  C79  1  0.29136437  0.68315529  0.71318381  1.0
  C  C80  1  0.48044423  0.90903176  0.45393106  1.0
  C  C81  1  0.51986770  0.83906176  0.57269142  1.0
  C  C82  1  0.57102757  0.94519098  0.44659065  1.0
  C  C83  1  0.42927390  0.80307732  0.58006463  1.0
  C  C84  1  0.64225126  0.01974706  0.37719512  1.0
  C  C85  1  0.35561622  0.73362982  0.65062108  1.0
  C  C86  1  0.53896828  0.53275282  0.08182753  1.0
  C  C87  1  0.41988583  0.43630264  0.23779467  1.0
  C  C88  1  0.45383284  0.45066031  0.11595449  1.0
  C  C89  1  0.50579451  0.51822300  0.20370550  1.0
  C  C90  1  0.28041816  0.48571038  0.14357511  1.0
  C  C91  1  0.68999688  0.48701524  0.12749416  1.0
  C  C92  1  0.49511680  0.56583332  0.12728732  1.0
  C  C93  1  0.46392083  0.40301804  0.19250230  1.0
  C  C94  1  0.40831481  0.48328675  0.16146209  1.0
  C  C95  1  0.55109904  0.48561856  0.15788570  1.0
  C  C96  1  0.84169403  0.55820176  0.03547101  1.0
  C  C97  1  0.14490602  0.42303821  0.13603940  1.0
  C  C98  1  0.33734128  0.48371830  0.15715735  1.0
  C  C99  1  0.62564266  0.48639137  0.14866804  1.0
  C  C100  1  0.07689019  0.10443418  0.91223109  1.0
  C  C101  1  0.20063497  0.17336225  0.76587158  1.0
  C  C102  1  0.06453265  0.09038753  0.84335100  1.0
  C  C103  1  0.21325801  0.18822491  0.83428583  1.0
  C  C104  1  0.12594931  0.93000169  0.84635788  1.0
  C  C105  1  0.11445462  0.30923781  0.88937470  1.0
  C  C106  1  0.15072861  0.09041502  0.89875890  1.0
  C  C107  1  0.12575300  0.18815464  0.78021764  1.0
  C  C108  1  0.13823173  0.07387619  0.82840432  1.0
  C  C109  1  0.13951411  0.20474467  0.84952955  1.0
  C  C110  1  0.13500554  0.00054271  0.82878499  1.0
  C  C111  1  0.13293682  0.26656896  0.86614638  1.0
  C  C112  1  0.89843287  0.42622573  0.21340249  1.0
  C  C113  1  0.94569618  0.57268770  0.77267438  1.0
  C  C114  1  0.76696621  0.41552139  0.09805815  1.0
  C  C115  1  0.21596253  0.56470531  0.07995796  1.0
  C  C116  1  0.97196848  0.56869871  0.15424770  1.0
  C  C117  1  0.87204253  0.43046237  0.83517907  1.0
  C  C118  1  0.84713318  0.21742193  0.22792671  1.0
  C  C119  1  0.13705204  0.60961528  0.79759277  1.0
  C  C120  1  0.05750589  0.78859763  0.85382364  1.0
  C  C121  1  0.09912477  0.38840758  0.96297200  1.0
  C  C122  1  0.10857822  0.84596990  0.87066732  1.0
  C  C123  1  0.07791208  0.34641540  0.92117272  1.0
  C  C124  1  0.18249277  0.81474776  0.96204131  1.0
  C  C125  1  0.94280038  0.28635222  0.90731802  1.0
  C  C126  1  0.01028295  0.67153070  0.43815798  1.0
  C  C127  1  0.76204540  0.32506207  0.55885778  1.0
  C  C128  1  0.37019256  0.25571345  0.25314178  1.0
  C  C129  1  0.58677404  0.71399950  0.06677029  1.0
  C  C130  1  0.11264129  0.24062382  0.71467348  1.0
  C  C131  1  0.16027620  0.02639684  0.95810957  1.0
  C  C132  1  0.80150195  0.63566204  0.47155500  1.0
  C  C133  1  0.97253204  0.36363036  0.52628779  1.0
  N  N134  1  0.09578224  0.71558051  0.93296594  1.0
  N  N135  1  0.98096965  0.37439183  0.96805832  1.0
  N  N136  1  0.83494482  0.27555952  0.11692430  1.0
  N  N137  1  0.13744624  0.59581628  0.91157999  1.0
  N  N138  1  0.88889705  0.53061662  0.00770868  1.0
  N  N139  1  0.10359740  0.45522964  0.10350030  1.0
  N  N140  1  0.94944691  0.45991400  0.13603632  1.0
  N  N141  1  0.93398018  0.53977729  0.84948084  1.0
  N  N142  1  0.84299760  0.44316762  0.04594509  1.0
  N  N143  1  0.14771316  0.54315031  0.06877569  1.0
  N  N144  1  0.99429113  0.54731112  0.09991339  1.0
  N  N145  1  0.88853639  0.45126887  0.88844145  1.0
  N  N146  1  0.88796966  0.28477887  0.15151670  1.0
  N  N147  1  0.08938517  0.58562372  0.87292218  1.0
  N  N148  1  0.05092763  0.71153727  0.89160938  1.0
  N  N149  1  0.03963563  0.40373147  0.99082436  1.0
  O  O150  1  0.21945472  0.88193327  0.96014213  1.0
  O  O151  1  0.18561966  0.74317167  0.00718378  1.0
  O  O152  1  0.95757896  0.25881444  0.86380643  1.0
  O  O153  1  0.86313832  0.26562635  0.94928809  1.0
  O  O154  1  0.07726772  0.71123102  0.37958747  1.0
  O  O155  1  0.98858634  0.70711662  0.48035561  1.0
  O  O156  1  0.69619486  0.28341224  0.61926431  1.0
  O  O157  1  0.78479930  0.29101556  0.51546597  1.0
  O  O158  1  0.45311785  0.32200999  0.22507117  1.0
  O  O159  1  0.50446446  0.64622100  0.09524266  1.0
  O  O160  1  0.05911880  0.21194508  0.69484662  1.0
  O  O161  1  0.16953413  0.32632648  0.67689263  1.0
  O  O162  1  0.10350773  0.96304664  0.02236914  1.0
  O  O163  1  0.23811406  0.04211161  0.92755701  1.0
  O  O164  1  0.82993282  0.60037059  0.42764173  1.0
  O  O165  1  0.94038806  0.39752242  0.56964672  1.0
