# generated using pymatgen
data_Zn4H8C40N4Cl16O13
_symmetry_space_group_name_H-M   'P 1'
_cell_length_a   23.72404268
_cell_length_b   23.72412837
_cell_length_c   23.72241377
_cell_angle_alpha   67.15516012
_cell_angle_beta   72.18516794
_cell_angle_gamma   107.81028852
_symmetry_Int_Tables_number   1
_chemical_formula_structural   Zn4H8C40N4Cl16O13
_chemical_formula_sum   'Zn8 H16 C80 N8 Cl32 O26'
_cell_volume   10250.94715523
_cell_formula_units_Z   2
loop_
 _symmetry_equiv_pos_site_id
 _symmetry_equiv_pos_as_xyz
  1  'x, y, z'
loop_
 _atom_site_type_symbol
 _atom_site_label
 _atom_site_symmetry_multiplicity
 _atom_site_fract_x
 _atom_site_fract_y
 _atom_site_fract_z
 _atom_site_occupancy
  Zn  Zn0  1  0.05376510  0.10019664  0.45841045  1.0
  Zn  Zn1  1  0.05377235  0.95359748  0.48780757  1.0
  Zn  Zn2  1  0.94623671  0.95842779  0.60019795  1.0
  Zn  Zn3  1  0.94622111  0.98779302  0.45360022  1.0
  Zn  Zn4  1  0.94138574  0.39982540  0.04640326  1.0
  Zn  Zn5  1  0.05861539  0.54643069  0.89979632  1.0
  Zn  Zn6  1  0.94139385  0.54157807  0.01219831  1.0
  Zn  Zn7  1  0.05860751  0.51218765  0.04157391  1.0
  H  H8  1  0.91514910  0.07362881  0.33472380  1.0
  H  H9  1  0.90859856  0.10543959  0.25982676  1.0
  H  H10  1  0.09158782  0.42632823  0.15851587  1.0
  H  H11  1  0.13468710  0.39452548  0.19684320  1.0
  H  H12  1  0.90834165  0.24987627  0.16528696  1.0
  H  H13  1  0.86525761  0.16842957  0.24018524  1.0
  H  H14  1  0.08484424  0.25009022  0.34149447  1.0
  H  H15  1  0.09136682  0.33151679  0.30316861  1.0
  H  H16  1  0.91514005  0.84147873  0.75014386  1.0
  H  H17  1  0.90860900  0.80313052  0.83157995  1.0
  H  H18  1  0.09161352  0.66525494  0.74986161  1.0
  H  H19  1  0.13471343  0.74015950  0.66842174  1.0
  H  H20  1  0.90837891  0.65847276  0.92637305  1.0
  H  H21  1  0.86528376  0.69681399  0.89457424  1.0
  H  H22  1  0.08485190  0.83474492  0.57361953  1.0
  H  H23  1  0.09139306  0.75984789  0.60541655  1.0
  C  C24  1  0.17534337  0.08769606  0.41233298  1.0
  C  C25  1  0.00000138  0.86069789  0.63931053  1.0
  C  C26  1  0.99999505  0.09091155  0.59087897  1.0
  C  C27  1  0.82465531  0.91233176  0.58771692  1.0
  C  C28  1  0.00000543  0.13928617  0.36067834  1.0
  C  C29  1  0.00000169  0.90909097  0.40912242  1.0
  C  C30  1  0.00003227  0.41237143  0.91227895  1.0
  C  C31  1  0.99999856  0.63928827  0.86068710  1.0
  C  C32  1  0.81820605  0.40911438  0.09088882  1.0
  C  C33  1  0.00001501  0.58767848  0.08766548  1.0
  C  C34  1  0.99997741  0.36068971  0.13930983  1.0
  C  C35  1  0.18178768  0.59092713  0.90906660  1.0
  C  C36  1  0.99998455  0.19532968  0.30464515  1.0
  C  C37  1  0.99997766  0.30463534  0.19535803  1.0
  C  C38  1  0.95634948  0.17905775  0.27661407  1.0
  C  C39  1  0.04429056  0.32090608  0.22271396  1.0
  C  C40  1  0.95566368  0.23296816  0.22339344  1.0
  C  C41  1  0.04361887  0.26699673  0.27729219  1.0
  C  C42  1  0.99999741  0.80464311  0.69535369  1.0
  C  C43  1  0.99999273  0.69533637  0.80464432  1.0
  C  C44  1  0.95636085  0.77727660  0.76702915  1.0
  C  C45  1  0.04430497  0.72337218  0.73296577  1.0
  C  C46  1  0.95568081  0.72268467  0.82093482  1.0
  C  C47  1  0.04362872  0.77660894  0.67906026  1.0
  C  C48  1  0.00003315  0.37429964  0.87421991  1.0
  C  C49  1  0.98672330  0.30447737  0.90829200  1.0
  C  C50  1  0.98615956  0.26870634  0.87308839  1.0
  C  C51  1  0.99999788  0.30274773  0.80271401  1.0
  C  C52  1  0.01384952  0.37311819  0.76865773  1.0
  C  C53  1  0.01332916  0.40834945  0.80439965  1.0
  C  C54  1  0.99997890  0.26705286  0.76704718  1.0
  C  C55  1  0.99998898  0.23621901  0.73622786  1.0
  C  C56  1  0.99999375  0.20054090  0.70054935  1.0
  C  C57  1  0.94044450  0.14044325  0.72433327  1.0
  C  C58  1  0.94043568  0.10535496  0.68843282  1.0
  C  C59  1  0.99998931  0.12898920  0.62897049  1.0
  C  C60  1  0.05954557  0.18845109  0.60533803  1.0
  C  C61  1  0.05953984  0.22433480  0.64043126  1.0
  C  C62  1  0.00001540  0.62575396  0.12572774  1.0
  C  C63  1  0.01332234  0.60500524  0.18224624  1.0
  C  C64  1  0.01385747  0.64076522  0.21745908  1.0
  C  C65  1  0.00000275  0.69728396  0.19726002  1.0
  C  C66  1  0.98615721  0.71747628  0.14072654  1.0
  C  C67  1  0.98670275  0.68226387  0.10496578  1.0
  C  C68  1  0.99999756  0.73295751  0.23294198  1.0
  C  C69  1  0.99999424  0.76377838  0.26377823  1.0
  C  C70  1  0.99999756  0.79945391  0.29945825  1.0
  C  C71  1  0.05954535  0.83522072  0.30000570  1.0
  C  C72  1  0.05955365  0.87111650  0.33509458  1.0
  C  C73  1  0.99999570  0.87100352  0.37104237  1.0
  C  C74  1  0.94043801  0.83507356  0.37115218  1.0
  C  C75  1  0.94044797  0.79999421  0.33524504  1.0
  C  C76  1  0.74203504  0.37102676  0.12897909  1.0
  C  C77  1  0.70621191  0.31157449  0.12887332  1.0
  C  C78  1  0.63522549  0.27567716  0.16478463  1.0
  C  C79  1  0.59890559  0.29945933  0.20055273  1.0
  C  C80  1  0.63522672  0.35954831  0.20001473  1.0
  C  C81  1  0.70621156  0.39464603  0.16492223  1.0
  C  C82  1  0.52754580  0.26377803  0.23624425  1.0
  C  C83  1  0.46589233  0.23293260  0.26710194  1.0
  C  C84  1  0.39453471  0.19725020  0.30277721  1.0
  C  C85  1  0.35819278  0.12687861  0.35930334  1.0
  C  C86  1  0.28722077  0.09166768  0.39505807  1.0
  C  C87  1  0.25147449  0.12574191  0.37429313  1.0
  C  C88  1  0.28725391  0.19556845  0.31777608  1.0
  C  C89  1  0.35822530  0.23130716  0.28257224  1.0
  C  C90  1  0.25795943  0.62901639  0.87099063  1.0
  C  C91  1  0.29379556  0.62892144  0.81153265  1.0
  C  C92  1  0.36478349  0.66481263  0.77564900  1.0
  C  C93  1  0.40109269  0.70055887  0.79944711  1.0
  C  C94  1  0.36476026  0.70001031  0.85954849  1.0
  C  C95  1  0.29377438  0.66493503  0.89463292  1.0
  C  C96  1  0.47245731  0.73623921  0.76377431  1.0
  C  C97  1  0.53409974  0.76707536  0.73295818  1.0
  C  C98  1  0.60546557  0.80276296  0.69726657  1.0
  C  C99  1  0.64180561  0.85929872  0.62689084  1.0
  C  C100  1  0.71277937  0.89504632  0.59168659  1.0
  C  C101  1  0.74851954  0.87428072  0.62576908  1.0
  C  C102  1  0.71274334  0.81775337  0.69559316  1.0
  C  C103  1  0.64177346  0.78255075  0.73133092  1.0
  N  N104  1  0.91121787  0.11142661  0.29935411  1.0
  N  N105  1  0.08916986  0.38852572  0.20022674  1.0
  N  N106  1  0.91076961  0.21057575  0.20065731  1.0
  N  N107  1  0.08874740  0.28938230  0.29978642  1.0
  N  N108  1  0.91122454  0.79976036  0.78943573  1.0
  N  N109  1  0.08919421  0.70063799  0.71056216  1.0
  N  N110  1  0.91079825  0.70018379  0.88857109  1.0
  N  N111  1  0.08876359  0.79935819  0.61142316  1.0
  Cl  Cl112  1  0.97366220  0.26290464  0.99236873  1.0
  Cl  Cl113  1  0.02640714  0.49242290  0.76280785  1.0
  Cl  Cl114  1  0.03063165  0.41407253  0.68348704  1.0
  Cl  Cl115  1  0.96931216  0.18352741  0.91406914  1.0
  Cl  Cl116  1  0.86860475  0.11178475  0.79721993  1.0
  Cl  Cl117  1  0.13133967  0.29722026  0.61178247  1.0
  Cl  Cl118  1  0.13369354  0.21638856  0.53495692  1.0
  Cl  Cl119  1  0.86628613  0.03498497  0.71636591  1.0
  Cl  Cl120  1  0.02640391  0.53401026  0.21075710  1.0
  Cl  Cl121  1  0.97362594  0.71075614  0.03397303  1.0
  Cl  Cl122  1  0.96932880  0.78582361  0.11657307  1.0
  Cl  Cl123  1  0.03067902  0.61662445  0.28581631  1.0
  Cl  Cl124  1  0.13136945  0.83417495  0.25680523  1.0
  Cl  Cl125  1  0.86860029  0.75677939  0.33423551  1.0
  Cl  Cl126  1  0.86628167  0.83126682  0.41740446  1.0
  Cl  Cl127  1  0.13370995  0.91735415  0.33128301  1.0
  Cl  Cl128  1  0.74864284  0.28366590  0.08262952  1.0
  Cl  Cl129  1  0.74864804  0.46499383  0.16872454  1.0
  Cl  Cl130  1  0.59099802  0.38816591  0.24324748  1.0
  Cl  Cl131  1  0.59098917  0.20280294  0.16585124  1.0
  Cl  Cl132  1  0.40237720  0.08588719  0.38348295  1.0
  Cl  Cl133  1  0.40245189  0.31648905  0.21420813  1.0
  Cl  Cl134  1  0.24478290  0.23717978  0.28924925  1.0
  Cl  Cl135  1  0.24470579  0.00760116  0.46607461  1.0
  Cl  Cl136  1  0.25138017  0.58271436  0.78358526  1.0
  Cl  Cl137  1  0.25131713  0.66871533  0.96499871  1.0
  Cl  Cl138  1  0.40897233  0.74319710  0.88820245  1.0
  Cl  Cl139  1  0.40903586  0.66589004  0.70275992  1.0
  Cl  Cl140  1  0.59762429  0.88347630  0.58590601  1.0
  Cl  Cl141  1  0.59754613  0.71418588  0.81651009  1.0
  Cl  Cl142  1  0.75521711  0.78922433  0.73719262  1.0
  Cl  Cl143  1  0.75529710  0.96605572  0.50760611  1.0
  O  O144  1  0.00000141  0.00001215  0.50000323  1.0
  O  O145  1  0.14682790  0.11654833  0.43688741  1.0
  O  O146  1  0.04734356  0.89221181  0.57574050  1.0
  O  O147  1  0.97999175  0.02586837  0.62706242  1.0
  O  O148  1  0.14683709  0.03032150  0.41627788  1.0
  O  O149  1  0.01999687  0.12706874  0.52585117  1.0
  O  O150  1  0.95267230  0.87693192  0.65515296  1.0
  O  O151  1  0.85316185  0.93687834  0.61658574  1.0
  O  O152  1  0.95266655  0.07571872  0.39218730  1.0
  O  O153  1  0.85316321  0.91627082  0.53034260  1.0
  O  O154  1  0.04735248  0.15512113  0.37687907  1.0
  O  O155  1  0.02003271  0.89295791  0.45412456  1.0
  O  O156  1  0.97996012  0.95409849  0.39297617  1.0
  O  O157  1  0.00000389  0.50000465  0.99999115  1.0
  O  O158  1  0.94660107  0.38351557  0.96965579  1.0
  O  O159  1  0.03204042  0.60778145  0.84485126  1.0
  O  O160  1  0.84707637  0.47415297  0.04587996  1.0
  O  O161  1  0.05344428  0.46973847  0.88341736  1.0
  O  O162  1  0.84707000  0.37293626  0.10703307  1.0
  O  O163  1  0.96795326  0.62307647  0.92425465  1.0
  O  O164  1  0.94658397  0.56312019  0.08372433  1.0
  O  O165  1  0.03204811  0.42424946  0.12308149  1.0
  O  O166  1  0.05342803  0.58372107  0.06310373  1.0
  O  O167  1  0.96789966  0.34486291  0.10781785  1.0
  O  O168  1  0.15292493  0.60708171  0.87290242  1.0
  O  O169  1  0.15291938  0.54588866  0.97411749  1.0
