# generated using pymatgen
data_Al2H7C12O12F
_symmetry_space_group_name_H-M   'P 1'
_cell_length_a   6.70631469
_cell_length_b   8.83413793
_cell_length_c   11.12042943
_cell_angle_alpha   72.24746415
_cell_angle_beta   73.00558464
_cell_angle_gamma   75.28716888
_symmetry_Int_Tables_number   1
_chemical_formula_structural   Al2H7C12O12F
_chemical_formula_sum   'Al2 H7 C12 O12 F1'
_cell_volume   590.14245715
_cell_formula_units_Z   1
loop_
 _symmetry_equiv_pos_site_id
 _symmetry_equiv_pos_as_xyz
  1  'x, y, z'
loop_
 _atom_site_type_symbol
 _atom_site_label
 _atom_site_symmetry_multiplicity
 _atom_site_fract_x
 _atom_site_fract_y
 _atom_site_fract_z
 _atom_site_occupancy
  Al  Al0  1  0.50043930  0.50004874  0.49989185  1.0
  Al  Al1  1  0.99935336  0.49885087  0.50272038  1.0
  H  H2  1  0.79000245  0.61901242  0.34352758  1.0
  H  H3  1  0.23353829  0.34527313  0.64830876  1.0
  H  H4  1  0.88081682  0.46956374  0.89575379  1.0
  H  H5  1  0.23555443  0.53106572  0.87045729  1.0
  H  H6  1  0.75136020  0.47596697  0.12973587  1.0
  H  H7  1  0.20622107  0.13133797  0.50815629  1.0
  H  H8  1  0.79089998  0.86684939  0.49480596  1.0
  C  C9  1  0.16091539  0.78639117  0.49147389  1.0
  C  C10  1  0.35600607  0.51202896  0.27164011  1.0
  C  C11  1  0.83739200  0.21098742  0.51308325  1.0
  C  C12  1  0.63992142  0.49042238  0.73013245  1.0
  C  C13  1  0.42315604  0.50932295  0.13189576  1.0
  C  C14  1  0.56696978  0.49693895  0.86922228  1.0
  C  C15  1  0.28142914  0.52553149  0.05554508  1.0
  C  C16  1  0.71237181  0.48359886  0.94199161  1.0
  C  C17  1  0.34977760  0.51826327  0.92678132  1.0
  C  C18  1  0.64045237  0.48843809  0.07141928  1.0
  C  C19  1  0.10190753  0.95620556  0.49997793  1.0
  C  C20  1  0.89619585  0.04114654  0.50454257  1.0
  O  O21  1  0.35249567  0.71789345  0.48596698  1.0
  O  O22  1  0.16138298  0.51261696  0.32806180  1.0
  O  O23  1  0.98628269  0.27701963  0.51764896  1.0
  O  O24  1  0.49948963  0.48905920  0.67469873  1.0
  O  O25  1  0.64644219  0.28039887  0.51631907  1.0
  O  O26  1  0.83676758  0.48614998  0.67758357  1.0
  O  O27  1  0.01141317  0.71943548  0.48943503  1.0
  O  O28  1  0.50042712  0.51315278  0.32444189  1.0
  O  O29  1  0.75696170  0.57571928  0.43699066  1.0
  O  O30  1  0.24513363  0.42206198  0.56426297  1.0
  O  O31  1  0.26494872  0.01737307  0.50308085  1.0
  O  O32  1  0.73309045  0.98049618  0.50094074  1.0
  F  F33  1  0.06811364  0.55165604  0.10506242  1.0
