# generated using pymatgen
data_ZnH6C10NO5
_symmetry_space_group_name_H-M   'P 1'
_cell_length_a   9.65520763
_cell_length_b   11.05511257
_cell_length_c   11.14926930
_cell_angle_alpha   89.00723274
_cell_angle_beta   88.82567967
_cell_angle_gamma   87.33196683
_symmetry_Int_Tables_number   1
_chemical_formula_structural   ZnH6C10NO5
_chemical_formula_sum   'Zn2 H12 C20 N2 O10'
_cell_volume   1188.36697112
_cell_formula_units_Z   2
loop_
 _symmetry_equiv_pos_site_id
 _symmetry_equiv_pos_as_xyz
  1  'x, y, z'
loop_
 _atom_site_type_symbol
 _atom_site_label
 _atom_site_symmetry_multiplicity
 _atom_site_fract_x
 _atom_site_fract_y
 _atom_site_fract_z
 _atom_site_occupancy
  Zn  Zn0  1  0.34559625  0.50912282  0.49259947  1.0
  Zn  Zn1  1  0.63348629  0.49486884  0.48626804  1.0
  H  H2  1  0.70196451  0.50247083  0.87450793  1.0
  H  H3  1  0.14049575  0.34541225  0.39766607  1.0
  H  H4  1  0.68590696  0.21626555  0.33210753  1.0
  H  H5  1  0.71912891  0.81989726  0.29533208  1.0
  H  H6  1  0.70306271  0.47764320  0.09452426  1.0
  H  H7  1  0.38425972  0.49085175  0.89370907  1.0
  H  H8  1  0.38593218  0.52256355  0.08956862  1.0
  H  H9  1  0.29478999  0.89693968  0.58412454  1.0
  H  H10  1  0.30050512  0.12377977  0.58746229  1.0
  H  H11  1  0.83929731  0.66432919  0.57402176  1.0
  H  H12  1  0.87670590  0.33805370  0.39321924  1.0
  H  H13  1  0.10252574  0.67273972  0.57527500  1.0
  C  C14  1  0.49007612  0.26407804  0.48846804  1.0
  C  C15  1  0.60102970  0.93138445  0.43350172  1.0
  C  C16  1  0.48915529  0.87421867  0.48870920  1.0
  C  C17  1  0.49100775  0.12807400  0.48455613  1.0
  C  C18  1  0.38049282  0.94398027  0.54241745  1.0
  C  C19  1  0.38282901  0.06947364  0.54305309  1.0
  C  C20  1  0.90691932  0.59302174  0.53553017  1.0
  C  C21  1  0.92806170  0.41208102  0.43445117  1.0
  C  C22  1  0.05094264  0.59761988  0.53625952  1.0
  C  C23  1  0.07164497  0.41616170  0.43601678  1.0
  C  C24  1  0.69699569  0.11627124  0.34222764  1.0
  C  C25  1  0.48188440  0.73906505  0.48776420  1.0
  C  C26  1  0.72680910  0.85899868  0.38592522  1.0
  C  C27  1  0.49601857  0.49885156  0.25700864  1.0
  C  C28  1  0.49187624  0.50217236  0.72120033  1.0
  C  C29  1  0.60183058  0.49857691  0.92159754  1.0
  C  C30  1  0.60256817  0.49209699  0.05183308  1.0
  C  C31  1  0.48768538  0.49787357  0.85379029  1.0
  C  C32  1  0.48955584  0.50439785  0.12468972  1.0
  C  C33  1  0.59783601  0.05908073  0.42574287  1.0
  N  N34  1  0.13180698  0.50883239  0.48767170  1.0
  N  N35  1  0.84697424  0.49992053  0.48508842  1.0
  O  O36  1  0.37390140  0.32026141  0.47303042  1.0
  O  O37  1  0.83043962  0.84295355  0.44695551  1.0
  O  O38  1  0.36673541  0.69408375  0.51627769  1.0
  O  O39  1  0.60490334  0.31105154  0.50961225  1.0
  O  O40  1  0.59253673  0.67944593  0.45620472  1.0
  O  O41  1  0.38186036  0.52579697  0.31286203  1.0
  O  O42  1  0.37618351  0.48594344  0.67114821  1.0
  O  O43  1  0.61136808  0.46911553  0.30614744  1.0
  O  O44  1  0.60659620  0.52058361  0.66632114  1.0
  O  O45  1  0.78281755  0.05742616  0.28127843  1.0
