# generated using pymatgen
data_Al2H17C27O10F
_symmetry_space_group_name_H-M   'P 1'
_cell_length_a   6.72327023
_cell_length_b   13.30811113
_cell_length_c   18.20183655
_cell_angle_alpha   111.37490048
_cell_angle_beta   96.21327467
_cell_angle_gamma   91.43294410
_symmetry_Int_Tables_number   1
_chemical_formula_structural   Al2H17C27O10F
_chemical_formula_sum   'Al4 H34 C54 O20 F2'
_cell_volume   1504.00286478
_cell_formula_units_Z   2
loop_
 _symmetry_equiv_pos_site_id
 _symmetry_equiv_pos_as_xyz
  1  'x, y, z'
loop_
 _atom_site_type_symbol
 _atom_site_label
 _atom_site_symmetry_multiplicity
 _atom_site_fract_x
 _atom_site_fract_y
 _atom_site_fract_z
 _atom_site_occupancy
  Al  Al0  1  0.11225498  0.50130098  0.49205335  1.0
  Al  Al1  1  0.60857705  0.48970803  0.49362416  1.0
  Al  Al2  1  0.84331043  0.75503832  0.00358722  1.0
  Al  Al3  1  0.34305547  0.76314569  0.00474253  1.0
  H  H4  1  0.80834720  0.92497739  0.59581236  1.0
  H  H5  1  0.96216903  0.59303221  0.76416241  1.0
  H  H6  1  0.08457058  0.40792835  0.94028364  1.0
  H  H7  1  0.99854503  0.72845942  0.75617473  1.0
  H  H8  1  0.07640467  0.05970582  0.91899881  1.0
  H  H9  1  0.79040764  0.11244209  0.61321416  1.0
  H  H10  1  0.09172266  0.21883115  0.92968591  1.0
  H  H11  1  0.03797864  0.54324317  0.88167981  1.0
  H  H12  1  0.12590071  0.21063309  0.32016419  1.0
  H  H13  1  0.83368335  0.03136005  0.18926683  1.0
  H  H14  1  0.29657678  0.06407915  0.21779466  1.0
  H  H15  1  0.58658647  0.05336176  0.92985195  1.0
  H  H16  1  0.56914843  0.37596700  0.90656160  1.0
  H  H17  1  0.43163150  0.54793700  0.74982723  1.0
  H  H18  1  0.36020151  0.18199061  0.57866783  1.0
  H  H19  1  0.57881209  0.85536752  0.86834589  1.0
  H  H20  1  0.53881768  0.68810418  0.74833924  1.0
  H  H21  1  0.34441871  0.86862827  0.60383532  1.0
  H  H22  1  0.56959418  0.23074477  0.91843701  1.0
  H  H23  1  0.35265202  0.00633821  0.59333652  1.0
  H  H24  1  0.38456757  0.37633584  0.63423761  1.0
  H  H25  1  0.32559007  0.65088663  0.18617307  1.0
  H  H26  1  0.62732304  0.59810586  0.30915538  1.0
  H  H27  1  0.16433734  0.59238138  0.28490169  1.0
  H  H28  1  0.01966002  0.17086383  0.57912387  1.0
  H  H29  1  0.77851053  0.21083536  0.55446375  1.0
  H  H30  1  0.99820951  0.28178519  0.54869062  1.0
  H  H31  1  0.92284259  0.68337875  0.61842001  1.0
  H  H32  1  0.75512598  0.76942584  0.59417830  1.0
  H  H33  1  0.01148388  0.77953012  0.58179836  1.0
  H  H34  1  0.32941958  0.35304722  0.46146486  1.0
  H  H35  1  0.83637488  0.59213613  0.44850948  1.0
  H  H36  1  0.61809940  0.89981299  0.03148704  1.0
  H  H37  1  0.10432156  0.64565993  0.03183574  1.0
  C  C38  1  0.40948264  0.66666667  0.59724225  1.0
  C  C39  1  0.32655224  0.55122037  0.37958615  1.0
  C  C40  1  0.82083020  0.31561940  0.39092512  1.0
  C  C41  1  0.90868222  0.45474144  0.60884726  1.0
  C  C42  1  0.03391557  0.89126921  0.84458607  1.0
  C  C43  1  0.93415419  0.42672102  0.68126908  1.0
  C  C44  1  0.95056080  0.84556372  0.70279768  1.0
  C  C45  1  0.99499438  0.81419618  0.76643468  1.0
  C  C46  1  0.03929756  0.00131272  0.85842847  1.0
  C  C47  1  0.99463773  0.03749334  0.79415164  1.0
  C  C48  1  0.94179930  0.95698726  0.71666499  1.0
  C  C49  1  0.99849766  0.15019885  0.80188216  1.0
  C  C50  1  0.94515536  0.17694344  0.73345028  1.0
  C  C51  1  0.86588277  0.09283959  0.66110927  1.0
  C  C52  1  0.87032183  0.98719179  0.65216672  1.0
  C  C53  1  0.05014541  0.23684135  0.87648279  1.0
  C  C54  1  0.04781508  0.34244185  0.88242785  1.0
  C  C55  1  0.00365004  0.37105678  0.81439239  1.0
  C  C56  1  0.95985397  0.28734105  0.73750692  1.0
  C  C57  1  0.00519923  0.48064091  0.82287294  1.0
  C  C58  1  0.96512148  0.50841719  0.75729322  1.0
  C  C59  1  0.93667096  0.31720598  0.66913244  1.0
  C  C60  1  0.14655927  0.02868584  0.18956779  1.0
  C  C61  1  0.97913318  0.07196137  0.21972737  1.0
  C  C62  1  0.81780112  0.21307417  0.32062998  1.0
  C  C63  1  0.98250975  0.16797131  0.28944370  1.0
  C  C64  1  0.43483774  0.76920046  0.66885879  1.0
  C  C65  1  0.50710852  0.47183811  0.83534603  1.0
  C  C66  1  0.52997277  0.85906274  0.81042672  1.0
  C  C67  1  0.50486373  0.76531183  0.74372405  1.0
  C  C68  1  0.40026163  0.86815399  0.66213208  1.0
  C  C69  1  0.44260619  0.96661071  0.72836897  1.0
  C  C70  1  0.50322001  0.96086599  0.80424336  1.0
  C  C71  1  0.43415357  0.07183517  0.72172863  1.0
  C  C72  1  0.48310054  0.16835494  0.79013637  1.0
  C  C73  1  0.53322578  0.15805074  0.86526932  1.0
  C  C74  1  0.54264994  0.05899875  0.87201732  1.0
  C  C75  1  0.38817944  0.07969975  0.64594315  1.0
  C  C76  1  0.39175823  0.17748715  0.63743085  1.0
  C  C77  1  0.43345860  0.27584201  0.70431109  1.0
  C  C78  1  0.48149904  0.27327542  0.78211575  1.0
  C  C79  1  0.42131702  0.37575576  0.69391864  1.0
  C  C80  1  0.45069305  0.47168043  0.75817522  1.0
  C  C81  1  0.52454079  0.37434863  0.84676222  1.0
  C  C82  1  0.31515856  0.58593271  0.31107167  1.0
  C  C83  1  0.48014106  0.60717586  0.28127850  1.0
  C  C84  1  0.63248262  0.65830375  0.18168577  1.0
  C  C85  1  0.47074308  0.63960064  0.21414231  1.0
  C  C86  1  0.62578663  0.69208583  0.11201234  1.0
  C  C87  1  0.54060882  0.58200383  0.90071428  1.0
  C  C88  1  0.05923233  0.84177265  0.90682848  1.0
  C  C89  1  0.13455167  0.92950607  0.11737387  1.0
  C  C90  1  0.93221913  0.24055604  0.58363680  1.0
  C  C91  1  0.90809347  0.76529143  0.62014431  1.0
  O  O92  1  0.49920224  0.55048440  0.41646512  1.0
  O  O93  1  0.24287418  0.64092985  0.55176282  1.0
  O  O94  1  0.06516901  0.49114348  0.59019138  1.0
  O  O95  1  0.15804367  0.52479414  0.39678931  1.0
  O  O96  1  0.99422974  0.35470786  0.42760123  1.0
  O  O97  1  0.56051069  0.60977762  0.58492459  1.0
  O  O98  1  0.35296358  0.42975466  0.49277443  1.0
  O  O99  1  0.65300224  0.35425749  0.40726517  1.0
  O  O100  1  0.73551961  0.43615346  0.56867911  1.0
  O  O101  1  0.85523251  0.55111361  0.48285494  1.0
  O  O102  1  0.38748518  0.63745627  0.91518759  1.0
  O  O103  1  0.79346253  0.71437084  0.09343034  1.0
  O  O104  1  0.96023211  0.89250320  0.07987023  1.0
  O  O105  1  0.71819045  0.61596286  0.93548318  1.0
  O  O106  1  0.90009808  0.79778167  0.91814912  1.0
  O  O107  1  0.45116403  0.69464414  0.07797838  1.0
  O  O108  1  0.59963431  0.82165434  0.00693628  1.0
  O  O109  1  0.23455709  0.83959872  0.94045763  1.0
  O  O110  1  0.30040320  0.88864602  0.09782688  1.0
  O  O111  1  0.09296712  0.69645450  0.00487489  1.0
  F  F112  1  0.63114909  0.16723757  0.28642091  1.0
  F  F113  1  0.82044362  0.64750593  0.21270870  1.0
