# generated using pymatgen
data_MnH2(C2O)3
_symmetry_space_group_name_H-M   'P 1'
_cell_length_a   7.01422856
_cell_length_b   17.27787373
_cell_length_c   17.28253899
_cell_angle_alpha   118.21472947
_cell_angle_beta   97.75498753
_cell_angle_gamma   97.75794688
_symmetry_Int_Tables_number   1
_chemical_formula_structural   MnH2(C2O)3
_chemical_formula_sum   'Mn6 H12 C36 O18'
_cell_volume   1780.71895981
_cell_formula_units_Z   6
loop_
 _symmetry_equiv_pos_site_id
 _symmetry_equiv_pos_as_xyz
  1  'x, y, z'
loop_
 _atom_site_type_symbol
 _atom_site_label
 _atom_site_symmetry_multiplicity
 _atom_site_fract_x
 _atom_site_fract_y
 _atom_site_fract_z
 _atom_site_occupancy
  Mn  Mn0  1  0.41711656  0.68291101  0.27550411  1.0
  Mn  Mn1  1  0.73419366  0.59238179  0.31684272  1.0
  Mn  Mn2  1  0.14150206  0.72425344  0.40730085  1.0
  Mn  Mn3  1  0.58288069  0.31708861  0.72449895  1.0
  Mn  Mn4  1  0.26580961  0.40761944  0.68315924  1.0
  Mn  Mn5  1  0.85849266  0.27574577  0.59270044  1.0
  H  H6  1  0.97561552  0.96576657  0.56613315  1.0
  H  H7  1  0.00965048  0.60029271  0.03381995  1.0
  H  H8  1  0.40965895  0.43351211  0.39974177  1.0
  H  H9  1  0.02438793  0.03423611  0.43386487  1.0
  H  H10  1  0.99034385  0.39970401  0.96618020  1.0
  H  H11  1  0.59034220  0.56648557  0.60025664  1.0
  H  H12  1  0.86024942  0.10828163  0.61779353  1.0
  H  H13  1  0.75157683  0.50953985  0.89151480  1.0
  H  H14  1  0.24211070  0.38196583  0.49049150  1.0
  H  H15  1  0.13975482  0.89172107  0.38220316  1.0
  H  H16  1  0.24841091  0.49046168  0.10848746  1.0
  H  H17  1  0.75790130  0.61803086  0.50950660  1.0
  C  C18  1  0.78614410  0.80061952  0.44425816  1.0
  C  C19  1  0.98573839  0.64331479  0.19900489  1.0
  C  C20  1  0.34241171  0.55551705  0.35648299  1.0
  C  C21  1  0.21385801  0.19938123  0.55574197  1.0
  C  C22  1  0.01426215  0.35668794  0.80099588  1.0
  C  C23  1  0.65758730  0.44448137  0.64351617  1.0
  C  C24  1  0.69863596  0.87993983  0.47576944  1.0
  C  C25  1  0.81884335  0.59570755  0.11980439  1.0
  C  C26  1  0.22330801  0.52404527  0.40426654  1.0
  C  C27  1  0.30136478  0.12006234  0.52422942  1.0
  C  C28  1  0.18115312  0.40429442  0.88019764  1.0
  C  C29  1  0.77668944  0.47594848  0.59573132  1.0
  C  C30  1  0.49931761  0.87536373  0.44233214  1.0
  C  C31  1  0.62409428  0.56697621  0.12453103  1.0
  C  C32  1  0.05708367  0.55744323  0.43292183  1.0
  C  C33  1  0.50068449  0.12463870  0.55766631  1.0
  C  C34  1  0.37590315  0.43302882  0.87547271  1.0
  C  C35  1  0.94291300  0.44255084  0.56707703  1.0
  C  C36  1  0.82476680  0.96518555  0.54033543  1.0
  C  C37  1  0.85951168  0.57505711  0.03452039  1.0
  C  C38  1  0.28470435  0.45946216  0.42498277  1.0
  C  C39  1  0.17523744  0.03481648  0.45966194  1.0
  C  C40  1  0.14048247  0.42494254  0.96547933  1.0
  C  C41  1  0.71529970  0.54053344  0.57501492  1.0
  C  C42  1  0.76153134  0.04385787  0.56828172  1.0
  C  C43  1  0.71747958  0.52439777  0.95596484  1.0
  C  C44  1  0.19323412  0.43158660  0.47565172  1.0
  C  C45  1  0.23847503  0.95614375  0.43171457  1.0
  C  C46  1  0.28250718  0.47560700  0.04403797  1.0
  C  C47  1  0.80677574  0.56841049  0.52434745  1.0
  C  C48  1  0.56640133  0.04214152  0.53148585  1.0
  C  C49  1  0.52420617  0.48932029  0.95783603  1.0
  C  C50  1  0.03497800  0.46856175  0.51073384  1.0
  C  C51  1  0.43360582  0.95785945  0.46850979  1.0
  C  C52  1  0.47578525  0.51068516  0.04216679  1.0
  C  C53  1  0.96502799  0.53143401  0.48926468  1.0
  O  O54  1  0.96950976  0.81019907  0.47440472  1.0
  O  O55  1  0.15948898  0.66372605  0.18931236  1.0
  O  O56  1  0.49557634  0.52528257  0.33587196  1.0
  O  O57  1  0.03049467  0.18980365  0.52559806  1.0
  O  O58  1  0.84050964  0.33626954  0.81068599  1.0
  O  O59  1  0.50442712  0.47471843  0.66412776  1.0
  O  O60  1  0.67590039  0.72213719  0.38378068  1.0
  O  O61  1  0.95392788  0.66130099  0.27749902  1.0
  O  O62  1  0.29266207  0.61605741  0.33853185  1.0
  O  O63  1  0.32410171  0.27786254  0.61622046  1.0
  O  O64  1  0.04607500  0.33870508  0.72250307  1.0
  O  O65  1  0.70733072  0.38394164  0.66146861  1.0
  O  O66  1  0.36649959  0.79767882  0.38575717  1.0
  O  O67  1  0.56908857  0.58812716  0.20226290  1.0
  O  O68  1  0.98072318  0.61387455  0.41159272  1.0
  O  O69  1  0.63350154  0.20232348  0.61424519  1.0
  O  O70  1  0.43091391  0.41187337  0.79774106  1.0
  O  O71  1  0.01927738  0.38612018  0.58840747  1.0
