# generated using pymatgen
data_Cu3H6C15N19
_symmetry_space_group_name_H-M   'P 1'
_cell_length_a   28.22377664
_cell_length_b   28.54729229
_cell_length_c   28.56008107
_cell_angle_alpha   89.99813082
_cell_angle_beta   89.99861573
_cell_angle_gamma   89.99842240
_symmetry_Int_Tables_number   1
_chemical_formula_structural   Cu3H6C15N19
_chemical_formula_sum   'Cu12 H24 C60 N76'
_cell_volume   23011.21147169
_cell_formula_units_Z   4
loop_
 _symmetry_equiv_pos_site_id
 _symmetry_equiv_pos_as_xyz
  1  'x, y, z'
loop_
 _atom_site_type_symbol
 _atom_site_label
 _atom_site_symmetry_multiplicity
 _atom_site_fract_x
 _atom_site_fract_y
 _atom_site_fract_z
 _atom_site_occupancy
  Cu  Cu0  1  0.87451933  0.08091071  0.16922554  1.0
  Cu  Cu1  1  0.82828941  0.12673801  0.07881155  1.0
  Cu  Cu2  1  0.92002966  0.17236758  0.12505637  1.0
  Cu  Cu3  1  0.12684955  0.41756125  0.67092503  1.0
  Cu  Cu4  1  0.17163772  0.37320979  0.57918993  1.0
  Cu  Cu5  1  0.07992394  0.32735737  0.62545781  1.0
  Cu  Cu6  1  0.37305733  0.91785583  0.32953224  1.0
  Cu  Cu7  1  0.32799492  0.87320723  0.42102823  1.0
  Cu  Cu8  1  0.41968867  0.82740823  0.37483891  1.0
  Cu  Cu9  1  0.62688743  0.58269095  0.82927438  1.0
  Cu  Cu10  1  0.67163086  0.62706689  0.92102261  1.0
  Cu  Cu11  1  0.57996379  0.67288662  0.87478642  1.0
  H  H12  1  0.79864118  0.00120428  0.19108410  1.0
  H  H13  1  0.74801638  0.05098345  0.05654985  1.0
  H  H14  1  0.99946396  0.19449606  0.20206041  1.0
  H  H15  1  0.95024786  0.05831945  0.24874917  1.0
  H  H16  1  0.80646675  0.20256403  0.99937153  1.0
  H  H17  1  0.94242113  0.25201537  0.04998624  1.0
  H  H18  1  0.20311188  0.49706975  0.69284052  1.0
  H  H19  1  0.25101674  0.44984743  0.55643034  1.0
  H  H20  1  0.99951701  0.30576892  0.70155377  1.0
  H  H21  1  0.05145828  0.44008937  0.75069298  1.0
  H  H22  1  0.19316542  0.29780676  0.49941361  1.0
  H  H23  1  0.05730305  0.24808519  0.55004620  1.0
  H  H24  1  0.29709116  0.99752145  0.30769814  1.0
  H  H25  1  0.24862656  0.94989692  0.44377801  1.0
  H  H26  1  0.50003893  0.80578723  0.29885716  1.0
  H  H27  1  0.44873412  0.94045179  0.24999604  1.0
  H  H28  1  0.30640147  0.79772030  0.50078417  1.0
  H  H29  1  0.44234463  0.74808149  0.45028360  1.0
  H  H30  1  0.70307386  0.50318965  0.80740447  1.0
  H  H31  1  0.75104986  0.55051905  0.94376640  1.0
  H  H32  1  0.49947352  0.69442819  0.79876370  1.0
  H  H33  1  0.55144133  0.56012768  0.74957994  1.0
  H  H34  1  0.69326907  0.70265522  0.00071093  1.0
  H  H35  1  0.55717652  0.75197822  0.95030559  1.0
  C  C36  1  0.79230186  0.01960087  0.15845172  1.0
  C  C37  1  0.75810087  0.01085359  0.12377996  1.0
  C  C38  1  0.76669585  0.04478364  0.08916094  1.0
  C  C39  1  0.98124495  0.16146263  0.20731156  1.0
  C  C40  1  0.98994407  0.12636823  0.24072258  1.0
  C  C41  1  0.95632481  0.09139782  0.23103655  1.0
  C  C42  1  0.83938049  0.20855188  0.01804026  1.0
  C  C43  1  0.87455108  0.24233452  0.00961509  1.0
  C  C44  1  0.90941521  0.23363254  0.04362182  1.0
  C  C45  1  0.20882920  0.47919406  0.65980464  1.0
  C  C46  1  0.24216999  0.48874422  0.62453956  1.0
  C  C47  1  0.23307621  0.45529270  0.58958556  1.0
  C  C48  1  0.01851271  0.33826502  0.70753863  1.0
  C  C49  1  0.01027604  0.37307881  0.74134453  1.0
  C  C50  1  0.04477449  0.40742400  0.73247604  1.0
  C  C51  1  0.16026619  0.29170774  0.51807604  1.0
  C  C52  1  0.12510835  0.25790234  0.50962976  1.0
  C  C53  1  0.09026866  0.26653528  0.54367956  1.0
  C  C54  1  0.29117587  0.97955030  0.34064623  1.0
  C  C55  1  0.25775259  0.98902506  0.37584417  1.0
  C  C56  1  0.26672325  0.95546497  0.41073378  1.0
  C  C57  1  0.48122942  0.83838322  0.29291181  1.0
  C  C58  1  0.48965491  0.87327868  0.25923078  1.0
  C  C59  1  0.45524083  0.90770744  0.26814644  1.0
  C  C60  1  0.33931150  0.79166124  0.48212072  1.0
  C  C61  1  0.37449046  0.75788896  0.49061293  1.0
  C  C62  1  0.40937461  0.76655223  0.45662350  1.0
  C  C63  1  0.70883127  0.52104901  0.84044113  1.0
  C  C64  1  0.74222322  0.51155144  0.87567857  1.0
  C  C65  1  0.73310682  0.54500920  0.91062945  1.0
  C  C66  1  0.51844250  0.66192329  0.79278192  1.0
  C  C67  1  0.51019945  0.62708428  0.75900201  1.0
  C  C68  1  0.54477397  0.59279983  0.76780759  1.0
  C  C69  1  0.66033037  0.70866886  0.98208068  1.0
  C  C70  1  0.62510571  0.74238298  0.99058877  1.0
  C  C71  1  0.59020172  0.73362937  0.95663267  1.0
  C  C72  1  0.65864866  0.91102860  0.12443127  1.0
  C  C73  1  0.72201586  0.97497117  0.12393088  1.0
  C  C74  1  0.34098693  0.58919894  0.62463561  1.0
  C  C75  1  0.27795496  0.52490960  0.62446586  1.0
  C  C76  1  0.15874866  0.08929417  0.37572607  1.0
  C  C77  1  0.22195030  0.02518150  0.37592095  1.0
  C  C78  1  0.84107897  0.41113668  0.87567986  1.0
  C  C79  1  0.77804347  0.47540979  0.87577420  1.0
  C  C80  1  0.08924874  0.12502772  0.34063596  1.0
  C  C81  1  0.02576895  0.12602024  0.27682982  1.0
  C  C82  1  0.41044240  0.62517097  0.65957812  1.0
  C  C83  1  0.47416014  0.62648586  0.72312264  1.0
  C  C84  1  0.91047628  0.37511102  0.84072992  1.0
  C  C85  1  0.97422696  0.37367616  0.77723602  1.0
  C  C86  1  0.58929898  0.87511188  0.15969059  1.0
  C  C87  1  0.52572174  0.87385402  0.22336211  1.0
  C  C88  1  0.87520976  0.34115634  0.91034364  1.0
  C  C89  1  0.87477167  0.27807640  0.97380450  1.0
  C  C90  1  0.37516166  0.65911108  0.58994497  1.0
  C  C91  1  0.37469840  0.72216226  0.52644031  1.0
  C  C92  1  0.62435246  0.84109898  0.08996839  1.0
  C  C93  1  0.62485733  0.77805594  0.02647656  1.0
  C  C94  1  0.12438820  0.15916096  0.41029109  1.0
  C  C95  1  0.12485308  0.22222997  0.47374829  1.0
  N  N96  1  0.37546419  0.62448642  0.62476077  1.0
  N  N97  1  0.62410227  0.87577440  0.12471472  1.0
  N  N98  1  0.87553011  0.37583077  0.87557478  1.0
  N  N99  1  0.12411684  0.12444874  0.37553984  1.0
  N  N100  1  0.80309748  0.07198497  0.10253149  1.0
  N  N101  1  0.81946727  0.05586327  0.14517640  1.0
  N  N102  1  0.92936019  0.10495139  0.19474950  1.0
  N  N103  1  0.94529640  0.14810258  0.17952537  1.0
  N  N104  1  0.89573438  0.19750171  0.07056357  1.0
  N  N105  1  0.85260873  0.18144337  0.05419698  1.0
  N  N106  1  0.19717214  0.42761988  0.60330321  1.0
  N  N107  1  0.18164490  0.44292958  0.64655832  1.0
  N  N108  1  0.07178545  0.39379656  0.69624509  1.0
  N  N109  1  0.05501534  0.35123385  0.68025848  1.0
  N  N110  1  0.10393160  0.30264750  0.57064697  1.0
  N  N111  1  0.14703413  0.31876016  0.55427206  1.0
  N  N112  1  0.30259337  0.92774619  0.39700950  1.0
  N  N113  1  0.31823745  0.94317567  0.35384234  1.0
  N  N114  1  0.42811490  0.89405208  0.30427391  1.0
  N  N115  1  0.44470900  0.85137377  0.32014070  1.0
  N  N116  1  0.39568704  0.80261918  0.42960266  1.0
  N  N117  1  0.35254535  0.81870152  0.44590897  1.0
  N  N118  1  0.69717181  0.57264602  0.89692033  1.0
  N  N119  1  0.68163411  0.55730032  0.85368647  1.0
  N  N120  1  0.57185109  0.60650594  0.80395862  1.0
  N  N121  1  0.55503923  0.64904515  0.81997234  1.0
  N  N122  1  0.60389338  0.69753548  0.92965682  1.0
  N  N123  1  0.64707022  0.68154140  0.94594846  1.0
  N  N124  1  0.66966901  0.92978744  0.08258806  1.0
  N  N125  1  0.67742157  0.92293418  0.16609043  1.0
  N  N126  1  0.70987589  0.95601156  0.16594177  1.0
  N  N127  1  0.70248406  0.96257689  0.08223214  1.0
  N  N128  1  0.32282249  0.57686212  0.66645209  1.0
  N  N129  1  0.32933260  0.57084927  0.58277314  1.0
  N  N130  1  0.29667917  0.53790044  0.58258496  1.0
  N  N131  1  0.29057936  0.54358929  0.66645441  1.0
  N  N132  1  0.17027558  0.07086312  0.41757011  1.0
  N  N133  1  0.17718624  0.07720382  0.33395205  1.0
  N  N134  1  0.20952872  0.04404478  0.33394942  1.0
  N  N135  1  0.20303540  0.03799800  0.41777511  1.0
  N  N136  1  0.82947134  0.42956838  0.91751206  1.0
  N  N137  1  0.82293784  0.42344463  0.83384558  1.0
  N  N138  1  0.79068252  0.45670175  0.83379885  1.0
  N  N139  1  0.79680751  0.46250916  0.91766350  1.0
  N  N140  1  0.07035174  0.08344574  0.32852878  1.0
  N  N141  1  0.07780332  0.16708167  0.32259537  1.0
  N  N142  1  0.04493764  0.16770241  0.28987678  1.0
  N  N143  1  0.03788328  0.08386403  0.29549263  1.0
  N  N144  1  0.42129292  0.66720798  0.67801270  1.0
  N  N145  1  0.42998454  0.58376472  0.67122020  1.0
  N  N146  1  0.46261131  0.58432971  0.70411556  1.0
  N  N147  1  0.45428676  0.66800209  0.71059154  1.0
  N  N148  1  0.92129650  0.33305251  0.82235252  1.0
  N  N149  1  0.92999271  0.41650983  0.82900736  1.0
  N  N150  1  0.96264813  0.41587125  0.79613999  1.0
  N  N151  1  0.95431119  0.33218486  0.78979504  1.0
  N  N152  1  0.57834802  0.83305312  0.17803812  1.0
  N  N153  1  0.57010011  0.91658644  0.17162689  1.0
  N  N154  1  0.53753547  0.91604523  0.20459129  1.0
  N  N155  1  0.54543619  0.83230312  0.21068668  1.0
  N  N156  1  0.83285034  0.32273072  0.92167175  1.0
  N  N157  1  0.91736642  0.32961693  0.92913369  1.0
  N  N158  1  0.91725724  0.29698299  0.96166335  1.0
  N  N159  1  0.83251755  0.29037840  0.95453858  1.0
  N  N160  1  0.41731052  0.67062466  0.57112339  1.0
  N  N161  1  0.33279890  0.67752854  0.57861090  1.0
  N  N162  1  0.33244575  0.70986821  0.54573495  1.0
  N  N163  1  0.41718374  0.70324774  0.53857482  1.0
  N  N164  1  0.66675172  0.82284583  0.07848984  1.0
  N  N165  1  0.58217407  0.82933216  0.07139652  1.0
  N  N166  1  0.58232335  0.79670912  0.03884304  1.0
  N  N167  1  0.66712634  0.79051775  0.04563069  1.0
  N  N168  1  0.16671148  0.17781847  0.42135716  1.0
  N  N169  1  0.08227171  0.17050489  0.42925969  1.0
  N  N170  1  0.08238993  0.20313424  0.46180198  1.0
  N  N171  1  0.16706532  0.21016899  0.45421564  1.0
