# generated using pymatgen
data_AlH12C27(NO4)3
_symmetry_space_group_name_H-M   'P 1'
_cell_length_a   4.20849054
_cell_length_b   15.70763473
_cell_length_c   15.76764954
_cell_angle_alpha   60.15386897
_cell_angle_beta   87.26072026
_cell_angle_gamma   86.82073339
_symmetry_Int_Tables_number   1
_chemical_formula_structural   AlH12C27(NO4)3
_chemical_formula_sum   'Al1 H12 C27 N3 O12'
_cell_volume   902.44143242
_cell_formula_units_Z   1
loop_
 _symmetry_equiv_pos_site_id
 _symmetry_equiv_pos_as_xyz
  1  'x, y, z'
loop_
 _atom_site_type_symbol
 _atom_site_label
 _atom_site_symmetry_multiplicity
 _atom_site_fract_x
 _atom_site_fract_y
 _atom_site_fract_z
 _atom_site_occupancy
  Al  Al0  1  0.92796701  0.50220408  0.49992996  1.0
  H  H1  1  0.12808980  0.75481916  0.52288681  1.0
  H  H2  1  0.15764114  0.84991115  0.61135322  1.0
  H  H3  1  0.64305025  0.60253030  0.84579849  1.0
  H  H4  1  0.69040735  0.04567633  0.60465891  1.0
  H  H5  1  0.20079868  0.23744613  0.75350342  1.0
  H  H6  1  0.22352963  0.05329046  0.84946818  1.0
  H  H7  1  0.66527397  0.84960903  0.04798931  1.0
  H  H8  1  0.23095220  0.51544101  0.23338836  1.0
  H  H9  1  0.25527906  0.60409244  0.04989231  1.0
  H  H10  1  0.27616138  0.42202081  0.79272695  1.0
  H  H11  1  0.33018745  0.27845841  0.42471209  1.0
  H  H12  1  0.26904854  0.79875310  0.28015619  1.0
  C  C13  1  0.43659989  0.57558861  0.35174618  1.0
  C  C14  1  0.39533025  0.57704455  0.57421976  1.0
  C  C15  1  0.44123692  0.35343937  0.57468614  1.0
  C  C16  1  0.45345440  0.93058715  0.78641282  1.0
  C  C17  1  0.42602435  0.78636851  0.78677763  1.0
  C  C18  1  0.45774650  0.78635015  0.93037192  1.0
  C  C19  1  0.24164192  0.72248345  0.59349121  1.0
  C  C20  1  0.25787790  0.77523000  0.64245274  1.0
  C  C21  1  0.40362987  0.73178376  0.73355471  1.0
  C  C22  1  0.53224223  0.63562073  0.77475597  1.0
  C  C23  1  0.52458344  0.58356953  0.72478628  1.0
  C  C24  1  0.38076315  0.62774563  0.63282609  1.0
  C  C25  1  0.58839448  0.08815309  0.63741341  1.0
  C  C26  1  0.58719797  0.19044825  0.58518814  1.0
  C  C27  1  0.44466748  0.24417741  0.62748621  1.0
  C  C28  1  0.31039056  0.19456820  0.72212680  1.0
  C  C29  1  0.32255641  0.09261481  0.77528573  1.0
  C  C30  1  0.45687866  0.03892868  0.73233787  1.0
  C  C31  1  0.57362382  0.77594551  0.08911887  1.0
  C  C32  1  0.56594477  0.72634432  0.19101328  1.0
  C  C33  1  0.44066345  0.63192692  0.24294244  1.0
  C  C34  1  0.32688571  0.58848331  0.19190472  1.0
  C  C35  1  0.34071259  0.63736498  0.09038459  1.0
  C  C36  1  0.46036108  0.73210121  0.03834399  1.0
  C  C37  1  0.67967692  0.48226765  0.77225713  1.0
  C  C38  1  0.73969559  0.23939255  0.48462989  1.0
  C  C39  1  0.69220657  0.77724661  0.24111312  1.0
  N  N40  1  0.43160795  0.88496705  0.73387515  1.0
  N  N41  1  0.43926672  0.73366247  0.88485416  1.0
  N  N42  1  0.46750783  0.88494911  0.88448999  1.0
  O  O43  1  0.19981770  0.39734232  0.58993315  1.0
  O  O44  1  0.20977029  0.51720729  0.39452483  1.0
  O  O45  1  0.16910216  0.59380159  0.51626819  1.0
  O  O46  1  0.68224791  0.39396259  0.51934233  1.0
  O  O47  1  0.64138664  0.52099608  0.58689071  1.0
  O  O48  1  0.66474027  0.58991099  0.39317236  1.0
  O  O49  1  0.51388617  0.40431973  0.79671719  1.0
  O  O50  1  0.96412881  0.47388751  0.79213849  1.0
  O  O51  1  0.56491375  0.29222528  0.40688892  1.0
  O  O52  1  0.02869795  0.22598602  0.47656575  1.0
  O  O53  1  0.50029520  0.80300270  0.29367756  1.0
  O  O54  1  0.97579075  0.79774562  0.22844025  1.0
