# generated using pymatgen
data_Zn4H24C44N4O15
_symmetry_space_group_name_H-M   'P 1'
_cell_length_a   15.60913059
_cell_length_b   19.10096421
_cell_length_c   19.33029686
_cell_angle_alpha   94.76119264
_cell_angle_beta   103.23443285
_cell_angle_gamma   96.69464439
_symmetry_Int_Tables_number   1
_chemical_formula_structural   Zn4H24C44N4O15
_chemical_formula_sum   'Zn4 H24 C44 N4 O15'
_cell_volume   5536.01936274
_cell_formula_units_Z   1
loop_
 _symmetry_equiv_pos_site_id
 _symmetry_equiv_pos_as_xyz
  1  'x, y, z'
loop_
 _atom_site_type_symbol
 _atom_site_label
 _atom_site_symmetry_multiplicity
 _atom_site_fract_x
 _atom_site_fract_y
 _atom_site_fract_z
 _atom_site_occupancy
  Zn  Zn0  1  0.43387598  0.55446505  0.54838617  1.0
  Zn  Zn1  1  0.57636535  0.45298565  0.56871907  1.0
  Zn  Zn2  1  0.57895139  0.55940483  0.45065687  1.0
  Zn  Zn3  1  0.42101692  0.43041811  0.42128664  1.0
  H  H4  1  0.84716145  0.55153788  0.67648548  1.0
  H  H5  1  0.34177603  0.42269444  0.06432310  1.0
  H  H6  1  0.15150727  0.54220281  0.67778471  1.0
  H  H7  1  0.35467336  0.42080158  0.19655845  1.0
  H  H8  1  0.63185957  0.47441981  0.78648801  1.0
  H  H9  1  0.58805935  0.56394431  0.10927320  1.0
  H  H10  1  0.64441753  0.47948280  0.91913683  1.0
  H  H11  1  0.59828534  0.56513163  0.24111618  1.0
  H  H12  1  0.84590283  0.50557593  0.45550934  1.0
  H  H13  1  0.15409680  0.42477545  0.33850486  1.0
  H  H14  1  0.23454860  0.51395561  0.58812087  1.0
  H  H15  1  0.47663321  0.90305414  0.61999466  1.0
  H  H16  1  0.56397277  0.23893773  0.59576835  1.0
  H  H17  1  0.54618037  0.04950760  0.59241011  1.0
  H  H18  1  0.01229672  0.55639167  0.71029073  1.0
  H  H19  1  0.90700398  0.45993666  0.38784291  1.0
  H  H20  1  0.01654460  0.39760243  0.26102651  1.0
  H  H21  1  0.47488026  0.77087558  0.61157428  1.0
  H  H22  1  0.45152391  0.21568934  0.36798724  1.0
  H  H23  1  0.56186533  0.90710292  0.42356136  1.0
  H  H24  1  0.45185614  0.08334565  0.36464501  1.0
  H  H25  1  0.56787526  0.77571908  0.41905174  1.0
  H  H26  1  0.37089491  0.53629151  0.75639945  1.0
  H  H27  1  0.37970265  0.53389074  0.88783367  1.0
  C  C28  1  0.50834887  0.31296797  0.48504311  1.0
  C  C29  1  0.88394279  0.51479159  0.51095141  1.0
  C  C30  1  0.88437373  0.54198175  0.63616301  1.0
  C  C31  1  0.52013064  0.68746985  0.51068411  1.0
  C  C32  1  0.16420035  0.47016326  0.44555559  1.0
  C  C33  1  0.52106096  0.76585734  0.51479120  1.0
  C  C34  1  0.54648684  0.80406084  0.46197853  1.0
  C  C35  1  0.54350522  0.87655920  0.46440362  1.0
  C  C36  1  0.51797202  0.91194911  0.52159222  1.0
  C  C37  1  0.49564502  0.87439459  0.57592494  1.0
  C  C38  1  0.49504015  0.80142487  0.57143749  1.0
  C  C39  1  0.02461303  0.43958207  0.35663898  1.0
  C  C40  1  0.53376347  0.13123985  0.54485063  1.0
  C  C41  1  0.53845406  0.20501829  0.54533398  1.0
  C  C42  1  0.50299730  0.08717754  0.47790930  1.0
  C  C43  1  0.49566362  0.50189242  0.68579710  1.0
  C  C44  1  0.50812238  0.23437078  0.48212239  1.0
  C  C45  1  0.47528368  0.19112770  0.41627340  1.0
  C  C46  1  0.47484076  0.11866027  0.41448151  1.0
  C  C47  1  0.47751686  0.49251429  0.22630147  1.0
  C  C48  1  0.54319758  0.53335150  0.20187006  1.0
  C  C49  1  0.53763807  0.53288287  0.12917650  1.0
  C  C50  1  0.97892073  0.46349312  0.40550251  1.0
  C  C51  1  0.46481087  0.49228353  0.07978716  1.0
  C  C52  1  0.39787091  0.45295616  0.10391647  1.0
  C  C53  1  0.40501637  0.45211797  0.17684069  1.0
  C  C54  1  0.43437721  0.52132645  0.86482125  1.0
  C  C55  1  0.48494793  0.49282712  0.30475784  1.0
  C  C56  1  0.42956194  0.52222589  0.79224476  1.0
  C  C57  1  0.51189957  0.50482574  0.91016853  1.0
  C  C58  1  0.50029721  0.50401215  0.76388525  1.0
  C  C59  1  0.57755821  0.48790394  0.80941341  1.0
  C  C60  1  0.58438201  0.49025684  0.88244948  1.0
  C  C61  1  0.02400832  0.48937057  0.47640382  1.0
  C  C62  1  0.74002280  0.52520188  0.54318195  1.0
  C  C63  1  0.26335819  0.47765922  0.45990300  1.0
  C  C64  1  0.97536405  0.54390504  0.65454988  1.0
  C  C65  1  0.83839946  0.52864414  0.56335355  1.0
  C  C66  1  0.11738551  0.44284028  0.37672678  1.0
  C  C67  1  0.11865259  0.49217970  0.49801915  1.0
  C  C68  1  0.97595649  0.51113512  0.52898000  1.0
  C  C69  1  0.02284788  0.52839561  0.60221359  1.0
  C  C70  1  0.11676238  0.52869150  0.62162667  1.0
  C  C71  1  0.16289686  0.51251213  0.57175171  1.0
  N  N72  1  0.51597553  0.98552350  0.52874538  1.0
  N  N73  1  0.49955171  0.01399220  0.47022099  1.0
  N  N74  1  0.45263057  0.48963293  0.00482769  1.0
  N  N75  1  0.52379635  0.50336766  0.98461373  1.0
  O  O76  1  0.50125008  0.49919335  0.49555737  1.0
  O  O77  1  0.69860311  0.50209612  0.58854627  1.0
  O  O78  1  0.29651154  0.43069058  0.42718761  1.0
  O  O79  1  0.70412597  0.54434714  0.48262962  1.0
  O  O80  1  0.30693188  0.53177244  0.50165177  1.0
  O  O81  1  0.55858917  0.10334668  0.60647779  1.0
  O  O82  1  0.97629034  0.41318887  0.28900379  1.0
  O  O83  1  0.44006962  0.53648153  0.64848874  1.0
  O  O84  1  0.42727448  0.45055970  0.32410801  1.0
  O  O85  1  0.56120865  0.35082415  0.53896426  1.0
  O  O86  1  0.56159169  0.65930854  0.46820891  1.0
  O  O87  1  0.45511763  0.33514260  0.43372355  1.0
  O  O88  1  0.47713531  0.65507960  0.55020816  1.0
  O  O89  1  0.54857393  0.46523995  0.66252068  1.0
  O  O90  1  0.54862729  0.53533077  0.34621978  1.0
