# generated using pymatgen
data_ZnH16C26N3(O2F3)3
_symmetry_space_group_name_H-M   'P 1'
_cell_length_a   16.20314264
_cell_length_b   17.06187166
_cell_length_c   17.08986267
_cell_angle_alpha   91.19110200
_cell_angle_beta   94.91220362
_cell_angle_gamma   90.57756755
_symmetry_Int_Tables_number   1
_chemical_formula_structural   ZnH16C26N3(O2F3)3
_chemical_formula_sum   'Zn2 H32 C52 N6 O12 F18'
_cell_volume   4705.89027148
_cell_formula_units_Z   2
loop_
 _symmetry_equiv_pos_site_id
 _symmetry_equiv_pos_as_xyz
  1  'x, y, z'
loop_
 _atom_site_type_symbol
 _atom_site_label
 _atom_site_symmetry_multiplicity
 _atom_site_fract_x
 _atom_site_fract_y
 _atom_site_fract_z
 _atom_site_occupancy
  Zn  Zn0  1  0.58511806  0.50105827  0.50400981  1.0
  Zn  Zn1  1  0.40722132  0.50399792  0.51110428  1.0
  H  H2  1  0.57897524  0.12576934  0.35269595  1.0
  H  H3  1  0.40680883  0.90793839  0.49445929  1.0
  H  H4  1  0.53050252  0.59490757  0.10522845  1.0
  H  H5  1  0.44352962  0.39508601  0.90020518  1.0
  H  H6  1  0.29812449  0.70147296  0.48236923  1.0
  H  H7  1  0.30270950  0.80168068  0.45462694  1.0
  H  H8  1  0.24227069  0.74475961  0.60913701  1.0
  H  H9  1  0.24742884  0.84358812  0.58053237  1.0
  H  H10  1  0.14484521  0.81341851  0.46323088  1.0
  H  H11  1  0.10238816  0.78872182  0.55200052  1.0
  H  H12  1  0.13987455  0.71404801  0.49111866  1.0
  H  H13  1  0.72775752  0.28383766  0.37760766  1.0
  H  H14  1  0.69279983  0.18605836  0.38951033  1.0
  H  H15  1  0.69233043  0.31893605  0.51341594  1.0
  H  H16  1  0.65291969  0.22370601  0.52456567  1.0
  H  H17  1  0.79420210  0.16622356  0.51046620  1.0
  H  H18  1  0.79717733  0.23506804  0.58988773  1.0
  H  H19  1  0.83576776  0.26172979  0.49984798  1.0
  H  H20  1  0.32401576  0.53095998  0.71821974  1.0
  H  H21  1  0.24352771  0.60247493  0.72355280  1.0
  H  H22  1  0.42762582  0.63825633  0.71109530  1.0
  H  H23  1  0.34988293  0.70943647  0.71614398  1.0
  H  H24  1  0.32111732  0.66294909  0.85161089  1.0
  H  H25  1  0.42635131  0.69181414  0.84936833  1.0
  H  H26  1  0.39883807  0.59083230  0.84633148  1.0
  H  H27  1  0.64367550  0.41600275  0.27011254  1.0
  H  H28  1  0.75172152  0.39655578  0.28555491  1.0
  H  H29  1  0.67334365  0.55991241  0.27785030  1.0
  H  H30  1  0.78097572  0.54258209  0.29320755  1.0
  H  H31  1  0.77947039  0.47441260  0.16069542  1.0
  H  H32  1  0.74170558  0.57133713  0.15165601  1.0
  H  H33  1  0.67132014  0.49103172  0.14393837  1.0
  C  C34  1  0.52137975  0.48221810  0.65733103  1.0
  C  C35  1  0.47162942  0.51630916  0.35679854  1.0
  C  C36  1  0.53068606  0.48051070  0.74595814  1.0
  C  C37  1  0.47047444  0.50450078  0.26915472  1.0
  C  C38  1  0.48216220  0.43066411  0.78840510  1.0
  C  C39  1  0.49991011  0.56185324  0.22040889  1.0
  C  C40  1  0.48267521  0.43375552  0.86902193  1.0
  C  C41  1  0.50713851  0.54938253  0.14146525  1.0
  C  C42  1  0.53348857  0.49003409  0.91188268  1.0
  C  C43  1  0.48403538  0.47570521  0.10707294  1.0
  C  C44  1  0.58438910  0.53929896  0.87133120  1.0
  C  C45  1  0.45212477  0.41781350  0.15381858  1.0
  C  C46  1  0.58272918  0.53390179  0.78957830  1.0
  C  C47  1  0.44598243  0.43254340  0.23374332  1.0
  C  C48  1  0.22663260  0.46002678  0.46984902  1.0
  C  C49  1  0.76582207  0.53226770  0.55724232  1.0
  C  C50  1  0.14069480  0.46065948  0.47008534  1.0
  C  C51  1  0.85182845  0.53010709  0.55944237  1.0
  C  C52  1  0.10503412  0.51080997  0.52417466  1.0
  C  C53  1  0.88743305  0.49279772  0.49648566  1.0
  C  C54  1  0.15997883  0.55525313  0.57616966  1.0
  C  C55  1  0.83345127  0.46259939  0.43428578  1.0
  C  C56  1  0.50362629  0.65056449  0.51279471  1.0
  C  C57  1  0.48472541  0.35586239  0.47251888  1.0
  C  C58  1  0.24605451  0.55039747  0.57367639  1.0
  C  C59  1  0.74725522  0.47019933  0.43420511  1.0
  C  C60  1  0.51073325  0.73502117  0.49100216  1.0
  C  C61  1  0.47603643  0.27210435  0.44326972  1.0
  C  C62  1  0.44873504  0.78986580  0.50533820  1.0
  C  C63  1  0.53752415  0.23324868  0.40272916  1.0
  C  C64  1  0.45396896  0.86644699  0.47977016  1.0
  C  C65  1  0.53073275  0.15340503  0.38369303  1.0
  C  C66  1  0.52012233  0.89190735  0.43837324  1.0
  C  C67  1  0.46361915  0.10787549  0.40374264  1.0
  C  C68  1  0.58155593  0.83776211  0.42380993  1.0
  C  C69  1  0.40026240  0.14658854  0.43923803  1.0
  C  C70  1  0.57715172  0.76119732  0.45047249  1.0
  C  C71  1  0.40638061  0.22636624  0.45811804  1.0
  C  C72  1  0.52628789  0.97458485  0.41922209  1.0
  C  C73  1  0.46277774  0.02249185  0.39718125  1.0
  C  C74  1  0.30476353  0.76237611  0.50521427  1.0
  C  C75  1  0.23723458  0.78303175  0.55799751  1.0
  C  C76  1  0.15142887  0.77437785  0.51375124  1.0
  C  C77  1  0.68448777  0.24771016  0.40792470  1.0
  C  C78  1  0.70057467  0.25715914  0.49672307  1.0
  C  C79  1  0.78661672  0.22854240  0.52573201  1.0
  C  C80  1  0.30492923  0.59091290  0.70323153  1.0
  C  C81  1  0.36879702  0.65089359  0.73608155  1.0
  C  C82  1  0.37922164  0.64894112  0.82575619  1.0
  C  C83  1  0.70342142  0.43929618  0.29604818  1.0
  C  C84  1  0.72240671  0.51916405  0.26387888  1.0
  C  C85  1  0.72913064  0.51347079  0.17519288  1.0
  N  N86  1  0.53356471  0.50430481  0.99286256  1.0
  N  N87  1  0.48924441  0.45645496  0.02757922  1.0
  N  N88  1  0.27712664  0.50270408  0.51961444  1.0
  N  N89  1  0.71577863  0.50390791  0.49752826  1.0
  N  N90  1  0.02053522  0.52778489  0.52590519  1.0
  N  N91  1  0.97180271  0.47537673  0.49471135  1.0
  O  O92  1  0.58473750  0.46843994  0.62135357  1.0
  O  O93  1  0.40456502  0.50407077  0.38734594  1.0
  O  O94  1  0.44927575  0.49979959  0.62883351  1.0
  O  O95  1  0.54194149  0.53497420  0.39072945  1.0
  O  O96  1  0.56990354  0.61560315  0.53602632  1.0
  O  O97  1  0.42153032  0.38673203  0.49935359  1.0
  O  O98  1  0.43139538  0.62037437  0.50342915  1.0
  O  O99  1  0.55458708  0.38968811  0.46926429  1.0
  O  O100  1  0.38498094  0.76984839  0.54923217  1.0
  O  O101  1  0.60349938  0.27477053  0.37916117  1.0
  O  O102  1  0.30044324  0.59569652  0.61731565  1.0
  O  O103  1  0.69052971  0.44265601  0.37964118  1.0
  F  F104  1  0.73111767  0.56515980  0.61754239  1.0
  F  F105  1  0.26024123  0.41443019  0.41732649  1.0
  F  F106  1  0.89780867  0.55879024  0.62288697  1.0
  F  F107  1  0.09501528  0.41687017  0.41629171  1.0
  F  F108  1  0.12909583  0.60536962  0.62776255  1.0
  F  F109  1  0.86614420  0.42521298  0.37384938  1.0
  F  F110  1  0.34296386  0.25567330  0.49537134  1.0
  F  F111  1  0.63825077  0.71229532  0.43264408  1.0
  F  F112  1  0.38742586  0.98792680  0.37600537  1.0
  F  F113  1  0.60313334  0.00794101  0.43623666  1.0
  F  F114  1  0.64610398  0.85830578  0.38278836  1.0
  F  F115  1  0.33363635  0.10645367  0.46122285  1.0
  F  F116  1  0.52194698  0.63325060  0.25312340  1.0
  F  F117  1  0.43171824  0.37736627  0.74714587  1.0
  F  F118  1  0.63398501  0.59382601  0.91005098  1.0
  F  F119  1  0.42924453  0.34663809  0.12318208  1.0
  F  F120  1  0.63023801  0.58450568  0.75292921  1.0
  F  F121  1  0.41814853  0.37408658  0.27697992  1.0
