# generated using pymatgen
data_Zr3H14C15O16
_symmetry_space_group_name_H-M   'P 1'
_cell_length_a   17.49456426
_cell_length_b   20.33179533
_cell_length_c   20.92608333
_cell_angle_alpha   89.98084667
_cell_angle_beta   79.82777750
_cell_angle_gamma   89.96767907
_symmetry_Int_Tables_number   1
_chemical_formula_structural   Zr3H14C15O16
_chemical_formula_sum   'Zr12 H56 C60 O64'
_cell_volume   7326.32165343
_cell_formula_units_Z   4
loop_
 _symmetry_equiv_pos_site_id
 _symmetry_equiv_pos_as_xyz
  1  'x, y, z'
loop_
 _atom_site_type_symbol
 _atom_site_label
 _atom_site_symmetry_multiplicity
 _atom_site_fract_x
 _atom_site_fract_y
 _atom_site_fract_z
 _atom_site_occupancy
  Zr  Zr0  1  0.13973055  0.53203240  0.61554148  1.0
  Zr  Zr1  1  0.92499021  0.41271103  0.54676322  1.0
  Zr  Zr2  1  0.94378012  0.49759744  0.69137076  1.0
  Zr  Zr3  1  0.11930524  0.44564687  0.47074206  1.0
  Zr  Zr4  1  0.07843477  0.36839056  0.62633815  1.0
  Zr  Zr5  1  0.98758026  0.57582776  0.53260417  1.0
  Zr  Zr6  1  0.63248839  0.93701953  0.14380416  1.0
  Zr  Zr7  1  0.43042104  0.00166106  0.02101198  1.0
  Zr  Zr8  1  0.46242247  0.85727032  0.10752537  1.0
  Zr  Zr9  1  0.59883933  0.08183762  0.05571686  1.0
  Zr  Zr10  1  0.61192664  0.92312348  0.98145607  1.0
  Zr  Zr11  1  0.45204175  0.01874797  0.18310621  1.0
  H  H12  1  0.87263324  0.20481532  0.26909383  1.0
  H  H13  1  0.12079113  0.19953840  0.26077028  1.0
  H  H14  1  0.01476067  0.07518410  0.13376136  1.0
  H  H15  1  0.18928533  0.73836453  0.89460697  1.0
  H  H16  1  0.94085229  0.72427185  0.90768294  1.0
  H  H17  1  0.03726420  0.86367563  0.02729947  1.0
  H  H18  1  0.22054523  0.41722084  0.55863353  1.0
  H  H19  1  0.91795832  0.36174004  0.68159793  1.0
  H  H20  1  0.98010008  0.48137795  0.42969869  1.0
  H  H21  1  0.01118828  0.62504120  0.65213501  1.0
  H  H22  1  0.03110466  0.28543352  0.71254264  1.0
  H  H23  1  0.82173565  0.57467898  0.72527532  1.0
  H  H24  1  0.84451601  0.63480069  0.57632216  1.0
  H  H25  1  0.13696899  0.26319684  0.56238397  1.0
  H  H26  1  0.24856279  0.37262024  0.43472484  1.0
  H  H27  1  0.17491045  0.52393540  0.37152860  1.0
  H  H28  1  0.99418404  0.60612114  0.39807025  1.0
  H  H29  1  0.98889814  0.26127867  0.61261300  1.0
  H  H30  1  0.89748307  0.28255643  0.51581007  1.0
  H  H31  1  0.15802851  0.66853894  0.62933308  1.0
  H  H32  1  0.06582498  0.68248511  0.49132893  1.0
  H  H33  1  0.18092630  0.32081069  0.51394105  1.0
  H  H34  1  0.84108626  0.29735993  0.58179556  1.0
  H  H35  1  0.93328022  0.45156110  0.81016135  1.0
  H  H36  1  0.08703176  0.32249595  0.75381967  1.0
  H  H37  1  0.07446927  0.56456134  0.40555433  1.0
  H  H38  1  0.87859643  0.61542406  0.64311393  1.0
  H  H39  1  0.11316467  0.65682982  0.56636926  1.0
  H  H40  1  0.70528753  0.65150546  0.34142060  1.0
  H  H41  1  0.45832273  0.64828753  0.34332653  1.0
  H  H42  1  0.55655613  0.52769699  0.47828574  1.0
  H  H43  1  0.35968873  0.28363122  0.81813273  1.0
  H  H44  1  0.60920968  0.28652784  0.80181288  1.0
  H  H45  1  0.49742682  0.41748967  0.68444623  1.0
  H  H46  1  0.72653524  0.99439715  0.03098079  1.0
  H  H47  1  0.46569117  0.86502330  0.97314358  1.0
  H  H48  1  0.44259825  0.12154658  0.08798021  1.0
  H  H49  1  0.49135904  0.89919175  0.23407801  1.0
  H  H50  1  0.60343390  0.83339490  0.90087539  1.0
  H  H51  1  0.32987931  0.82330411  0.18108313  1.0
  H  H52  1  0.30646620  0.97326452  0.24151663  1.0
  H  H53  1  0.68059508  0.98738073  0.87750958  1.0
  H  H54  1  0.73599867  0.12053011  0.98465045  1.0
  H  H55  1  0.61347709  0.18380989  0.13200808  1.0
  H  H56  1  0.42128256  0.15505215  0.21128189  1.0
  H  H57  1  0.54458407  0.93441944  0.87427317  1.0
  H  H58  1  0.42775492  0.03087386  0.89117776  1.0
  H  H59  1  0.62217520  0.92426998  0.27913219  1.0
  H  H60  1  0.49716126  0.06316309  0.28845281  1.0
  H  H61  1  0.69945372  0.03756009  0.93458142  1.0
  H  H62  1  0.38339678  0.96350092  0.90584202  1.0
  H  H63  1  0.48496305  0.73542172  0.06596734  1.0
  H  H64  1  0.65911381  0.79303703  0.93988443  1.0
  H  H65  1  0.51238072  0.14818467  0.17108993  1.0
  H  H66  1  0.35963862  0.90600625  0.22202628  1.0
  H  H67  1  0.56593588  0.98741219  0.26576338  1.0
  C  C68  1  0.93609147  0.13737188  0.19888351  1.0
  C  C69  1  0.92942982  0.18517705  0.24806660  1.0
  C  C70  1  0.99599159  0.20775358  0.27020534  1.0
  C  C71  1  0.06928932  0.18218345  0.24337921  1.0
  C  C72  1  0.07629780  0.13450494  0.19408892  1.0
  C  C73  1  0.00962014  0.11220793  0.17184779  1.0
  C  C74  1  0.12072475  0.80416689  0.96354733  1.0
  C  C75  1  0.13102432  0.75455118  0.91596323  1.0
  C  C76  1  0.06615673  0.72542500  0.89617979  1.0
  C  C77  1  0.99092247  0.74669000  0.92337707  1.0
  C  C78  1  0.98030877  0.79668280  0.97044355  1.0
  C  C79  1  0.04531213  0.82509431  0.99066140  1.0
  C  C80  1  0.22697874  0.41898806  0.68646145  1.0
  C  C81  1  0.27876395  0.52572742  0.49054096  1.0
  C  C82  1  0.07035074  0.58397074  0.75832305  1.0
  C  C83  1  0.77742396  0.42180507  0.65979629  1.0
  C  C84  1  0.83106666  0.52626494  0.48103212  1.0
  C  C85  1  0.99777139  0.34822694  0.40827774  1.0
  C  C86  1  0.63847062  0.58634012  0.41211815  1.0
  C  C87  1  0.64775607  0.63278850  0.36149948  1.0
  C  C88  1  0.58285145  0.65472845  0.33646531  1.0
  C  C89  1  0.50847105  0.63094218  0.36279312  1.0
  C  C90  1  0.49860289  0.58574470  0.41439064  1.0
  C  C91  1  0.56387497  0.56310530  0.43864833  1.0
  C  C92  1  0.42082259  0.35366997  0.74948797  1.0
  C  C93  1  0.41604545  0.30352745  0.79630759  1.0
  C  C94  1  0.48395357  0.27961576  0.81540750  1.0
  C  C95  1  0.55672177  0.30510882  0.78684002  1.0
  C  C96  1  0.56187662  0.35449375  0.73929733  1.0
  C  C97  1  0.49373800  0.37896224  0.72100555  1.0
  C  C98  1  0.76164149  0.86501386  0.03532322  1.0
  C  C99  1  0.74337341  0.06556579  0.13817024  1.0
  C  C100  1  0.58409075  0.79202665  0.19514312  1.0
  C  C101  1  0.30642113  0.88608166  0.02772397  1.0
  C  C102  1  0.29572134  0.06687919  0.13092629  1.0
  C  C103  1  0.48608771  0.14174376  0.95615636  1.0
  C  C104  1  0.48032077  0.23051223  0.86393624  1.0
  C  C105  1  0.48044658  0.18953690  0.90634188  1.0
  C  C106  1  0.59136035  0.74094580  0.24159022  1.0
  C  C107  1  0.59021560  0.70118191  0.28524925  1.0
  C  C108  1  0.70461676  0.56373783  0.43634349  1.0
  C  C109  1  0.76233903  0.54518573  0.45626488  1.0
  C  C110  1  0.35698790  0.54578964  0.46313109  1.0
  C  C111  1  0.42284753  0.56351207  0.44118546  1.0
  C  C112  1  0.63563653  0.37948965  0.71051399  1.0
  C  C113  1  0.69937580  0.40040078  0.68627728  1.0
  C  C114  1  0.29396738  0.39896497  0.71307178  1.0
  C  C115  1  0.35240522  0.37819208  0.73030174  1.0
  C  C116  1  0.90421135  0.81864821  0.99650703  1.0
  C  C117  1  0.83839067  0.83757914  0.01703254  1.0
  C  C118  1  0.23995581  0.85820556  0.00501480  1.0
  C  C119  1  0.18558325  0.83312600  0.98494469  1.0
  C  C120  1  0.07440299  0.67474452  0.84889189  1.0
  C  C121  1  0.07580556  0.63090556  0.80905665  1.0
  C  C122  1  0.86878822  0.11425282  0.17696331  1.0
  C  C123  1  0.81093370  0.09372466  0.15875156  1.0
  C  C124  1  0.21704953  0.09028679  0.14894851  1.0
  C  C125  1  0.15113994  0.10971146  0.16815643  1.0
  C  C126  1  0.99161184  0.29894458  0.36000772  1.0
  C  C127  1  0.99093884  0.25653341  0.31909505  1.0
  O  O128  1  0.15899626  0.64109106  0.59116672  1.0
  O  O129  1  0.22291664  0.47868618  0.66955174  1.0
  O  O130  1  0.12814638  0.58215921  0.71098791  1.0
  O  O131  1  0.24130395  0.49413235  0.45334416  1.0
  O  O132  1  0.00812608  0.55102888  0.76384790  1.0
  O  O133  1  0.25527474  0.54105932  0.54969721  1.0
  O  O134  1  0.17825118  0.37321224  0.68066638  1.0
  O  O135  1  0.06044487  0.46490718  0.66028597  1.0
  O  O136  1  0.16735524  0.43289217  0.56543176  1.0
  O  O137  1  0.01759625  0.58123652  0.63343311  1.0
  O  O138  1  0.09449301  0.53009661  0.53095066  1.0
  O  O139  1  0.12244961  0.50949850  0.38931478  1.0
  O  O140  1  0.04012423  0.32745999  0.73512287  1.0
  O  O141  1  0.04060641  0.38873826  0.53967571  1.0
  O  O142  1  0.94864463  0.38914911  0.64859118  1.0
  O  O143  1  0.93154700  0.49893192  0.59008604  1.0
  O  O144  1  0.99397351  0.48084426  0.47255389  1.0
  O  O145  1  0.90982073  0.44541012  0.77192671  1.0
  O  O146  1  0.80865575  0.46413164  0.69029242  1.0
  O  O147  1  0.80871133  0.39293032  0.60637272  1.0
  O  O148  1  0.04795302  0.66648272  0.53525120  1.0
  O  O149  1  0.83757079  0.46628248  0.49626551  1.0
  O  O150  1  0.87481633  0.58397284  0.70435465  1.0
  O  O151  1  0.89170725  0.63571743  0.59486104  1.0
  O  O152  1  0.03392484  0.60338081  0.42510561  1.0
  O  O153  1  0.87957714  0.57281493  0.48538049  1.0
  O  O154  1  0.89589746  0.29343992  0.56167934  1.0
  O  O155  1  0.19392847  0.36453941  0.45111727  1.0
  O  O156  1  0.93736838  0.35604863  0.45311811  1.0
  O  O157  1  0.06125787  0.37875383  0.40274644  1.0
  O  O158  1  0.16906728  0.30281687  0.56081121  1.0
  O  O159  1  0.03586695  0.27023564  0.63005141  1.0
  O  O160  1  0.62097595  0.96250521  0.25142293  1.0
  O  O161  1  0.74021523  0.88336439  0.09374863  1.0
  O  O162  1  0.63115335  0.84064945  0.19380604  1.0
  O  O163  1  0.70503612  0.10238752  0.10587535  1.0
  O  O164  1  0.53038477  0.78536952  0.16227105  1.0
  O  O165  1  0.72981121  0.00570336  0.15392393  1.0
  O  O166  1  0.72234505  0.86974262  0.98924443  1.0
  O  O167  1  0.57920575  0.88987427  0.07700616  1.0
  O  O168  1  0.67148929  0.98697761  0.04575277  1.0
  O  O169  1  0.50350174  0.91753192  0.19059808  1.0
  O  O170  1  0.56852819  0.02173033  0.13973461  1.0
  O  O171  1  0.56841644  0.16493004  0.11745882  1.0
  O  O172  1  0.60739113  0.81203595  0.94327696  1.0
  O  O173  1  0.54952224  0.01030527  0.99947125  1.0
  O  O174  1  0.48265593  0.89888910  0.00028417  1.0
  O  O175  1  0.42686451  0.95912187  0.10707895  1.0
  O  O176  1  0.46637952  0.07848511  0.08831954  1.0
  O  O177  1  0.45702818  0.77473647  0.05739818  1.0
  O  O178  1  0.33325015  0.85663163  0.07150067  1.0
  O  O179  1  0.33326491  0.93984925  0.99874705  1.0
  O  O180  1  0.49247710  0.01823500  0.27362160  1.0
  O  O181  1  0.31940881  0.05141076  0.07195917  1.0
  O  O182  1  0.37613844  0.84432907  0.19139274  1.0
  O  O183  1  0.35769455  0.95500559  0.24218712  1.0
  O  O184  1  0.46762301  0.12817727  0.20933152  1.0
  O  O185  1  0.33456354  0.06407255  0.17758809  1.0
  O  O186  1  0.43429619  0.98465911  0.90250146  1.0
  O  O187  1  0.68754615  0.10159454  0.97690549  1.0
  O  O188  1  0.43426466  0.09569469  0.96381331  1.0
  O  O189  1  0.54092117  0.14876505  0.98733947  1.0
  O  O190  1  0.70250024  0.98984663  0.91739051  1.0
  O  O191  1  0.59310185  0.91722891  0.88423219  1.0
