# generated using pymatgen
data_AlH27C45(SO5)3
_symmetry_space_group_name_H-M   'P 1'
_cell_length_a   4.27032167
_cell_length_b   23.40390025
_cell_length_c   23.41022044
_cell_angle_alpha   60.07048625
_cell_angle_beta   87.09903722
_cell_angle_gamma   87.28603546
_symmetry_Int_Tables_number   1
_chemical_formula_structural   AlH27C45(SO5)3
_chemical_formula_sum   'Al1 H27 C45 S3 O15'
_cell_volume   2024.39139955
_cell_formula_units_Z   1
loop_
 _symmetry_equiv_pos_site_id
 _symmetry_equiv_pos_as_xyz
  1  'x, y, z'
loop_
 _atom_site_type_symbol
 _atom_site_label
 _atom_site_symmetry_multiplicity
 _atom_site_fract_x
 _atom_site_fract_y
 _atom_site_fract_z
 _atom_site_occupancy
  Al  Al0  1  0.95039459  0.49972292  0.50038305  1.0
  H  H1  1  0.49841914  0.32402157  0.67096054  1.0
  H  H2  1  0.53837397  0.20221050  0.73665696  1.0
  H  H3  1  0.23134329  0.11036089  0.77018195  1.0
  H  H4  1  0.21181994  0.98927322  0.83177876  1.0
  H  H5  1  0.47726073  0.74950449  0.19327895  1.0
  H  H6  1  0.79623403  0.77533779  0.10197319  1.0
  H  H7  1  0.78398054  0.83428135  0.98101759  1.0
  H  H8  1  0.50082687  0.89486488  0.89415257  1.0
  H  H9  1  0.50713776  0.50486995  0.32412187  1.0
  H  H10  1  0.54277302  0.56073171  0.20219540  1.0
  H  H11  1  0.24234849  0.62169520  0.11046940  1.0
  H  H12  1  0.22511232  0.68136574  0.98959926  1.0
  H  H13  1  0.42645683  0.55900108  0.74900510  1.0
  H  H14  1  0.77119145  0.61782867  0.77280181  1.0
  H  H15  1  0.77364005  0.67955987  0.83242669  1.0
  H  H16  1  0.48766809  0.71090522  0.89491724  1.0
  H  H17  1  0.47109913  0.67118307  0.50427438  1.0
  H  H18  1  0.51322183  0.73663115  0.56011783  1.0
  H  H19  1  0.20838948  0.77322523  0.62300370  1.0
  H  H20  1  0.20556389  0.83423226  0.68337850  1.0
  H  H21  1  0.51134655  0.19217749  0.55786235  1.0
  H  H22  1  0.82851167  0.10115527  0.62064357  1.0
  H  H23  1  0.81090697  0.98001063  0.68269992  1.0
  H  H24  1  0.49457381  0.89397411  0.71116105  1.0
  H  H25  1  0.90651760  0.43922240  0.69136282  1.0
  H  H26  1  0.99039672  0.37166013  0.43835553  1.0
  H  H27  1  0.94318088  0.68948042  0.37340655  1.0
  C  C28  1  0.46660976  0.40091553  0.54098373  1.0
  C  C29  1  0.42603879  0.54099655  0.55803992  1.0
  C  C30  1  0.46376225  0.55791504  0.40152646  1.0
  C  C31  1  0.50797928  0.29471163  0.64642717  1.0
  C  C32  1  0.52840377  0.22622328  0.68310652  1.0
  C  C33  1  0.36499556  0.08197169  0.75138965  1.0
  C  C34  1  0.35397669  0.01348849  0.78625554  1.0
  C  C35  1  0.48589509  0.66419712  0.28967883  1.0
  C  C36  1  0.50131893  0.69593048  0.22101553  1.0
  C  C37  1  0.66655226  0.75491072  0.07758269  1.0
  C  C38  1  0.65841274  0.78835853  0.00917589  1.0
  C  C39  1  0.49684264  0.32711849  0.57754606  1.0
  C  C40  1  0.53398475  0.18763575  0.65241417  1.0
  C  C41  1  0.53204779  0.11498834  0.69075119  1.0
  C  C42  1  0.50971180  0.97536586  0.76193823  1.0
  C  C43  1  0.49813420  0.90267746  0.79855990  1.0
  C  C44  1  0.49703851  0.86769494  0.86759531  1.0
  C  C45  1  0.50892613  0.55858543  0.29496865  1.0
  C  C46  1  0.52674371  0.59027835  0.22644837  1.0
  C  C47  1  0.36779168  0.66767770  0.08227665  1.0
  C  C48  1  0.35819342  0.70145491  0.01382919  1.0
  C  C49  1  0.43158104  0.54746790  0.66371387  1.0
  C  C50  1  0.45097758  0.58410970  0.69541947  1.0
  C  C51  1  0.64310906  0.66498438  0.75339618  1.0
  C  C52  1  0.64306354  0.69973143  0.78723251  1.0
  C  C53  1  0.48958963  0.59504654  0.32771196  1.0
  C  C54  1  0.52204839  0.65946790  0.18815710  1.0
  C  C55  1  0.52117599  0.69389062  0.11552375  1.0
  C  C56  1  0.50301958  0.76253357  0.97580262  1.0
  C  C57  1  0.49445326  0.79860959  0.90309161  1.0
  C  C58  1  0.48929075  0.76462267  0.86798291  1.0
  C  C59  1  0.46673147  0.64680123  0.55800827  1.0
  C  C60  1  0.48877854  0.68334445  0.58966309  1.0
  C  C61  1  0.33843255  0.75301774  0.66829936  1.0
  C  C62  1  0.33684353  0.78750130  0.70246676  1.0
  C  C63  1  0.50753520  0.28881768  0.54657812  1.0
  C  C64  1  0.52427835  0.22016238  0.58340121  1.0
  C  C65  1  0.68883662  0.07687428  0.66653427  1.0
  C  C66  1  0.67824525  0.00846503  0.70150087  1.0
  C  C67  1  0.43987633  0.57816910  0.59459368  1.0
  C  C68  1  0.48129703  0.65279142  0.65883181  1.0
  C  C69  1  0.49023443  0.69091627  0.69331875  1.0
  C  C70  1  0.48876726  0.76157352  0.76265102  1.0
  C  C71  1  0.48873110  0.79819266  0.79891283  1.0
  C  C72  1  0.49303882  0.86725592  0.76489747  1.0
  S  S73  1  0.34496785  0.46232733  0.71580033  1.0
  S  S74  1  0.44308174  0.32313181  0.46054976  1.0
  S  S75  1  0.39405667  0.71606994  0.32451132  1.0
  O  O76  1  0.68394968  0.56458988  0.43235829  1.0
  O  O77  1  0.69720393  0.43220959  0.50306736  1.0
  O  O78  1  0.65960542  0.50241677  0.56446789  1.0
  O  O79  1  0.22767658  0.52128792  0.42612900  1.0
  O  O80  1  0.18967783  0.55305053  0.52264670  1.0
  O  O81  1  0.21662115  0.42496147  0.55328366  1.0
  O  O82  1  0.62515322  0.41996299  0.72697663  1.0
  O  O83  1  0.18121984  0.45545168  0.77392382  1.0
  O  O84  1  0.13935027  0.44861468  0.67173332  1.0
  O  O85  1  0.72489032  0.35303259  0.42025733  1.0
  O  O86  1  0.30659053  0.27327429  0.45174814  1.0
  O  O87  1  0.21696298  0.38219969  0.44591338  1.0
  O  O88  1  0.66461296  0.72625234  0.35377437  1.0
  O  O89  1  0.24070589  0.77475583  0.27509503  1.0
  O  O90  1  0.17678123  0.67210357  0.38422778  1.0
