# generated using pymatgen
data_Zr3H26(C27O8)2
_symmetry_space_group_name_H-M   'P 1'
_cell_length_a   19.01925249
_cell_length_b   19.01925089
_cell_length_c   19.01925636
_cell_angle_alpha   59.99998471
_cell_angle_beta   60.00001195
_cell_angle_gamma   59.99998898
_symmetry_Int_Tables_number   1
_chemical_formula_structural   Zr3H26(C27O8)2
_chemical_formula_sum   'Zr6 H52 C108 O32'
_cell_volume   4864.80389996
_cell_formula_units_Z   2
loop_
 _symmetry_equiv_pos_site_id
 _symmetry_equiv_pos_as_xyz
  1  'x, y, z'
loop_
 _atom_site_type_symbol
 _atom_site_label
 _atom_site_symmetry_multiplicity
 _atom_site_fract_x
 _atom_site_fract_y
 _atom_site_fract_z
 _atom_site_occupancy
  Zr  Zr0  1  0.90704119  0.40703460  0.09295946  1.0
  Zr  Zr1  1  0.09296808  0.59295515  0.90704150  1.0
  Zr  Zr2  1  0.09296422  0.40703866  0.90704063  1.0
  Zr  Zr3  1  0.90704054  0.59296109  0.09295758  1.0
  Zr  Zr4  1  0.09296568  0.40703840  0.09295954  1.0
  Zr  Zr5  1  0.90703908  0.59295771  0.90704259  1.0
  H  H6  1  0.07318290  0.28045194  0.07318259  1.0
  H  H7  1  0.07318352  0.57318292  0.07318160  1.0
  H  H8  1  0.07318332  0.57318277  0.78045104  1.0
  H  H9  1  0.78045284  0.57318321  0.07318141  1.0
  H  H10  1  0.88669471  0.82194768  0.67920075  1.0
  H  H11  1  0.82090552  0.93489899  0.56500993  1.0
  H  H12  1  0.11215772  0.82194712  0.67920162  1.0
  H  H13  1  0.17918580  0.93489975  0.56501001  1.0
  H  H14  1  0.11215804  0.17920166  0.32194540  1.0
  H  H15  1  0.17918683  0.06501025  0.43489773  1.0
  H  H16  1  0.88669373  0.17920265  0.32194760  1.0
  H  H17  1  0.82090461  0.06501135  0.43489874  1.0
  H  H18  1  0.32194853  0.38669286  0.11215574  1.0
  H  H19  1  0.43490061  0.32090386  0.17918397  1.0
  H  H20  1  0.32194834  0.61215598  0.88669321  1.0
  H  H21  1  0.43489910  0.67918630  0.82090447  1.0
  H  H22  1  0.67920053  0.61215867  0.88669507  1.0
  H  H23  1  0.56500949  0.67918756  0.82090512  1.0
  H  H24  1  0.67920201  0.38669390  0.11215673  1.0
  H  H25  1  0.56501102  0.32090450  0.17918492  1.0
  H  H26  1  0.11215646  0.38669445  0.67920128  1.0
  H  H27  1  0.17918391  0.32090449  0.56501133  1.0
  H  H28  1  0.88669472  0.61215847  0.67920062  1.0
  H  H29  1  0.82090489  0.67918728  0.56500938  1.0
  H  H30  1  0.88669434  0.61215819  0.32194642  1.0
  H  H31  1  0.82090521  0.67918675  0.43489843  1.0
  H  H32  1  0.11215673  0.38669517  0.32194678  1.0
  H  H33  1  0.17918424  0.32090396  0.43489985  1.0
  H  H34  1  0.32194772  0.17920226  0.88669348  1.0
  H  H35  1  0.43489978  0.06501168  0.82090375  1.0
  H  H36  1  0.32194726  0.17920204  0.11215694  1.0
  H  H37  1  0.43489999  0.06501122  0.17918449  1.0
  H  H38  1  0.67920198  0.82194701  0.11215592  1.0
  H  H39  1  0.56501161  0.93490020  0.17918403  1.0
  H  H40  1  0.67920116  0.82194766  0.88669289  1.0
  H  H41  1  0.56501076  0.93490087  0.82090298  1.0
  H  H42  1  0.11215776  0.82194710  0.88669290  1.0
  H  H43  1  0.17918457  0.93490076  0.82090288  1.0
  H  H44  1  0.88669557  0.82194700  0.11215665  1.0
  H  H45  1  0.82090643  0.93489828  0.17918636  1.0
  H  H46  1  0.88669562  0.17920082  0.11215703  1.0
  H  H47  1  0.82090648  0.06500952  0.17918578  1.0
  H  H48  1  0.11215717  0.17920295  0.88669206  1.0
  H  H49  1  0.17918398  0.06501282  0.82090168  1.0
  H  H50  1  0.32194958  0.61215558  0.67920255  1.0
  H  H51  1  0.43490032  0.67918530  0.56501055  1.0
  H  H52  1  0.32195023  0.38669269  0.67920267  1.0
  H  H53  1  0.43490099  0.32090292  0.56501192  1.0
  H  H54  1  0.67920206  0.38669388  0.32194725  1.0
  H  H55  1  0.56501235  0.32090404  0.43489953  1.0
  H  H56  1  0.67920140  0.61215859  0.32194570  1.0
  H  H57  1  0.56501105  0.67918663  0.43489784  1.0
  C  C58  1  0.99811252  0.26550249  0.23827133  1.0
  C  C59  1  0.23827157  0.49811282  0.99811307  1.0
  C  C60  1  0.99811419  0.73827192  0.76550160  1.0
  C  C61  1  0.76550211  0.49811387  0.99811362  1.0
  C  C62  1  0.99811363  0.26550129  0.99811367  1.0
  C  C63  1  0.76550100  0.49811446  0.23827106  1.0
  C  C64  1  0.99811489  0.73827046  0.99811255  1.0
  C  C65  1  0.23827281  0.49811242  0.76550261  1.0
  C  C66  1  0.23827094  0.26550271  0.99811264  1.0
  C  C67  1  0.99811291  0.49811429  0.76550171  1.0
  C  C68  1  0.76550081  0.73827115  0.99811340  1.0
  C  C69  1  0.99811443  0.49811399  0.23827042  1.0
  C  C70  1  0.93564649  0.85181176  0.64912074  1.0
  C  C71  1  0.93486922  0.92497589  0.57494633  1.0
  C  C72  1  0.87046583  0.96396221  0.53573905  1.0
  C  C73  1  0.06342099  0.85181228  0.64912113  1.0
  C  C74  1  0.06520858  0.92497629  0.57494621  1.0
  C  C75  1  0.12983411  0.96396268  0.53573854  1.0
  C  C76  1  0.06342133  0.14912200  0.35181062  1.0
  C  C77  1  0.06520831  0.07494739  0.42497539  1.0
  C  C78  1  0.12983451  0.03573988  0.46396051  1.0
  C  C79  1  0.93564489  0.14912213  0.35181298  1.0
  C  C80  1  0.93486895  0.07494882  0.42497512  1.0
  C  C81  1  0.87046559  0.03574023  0.46396145  1.0
  C  C82  1  0.99902922  0.81581150  0.68613129  1.0
  C  C83  1  0.00013612  0.96250815  0.53722132  1.0
  C  C84  1  0.99902824  0.18613235  0.31581129  1.0
  C  C85  1  0.00013459  0.03722325  0.46250679  1.0
  C  C86  1  0.35181300  0.43564466  0.06342022  1.0
  C  C87  1  0.42497667  0.43486834  0.06520648  1.0
  C  C88  1  0.46396336  0.37046410  0.12983265  1.0
  C  C89  1  0.35181218  0.56342083  0.93564514  1.0
  C  C90  1  0.42497585  0.56520778  0.93486896  1.0
  C  C91  1  0.46396186  0.62983482  0.87046468  1.0
  C  C92  1  0.64912099  0.56342184  0.93564674  1.0
  C  C93  1  0.57494632  0.56521028  0.93486942  1.0
  C  C94  1  0.53573811  0.62983528  0.87046604  1.0
  C  C95  1  0.64912115  0.43564589  0.06342099  1.0
  C  C96  1  0.57494777  0.43486942  0.06520786  1.0
  C  C97  1  0.53574025  0.37046435  0.12983327  1.0
  C  C98  1  0.31581024  0.49902913  0.99902754  1.0
  C  C99  1  0.46250734  0.50013531  0.00013468  1.0
  C  C100  1  0.68613204  0.49902956  0.99902858  1.0
  C  C101  1  0.53722258  0.50013540  0.00013577  1.0
  C  C102  1  0.06342102  0.43564649  0.64912071  1.0
  C  C103  1  0.06520732  0.43486953  0.57494649  1.0
  C  C104  1  0.12983222  0.37046568  0.53573929  1.0
  C  C105  1  0.93564522  0.56342313  0.64912027  1.0
  C  C106  1  0.93486860  0.56521014  0.57494658  1.0
  C  C107  1  0.87046521  0.62983522  0.53573798  1.0
  C  C108  1  0.93564615  0.56342302  0.35181089  1.0
  C  C109  1  0.93486956  0.56520940  0.42497396  1.0
  C  C110  1  0.87046491  0.62983550  0.46396097  1.0
  C  C111  1  0.06342066  0.43564741  0.35181146  1.0
  C  C112  1  0.06520764  0.43486961  0.42497484  1.0
  C  C113  1  0.12983191  0.37046596  0.46396281  1.0
  C  C114  1  0.99902860  0.49902999  0.68613132  1.0
  C  C115  1  0.00013487  0.50013533  0.53722163  1.0
  C  C116  1  0.99902951  0.49902988  0.31581016  1.0
  C  C117  1  0.00013456  0.50013562  0.46250707  1.0
  C  C118  1  0.35181221  0.14912254  0.93564423  1.0
  C  C119  1  0.42497589  0.07494942  0.93486763  1.0
  C  C120  1  0.46396254  0.03574076  0.87046350  1.0
  C  C121  1  0.35181236  0.14912151  0.06341995  1.0
  C  C122  1  0.42497669  0.07494695  0.06520694  1.0
  C  C123  1  0.46396337  0.03573949  0.12983195  1.0
  C  C124  1  0.64912177  0.85181207  0.06341931  1.0
  C  C125  1  0.57494710  0.92497682  0.06520717  1.0
  C  C126  1  0.53574021  0.96396261  0.12983180  1.0
  C  C127  1  0.64912098  0.85181271  0.93564463  1.0
  C  C128  1  0.57494823  0.92497621  0.93486791  1.0
  C  C129  1  0.53573938  0.96396388  0.87046388  1.0
  C  C130  1  0.31581026  0.18613298  0.99902786  1.0
  C  C131  1  0.46250802  0.03722272  0.00013471  1.0
  C  C132  1  0.68613138  0.81581089  0.99902823  1.0
  C  C133  1  0.53722254  0.96250804  0.00013409  1.0
  C  C134  1  0.06342235  0.85181181  0.93564398  1.0
  C  C135  1  0.06520802  0.92497645  0.93486742  1.0
  C  C136  1  0.12983354  0.96396407  0.87046205  1.0
  C  C137  1  0.93564672  0.85181129  0.06342102  1.0
  C  C138  1  0.93486946  0.92497542  0.06520856  1.0
  C  C139  1  0.87046738  0.96396129  0.12983351  1.0
  C  C140  1  0.93564740  0.14912131  0.06341968  1.0
  C  C141  1  0.93487015  0.07494723  0.06520783  1.0
  C  C142  1  0.87046744  0.03573781  0.12983353  1.0
  C  C143  1  0.06342046  0.14912269  0.93564455  1.0
  C  C144  1  0.06520806  0.07494909  0.93486713  1.0
  C  C145  1  0.12983295  0.03574081  0.87046228  1.0
  C  C146  1  0.99902993  0.81581064  0.99902793  1.0
  C  C147  1  0.00013635  0.96250889  0.00013330  1.0
  C  C148  1  0.99902868  0.18613259  0.99902775  1.0
  C  C149  1  0.00013578  0.03722227  0.00013424  1.0
  C  C150  1  0.35181469  0.56342001  0.64912205  1.0
  C  C151  1  0.42497642  0.56520700  0.57494910  1.0
  C  C152  1  0.46396308  0.62983382  0.53573907  1.0
  C  C153  1  0.35181405  0.43564410  0.64912297  1.0
  C  C154  1  0.42497836  0.43486696  0.57494842  1.0
  C  C155  1  0.46396503  0.37046395  0.53573974  1.0
  C  C156  1  0.64912188  0.43564563  0.35181163  1.0
  C  C157  1  0.57494720  0.43486776  0.42497646  1.0
  C  C158  1  0.53574161  0.37046509  0.46396200  1.0
  C  C159  1  0.64912122  0.56342197  0.35181114  1.0
  C  C160  1  0.57494848  0.56520855  0.42497411  1.0
  C  C161  1  0.53573966  0.62983436  0.46396111  1.0
  C  C162  1  0.31581211  0.49902731  0.68613305  1.0
  C  C163  1  0.46250969  0.50013432  0.53722206  1.0
  C  C164  1  0.68613224  0.49902910  0.31581033  1.0
  C  C165  1  0.53722333  0.50013512  0.46250692  1.0
  O  O166  1  0.93829406  0.29631979  0.20752670  1.0
  O  O167  1  0.20752616  0.55785875  0.93829347  1.0
  O  O168  1  0.05785989  0.70752744  0.79631928  1.0
  O  O169  1  0.79631977  0.43829431  0.05785930  1.0
  O  O170  1  0.05785995  0.29632061  0.93829296  1.0
  O  O171  1  0.79631915  0.55786174  0.20752572  1.0
  O  O172  1  0.93829400  0.70752663  0.05785976  1.0
  O  O173  1  0.20752807  0.43829150  0.79632115  1.0
  O  O174  1  0.20752633  0.29632106  0.05785838  1.0
  O  O175  1  0.93829382  0.55785935  0.79631962  1.0
  O  O176  1  0.79631961  0.70752606  0.93829293  1.0
  O  O177  1  0.05786077  0.43829483  0.20752646  1.0
  O  O178  1  0.05785926  0.43829391  0.79631965  1.0
  O  O179  1  0.79631910  0.70752646  0.05786027  1.0
  O  O180  1  0.93829340  0.55786152  0.20752572  1.0
  O  O181  1  0.20752746  0.29632045  0.93829294  1.0
  O  O182  1  0.93829402  0.29631982  0.05785997  1.0
  O  O183  1  0.20752741  0.55785834  0.79632220  1.0
  O  O184  1  0.05786056  0.70752660  0.93829337  1.0
  O  O185  1  0.79631916  0.43829390  0.20752549  1.0
  O  O186  1  0.79631896  0.55785915  0.93829519  1.0
  O  O187  1  0.05786013  0.29632016  0.20752659  1.0
  O  O188  1  0.20752696  0.43829391  0.05785758  1.0
  O  O189  1  0.93829317  0.70752851  0.79631952  1.0
  O  O190  1  0.84286383  0.55237954  0.05237723  1.0
  O  O191  1  0.05237989  0.55237723  0.84286546  1.0
  O  O192  1  0.05238006  0.55237801  0.05237742  1.0
  O  O193  1  0.05237815  0.34286507  0.05237840  1.0
  O  O194  1  0.11562613  0.46145910  0.96145735  1.0
  O  O195  1  0.96145949  0.46145899  0.11562368  1.0
  O  O196  1  0.96145867  0.61562494  0.96145866  1.0
  O  O197  1  0.96145868  0.46145843  0.96145793  1.0
