# generated using pymatgen
data_MgH22C20(NO4)2
_symmetry_space_group_name_H-M   'P 1'
_cell_length_a   7.94574682
_cell_length_b   17.79712684
_cell_length_c   17.79551251
_cell_angle_alpha   59.99676640
_cell_angle_beta   89.99016327
_cell_angle_gamma   90.00014018
_symmetry_Int_Tables_number   1
_chemical_formula_structural   MgH22C20(NO4)2
_chemical_formula_sum   'Mg3 H66 C60 N6 O24'
_cell_volume   2179.27275610
_cell_formula_units_Z   3
loop_
 _symmetry_equiv_pos_site_id
 _symmetry_equiv_pos_as_xyz
  1  'x, y, z'
loop_
 _atom_site_type_symbol
 _atom_site_label
 _atom_site_symmetry_multiplicity
 _atom_site_fract_x
 _atom_site_fract_y
 _atom_site_fract_z
 _atom_site_occupancy
  Mg  Mg0  1  0.33351603  0.00001411  0.45950502  1.0
  Mg  Mg1  1  0.66646566  0.45951891  0.54049679  1.0
  Mg  Mg2  1  0.00001097  0.54043774  0.99999862  1.0
  H  H3  1  0.45146122  0.88421008  0.30799438  1.0
  H  H4  1  0.33141379  0.57601675  0.44999372  1.0
  H  H5  1  0.47372374  0.03495800  0.76010423  1.0
  H  H6  1  0.66486080  0.44998783  0.97400746  1.0
  H  H7  1  0.11792500  0.80777531  0.88420175  1.0
  H  H8  1  0.14723846  0.55159879  0.86955407  1.0
  H  H9  1  0.85941764  0.23988772  0.96510047  1.0
  H  H10  1  0.18606904  0.35893822  0.38460225  1.0
  H  H11  1  0.51925423  0.44840276  0.42120147  1.0
  H  H12  1  0.85286825  0.25647429  0.35890496  1.0
  H  H13  1  0.65337169  0.27922855  0.39090412  1.0
  H  H14  1  0.00415989  0.78368197  0.55390591  1.0
  H  H15  1  0.66288090  0.45254054  0.31079425  1.0
  H  H16  1  0.84422289  0.09064645  0.59149664  1.0
  H  H17  1  0.33744098  0.55402335  0.66233953  1.0
  H  H18  1  0.18613529  0.13038514  0.44836941  1.0
  H  H19  1  0.32919499  0.44605407  0.21632732  1.0
  H  H20  1  0.54853217  0.19220133  0.69200598  1.0
  H  H21  1  0.45990362  0.24980278  0.20224537  1.0
  H  H22  1  0.15576340  0.68214628  0.40849924  1.0
  H  H23  1  0.68012376  0.60914713  0.72079692  1.0
  H  H24  1  0.99641932  0.31072151  0.23671116  1.0
  H  H25  1  0.98643878  0.39085959  0.32997221  1.0
  H  H26  1  0.33515974  0.42398757  0.02600181  1.0
  H  H27  1  0.00359614  0.54743445  0.76328582  1.0
  H  H28  1  0.80718583  0.76008528  0.20493244  1.0
  H  H29  1  0.97442577  0.17215449  0.50926482  1.0
  H  H30  1  0.01355595  0.72083763  0.67003197  1.0
  H  H31  1  0.82251898  0.90943202  0.68201249  1.0
  H  H32  1  0.99583613  0.33757089  0.44610019  1.0
  H  H33  1  0.17746797  0.59143363  0.31800180  1.0
  H  H34  1  0.21572052  0.11587148  0.19209319  1.0
  H  H35  1  0.64104683  0.31864950  0.17214040  1.0
  H  H36  1  0.51095286  0.31791299  0.09063837  1.0
  H  H37  1  0.02557081  0.68142287  0.49073282  1.0
  H  H38  1  0.87357801  0.79784695  0.75016979  1.0
  H  H39  1  0.19282185  0.96501098  0.79506381  1.0
  H  H40  1  0.79324967  0.20224611  0.54800956  1.0
  H  H41  1  0.66857079  0.02600710  0.55000840  1.0
  H  H42  1  0.48074860  0.86960439  0.57878989  1.0
  H  H43  1  0.34662891  0.67014566  0.60908356  1.0
  H  H44  1  0.33712418  0.76333389  0.68919475  1.0
  H  H45  1  0.54010388  0.45205069  0.79775781  1.0
  H  H46  1  0.35896473  0.49078821  0.82786837  1.0
  H  H47  1  0.69241156  0.82788880  0.68134314  1.0
  H  H48  1  0.52627529  0.79506930  0.23989605  1.0
  H  H49  1  0.78426988  0.30796561  0.80790805  1.0
  H  H50  1  0.67081610  0.66238354  0.78367816  1.0
  H  H51  1  0.51943847  0.38462921  0.25646152  1.0
  H  H52  1  0.31987555  0.32993744  0.27920830  1.0
  H  H53  1  0.32954607  0.23666762  0.45253621  1.0
  H  H54  1  0.20674591  0.75026125  0.45198136  1.0
  H  H55  1  0.30757622  0.50922045  0.31867154  1.0
  H  H56  1  0.85276976  0.42115771  0.13044848  1.0
  H  H57  1  0.14057031  0.20498685  0.03489553  1.0
  H  H58  1  0.66255789  0.21635535  0.33765441  1.0
  H  H59  1  0.00166004  0.54993027  0.42409820  1.0
  H  H60  1  0.88210348  0.69198888  0.11579826  1.0
  H  H61  1  0.48056359  0.64108908  0.74354804  1.0
  H  H62  1  0.12641861  0.54800757  0.24984032  1.0
  H  H63  1  0.81386216  0.57875913  0.55162531  1.0
  H  H64  1  0.14712838  0.61539397  0.64108420  1.0
  H  H65  1  0.81392945  0.74354251  0.61539934  1.0
  H  H66  1  0.67045824  0.68920672  0.54746385  1.0
  H  H67  1  0.48906225  0.40854783  0.90936930  1.0
  H  H68  1  0.99830558  0.97403856  0.57590371  1.0
  C  C69  1  0.02379642  0.30765122  0.04645669  1.0
  C  C70  1  0.97620343  0.35411285  0.95354269  1.0
  C  C71  1  0.72675448  0.23107906  0.38313586  1.0
  C  C72  1  0.35707860  0.04646364  0.64586164  1.0
  C  C73  1  0.94006768  0.76896193  0.61414506  1.0
  C  C74  1  0.97353146  0.47951283  0.80730171  1.0
  C  C75  1  0.84993798  0.34460699  0.83290969  1.0
  C  C76  1  0.10759049  0.22744039  0.07992637  1.0
  C  C77  1  0.48878034  0.46780812  0.84562071  1.0
  C  C78  1  0.50662184  0.84375684  0.47372976  1.0
  C  C79  1  0.17314197  0.68249397  0.84375250  1.0
  C  C80  1  0.83956962  0.47369320  0.68254733  1.0
  C  C81  1  0.64037117  0.71314653  0.47955422  1.0
  C  C82  1  0.89239895  0.30736348  0.92007265  1.0
  C  C83  1  0.27324459  0.61422741  0.61685595  1.0
  C  C84  1  0.69297355  0.52045362  0.28684131  1.0
  C  C85  1  0.64836272  0.55830136  0.33663103  1.0
  C  C86  1  0.84458197  0.15440111  0.53223899  1.0
  C  C87  1  0.34929848  0.56526469  0.51616101  1.0
  C  C88  1  0.15005773  0.17751900  0.16708482  1.0
  C  C89  1  0.44294015  0.22416718  0.56817279  1.0
  C  C90  1  0.22363585  0.77581167  0.79234253  1.0
  C  C91  1  0.31723624  0.43475114  0.08141159  1.0
  C  C92  1  0.18351809  0.83283297  0.82251857  1.0
  C  C93  1  0.01622362  0.91861270  0.56516845  1.0
  C  C94  1  0.30703183  0.80729574  0.71314743  1.0
  C  C95  1  0.51123366  0.31342163  0.15438813  1.0
  C  C96  1  0.82222721  0.84567198  0.68654192  1.0
  C  C97  1  0.65069629  0.08142703  0.48383775  1.0
  C  C98  1  0.98373664  0.48376780  0.43483829  1.0
  C  C99  1  0.35963058  0.19270080  0.52044394  1.0
  C  C100  1  0.01819689  0.44167922  0.89491440  1.0
  C  C101  1  0.15541206  0.68664325  0.46775544  1.0
  C  C102  1  0.22586391  0.92000297  0.77258202  1.0
  C  C103  1  0.60667762  0.61689162  0.76895166  1.0
  C  C104  1  0.48301236  0.16713943  0.65537875  1.0
  C  C105  1  0.77637964  0.56816470  0.20765136  1.0
  C  C106  1  0.44072565  0.07997122  0.69259961  1.0
  C  C107  1  0.02646992  0.28681364  0.19270327  1.0
  C  C108  1  0.16042888  0.15624195  0.31745018  1.0
  C  C109  1  0.30958607  0.95351951  0.69232920  1.0
  C  C110  1  0.05992716  0.38309570  0.38586031  1.0
  C  C111  1  0.68490160  0.66335052  0.44170739  1.0
  C  C112  1  0.98179948  0.33659958  0.10507628  1.0
  C  C113  1  0.49338057  0.31748480  0.52627235  1.0
  C  C114  1  0.64291767  0.69232966  0.35413561  1.0
  C  C115  1  0.81650281  0.65536166  0.17748537  1.0
  C  C116  1  0.39333193  0.38583715  0.23105536  1.0
  C  C117  1  0.51698457  0.82252289  0.34461986  1.0
  C  C118  1  0.35163795  0.89492622  0.66336650  1.0
  C  C119  1  0.89005380  0.43179857  0.77586594  1.0
  C  C120  1  0.31509474  0.10505401  0.55829044  1.0
  C  C121  1  0.77414851  0.69259024  0.22741773  1.0
  C  C122  1  0.68277569  0.51615868  0.91859750  1.0
  C  C123  1  0.55926966  0.77257878  0.30739737  1.0
  C  C124  1  0.82687946  0.52625463  0.15624430  1.0
  C  C125  1  0.10994724  0.20766317  0.22413090  1.0
  C  C126  1  0.55705812  0.79234389  0.43182576  1.0
  C  C127  1  0.17775942  0.53220274  0.31347071  1.0
  C  C128  1  0.69042254  0.64585889  0.30766668  1.0
  N  N129  1  0.25772920  0.61743394  0.53387575  1.0
  N  N130  1  0.74225960  0.15130284  0.46611948  1.0
  N  N131  1  0.40886647  0.38262211  0.15128756  1.0
  N  N132  1  0.59114537  0.53391006  0.84871967  1.0
  N  N133  1  0.07540420  0.46606373  0.38267976  1.0
  N  N134  1  0.92458226  0.84874851  0.61732848  1.0
  O  O135  1  0.77148950  0.58785912  0.48879133  1.0
  O  O136  1  0.13158645  0.18939328  0.36610745  1.0
  O  O137  1  0.88341396  0.43172490  0.49131722  1.0
  O  O138  1  0.10488314  0.48876554  0.92330086  1.0
  O  O139  1  0.56167383  0.51121349  0.41211013  1.0
  O  O140  1  0.44953679  0.50875315  0.56820564  1.0
  O  O141  1  0.89512740  0.41206676  0.07669991  1.0
  O  O142  1  0.21691692  0.49122156  0.07693985  1.0
  O  O143  1  0.22850532  0.07665503  0.51120091  1.0
  O  O144  1  0.23074299  0.08342160  0.34348617  1.0
  O  O145  1  0.55044775  0.07695128  0.43179521  1.0
  O  O146  1  0.76925771  0.42690744  0.65650966  1.0
  O  O147  1  0.43832302  0.92332449  0.58787966  1.0
  O  O148  1  0.89710242  0.57304500  0.08337848  1.0
  O  O149  1  0.78310033  0.56816675  0.92306639  1.0
  O  O150  1  0.79818572  0.44443113  0.18945885  1.0
  O  O151  1  0.10294045  0.65642004  0.91662022  1.0
  O  O152  1  0.53530921  0.81057208  0.55555433  1.0
  O  O153  1  0.56355875  0.34353943  0.57307786  1.0
  O  O154  1  0.11654492  0.92305368  0.50868248  1.0
  O  O155  1  0.46470206  0.36612580  0.44444255  1.0
  O  O156  1  0.43641876  0.91661573  0.42692466  1.0
  O  O157  1  0.86841613  0.55550222  0.63388849  1.0
  O  O158  1  0.20182152  0.63388365  0.81053762  1.0
