# generated using pymatgen
data_Zn2H13C27N8Cl
_symmetry_space_group_name_H-M   'P 1'
_cell_length_a   18.52962559
_cell_length_b   18.85876402
_cell_length_c   18.85557216
_cell_angle_alpha   103.16326396
_cell_angle_beta   110.15719652
_cell_angle_gamma   110.14593703
_symmetry_Int_Tables_number   1
_chemical_formula_structural   Zn2H13C27N8Cl
_chemical_formula_sum   'Zn4 H26 C54 N16 Cl2'
_cell_volume   5339.60700361
_cell_formula_units_Z   2
loop_
 _symmetry_equiv_pos_site_id
 _symmetry_equiv_pos_as_xyz
  1  'x, y, z'
loop_
 _atom_site_type_symbol
 _atom_site_label
 _atom_site_symmetry_multiplicity
 _atom_site_fract_x
 _atom_site_fract_y
 _atom_site_fract_z
 _atom_site_occupancy
  Zn  Zn98  1  0.90180762  0.50641891  0.38817847  1.0
  Zn  Zn99  1  0.90178325  0.38811929  0.50640603  1.0
  Zn  Zn100  1  0.11448524  0.48518444  0.59521577  1.0
  Zn  Zn101  1  0.11451861  0.59523279  0.48521482  1.0
  H  H56  1  0.61152555  0.97181513  0.05385269  1.0
  H  H57  1  0.43181307  0.85263385  0.99788696  1.0
  H  H58  1  0.42892030  0.99944212  0.85329908  1.0
  H  H59  1  0.46402653  0.04399859  0.10597995  1.0
  H  H60  1  0.46278620  0.10424811  0.04691950  1.0
  H  H61  1  0.34331885  0.93069476  0.99257271  1.0
  H  H62  1  0.34218681  0.99101716  0.93341041  1.0
  H  H63  1  0.60983188  0.05690615  0.97035248  1.0
  H  H64  1  0.15846213  0.36218662  0.48962010  1.0
  H  H65  1  0.15845350  0.48952790  0.36231607  1.0
  H  H66  1  0.31652477  0.65077703  0.50410441  1.0
  H  H67  1  0.31649458  0.50402830  0.65074240  1.0
  H  H68  1  0.74279310  0.21598816  0.36201579  1.0
  H  H69  1  0.74286414  0.36204125  0.21599293  1.0
  H  H70  1  0.85488693  0.63014902  0.48350240  1.0
  H  H71  1  0.85485715  0.48335160  0.63011782  1.0
  H  H72  1  0.17554788  0.61928299  0.76590042  1.0
  H  H73  1  0.17544283  0.76582270  0.61920742  1.0
  H  H74  1  0.16005575  0.77316457  0.46527227  1.0
  H  H75  1  0.16003924  0.46523096  0.77317347  1.0
  H  H76  1  0.88107922  0.36191845  0.67468056  1.0
  H  H77  1  0.88109425  0.67471442  0.36199212  1.0
  H  H78  1  0.49061715  0.85807097  0.94122028  1.0
  H  H79  1  0.55001302  0.11254678  0.96639698  1.0
  H  H80  1  0.48901697  0.94411237  0.85672403  1.0
  H  H81  1  0.55311006  0.96559117  0.11088574  1.0
  C  C0  1  0.95828704  0.45460333  0.25755814  1.0
  C  C1  1  0.94789354  0.68530169  0.38760543  1.0
  C  C2  1  0.71880415  0.25695218  0.25691520  1.0
  C  C3  1  0.86209560  0.58817135  0.51307803  1.0
  C  C4  1  0.86208124  0.51298012  0.58819175  1.0
  C  C5  1  0.16603686  0.64268500  0.71766272  1.0
  C  C6  1  0.16596969  0.71760733  0.64265717  1.0
  C  C7  1  0.94788499  0.38753714  0.68529889  1.0
  C  C8  1  0.83355751  0.57025117  0.57032495  1.0
  C  C9  1  0.20361235  0.72429969  0.72430387  1.0
  C  C10  1  0.02399737  0.75849858  0.41443830  1.0
  C  C11  1  0.02399822  0.41436951  0.75851438  1.0
  C  C12  1  0.95827759  0.25753048  0.45466332  1.0
  C  C13  1  0.55109879  0.96940433  0.05300621  1.0
  C  C14  1  0.54934467  0.05474852  0.96910614  1.0
  C  C15  1  0.46918462  0.97971672  0.89385328  1.0
  C  C16  1  0.47086796  0.89414410  0.97800044  1.0
  C  C17  1  0.27183185  0.79440592  0.79433789  1.0
  C  C18  1  0.54868804  0.04992253  0.04979431  1.0
  C  C19  1  0.41317028  0.92240278  0.92222950  1.0
  C  C20  1  0.09184613  0.33593841  0.47946547  1.0
  C  C21  1  0.09183412  0.47937971  0.33601808  1.0
  C  C22  1  0.38365973  0.97173843  0.97329584  1.0
  C  C23  1  0.46311488  0.04636190  0.04801162  1.0
  C  C24  1  0.33715797  0.85231207  0.85215774  1.0
  C  C25  1  0.61894004  0.12228355  0.12216328  1.0
  C  C26  1  0.66520738  0.18469261  0.18463371  1.0
  C  C27  1  0.04453144  0.18255695  0.44272406  1.0
  C  C28  1  0.09064696  0.73575053  0.44024425  1.0
  C  C29  1  0.04450505  0.44254276  0.18260372  1.0
  C  C30  1  0.04591253  0.11644245  0.43436870  1.0
  C  C31  1  0.04585832  0.43411444  0.11645771  1.0
  C  C32  1  0.04583662  0.04413766  0.42741299  1.0
  C  C33  1  0.04576017  0.42716518  0.04413629  1.0
  C  C34  1  0.09063377  0.44019880  0.73576536  1.0
  C  C35  1  0.04272500  0.97657266  0.42283873  1.0
  C  C36  1  0.04265131  0.42263726  0.97657305  1.0
  C  C37  1  0.03750909  0.90300889  0.41882266  1.0
  C  C38  1  0.03747495  0.41868560  0.90302000  1.0
  C  C39  1  0.30195740  0.61265021  0.53758435  1.0
  C  C40  1  0.30194447  0.53753905  0.61263947  1.0
  C  C41  1  0.03145574  0.83525994  0.41609638  1.0
  C  C42  1  0.03145591  0.41599705  0.83527337  1.0
  C  C43  1  0.77816183  0.59330939  0.59342367  1.0
  C  C44  1  0.72013307  0.60399072  0.60410091  1.0
  C  C45  1  0.65149864  0.60905262  0.60914417  1.0
  C  C46  1  0.58419454  0.60830763  0.60837434  1.0
  C  C47  1  0.50841080  0.60313426  0.60318564  1.0
  C  C48  1  0.43693324  0.59520004  0.59523046  1.0
  C  C49  1  0.75216823  0.26429826  0.33891010  1.0
  C  C50  1  0.75220362  0.33893521  0.26429099  1.0
  C  C51  1  0.03374682  0.45597644  0.25336428  1.0
  C  C52  1  0.03375363  0.25331389  0.45609059  1.0
  C  C53  1  0.35417341  0.58339058  0.58341326  1.0
  N  N82  1  0.97054693  0.47390806  0.33505503  1.0
  N  N83  1  0.22592726  0.53975070  0.58630909  1.0
  N  N84  1  0.22593823  0.58632057  0.53977737  1.0
  N  N85  1  0.80229321  0.34380038  0.39057581  1.0
  N  N86  1  0.80231297  0.39059553  0.34379549  1.0
  N  N87  1  0.90149681  0.54308516  0.49701879  1.0
  N  N88  1  0.90149547  0.49695927  0.54311394  1.0
  N  N89  1  0.97055438  0.33502538  0.47390920  1.0
  N  N90  1  0.11274547  0.59173114  0.63793606  1.0
  N  N91  1  0.11271621  0.63786863  0.59175409  1.0
  N  N92  1  0.05674549  0.65635982  0.42944245  1.0
  N  N93  1  0.05672842  0.42941753  0.65636759  1.0
  N  N94  1  0.96801133  0.39685225  0.62510217  1.0
  N  N95  1  0.96802385  0.62510059  0.39689488  1.0
  N  N96  1  0.05352001  0.38393147  0.49058762  1.0
  N  N97  1  0.05349720  0.49056055  0.38398864  1.0
  Cl  Cl54  1  0.86654220  0.43826322  0.17865655  1.0
  Cl  Cl55  1  0.86648485  0.17863046  0.43829421  1.0
