# generated using pymatgen
data_Zn4H44C81I6N20O
_symmetry_space_group_name_H-M   'P 1'
_cell_length_a   19.00038600
_cell_length_b   19.55343147
_cell_length_c   20.18702938
_cell_angle_alpha   109.11737945
_cell_angle_beta   104.68191468
_cell_angle_gamma   112.21009818
_symmetry_Int_Tables_number   1
_chemical_formula_structural   Zn4H44C81I6N20O
_chemical_formula_sum   'Zn4 H44 C81 I6 N20 O1'
_cell_volume   5919.07224472
_cell_formula_units_Z   1
loop_
 _symmetry_equiv_pos_site_id
 _symmetry_equiv_pos_as_xyz
  1  'x, y, z'
loop_
 _atom_site_type_symbol
 _atom_site_label
 _atom_site_symmetry_multiplicity
 _atom_site_fract_x
 _atom_site_fract_y
 _atom_site_fract_z
 _atom_site_occupancy
  Zn  Zn0  1  0.10822608  0.10273482  0.49038221  1.0
  Zn  Zn1  1  0.87621378  0.88603781  0.49203399  1.0
  Zn  Zn2  1  0.00119180  0.89674211  0.40708335  1.0
  Zn  Zn3  1  0.99141394  0.09035181  0.58826042  1.0
  H  H4  1  0.18290591  0.12418874  0.35728459  1.0
  H  H5  1  0.80967953  0.68995371  0.46958600  1.0
  H  H6  1  0.13145196  0.86501163  0.51462844  1.0
  H  H7  1  0.14193138  0.11315447  0.72838961  1.0
  H  H8  1  0.98515907  0.84186409  0.60734714  1.0
  H  H9  1  0.27795672  0.13553215  0.61584570  1.0
  H  H10  1  0.10707109  0.28104051  0.73495623  1.0
  H  H11  1  0.99815679  0.71892713  0.38110091  1.0
  H  H12  1  0.03897738  0.65906968  0.47799521  1.0
  H  H13  1  0.76822694  0.52260994  0.38422425  1.0
  H  H14  1  0.69386183  0.37535123  0.36186464  1.0
  H  H15  1  0.71211897  0.85863501  0.53172982  1.0
  H  H16  1  0.69768584  0.25059992  0.35918917  1.0
  H  H17  1  0.05245318  0.32288647  0.48473371  1.0
  H  H18  1  0.12604900  0.46928819  0.51243293  1.0
  H  H19  1  0.12146465  0.59376945  0.51076926  1.0
  H  H20  1  0.25635928  0.86271115  0.55197147  1.0
  H  H21  1  0.39632780  0.13300226  0.68100760  1.0
  H  H22  1  0.55174198  0.20910314  0.74123255  1.0
  H  H23  1  0.75136868  0.13029037  0.69300228  1.0
  H  H24  1  0.89492906  0.89813080  0.25534031  1.0
  H  H25  1  0.61075363  0.85995507  0.56996351  1.0
  H  H26  1  0.46322885  0.78313547  0.54664227  1.0
  H  H27  1  0.33182953  0.78332876  0.54050182  1.0
  H  H28  1  0.47491643  0.57782815  0.84916518  1.0
  H  H29  1  0.37425114  0.43812024  0.73352758  1.0
  H  H30  1  0.62792853  0.76129301  0.23236330  1.0
  H  H31  1  0.28087809  0.56171530  0.92632262  1.0
  H  H32  1  0.50661952  0.67913774  0.10166298  1.0
  H  H33  1  0.85528637  0.12430317  0.49847251  1.0
  H  H34  1  0.17813104  0.42376967  0.80894342  1.0
  H  H35  1  0.23140977  0.10210407  0.82311051  1.0
  H  H36  1  0.27866386  0.11335232  0.95492976  1.0
  H  H37  1  0.14403015  0.05501488  0.08395490  1.0
  H  H38  1  0.11753862  0.06896127  0.20163354  1.0
  H  H39  1  0.03402935  0.84721903  0.73196292  1.0
  H  H40  1  0.08565227  0.85800367  0.86309387  1.0
  H  H41  1  0.72271797  0.87965860  0.36328099  1.0
  H  H42  1  0.86420645  0.12885596  0.66738550  1.0
  H  H43  1  0.04802418  0.85382494  0.25594110  1.0
  H  H44  1  0.26641725  0.30902511  0.61436823  1.0
  H  H45  1  0.96756303  0.19931964  0.31719127  1.0
  H  H46  1  0.99064793  0.11711445  0.28036220  1.0
  H  H47  1  0.06934552  0.22488524  0.31873367  1.0
  C  C48  1  0.14549141  0.05895296  0.34261287  1.0
  C  C49  1  0.75899361  0.99448152  0.61031929  1.0
  C  C50  1  0.78017681  0.88059041  0.27796412  1.0
  C  C51  1  0.93159165  0.17490630  0.43930920  1.0
  C  C52  1  0.21857646  0.28851543  0.63480530  1.0
  C  C53  1  0.85594505  0.70888086  0.44714710  1.0
  C  C54  1  0.15623219  0.93143756  0.53315529  1.0
  C  C55  1  0.09649635  0.04729699  0.68862574  1.0
  C  C56  1  0.01583669  0.90897634  0.62741522  1.0
  C  C57  1  0.23064753  0.06937357  0.58519257  1.0
  C  C58  1  0.13676783  0.27452721  0.69564364  1.0
  C  C59  1  0.75995951  0.92457859  0.56204516  1.0
  C  C60  1  0.95343943  0.72493530  0.40374341  1.0
  C  C61  1  0.21182579  0.33388063  0.70103375  1.0
  C  C62  1  0.90304682  0.67221401  0.42641549  1.0
  C  C63  1  0.23845082  0.99983358  0.58276317  1.0
  C  C64  1  0.08552801  0.97576764  0.69731009  1.0
  C  C65  1  0.98045544  0.60127190  0.45725786  1.0
  C  C66  1  0.90330413  0.59860708  0.42977925  1.0
  C  C67  1  0.82855406  0.52539480  0.40616101  1.0
  C  C68  1  0.82949850  0.45427279  0.40735431  1.0
  C  C69  1  0.90805300  0.45680099  0.43394735  1.0
  C  C70  1  0.86285371  0.89651466  0.29273940  1.0
  C  C71  1  0.98459459  0.53228648  0.46030670  1.0
  C  C72  1  0.75420858  0.37764339  0.38132652  1.0
  C  C73  1  0.75629544  0.30803011  0.37984025  1.0
  C  C74  1  0.83399558  0.30799601  0.40514791  1.0
  C  C75  1  0.91049560  0.38487899  0.43372460  1.0
  C  C76  1  0.99000130  0.38961162  0.46158845  1.0
  C  C77  1  0.06595245  0.46677558  0.49010608  1.0
  C  C78  1  0.06340624  0.53526783  0.48924455  1.0
  C  C79  1  0.83979299  0.23730092  0.40353099  1.0
  C  C80  1  0.91819439  0.24199624  0.43250176  1.0
  C  C81  1  0.90259833  0.12851440  0.47658697  1.0
  C  C82  1  0.99173081  0.31879722  0.46125330  1.0
  C  C83  1  0.31610635  0.92194387  0.58669748  1.0
  C  C84  1  0.31629869  0.99817688  0.61202971  1.0
  C  C85  1  0.39432963  0.07308232  0.65831720  1.0
  C  C86  1  0.47071152  0.07364577  0.67196786  1.0
  C  C87  1  0.46958333  0.99635234  0.63955704  1.0
  C  C88  1  0.39092106  0.91940381  0.59946244  1.0
  C  C89  1  0.55038668  0.15022673  0.71336435  1.0
  C  C90  1  0.62283260  0.14999851  0.71573050  1.0
  C  C91  1  0.62334595  0.07376487  0.67755019  1.0
  C  C92  1  0.77460864  0.88569939  0.34762079  1.0
  C  C93  1  0.54506206  0.99657941  0.64258233  1.0
  C  C94  1  0.54247560  0.91892479  0.60588769  1.0
  C  C95  1  0.46400734  0.84217300  0.57201612  1.0
  C  C96  1  0.39140376  0.84228572  0.56870361  1.0
  C  C97  1  0.69332396  0.07111399  0.66913218  1.0
  C  C98  1  0.68925447  0.99521650  0.62806176  1.0
  C  C99  1  0.61461468  0.91983096  0.59997014  1.0
  C  C100  1  0.26901457  0.41947939  0.76344978  1.0
  C  C101  1  0.24316413  0.45683289  0.81757276  1.0
  C  C102  1  0.29973735  0.53404691  0.88273150  1.0
  C  C103  1  0.99445142  0.15753261  0.42725841  1.0
  C  C104  1  0.38396348  0.57768145  0.89511979  1.0
  C  C105  1  0.40948623  0.54354942  0.83904114  1.0
  C  C106  1  0.35281605  0.46568770  0.77469263  1.0
  C  C107  1  0.64611192  0.82030889  0.06951370  1.0
  C  C108  1  0.71318265  0.86893032  0.14408813  1.0
  C  C109  1  0.57212498  0.74993195  0.05363278  1.0
  C  C110  1  0.70927230  0.84636318  0.20364359  1.0
  C  C111  1  0.63195857  0.77956219  0.18732450  1.0
  C  C112  1  0.56463813  0.73305089  0.11479291  1.0
  C  C113  1  0.15142736  0.97964804  0.21558595  1.0
  C  C114  1  0.83741068  0.06219075  0.63090739  1.0
  C  C115  1  0.18098970  0.92531398  0.18537750  1.0
  C  C116  1  0.19152250  0.91434707  0.11709680  1.0
  C  C117  1  0.17707278  0.96078365  0.08006444  1.0
  C  C118  1  0.15465220  0.01970628  0.11350778  1.0
  C  C119  1  0.14087553  0.02759454  0.17905090  1.0
  C  C120  1  0.22616173  0.05504521  0.90491717  1.0
  C  C121  1  0.19895459  0.04845180  0.83143268  1.0
  C  C122  1  0.18395057  0.98711388  0.91711613  1.0
  C  C123  1  0.12679041  0.97508775  0.76837280  1.0
  C  C124  1  0.08937063  0.90501114  0.78007407  1.0
  C  C125  1  0.07765001  0.92103300  0.29146773  1.0
  C  C126  1  0.11745653  0.91042849  0.85300230  1.0
  C  C127  1  0.12808681  0.98625466  0.28020360  1.0
  C  C128  1  0.01669380  0.18209761  0.32431997  1.0
  I  I129  1  0.72835399  0.12005579  0.35287156  1.0
  I  I130  1  0.73622122  0.26683372  0.77560444  1.0
  I  I131  1  0.81990108  0.97881537  0.16977777  1.0
  I  I132  1  0.64639914  0.84741944  0.97710159  1.0
  I  I133  1  0.23479821  0.83580548  0.06711950  1.0
  I  I134  1  0.21526644  0.86552245  0.24712088  1.0
  N  N135  1  0.10951650  0.03840641  0.38789037  1.0
  N  N136  1  0.87705128  0.77807025  0.43795200  1.0
  N  N137  1  0.10501647  0.95864954  0.50756119  1.0
  N  N138  1  0.03717198  0.02417849  0.62010156  1.0
  N  N139  1  0.98788860  0.93931102  0.58236965  1.0
  N  N140  1  0.15077576  0.04343728  0.53962579  1.0
  N  N141  1  0.10221873  0.20080023  0.63206339  1.0
  N  N142  1  0.93742002  0.78775763  0.41040139  1.0
  N  N143  1  0.43868212  0.64893658  0.96779636  1.0
  N  N144  1  0.51288990  0.69243807  0.97638812  1.0
  N  N145  1  0.17607536  0.94166973  0.00634251  1.0
  N  N146  1  0.83258824  0.94873092  0.55483835  1.0
  N  N147  1  0.20410934  0.00469945  0.99479204  1.0
  N  N148  1  0.90159396  0.90832479  0.36465628  1.0
  N  N149  1  0.94517593  0.08808416  0.48637122  1.0
  N  N150  1  0.84754711  0.90208931  0.39840726  1.0
  N  N151  1  0.00072288  0.10460638  0.45413052  1.0
  N  N152  1  0.88110668  0.03452312  0.59767160  1.0
  N  N153  1  0.06692994  0.95241937  0.35554037  1.0
  N  N154  1  0.15308708  0.20947204  0.59388588  1.0
  O  O155  1  0.05111332  0.19050522  0.40080829  1.0
