# generated using pymatgen
data_Zn2CdH18(C9O4)3
_symmetry_space_group_name_H-M   'P 1'
_cell_length_a   7.35044135
_cell_length_b   18.45995645
_cell_length_c   23.48671394
_cell_angle_alpha   90.00058451
_cell_angle_beta   90.00047680
_cell_angle_gamma   89.99878659
_symmetry_Int_Tables_number   1
_chemical_formula_structural   Zn2CdH18(C9O4)3
_chemical_formula_sum   'Zn8 Cd4 H72 C108 O48'
_cell_volume   3186.88466853
_cell_formula_units_Z   4
loop_
 _symmetry_equiv_pos_site_id
 _symmetry_equiv_pos_as_xyz
  1  'x, y, z'
loop_
 _atom_site_type_symbol
 _atom_site_label
 _atom_site_symmetry_multiplicity
 _atom_site_fract_x
 _atom_site_fract_y
 _atom_site_fract_z
 _atom_site_occupancy
  Zn  Zn0  1  0.83687293  0.55785414  0.91979071  1.0
  Zn  Zn1  1  0.66311860  0.05785475  0.08020997  1.0
  Zn  Zn2  1  0.16313596  0.44214763  0.41978749  1.0
  Zn  Zn3  1  0.33688849  0.94214641  0.58020681  1.0
  Zn  Zn4  1  0.16312350  0.44214543  0.08021296  1.0
  Zn  Zn5  1  0.33687647  0.94214482  0.91978987  1.0
  Zn  Zn6  1  0.83686455  0.55785736  0.58021490  1.0
  Zn  Zn7  1  0.66312291  0.05785912  0.41979047  1.0
  Cd  Cd8  1  0.49999639  0.49999734  0.99999919  1.0
  Cd  Cd9  1  0.99998503  0.00000108  0.99999617  1.0
  Cd  Cd10  1  0.50000910  0.50000331  0.50000077  1.0
  Cd  Cd11  1  0.99999366  0.00000272  0.49999902  1.0
  H  H12  1  0.74707505  0.30406697  0.02426284  1.0
  H  H13  1  0.00526239  0.34842615  0.86375876  1.0
  H  H14  1  0.90609233  0.12794056  0.91459423  1.0
  H  H15  1  0.93144685  0.19087375  0.79795580  1.0
  H  H16  1  0.12220555  0.24922081  0.80535784  1.0
  H  H17  1  0.12797800  0.15968284  0.83333331  1.0
  H  H18  1  0.19902713  0.45966001  0.84208083  1.0
  H  H19  1  0.91033799  0.44025302  0.78788725  1.0
  H  H20  1  0.75292932  0.80406183  0.97574236  1.0
  H  H21  1  0.49474933  0.84843028  0.13624757  1.0
  H  H22  1  0.59389278  0.62794093  0.08540744  1.0
  H  H23  1  0.56854310  0.69087965  0.20204935  1.0
  H  H24  1  0.37778285  0.74922941  0.19464386  1.0
  H  H25  1  0.37201242  0.65969058  0.16666938  1.0
  H  H26  1  0.30095694  0.95964819  0.15791788  1.0
  H  H27  1  0.58964829  0.94023666  0.21211181  1.0
  H  H28  1  0.25292246  0.69592968  0.52426047  1.0
  H  H29  1  0.99474100  0.65157056  0.36375438  1.0
  H  H30  1  0.09389195  0.87205790  0.41459683  1.0
  H  H31  1  0.06855216  0.80912102  0.29795400  1.0
  H  H32  1  0.87779228  0.75077297  0.30535480  1.0
  H  H33  1  0.87201510  0.84031293  0.33333333  1.0
  H  H34  1  0.80099612  0.54033805  0.34207674  1.0
  H  H35  1  0.08966348  0.55975950  0.28787627  1.0
  H  H36  1  0.24708100  0.19593308  0.47573485  1.0
  H  H37  1  0.50526054  0.15157160  0.63623981  1.0
  H  H38  1  0.40610628  0.37206029  0.58540118  1.0
  H  H39  1  0.43144260  0.30912038  0.70204435  1.0
  H  H40  1  0.62220538  0.25077107  0.69463977  1.0
  H  H41  1  0.62797646  0.34030954  0.66666667  1.0
  H  H42  1  0.69904124  0.04033989  0.65791656  1.0
  H  H43  1  0.41034446  0.05974563  0.71211029  1.0
  H  H44  1  0.50760265  0.86383783  0.24999792  1.0
  H  H45  1  0.25292138  0.69593315  0.97573358  1.0
  H  H46  1  0.99475989  0.65157288  0.13624022  1.0
  H  H47  1  0.09389730  0.87206118  0.08540007  1.0
  H  H48  1  0.06856319  0.80912311  0.20204275  1.0
  H  H49  1  0.87779904  0.75077713  0.19463858  1.0
  H  H50  1  0.87203068  0.84031565  0.16666397  1.0
  H  H51  1  0.80094481  0.54035202  0.15791517  1.0
  H  H52  1  0.08965436  0.55975630  0.21210620  1.0
  H  H53  1  0.99237950  0.36385192  0.75000053  1.0
  H  H54  1  0.24708480  0.19593340  0.02426599  1.0
  H  H55  1  0.50523622  0.15156766  0.86375695  1.0
  H  H56  1  0.40610093  0.37205755  0.91459921  1.0
  H  H57  1  0.43142749  0.30911992  0.79795475  1.0
  H  H58  1  0.62219046  0.25077016  0.80535811  1.0
  H  H59  1  0.62796089  0.34030737  0.83333344  1.0
  H  H60  1  0.69902589  0.04033404  0.84207941  1.0
  H  H61  1  0.41034134  0.05974666  0.78788079  1.0
  H  H62  1  0.74709301  0.30407748  0.47573937  1.0
  H  H63  1  0.00526903  0.34843117  0.63624673  1.0
  H  H64  1  0.90610584  0.12794546  0.58540258  1.0
  H  H65  1  0.93144291  0.19087801  0.70204371  1.0
  H  H66  1  0.12220551  0.24922443  0.69464546  1.0
  H  H67  1  0.12798133  0.15968609  0.66666667  1.0
  H  H68  1  0.19901936  0.45965665  0.65791841  1.0
  H  H69  1  0.91033023  0.44025307  0.71211548  1.0
  H  H70  1  0.00761013  0.63615686  0.24999121  1.0
  H  H71  1  0.75292223  0.80407136  0.52426797  1.0
  H  H72  1  0.49474133  0.84843501  0.36376343  1.0
  H  H73  1  0.59389423  0.62794632  0.41459994  1.0
  H  H74  1  0.56855111  0.69088569  0.29795804  1.0
  H  H75  1  0.37778833  0.74923554  0.30536220  1.0
  H  H76  1  0.37201317  0.65969599  0.33333333  1.0
  H  H77  1  0.30096608  0.95964993  0.34208072  1.0
  H  H78  1  0.58965469  0.94023607  0.28788316  1.0
  H  H79  1  0.49239106  0.13614549  0.74999553  1.0
  H  H80  1  0.65765333  0.54435594  0.74999995  1.0
  H  H81  1  0.84233892  0.04435994  0.25000105  1.0
  H  H82  1  0.34234582  0.45564201  0.25000159  1.0
  H  H83  1  0.15767519  0.95564180  0.75000049  1.0
  C  C84  1  0.80866091  0.28459402  0.98502731  1.0
  C  C85  1  0.87511497  0.33395708  0.94477079  1.0
  C  C86  1  0.95416875  0.30883827  0.89424564  1.0
  C  C87  1  0.85077434  0.41312645  0.95542093  1.0
  C  C88  1  0.75093303  0.15631085  0.01486588  1.0
  C  C89  1  0.82255986  0.21049512  0.97424562  1.0
  C  C90  1  0.89982189  0.18599440  0.92297536  1.0
  C  C91  1  0.96544063  0.23470633  0.88237141  1.0
  C  C92  1  0.04147164  0.20745143  0.82694381  1.0
  C  C93  1  0.53654836  0.51807213  0.85602856  1.0
  C  C94  1  0.43885190  0.50249307  0.80148263  1.0
  C  C95  1  0.26504820  0.47110911  0.80137923  1.0
  C  C96  1  0.69134312  0.78459157  0.01497647  1.0
  C  C97  1  0.62489053  0.83395734  0.05523210  1.0
  C  C98  1  0.54584080  0.80884202  0.10575790  1.0
  C  C99  1  0.64922017  0.91312475  0.04458132  1.0
  C  C100  1  0.74905738  0.65630642  0.98513814  1.0
  C  C101  1  0.67743721  0.71049456  0.02575842  1.0
  C  C102  1  0.60017240  0.68599462  0.07702762  1.0
  C  C103  1  0.53455923  0.73470979  0.11763111  1.0
  C  C104  1  0.45851897  0.70745689  0.17306053  1.0
  C  C105  1  0.96343848  0.01807428  0.14397308  1.0
  C  C106  1  0.06113731  0.00249012  0.19851666  1.0
  C  C107  1  0.23493663  0.97110164  0.19862042  1.0
  C  C108  1  0.19133467  0.71540373  0.48502679  1.0
  C  C109  1  0.12488231  0.66604122  0.44477098  1.0
  C  C110  1  0.04582861  0.69115938  0.39424453  1.0
  C  C111  1  0.14922322  0.58687470  0.45541458  1.0
  C  C112  1  0.24905880  0.84368729  0.51486510  1.0
  C  C113  1  0.17743001  0.78950031  0.47424693  1.0
  C  C114  1  0.10016804  0.81400416  0.42297623  1.0
  C  C115  1  0.03455643  0.76529279  0.38237086  1.0
  C  C116  1  0.95852130  0.79254427  0.32694175  1.0
  C  C117  1  0.46348614  0.48192339  0.35602989  1.0
  C  C118  1  0.56117440  0.49750338  0.30148095  1.0
  C  C119  1  0.73497130  0.52889112  0.30137529  1.0
  C  C120  1  0.30866912  0.21540333  0.51496911  1.0
  C  C121  1  0.37511729  0.16604133  0.55522410  1.0
  C  C122  1  0.45416966  0.19115893  0.60575160  1.0
  C  C123  1  0.35078329  0.08687270  0.54457901  1.0
  C  C124  1  0.25094637  0.34369187  0.48513140  1.0
  C  C125  1  0.32257395  0.28950156  0.52574956  1.0
  C  C126  1  0.39983053  0.31400433  0.57701918  1.0
  C  C127  1  0.46543792  0.26528860  0.61762671  1.0
  C  C128  1  0.54147551  0.29254168  0.67305571  1.0
  C  C129  1  0.03657022  0.98192934  0.64397240  1.0
  C  C130  1  0.93886598  0.99750228  0.69851730  1.0
  C  C131  1  0.76505986  0.02888589  0.69862004  1.0
  C  C132  1  0.19134096  0.71540447  0.01496955  1.0
  C  C133  1  0.12489098  0.66604249  0.05522521  1.0
  C  C134  1  0.04584672  0.69116130  0.10575249  1.0
  C  C135  1  0.14922345  0.58687312  0.04457678  1.0
  C  C136  1  0.24906340  0.84369088  0.98513310  1.0
  C  C137  1  0.17744065  0.78950174  0.02575039  1.0
  C  C138  1  0.10017862  0.81400571  0.07702022  1.0
  C  C139  1  0.03457076  0.76529378  0.11762587  1.0
  C  C140  1  0.95853295  0.79254598  0.17305432  1.0
  C  C141  1  0.46342631  0.48193231  0.14397511  1.0
  C  C142  1  0.56114317  0.49751300  0.19851848  1.0
  C  C143  1  0.73493463  0.52889858  0.19861805  1.0
  C  C144  1  0.30866556  0.21540367  0.98502976  1.0
  C  C145  1  0.37510998  0.16604006  0.94477327  1.0
  C  C146  1  0.45415427  0.19115593  0.89424576  1.0
  C  C147  1  0.35076945  0.08687103  0.95541937  1.0
  C  C148  1  0.25094721  0.34368990  0.01486893  1.0
  C  C149  1  0.32257147  0.28950176  0.97424993  1.0
  C  C150  1  0.39982404  0.31400116  0.92297945  1.0
  C  C151  1  0.46543039  0.26528544  0.88237213  1.0
  C  C152  1  0.54146522  0.29254106  0.82694356  1.0
  C  C153  1  0.03655659  0.98191988  0.85602633  1.0
  C  C154  1  0.93885912  0.99749807  0.80148147  1.0
  C  C155  1  0.76505164  0.02888114  0.80137686  1.0
  C  C156  1  0.80867536  0.28460234  0.51497432  1.0
  C  C157  1  0.87512908  0.33396430  0.55523141  1.0
  C  C158  1  0.95417870  0.30884235  0.60575658  1.0
  C  C159  1  0.85078954  0.41313191  0.54458653  1.0
  C  C160  1  0.75093899  0.15631824  0.48513473  1.0
  C  C161  1  0.82257322  0.21050305  0.52575205  1.0
  C  C162  1  0.89983383  0.18599974  0.57702105  1.0
  C  C163  1  0.96544816  0.23471111  0.61762940  1.0
  C  C164  1  0.04147650  0.20745584  0.67305724  1.0
  C  C165  1  0.53654431  0.51807130  0.64397207  1.0
  C  C166  1  0.43884651  0.50249132  0.69851846  1.0
  C  C167  1  0.26504554  0.47110682  0.69862156  1.0
  C  C168  1  0.69133411  0.78460112  0.48503286  1.0
  C  C169  1  0.62488050  0.83396529  0.44477872  1.0
  C  C170  1  0.54582949  0.80884660  0.39425207  1.0
  C  C171  1  0.64921178  0.91313120  0.45542381  1.0
  C  C172  1  0.74906911  0.65631366  0.51486844  1.0
  C  C173  1  0.67743745  0.71050343  0.47425070  1.0
  C  C174  1  0.60017134  0.68600120  0.42298109  1.0
  C  C175  1  0.53455851  0.73471476  0.38237653  1.0
  C  C176  1  0.45852092  0.70746276  0.32694668  1.0
  C  C177  1  0.96344253  0.01806969  0.35602828  1.0
  C  C178  1  0.06113861  0.00248916  0.30148169  1.0
  C  C179  1  0.23494201  0.97110122  0.30137766  1.0
  C  C180  1  0.52435860  0.51892253  0.75000137  1.0
  C  C181  1  0.17543973  0.45584260  0.75000192  1.0
  C  C182  1  0.98705035  0.42353248  0.75000204  1.0
  C  C183  1  0.97562955  0.01892269  0.24999857  1.0
  C  C184  1  0.32454727  0.95583070  0.24999931  1.0
  C  C185  1  0.51293001  0.92351671  0.24999901  1.0
  C  C186  1  0.47564327  0.48107650  0.25000102  1.0
  C  C187  1  0.82455534  0.54416130  0.24999621  1.0
  C  C188  1  0.01294200  0.57647901  0.24999226  1.0
  C  C189  1  0.02437776  0.98107146  0.74999913  1.0
  C  C190  1  0.67544100  0.04415045  0.74999712  1.0
  C  C191  1  0.48705826  0.07646335  0.74999571  1.0
  O  O192  1  0.75605491  0.43151504  0.99803901  1.0
  O  O193  1  0.92546890  0.45765526  0.91982321  1.0
  O  O194  1  0.78260490  0.08822002  0.00439164  1.0
  O  O195  1  0.65558381  0.17123086  0.05845684  1.0
  O  O196  1  0.47201742  0.49289551  0.90200969  1.0
  O  O197  1  0.68395887  0.55542693  0.85172265  1.0
  O  O198  1  0.74393591  0.93151414  0.00196466  1.0
  O  O199  1  0.57451781  0.95765953  0.08017556  1.0
  O  O200  1  0.71737687  0.58821599  0.99561141  1.0
  O  O201  1  0.84441534  0.67122072  0.94154816  1.0
  O  O202  1  0.02796761  0.99290310  0.09799099  1.0
  O  O203  1  0.81602191  0.05542875  0.14827972  1.0
  O  O204  1  0.24394373  0.56848233  0.49803277  1.0
  O  O205  1  0.07453591  0.54234434  0.41981673  1.0
  O  O206  1  0.21734857  0.91177690  0.50439814  1.0
  O  O207  1  0.34443362  0.82877327  0.55845152  1.0
  O  O208  1  0.52803184  0.50710116  0.40201097  1.0
  O  O209  1  0.31607687  0.44456962  0.35172838  1.0
  O  O210  1  0.25605968  0.06848112  0.50196109  1.0
  O  O211  1  0.42548656  0.04234217  0.58017437  1.0
  O  O212  1  0.28265572  0.41178081  0.49560061  1.0
  O  O213  1  0.15557371  0.32877755  0.44154444  1.0
  O  O214  1  0.97203449  0.00710641  0.59799058  1.0
  O  O215  1  0.18398554  0.94457925  0.64827531  1.0
  O  O216  1  0.24394016  0.56848236  0.00195699  1.0
  O  O217  1  0.07452753  0.54234647  0.08017407  1.0
  O  O218  1  0.21735480  0.91178117  0.99560095  1.0
  O  O219  1  0.34443983  0.82877521  0.94154683  1.0
  O  O220  1  0.52794363  0.50710894  0.09799143  1.0
  O  O221  1  0.31601035  0.44458022  0.14828358  1.0
  O  O222  1  0.25605372  0.06848001  0.99803602  1.0
  O  O223  1  0.42546638  0.04234167  0.91982001  1.0
  O  O224  1  0.28264677  0.41177870  0.00439907  1.0
  O  O225  1  0.15557837  0.32877615  0.05845594  1.0
  O  O226  1  0.97202338  0.00709430  0.90200799  1.0
  O  O227  1  0.18398132  0.94457081  0.85171927  1.0
  O  O228  1  0.75607719  0.43152428  0.50196962  1.0
  O  O229  1  0.92548093  0.45766064  0.58018566  1.0
  O  O230  1  0.78263970  0.08822808  0.49560085  1.0
  O  O231  1  0.65556554  0.17123280  0.44154874  1.0
  O  O232  1  0.47202445  0.49289299  0.59799014  1.0
  O  O233  1  0.68395085  0.55543049  0.64827997  1.0
  O  O234  1  0.74392723  0.93152440  0.49804258  1.0
  O  O235  1  0.57451939  0.95766010  0.41982376  1.0
  O  O236  1  0.71735840  0.58822472  0.50440093  1.0
  O  O237  1  0.84444585  0.67122906  0.55845497  1.0
  O  O238  1  0.02797827  0.99289370  0.40201096  1.0
  O  O239  1  0.81603538  0.05542574  0.35172410  1.0
