# generated using pymatgen
data_ZnH24C30(NO2)2
_symmetry_space_group_name_H-M   'P 1'
_cell_length_a   15.45384158
_cell_length_b   21.82474361
_cell_length_c   21.82477373
_cell_angle_alpha   119.99997378
_cell_angle_beta   90.00001804
_cell_angle_gamma   89.99999043
_symmetry_Int_Tables_number   1
_chemical_formula_structural   ZnH24C30(NO2)2
_chemical_formula_sum   'Zn6 H144 C180 N12 O24'
_cell_volume   6374.79322823
_cell_formula_units_Z   6
loop_
 _symmetry_equiv_pos_site_id
 _symmetry_equiv_pos_as_xyz
  1  'x, y, z'
loop_
 _atom_site_type_symbol
 _atom_site_label
 _atom_site_symmetry_multiplicity
 _atom_site_fract_x
 _atom_site_fract_y
 _atom_site_fract_z
 _atom_site_occupancy
  Zn  Zn0  1  0.24790977  0.00257174  0.50017186  1.0
  Zn  Zn1  1  0.24790982  0.49760063  0.99742828  1.0
  Zn  Zn2  1  0.24791036  0.49982695  0.50239937  1.0
  Zn  Zn3  1  0.75209001  0.99742793  0.49982793  1.0
  Zn  Zn4  1  0.75208996  0.50239884  0.00257202  1.0
  Zn  Zn5  1  0.75209007  0.50017317  0.49760040  1.0
  H  H6  1  0.45167200  0.39547596  0.48447263  1.0
  H  H7  1  0.45167206  0.08899682  0.60452453  1.0
  H  H8  1  0.45167208  0.51552797  0.91100346  1.0
  H  H9  1  0.54832778  0.60452370  0.51552714  1.0
  H  H10  1  0.54832837  0.91100291  0.39547630  1.0
  H  H11  1  0.54832835  0.48447261  0.08899632  1.0
  H  H12  1  0.05101519  0.61330156  0.52897095  1.0
  H  H13  1  0.05101577  0.91566999  0.38669885  1.0
  H  H14  1  0.05101576  0.47102886  0.08433033  1.0
  H  H15  1  0.94898394  0.38669882  0.47102935  1.0
  H  H16  1  0.94898466  0.08433040  0.61330146  1.0
  H  H17  1  0.94898402  0.52897081  0.91566946  1.0
  H  H18  1  0.93722721  0.53103753  0.52437706  1.0
  H  H19  1  0.93722779  0.99334017  0.46896260  1.0
  H  H20  1  0.93722840  0.47562289  0.00666022  1.0
  H  H21  1  0.06277257  0.46896259  0.47562272  1.0
  H  H22  1  0.06277264  0.00665995  0.53103717  1.0
  H  H23  1  0.06277203  0.52437723  0.99333955  1.0
  H  H24  1  0.29837891  0.86736948  0.59446609  1.0
  H  H25  1  0.29837818  0.72709614  0.13262990  1.0
  H  H26  1  0.29837890  0.40553433  0.27290421  1.0
  H  H27  1  0.70162087  0.13262972  0.40553368  1.0
  H  H28  1  0.70162095  0.27290352  0.86736987  1.0
  H  H29  1  0.70162088  0.59446606  0.72709609  1.0
  H  H30  1  0.20277662  0.13688320  0.40417654  1.0
  H  H31  1  0.20277670  0.26729422  0.86311762  1.0
  H  H32  1  0.20277728  0.59582307  0.73270585  1.0
  H  H33  1  0.79722381  0.86311711  0.59582270  1.0
  H  H34  1  0.79722308  0.73270571  0.13688269  1.0
  H  H35  1  0.79722314  0.40417705  0.26729392  1.0
  H  H36  1  0.56456560  0.47945333  0.49113798  1.0
  H  H37  1  0.56456566  0.01168466  0.52054667  1.0
  H  H38  1  0.56456636  0.50886112  0.98831548  1.0
  H  H39  1  0.43543418  0.52054633  0.50886180  1.0
  H  H40  1  0.43543347  0.98831527  0.47945364  1.0
  H  H41  1  0.43543407  0.49113835  0.01168482  1.0
  H  H42  1  0.07196657  0.84041828  0.44828771  1.0
  H  H43  1  0.07196589  0.60786915  0.15958107  1.0
  H  H44  1  0.07196659  0.55171179  0.39213081  1.0
  H  H45  1  0.92803321  0.15958092  0.55171206  1.0
  H  H46  1  0.92803389  0.39213077  0.84041923  1.0
  H  H47  1  0.92803319  0.44828787  0.60786896  1.0
  H  H48  1  0.85096578  0.71961424  0.47688495  1.0
  H  H49  1  0.85096638  0.75727177  0.28038656  1.0
  H  H50  1  0.85096640  0.52311485  0.24272888  1.0
  H  H51  1  0.14903400  0.28038561  0.52311429  1.0
  H  H52  1  0.14903405  0.24272835  0.71961321  1.0
  H  H53  1  0.14903403  0.47688508  0.75727143  1.0
  H  H54  1  0.96459059  0.74938912  0.43261863  1.0
  H  H55  1  0.96458991  0.68322955  0.25061006  1.0
  H  H56  1  0.96459058  0.56738074  0.31677068  1.0
  H  H57  1  0.03540919  0.25061008  0.56738115  1.0
  H  H58  1  0.03540923  0.31677057  0.74938971  1.0
  H  H59  1  0.03540920  0.43261892  0.68322909  1.0
  H  H60  1  0.38151274  0.30592734  0.43796985  1.0
  H  H61  1  0.38151282  0.13204259  0.69407358  1.0
  H  H62  1  0.38151281  0.56203082  0.86795717  1.0
  H  H63  1  0.61848704  0.69407305  0.56203046  1.0
  H  H64  1  0.61848696  0.86795760  0.30592725  1.0
  H  H65  1  0.61848697  0.43796930  0.13204261  1.0
  H  H66  1  0.27426693  0.21901957  0.42612642  1.0
  H  H67  1  0.27426701  0.20710766  0.78098095  1.0
  H  H68  1  0.27426632  0.57387254  0.79289214  1.0
  H  H69  1  0.72573350  0.78097983  0.57387283  1.0
  H  H70  1  0.72573472  0.79289345  0.21901989  1.0
  H  H71  1  0.72573411  0.42612686  0.20710710  1.0
  H  H72  1  0.65965784  0.26805115  0.49640280  1.0
  H  H73  1  0.65965790  0.22835223  0.73194925  1.0
  H  H74  1  0.65965788  0.50359757  0.77164812  1.0
  H  H75  1  0.34034194  0.73194897  0.50359697  1.0
  H  H76  1  0.34034188  0.77164835  0.26805053  1.0
  H  H77  1  0.34034255  0.49640164  0.22835166  1.0
  H  H78  1  0.01823351  0.04903814  0.39386108  1.0
  H  H79  1  0.01823296  0.34482251  0.95096144  1.0
  H  H80  1  0.01823351  0.60613847  0.65517743  1.0
  H  H81  1  0.98176756  0.95096107  0.60613870  1.0
  H  H82  1  0.98176618  0.65517715  0.04903833  1.0
  H  H83  1  0.98176692  0.39386119  0.34482235  1.0
  H  H84  1  0.07667593  0.08799220  0.35153964  1.0
  H  H85  1  0.07667668  0.26354762  0.91200809  1.0
  H  H86  1  0.07667659  0.64846022  0.73645225  1.0
  H  H87  1  0.92332321  0.91200765  0.64845960  1.0
  H  H88  1  0.92332310  0.73645205  0.08799169  1.0
  H  H89  1  0.92332319  0.35153990  0.26354753  1.0
  H  H90  1  0.07367937  0.99404028  0.31392106  1.0
  H  H91  1  0.07367938  0.31988066  0.00595961  1.0
  H  H92  1  0.07367948  0.68607902  0.68011948  1.0
  H  H93  1  0.92632041  0.00595939  0.68607873  1.0
  H  H94  1  0.92632040  0.68011901  0.99404018  1.0
  H  H95  1  0.92632030  0.31392110  0.31988030  1.0
  H  H96  1  0.10190610  0.71861811  0.58746846  1.0
  H  H97  1  0.10190666  0.86885018  0.28138169  1.0
  H  H98  1  0.10190668  0.41253166  0.13114999  1.0
  H  H99  1  0.89809368  0.28138182  0.41253185  1.0
  H  H100  1  0.89809441  0.13114948  0.71861808  1.0
  H  H101  1  0.89809375  0.58746800  0.86884978  1.0
  H  H102  1  0.74752937  0.62840504  0.47016987  1.0
  H  H103  1  0.74752997  0.84176506  0.37159533  1.0
  H  H104  1  0.74752996  0.52983003  0.15823463  1.0
  H  H105  1  0.25247041  0.37159508  0.52982991  1.0
  H  H106  1  0.25247046  0.15823480  0.62840392  1.0
  H  H107  1  0.25247047  0.47017035  0.84176567  1.0
  H  H108  1  0.20660433  0.80950938  0.60323394  1.0
  H  H109  1  0.20660359  0.79372489  0.19049038  1.0
  H  H110  1  0.20660429  0.39676587  0.20627532  1.0
  H  H111  1  0.79339545  0.19049074  0.39676583  1.0
  H  H112  1  0.79339619  0.20627478  0.80950941  1.0
  H  H113  1  0.79339614  0.60323451  0.79372497  1.0
  H  H114  1  0.56277191  0.22029975  0.52682952  1.0
  H  H115  1  0.56277131  0.30652979  0.77970010  1.0
  H  H116  1  0.56277127  0.47317049  0.69347052  1.0
  H  H117  1  0.43722852  0.77969992  0.47317027  1.0
  H  H118  1  0.43722912  0.69347059  0.22030020  1.0
  H  H119  1  0.43722916  0.52682917  0.30652925  1.0
  H  H120  1  0.45301992  0.13285201  0.51445965  1.0
  H  H121  1  0.45302062  0.38160772  0.86714819  1.0
  H  H122  1  0.45301990  0.48554057  0.61839279  1.0
  H  H123  1  0.54698051  0.86714792  0.48554066  1.0
  H  H124  1  0.54698046  0.61839267  0.13285212  1.0
  H  H125  1  0.54698052  0.51445955  0.38160698  1.0
  H  H126  1  0.47390808  0.97923445  0.62665840  1.0
  H  H127  1  0.47390734  0.64742293  0.02076542  1.0
  H  H128  1  0.47390744  0.37334119  0.35257645  1.0
  H  H129  1  0.52609170  0.02076476  0.37334139  1.0
  H  H130  1  0.52609244  0.35257700  0.97923489  1.0
  H  H131  1  0.52609234  0.62665900  0.64742439  1.0
  H  H132  1  0.42235263  0.92052811  0.65006477  1.0
  H  H133  1  0.42235252  0.72953621  0.07947136  1.0
  H  H134  1  0.42235196  0.34993490  0.27046358  1.0
  H  H135  1  0.57764716  0.07947109  0.34993500  1.0
  H  H136  1  0.57764726  0.27046417  0.92052894  1.0
  H  H137  1  0.57764717  0.65006503  0.72953673  1.0
  H  H138  1  0.40190712  0.01340309  0.69927440  1.0
  H  H139  1  0.40190646  0.68587067  0.98659705  1.0
  H  H140  1  0.40190635  0.30072536  0.31412863  1.0
  H  H141  1  0.59809331  0.98659658  0.30072538  1.0
  H  H142  1  0.59809268  0.31412880  0.01340325  1.0
  H  H143  1  0.59809343  0.69927457  0.68587168  1.0
  H  H144  1  0.76177095  0.36058262  0.50638282  1.0
  H  H145  1  0.76177101  0.14580079  0.63941725  1.0
  H  H146  1  0.76177166  0.49361681  0.85419959  1.0
  H  H147  1  0.23822883  0.63941731  0.49361749  1.0
  H  H148  1  0.23822877  0.85419907  0.36058200  1.0
  H  H149  1  0.23822941  0.50638312  0.14580071  1.0
  C  C150  1  0.51948362  0.38447157  0.48900895  1.0
  C  C151  1  0.51948303  0.10453810  0.61552989  1.0
  C  C152  1  0.51948369  0.51099226  0.89546233  1.0
  C  C153  1  0.48051616  0.61552882  0.51099136  1.0
  C  C154  1  0.48051610  0.89546182  0.38447041  1.0
  C  C155  1  0.48051673  0.48900831  0.10453743  1.0
  C  C156  1  0.20613581  0.88978611  0.53517076  1.0
  C  C157  1  0.20613510  0.64538442  0.11021338  1.0
  C  C158  1  0.20613647  0.46482915  0.35461550  1.0
  C  C159  1  0.79386332  0.11021355  0.46482901  1.0
  C  C160  1  0.79386403  0.35461478  0.88978639  1.0
  C  C161  1  0.79386331  0.53517051  0.64538427  1.0
  C  C162  1  0.98464259  0.62007474  0.51625732  1.0
  C  C163  1  0.98464253  0.89618282  0.37992569  1.0
  C  C164  1  0.98464316  0.48374283  0.10381741  1.0
  C  C165  1  0.01535719  0.37992492  0.48374245  1.0
  C  C166  1  0.01535725  0.10381710  0.62007461  1.0
  C  C167  1  0.01535726  0.51625683  0.89618236  1.0
  C  C168  1  0.29387049  0.11330705  0.46331369  1.0
  C  C169  1  0.29387055  0.35000755  0.88669335  1.0
  C  C170  1  0.29387048  0.53668472  0.64999249  1.0
  C  C171  1  0.70613059  0.88669235  0.53668556  1.0
  C  C172  1  0.70612923  0.64999310  0.11330748  1.0
  C  C173  1  0.70612995  0.46331449  0.35000729  1.0
  C  C174  1  0.35602784  0.16874567  0.46924308  1.0
  C  C175  1  0.35602855  0.30049815  0.83125447  1.0
  C  C176  1  0.35602785  0.53075595  0.69950199  1.0
  C  C177  1  0.64397194  0.83125373  0.53075617  1.0
  C  C178  1  0.64397187  0.69950270  0.16874584  1.0
  C  C179  1  0.64397193  0.46924344  0.30049725  1.0
  C  C180  1  0.96094686  0.67470087  0.50323461  1.0
  C  C181  1  0.96094680  0.82853383  0.32529946  1.0
  C  C182  1  0.96094745  0.49676569  0.17146635  1.0
  C  C183  1  0.03905292  0.32529860  0.49676570  1.0
  C  C184  1  0.03905298  0.17146655  0.67470084  1.0
  C  C185  1  0.03905298  0.50323397  0.82853342  1.0
  C  C186  1  0.92198051  0.57312459  0.51305957  1.0
  C  C187  1  0.92198045  0.93993546  0.42687605  1.0
  C  C188  1  0.92198107  0.48694081  0.06006480  1.0
  C  C189  1  0.07801927  0.42687554  0.48694022  1.0
  C  C190  1  0.07801933  0.06006421  0.57312373  1.0
  C  C191  1  0.07801872  0.51305957  0.93993550  1.0
  C  C192  1  0.54523515  0.32306919  0.48985652  1.0
  C  C193  1  0.54523392  0.16678724  0.67693096  1.0
  C  C194  1  0.54523456  0.51014432  0.83321318  1.0
  C  C195  1  0.45476463  0.67693093  0.51014326  1.0
  C  C196  1  0.45476651  0.83321216  0.32306829  1.0
  C  C197  1  0.45476587  0.48985607  0.16678713  1.0
  C  C198  1  0.14722943  0.83119704  0.52594257  1.0
  C  C199  1  0.14722807  0.69474588  0.16880293  1.0
  C  C200  1  0.14722942  0.47405703  0.30525466  1.0
  C  C201  1  0.85277035  0.16880262  0.47405721  1.0
  C  C202  1  0.85277106  0.30525405  0.83119738  1.0
  C  C203  1  0.85277036  0.52594263  0.69474511  1.0
  C  C204  1  0.28262166  0.90338008  0.57528439  1.0
  C  C205  1  0.28262029  0.67190440  0.09661981  1.0
  C  C206  1  0.28262231  0.42471639  0.32809601  1.0
  C  C207  1  0.71737877  0.09661959  0.42471540  1.0
  C  C208  1  0.71737885  0.32809507  0.90338050  1.0
  C  C209  1  0.71737812  0.57528373  0.67190376  1.0
  C  C210  1  0.21632924  0.10177802  0.42485660  1.0
  C  C211  1  0.21632997  0.32307967  0.89822300  1.0
  C  C212  1  0.21632989  0.57514261  0.67692095  1.0
  C  C213  1  0.78367119  0.89822203  0.57514212  1.0
  C  C214  1  0.78367046  0.67692072  0.10177731  1.0
  C  C215  1  0.78367054  0.42485705  0.32307882  1.0
  C  C216  1  0.15590867  0.04643389  0.40578545  1.0
  C  C217  1  0.15590940  0.35935157  0.95356612  1.0
  C  C218  1  0.15590866  0.59421340  0.64064791  1.0
  C  C219  1  0.84409111  0.95356551  0.59421380  1.0
  C  C220  1  0.84409103  0.64064764  0.04643367  1.0
  C  C221  1  0.84409112  0.40578600  0.35935133  1.0
  C  C222  1  0.58172057  0.43206496  0.49308815  1.0
  C  C223  1  0.58171998  0.06102390  0.56793565  1.0
  C  C224  1  0.58172001  0.50691162  0.93897634  1.0
  C  C225  1  0.41827921  0.56793516  0.50691163  1.0
  C  C226  1  0.41827851  0.93897649  0.43206466  1.0
  C  C227  1  0.41827912  0.49308876  0.06102396  1.0
  C  C228  1  0.33915582  0.96178811  0.59782947  1.0
  C  C229  1  0.33915444  0.63604140  0.03821174  1.0
  C  C230  1  0.33915583  0.40217045  0.36395902  1.0
  C  C231  1  0.66084461  0.03821156  0.40217032  1.0
  C  C232  1  0.66084534  0.36395899  0.96178856  1.0
  C  C233  1  0.66084395  0.59782948  0.63604128  1.0
  C  C234  1  0.02499770  0.72733879  0.50928717  1.0
  C  C235  1  0.02499764  0.78194814  0.27266088  1.0
  C  C236  1  0.02499831  0.49071276  0.21805154  1.0
  C  C237  1  0.97500144  0.27266114  0.49071313  1.0
  C  C238  1  0.97500279  0.21805171  0.72733836  1.0
  C  C239  1  0.97500212  0.50928664  0.78194771  1.0
  C  C240  1  0.48105823  0.27013729  0.48314622  1.0
  C  C241  1  0.48105830  0.21300932  0.72986307  1.0
  C  C242  1  0.48105827  0.51685414  0.78699135  1.0
  C  C243  1  0.51894219  0.72986238  0.51685357  1.0
  C  C244  1  0.51894149  0.78699106  0.27013723  1.0
  C  C245  1  0.51894280  0.48314624  0.21300895  1.0
  C  C246  1  0.07785120  0.81306131  0.47829594  1.0
  C  C247  1  0.07784986  0.66523433  0.18693811  1.0
  C  C248  1  0.07785056  0.52170386  0.33476609  1.0
  C  C249  1  0.92214858  0.18693862  0.52170437  1.0
  C  C250  1  0.92214992  0.33476534  0.81306167  1.0
  C  C251  1  0.92214922  0.47829607  0.66523422  1.0
  C  C252  1  0.87391283  0.67761387  0.48601154  1.0
  C  C253  1  0.87391278  0.80839783  0.32238688  1.0
  C  C254  1  0.87391343  0.51398870  0.19160199  1.0
  C  C255  1  0.12608695  0.32238606  0.51398877  1.0
  C  C256  1  0.12608700  0.19160210  0.67761343  1.0
  C  C257  1  0.12608700  0.48601142  0.80839779  1.0
  C  C258  1  0.01757882  0.76235674  0.47020474  1.0
  C  C259  1  0.01757812  0.70784828  0.23764279  1.0
  C  C260  1  0.01757880  0.52979467  0.29215206  1.0
  C  C261  1  0.98242097  0.23764292  0.52979504  1.0
  C  C262  1  0.98242166  0.29215184  0.76235698  1.0
  C  C263  1  0.98242162  0.47020454  0.70784772  1.0
  C  C264  1  0.39837717  0.26827021  0.45508921  1.0
  C  C265  1  0.39837724  0.18681954  0.73173017  1.0
  C  C266  1  0.39837786  0.54491074  0.81318070  1.0
  C  C267  1  0.60162197  0.73172964  0.54491003  1.0
  C  C268  1  0.60162254  0.81318085  0.26827014  1.0
  C  C269  1  0.60162257  0.45508938  0.18681908  1.0
  C  C270  1  0.33733410  0.21842722  0.44810167  1.0
  C  C271  1  0.33733417  0.22967473  0.78157299  1.0
  C  C272  1  0.33733413  0.55189762  0.77032539  1.0
  C  C273  1  0.66266633  0.78157199  0.55189811  1.0
  C  C274  1  0.66266561  0.77032664  0.21842837  1.0
  C  C275  1  0.66266630  0.44810204  0.22967438  1.0
  C  C276  1  0.63446410  0.31467523  0.49638800  1.0
  C  C277  1  0.63446351  0.18171261  0.68532532  1.0
  C  C278  1  0.63446415  0.50361318  0.81828790  1.0
  C  C279  1  0.36553568  0.68532444  0.50361178  1.0
  C  C280  1  0.36553562  0.81828751  0.31467445  1.0
  C  C281  1  0.36553628  0.49638720  0.18171240  1.0
  C  C282  1  0.07707195  0.04494570  0.36367826  1.0
  C  C283  1  0.07707270  0.31873211  0.95505439  1.0
  C  C284  1  0.07707260  0.63632177  0.68126733  1.0
  C  C285  1  0.92292783  0.95505396  0.63632152  1.0
  C  C286  1  0.92292644  0.68126710  0.04494539  1.0
  C  C287  1  0.92292783  0.36367809  0.31873192  1.0
  C  C288  1  0.09523008  0.74460251  0.55611532  1.0
  C  C289  1  0.09523000  0.81151306  0.25539762  1.0
  C  C290  1  0.09523003  0.44388484  0.18848720  1.0
  C  C291  1  0.90477035  0.25539742  0.44388498  1.0
  C  C292  1  0.90477042  0.18848634  0.74460163  1.0
  C  C293  1  0.90477039  0.55611528  0.81151258  1.0
  C  C294  1  0.81560565  0.62767696  0.48308730  1.0
  C  C295  1  0.81560625  0.85541059  0.37232388  1.0
  C  C296  1  0.81560559  0.51691304  0.14458866  1.0
  C  C297  1  0.18439413  0.37232316  0.51691247  1.0
  C  C298  1  0.18439418  0.14458954  0.62767590  1.0
  C  C299  1  0.18439354  0.48308708  0.85541112  1.0
  C  C300  1  0.15490068  0.79589405  0.56462079  1.0
  C  C301  1  0.15489995  0.76872616  0.20410512  1.0
  C  C302  1  0.15490064  0.43537928  0.23127425  1.0
  C  C303  1  0.84509911  0.20410542  0.43537952  1.0
  C  C304  1  0.84510048  0.23127324  0.79589413  1.0
  C  C305  1  0.84509978  0.56462065  0.76872606  1.0
  C  C306  1  0.49986392  0.22024925  0.50413948  1.0
  C  C307  1  0.49986333  0.28389028  0.77975035  1.0
  C  C308  1  0.49986394  0.49586050  0.71611028  1.0
  C  C309  1  0.50013650  0.77975087  0.49586030  1.0
  C  C310  1  0.50013645  0.71611083  0.22025048  1.0
  C  C311  1  0.50013649  0.50413989  0.28389003  1.0
  C  C312  1  0.43841707  0.17088911  0.49750642  1.0
  C  C313  1  0.43841777  0.32661785  0.82911066  1.0
  C  C314  1  0.43841772  0.50249281  0.67338249  1.0
  C  C315  1  0.56158271  0.82911029  0.50249283  1.0
  C  C316  1  0.56158265  0.67338372  0.17089018  1.0
  C  C317  1  0.56158271  0.49750686  0.32661729  1.0
  C  C318  1  0.41359493  0.96818946  0.64596179  1.0
  C  C319  1  0.41359482  0.67777159  0.03180992  1.0
  C  C320  1  0.41359493  0.35403772  0.32222802  1.0
  C  C321  1  0.58640485  0.03181020  0.35403799  1.0
  C  C322  1  0.58640496  0.32222853  0.96818986  1.0
  C  C323  1  0.58640485  0.64596293  0.67777282  1.0
  C  C324  1  0.69229761  0.36573723  0.50130949  1.0
  C  C325  1  0.69229702  0.13557297  0.63426350  1.0
  C  C326  1  0.69229768  0.49869055  0.86442771  1.0
  C  C327  1  0.30770217  0.63426316  0.49869082  1.0
  C  C328  1  0.30770276  0.86442761  0.36573627  1.0
  C  C329  1  0.30770340  0.50130937  0.13557259  1.0
  N  N330  1  0.66666667  0.42345246  0.49920271  1.0
  N  N331  1  0.66666667  0.07574989  0.57654798  1.0
  N  N332  1  0.66666667  0.50079722  0.92424947  1.0
  N  N333  1  0.33326863  0.57654793  0.50079760  1.0
  N  N334  1  0.33326922  0.92425023  0.42345179  1.0
  N  N335  1  0.33326920  0.49920244  0.07575030  1.0
  N  N336  1  0.83886848  0.57649073  0.49685549  1.0
  N  N337  1  0.83886843  0.92036542  0.42351004  1.0
  N  N338  1  0.83886905  0.50314471  0.07963485  1.0
  N  N339  1  0.16113194  0.42350893  0.50314428  1.0
  N  N340  1  0.16113135  0.07963497  0.57649027  1.0
  N  N341  1  0.16113138  0.49685495  0.92036492  1.0
  O  O342  1  0.17972101  0.92419076  0.50547627  1.0
  O  O343  1  0.17972031  0.58128521  0.07580851  1.0
  O  O344  1  0.17972104  0.49452299  0.41871433  1.0
  O  O345  1  0.82027877  0.07580871  0.49452403  1.0
  O  O346  1  0.82027947  0.41871373  0.92419074  1.0
  O  O347  1  0.82027874  0.50547713  0.58128545  1.0
  O  O348  1  0.31829226  0.07948674  0.49421076  1.0
  O  O349  1  0.31829296  0.41472507  0.92051307  1.0
  O  O350  1  0.31829287  0.50578678  0.58527517  1.0
  O  O351  1  0.68170688  0.92051285  0.50578796  1.0
  O  O352  1  0.68170617  0.58527531  0.07948723  1.0
  O  O353  1  0.68170691  0.49421197  0.41472461  1.0
  O  O354  1  0.33235481  0.01111617  0.58273868  1.0
  O  O355  1  0.33235354  0.57162295  0.98888370  1.0
  O  O356  1  0.33235473  0.41726019  0.42837715  1.0
  O  O357  1  0.66764497  0.98888304  0.41726110  1.0
  O  O358  1  0.66764624  0.42837698  0.01111661  1.0
  O  O359  1  0.66764505  0.58274019  0.57162315  1.0
  O  O360  1  0.16162840  0.99652695  0.42013818  1.0
  O  O361  1  0.16162902  0.42361157  0.00347350  1.0
  O  O362  1  0.16162848  0.57986144  0.57638850  1.0
  O  O363  1  0.83837203  0.00347363  0.57986160  1.0
  O  O364  1  0.83837076  0.57638855  0.99652628  1.0
  O  O365  1  0.83837130  0.42013895  0.42361181  1.0
