# generated using pymatgen
data_Zn4H30C48O13
_symmetry_space_group_name_H-M   'P 1'
_cell_length_a   19.69689444
_cell_length_b   24.13057275
_cell_length_c   30.84321987
_cell_angle_alpha   89.99979253
_cell_angle_beta   89.99976817
_cell_angle_gamma   89.99967292
_symmetry_Int_Tables_number   1
_chemical_formula_structural   Zn4H30C48O13
_chemical_formula_sum   'Zn16 H120 C192 O52'
_cell_volume   14659.70049137
_cell_formula_units_Z   4
loop_
 _symmetry_equiv_pos_site_id
 _symmetry_equiv_pos_as_xyz
  1  'x, y, z'
loop_
 _atom_site_type_symbol
 _atom_site_label
 _atom_site_symmetry_multiplicity
 _atom_site_fract_x
 _atom_site_fract_y
 _atom_site_fract_z
 _atom_site_occupancy
  Zn  Zn0  1  0.30345386  0.06741892  0.10736735  1.0
  Zn  Zn1  1  0.69654735  0.06742077  0.89263149  1.0
  Zn  Zn2  1  0.80345638  0.43258332  0.39263212  1.0
  Zn  Zn3  1  0.19654632  0.43258051  0.60736600  1.0
  Zn  Zn4  1  0.69654380  0.93258423  0.89263123  1.0
  Zn  Zn5  1  0.30345234  0.93258280  0.10736839  1.0
  Zn  Zn6  1  0.19654280  0.56741817  0.60736937  1.0
  Zn  Zn7  1  0.80345540  0.56742264  0.39262999  1.0
  Zn  Zn8  1  0.18587988  0.00000275  0.05826119  1.0
  Zn  Zn9  1  0.81411520  0.00000134  0.94174044  1.0
  Zn  Zn10  1  0.68588669  0.50000335  0.44174119  1.0
  Zn  Zn11  1  0.31411756  0.50000021  0.55826258  1.0
  Zn  Zn12  1  0.18786211  0.00000044  0.15907848  1.0
  Zn  Zn13  1  0.81213349  0.00000034  0.84092218  1.0
  Zn  Zn14  1  0.68787057  0.50000151  0.34092357  1.0
  Zn  Zn15  1  0.31213622  0.49999999  0.65907825  1.0
  H  H16  1  0.33937262  0.18387050  0.00840957  1.0
  H  H17  1  0.66062929  0.18387496  0.99158991  1.0
  H  H18  1  0.83937331  0.31613613  0.49159078  1.0
  H  H19  1  0.16063174  0.31613476  0.50840573  1.0
  H  H20  1  0.66062148  0.81613803  0.99159160  1.0
  H  H21  1  0.33937649  0.81613647  0.00840835  1.0
  H  H22  1  0.16061826  0.68386578  0.50841039  1.0
  H  H23  1  0.83937709  0.68387129  0.49159091  1.0
  H  H24  1  0.34711483  0.24565137  0.94379496  1.0
  H  H25  1  0.65288970  0.24565436  0.05620468  1.0
  H  H26  1  0.84711312  0.25435169  0.55620312  1.0
  H  H27  1  0.15289084  0.25435148  0.44379390  1.0
  H  H28  1  0.65288385  0.75435136  0.05620362  1.0
  H  H29  1  0.34711456  0.75435169  0.94379585  1.0
  H  H30  1  0.15288200  0.74564732  0.44379481  1.0
  H  H31  1  0.84711494  0.74565126  0.55620631  1.0
  H  H32  1  0.17093370  0.16521246  0.88900627  1.0
  H  H33  1  0.82907291  0.16521396  0.11099067  1.0
  H  H34  1  0.67093311  0.33478852  0.61099323  1.0
  H  H35  1  0.32907180  0.33478609  0.38900517  1.0
  H  H36  1  0.82906446  0.83478821  0.11099328  1.0
  H  H37  1  0.17093185  0.83479126  0.88900758  1.0
  H  H38  1  0.32906911  0.66521422  0.38901248  1.0
  H  H39  1  0.67093144  0.66521167  0.61098919  1.0
  H  H40  1  0.16451037  0.10432981  0.95297310  1.0
  H  H41  1  0.83549312  0.10433158  0.04702434  1.0
  H  H42  1  0.66451229  0.39567534  0.54702901  1.0
  H  H43  1  0.33549321  0.39567135  0.45296857  1.0
  H  H44  1  0.83548374  0.89567707  0.04703034  1.0
  H  H45  1  0.16451215  0.89567820  0.95297197  1.0
  H  H46  1  0.33549044  0.60432698  0.45297573  1.0
  H  H47  1  0.66450953  0.60433015  0.54702223  1.0
  H  H48  1  0.30910030  0.27682369  0.87739139  1.0
  H  H49  1  0.69090299  0.27682371  0.12260653  1.0
  H  H50  1  0.80909687  0.22317499  0.62260614  1.0
  H  H51  1  0.19090679  0.22317657  0.37739356  1.0
  H  H52  1  0.69090446  0.72317490  0.12260622  1.0
  H  H53  1  0.30909721  0.72317613  0.87739334  1.0
  H  H54  1  0.19090180  0.77682194  0.37739407  1.0
  H  H55  1  0.80909746  0.77682327  0.62260664  1.0
  H  H56  1  0.97366051  0.99999298  0.03977785  1.0
  H  H57  1  0.02633871  0.99999679  0.96022805  1.0
  H  H58  1  0.47366079  0.49999800  0.46022786  1.0
  H  H59  1  0.52633737  0.49999396  0.53977720  1.0
  H  H60  1  0.84811380  0.99999451  0.04158976  1.0
  H  H61  1  0.15188541  0.99999982  0.95841323  1.0
  H  H62  1  0.34811512  0.49999581  0.45841401  1.0
  H  H63  1  0.65188406  0.49999740  0.54158684  1.0
  H  H64  1  0.85387518  0.99999045  0.18149765  1.0
  H  H65  1  0.14611032  0.99999560  0.81850437  1.0
  H  H66  1  0.35388957  0.49998948  0.31850611  1.0
  H  H67  1  0.64612332  0.49999170  0.68149572  1.0
  H  H68  1  0.98044286  0.99998726  0.17905449  1.0
  H  H69  1  0.01954011  0.99999174  0.82095239  1.0
  H  H70  1  0.48045824  0.49998836  0.32095413  1.0
  H  H71  1  0.51955464  0.49998247  0.67905158  1.0
  H  H72  1  0.75003506  0.99999739  0.14938311  1.0
  H  H73  1  0.24995295  0.00000079  0.85061645  1.0
  H  H74  1  0.25004518  0.49999794  0.35061865  1.0
  H  H75  1  0.74995705  0.49999775  0.64938285  1.0
  H  H76  1  0.32808293  0.39593546  0.76374936  1.0
  H  H77  1  0.67191546  0.39593587  0.23625179  1.0
  H  H78  1  0.82808571  0.10406645  0.73624552  1.0
  H  H79  1  0.17191981  0.10406201  0.26375322  1.0
  H  H80  1  0.67191929  0.60406686  0.23624598  1.0
  H  H81  1  0.32807865  0.60406521  0.76375522  1.0
  H  H82  1  0.17191651  0.89593422  0.26375112  1.0
  H  H83  1  0.82808242  0.89593576  0.73624763  1.0
  H  H84  1  0.32071834  0.33358911  0.82715302  1.0
  H  H85  1  0.67928049  0.33359061  0.17284765  1.0
  H  H86  1  0.82071245  0.16641242  0.67284188  1.0
  H  H87  1  0.17928502  0.16641138  0.32715441  1.0
  H  H88  1  0.67928693  0.66641611  0.17284394  1.0
  H  H89  1  0.32070803  0.66641213  0.82715709  1.0
  H  H90  1  0.17928318  0.83358701  0.32715346  1.0
  H  H91  1  0.82071213  0.83359177  0.67284449  1.0
  H  H92  1  0.15175057  0.24897209  0.76734702  1.0
  H  H93  1  0.84825089  0.24897460  0.23265098  1.0
  H  H94  1  0.65174726  0.25102774  0.73265123  1.0
  H  H95  1  0.34824911  0.25102660  0.26734741  1.0
  H  H96  1  0.84825318  0.75103024  0.23265058  1.0
  H  H97  1  0.15174880  0.75103394  0.76734533  1.0
  H  H98  1  0.34824888  0.74897003  0.26734735  1.0
  H  H99  1  0.65175261  0.74897447  0.73265279  1.0
  H  H100  1  0.16057478  0.31197859  0.70351085  1.0
  H  H101  1  0.83942572  0.31197795  0.29648762  1.0
  H  H102  1  0.66057456  0.18802160  0.79648900  1.0
  H  H103  1  0.33942581  0.18802081  0.20351209  1.0
  H  H104  1  0.83942846  0.68802332  0.29648773  1.0
  H  H105  1  0.16057701  0.68802603  0.70351064  1.0
  H  H106  1  0.33942564  0.81197699  0.20351120  1.0
  H  H107  1  0.66057591  0.81197737  0.79648973  1.0
  H  H108  1  0.18578018  0.21926928  0.83572510  1.0
  H  H109  1  0.81421996  0.21927144  0.16427428  1.0
  H  H110  1  0.68577964  0.28073163  0.66427177  1.0
  H  H111  1  0.31422210  0.28073283  0.33572387  1.0
  H  H112  1  0.81422154  0.78073387  0.16427121  1.0
  H  H113  1  0.18578176  0.78073668  0.83572592  1.0
  H  H114  1  0.31422005  0.71926738  0.33572746  1.0
  H  H115  1  0.68578114  0.71926991  0.66427374  1.0
  H  H116  1  0.52526454  0.99999580  0.16857011  1.0
  H  H117  1  0.47472398  0.00000155  0.83142912  1.0
  H  H118  1  0.02527884  0.50000057  0.33142606  1.0
  H  H119  1  0.97472542  0.50000175  0.66857122  1.0
  H  H120  1  0.64922116  0.99999180  0.16033605  1.0
  H  H121  1  0.35076939  0.00000472  0.83965961  1.0
  H  H122  1  0.14923440  0.49999612  0.33966240  1.0
  H  H123  1  0.85077240  0.49999832  0.66034007  1.0
  H  H124  1  0.62734709  0.99999175  0.02110094  1.0
  H  H125  1  0.37265006  0.00000808  0.97889667  1.0
  H  H126  1  0.12734523  0.49999751  0.47890016  1.0
  H  H127  1  0.87265142  0.49999196  0.52110491  1.0
  H  H128  1  0.50181915  0.99999327  0.03003337  1.0
  H  H129  1  0.49817546  0.00000905  0.96996034  1.0
  H  H130  1  0.00181785  0.50000238  0.46996092  1.0
  H  H131  1  0.99817828  0.49999331  0.53003864  1.0
  H  H132  1  0.73869348  0.99999599  0.04983742  1.0
  H  H133  1  0.26130367  0.00000053  0.95016278  1.0
  H  H134  1  0.23869688  0.49999566  0.45016696  1.0
  H  H135  1  0.76130687  0.49999588  0.54983551  1.0
  C  C136  1  0.24725123  0.10256428  0.02269982  1.0
  C  C137  1  0.75274414  0.10256590  0.97730087  1.0
  C  C138  1  0.74725804  0.39744278  0.47730304  1.0
  C  C139  1  0.25274847  0.39744340  0.52269453  1.0
  C  C140  1  0.75274084  0.89744301  0.97730557  1.0
  C  C141  1  0.24725656  0.89744471  0.02269707  1.0
  C  C142  1  0.25273860  0.60256079  0.52269813  1.0
  C  C143  1  0.74725935  0.60256845  0.47729886  1.0
  C  C144  1  0.25147461  0.14042068  0.98472870  1.0
  C  C145  1  0.74852710  0.14042424  0.01527123  1.0
  C  C146  1  0.75147496  0.35958324  0.51527221  1.0
  C  C147  1  0.24853130  0.35958199  0.48472644  1.0
  C  C148  1  0.74851848  0.85958289  0.01527442  1.0
  C  C149  1  0.25147817  0.85958513  0.98472735  1.0
  C  C150  1  0.24851711  0.64041950  0.48472864  1.0
  C  C151  1  0.75147600  0.64042407  0.51527084  1.0
  C  C152  1  0.30286735  0.18045070  0.98200318  1.0
  C  C153  1  0.69713459  0.18045448  0.01799599  1.0
  C  C154  1  0.80286847  0.31955423  0.51799695  1.0
  C  C155  1  0.19713959  0.31955364  0.48200214  1.0
  C  C156  1  0.69712523  0.81955411  0.01799929  1.0
  C  C157  1  0.30287069  0.81955530  0.98200194  1.0
  C  C158  1  0.19712462  0.68044934  0.48200390  1.0
  C  C159  1  0.80287279  0.68045117  0.51799741  1.0
  C  C160  1  0.30683599  0.21469240  0.94590702  1.0
  C  C161  1  0.69316469  0.21469272  0.05409302  1.0
  C  C162  1  0.80683509  0.28531127  0.55409213  1.0
  C  C163  1  0.19316864  0.28531293  0.44590642  1.0
  C  C164  1  0.69316217  0.78531034  0.05409350  1.0
  C  C165  1  0.30683652  0.78531250  0.94590653  1.0
  C  C166  1  0.19316155  0.71469064  0.44590678  1.0
  C  C167  1  0.80683714  0.71469270  0.55409313  1.0
  C  C168  1  0.25984952  0.21031515  0.91152222  1.0
  C  C169  1  0.74015424  0.21031676  0.08847556  1.0
  C  C170  1  0.75984482  0.28968459  0.58847575  1.0
  C  C171  1  0.24015635  0.28968537  0.41152149  1.0
  C  C172  1  0.74015220  0.78968676  0.08847603  1.0
  C  C173  1  0.25984494  0.78968722  0.91152367  1.0
  C  C174  1  0.24015233  0.71031276  0.41152413  1.0
  C  C175  1  0.75984892  0.71031530  0.58847677  1.0
  C  C176  1  0.20829381  0.16989102  0.91483394  1.0
  C  C177  1  0.79170973  0.16989323  0.08516462  1.0
  C  C178  1  0.70829189  0.33011061  0.58516450  1.0
  C  C179  1  0.29171153  0.33010782  0.41483230  1.0
  C  C180  1  0.79170486  0.83011213  0.08516594  1.0
  C  C181  1  0.20829148  0.83011365  0.91483591  1.0
  C  C182  1  0.29170881  0.66989089  0.41483927  1.0
  C  C183  1  0.70829222  0.66989326  0.58516336  1.0
  C  C184  1  0.20426628  0.13555235  0.95073232  1.0
  C  C185  1  0.79573598  0.13555430  0.04926633  1.0
  C  C186  1  0.70426688  0.36445095  0.54926807  1.0
  C  C187  1  0.29573680  0.36444922  0.45072960  1.0
  C  C188  1  0.79572884  0.86445287  0.04926853  1.0
  C  C189  1  0.20426777  0.86445507  0.95073290  1.0
  C  C190  1  0.29573433  0.63555137  0.45073797  1.0
  C  C191  1  0.70426593  0.63555393  0.54926606  1.0
  C  C192  1  0.26700596  0.24745938  0.87468392  1.0
  C  C193  1  0.73299855  0.24746127  0.12531409  1.0
  C  C194  1  0.76700180  0.25253866  0.62531339  1.0
  C  C195  1  0.23300268  0.25253923  0.37468395  1.0
  C  C196  1  0.73299677  0.75254045  0.12531336  1.0
  C  C197  1  0.26700063  0.75253981  0.87468612  1.0
  C  C198  1  0.23299789  0.74745993  0.37468714  1.0
  C  C199  1  0.76700310  0.74746061  0.62531430  1.0
  C  C200  1  0.06016907  0.99998997  0.10836169  1.0
  C  C201  1  0.93981999  0.99999442  0.89164518  1.0
  C  C202  1  0.56018074  0.49999754  0.39164509  1.0
  C  C203  1  0.43982809  0.49998572  0.60836419  1.0
  C  C204  1  0.98479199  0.99998907  0.10934224  1.0
  C  C205  1  0.01520164  0.99999491  0.89066496  1.0
  C  C206  1  0.48479729  0.49999647  0.39066572  1.0
  C  C207  1  0.51520596  0.49998637  0.60934129  1.0
  C  C208  1  0.94687040  0.99998842  0.07069295  1.0
  C  C209  1  0.05312679  0.99999680  0.92931101  1.0
  C  C210  1  0.44687088  0.49999689  0.42931186  1.0
  C  C211  1  0.55312779  0.49999217  0.57069223  1.0
  C  C212  1  0.87645574  0.99999272  0.07190433  1.0
  C  C213  1  0.12354297  0.99999498  0.92809704  1.0
  C  C214  1  0.37645572  0.49999457  0.42809840  1.0
  C  C215  1  0.62354295  0.49999615  0.57190310  1.0
  C  C216  1  0.84150848  0.99999685  0.11192257  1.0
  C  C217  1  0.15848562  0.00000008  0.88807763  1.0
  C  C218  1  0.34151430  0.49999888  0.38807798  1.0
  C  C219  1  0.65848742  0.49999971  0.61192158  1.0
  C  C220  1  0.88033174  0.99999212  0.15039905  1.0
  C  C221  1  0.11965834  0.99999932  0.84960297  1.0
  C  C222  1  0.38034288  0.49999349  0.34960334  1.0
  C  C223  1  0.61966442  0.49999349  0.65039815  1.0
  C  C224  1  0.95071035  0.99999278  0.14928429  1.0
  C  C225  1  0.04927719  0.99999492  0.85072097  1.0
  C  C226  1  0.45072301  0.49999457  0.35072279  1.0
  C  C227  1  0.54928684  0.49999159  0.64928195  1.0
  C  C228  1  0.76811213  0.99999784  0.11586032  1.0
  C  C229  1  0.23188096  0.00000116  0.88413891  1.0
  C  C230  1  0.26811949  0.49999865  0.38414171  1.0
  C  C231  1  0.73188324  0.49999870  0.61585946  1.0
  C  C232  1  0.24990434  0.39640575  0.69220408  1.0
  C  C233  1  0.75009354  0.39640506  0.30779415  1.0
  C  C234  1  0.74991022  0.10359528  0.80779230  1.0
  C  C235  1  0.25009429  0.10359743  0.19220709  1.0
  C  C236  1  0.75009027  0.60359699  0.30779321  1.0
  C  C237  1  0.24990513  0.60359934  0.69220605  1.0
  C  C238  1  0.25009099  0.89640249  0.19220563  1.0
  C  C239  1  0.74990794  0.89640613  0.80779279  1.0
  C  C240  1  0.24499190  0.35768840  0.72967331  1.0
  C  C241  1  0.75500777  0.35768952  0.27032405  1.0
  C  C242  1  0.74499166  0.14231099  0.77032081  1.0
  C  C243  1  0.25500953  0.14231005  0.22967879  1.0
  C  C244  1  0.75501083  0.64231268  0.27032137  1.0
  C  C245  1  0.24499192  0.64231364  0.72967550  1.0
  C  C246  1  0.25500854  0.85768760  0.22967615  1.0
  C  C247  1  0.74499219  0.85768730  0.77032173  1.0
  C  C248  1  0.28988210  0.36333126  0.76486121  1.0
  C  C249  1  0.71011652  0.36333358  0.23513646  1.0
  C  C250  1  0.78988212  0.13666875  0.73513345  1.0
  C  C251  1  0.21012114  0.13666620  0.26486650  1.0
  C  C252  1  0.71012114  0.63666940  0.23513380  1.0
  C  C253  1  0.28987657  0.63666750  0.76486536  1.0
  C  C254  1  0.21011909  0.86333150  0.26486384  1.0
  C  C255  1  0.78988159  0.86333240  0.73513273  1.0
  C  C256  1  0.28532149  0.32824251  0.80029725  1.0
  C  C257  1  0.71467687  0.32824289  0.19970214  1.0
  C  C258  1  0.78531793  0.17175877  0.69969871  1.0
  C  C259  1  0.21468153  0.17175686  0.30030016  1.0
  C  C260  1  0.71468175  0.67176106  0.19969971  1.0
  C  C261  1  0.28531521  0.67175860  0.80029936  1.0
  C  C262  1  0.21467972  0.82824148  0.30029890  1.0
  C  C263  1  0.78531664  0.82824339  0.69969874  1.0
  C  C264  1  0.23543052  0.28626227  0.80205011  1.0
  C  C265  1  0.76456763  0.28626243  0.19795005  1.0
  C  C266  1  0.73542769  0.21373965  0.69794825  1.0
  C  C267  1  0.26457249  0.21373792  0.30205115  1.0
  C  C268  1  0.76457323  0.71374088  0.19794782  1.0
  C  C269  1  0.23542749  0.71374321  0.80205015  1.0
  C  C270  1  0.26457098  0.78625894  0.30205260  1.0
  C  C271  1  0.73542771  0.78626233  0.69794775  1.0
  C  C272  1  0.19076676  0.28109556  0.76648774  1.0
  C  C273  1  0.80923295  0.28109743  0.23351179  1.0
  C  C274  1  0.69076672  0.21890657  0.73351073  1.0
  C  C275  1  0.30923343  0.21890313  0.26648865  1.0
  C  C276  1  0.80923344  0.71890842  0.23351084  1.0
  C  C277  1  0.19076776  0.71891070  0.76648647  1.0
  C  C278  1  0.30923247  0.78109327  0.26648882  1.0
  C  C279  1  0.69076778  0.78109670  0.73351090  1.0
  C  C280  1  0.19536341  0.31606745  0.73079492  1.0
  C  C281  1  0.80463757  0.31607000  0.26920289  1.0
  C  C282  1  0.69536237  0.18393175  0.76920258  1.0
  C  C283  1  0.30463802  0.18393099  0.23079691  1.0
  C  C284  1  0.80463932  0.68393404  0.26920204  1.0
  C  C285  1  0.19536466  0.68393688  0.73079504  1.0
  C  C286  1  0.30463782  0.81606684  0.23079698  1.0
  C  C287  1  0.69536218  0.81606801  0.76920265  1.0
  C  C288  1  0.22775877  0.24871688  0.83864461  1.0
  C  C289  1  0.77224066  0.24871801  0.16135534  1.0
  C  C290  1  0.72775794  0.25128590  0.66135345  1.0
  C  C291  1  0.27224502  0.25128355  0.33864357  1.0
  C  C292  1  0.77224295  0.75128793  0.16135300  1.0
  C  C293  1  0.22776055  0.75128929  0.83864454  1.0
  C  C294  1  0.27223972  0.74871269  0.33864643  1.0
  C  C295  1  0.72775873  0.74871670  0.66135501  1.0
  C  C296  1  0.42961004  0.00000084  0.10386927  1.0
  C  C297  1  0.57039216  0.00000118  0.89612749  1.0
  C  C298  1  0.92960952  0.50000662  0.39612534  1.0
  C  C299  1  0.07039067  0.50000067  0.60387421  1.0
  C  C300  1  0.50550526  0.00000026  0.09957682  1.0
  C  C301  1  0.49449490  0.00000218  0.90041962  1.0
  C  C302  1  0.00550749  0.50000336  0.40041986  1.0
  C  C303  1  0.99449423  0.49999813  0.59958294  1.0
  C  C304  1  0.54758745  0.99999955  0.13620284  1.0
  C  C305  1  0.45240923  0.99999851  0.86379723  1.0
  C  C306  1  0.04759190  0.49999962  0.36379587  1.0
  C  C307  1  0.95240779  0.49999980  0.63620465  1.0
  C  C308  1  0.61765841  0.99999318  0.13132485  1.0
  C  C309  1  0.38233823  0.00000541  0.86867048  1.0
  C  C310  1  0.11766232  0.49999779  0.36867141  1.0
  C  C311  1  0.88233990  0.49999790  0.63132912  1.0
  C  C312  1  0.64826387  0.99999238  0.08993744  1.0
  C  C313  1  0.35172871  0.00000539  0.91005823  1.0
  C  C314  1  0.14827108  0.49999638  0.41006004  1.0
  C  C315  1  0.85173267  0.49999475  0.58994081  1.0
  C  C316  1  0.60508764  0.99999298  0.05353889  1.0
  C  C317  1  0.39490850  0.00000769  0.94645774  1.0
  C  C318  1  0.10509157  0.49999805  0.44645999  1.0
  C  C319  1  0.89491117  0.49999308  0.55354280  1.0
  C  C320  1  0.53483442  0.99999437  0.05833128  1.0
  C  C321  1  0.46516070  0.00000671  0.94166341  1.0
  C  C322  1  0.03483939  0.50000154  0.44166551  1.0
  C  C323  1  0.96516538  0.49999291  0.55833793  1.0
  C  C324  1  0.72157545  0.99999347  0.08357743  1.0
  C  C325  1  0.27841764  0.00000306  0.91642147  1.0
  C  C326  1  0.22158312  0.49999495  0.41642472  1.0
  C  C327  1  0.77842063  0.49999577  0.58357646  1.0
  O  O328  1  0.24725386  0.00000167  0.10801726  1.0
  O  O329  1  0.75273868  0.00000160  0.89198307  1.0
  O  O330  1  0.74726099  0.50000457  0.39198463  1.0
  O  O331  1  0.25274377  0.50000024  0.60801816  1.0
  O  O332  1  0.28792655  0.11112048  0.05434042  1.0
  O  O333  1  0.71206877  0.11112119  0.94565992  1.0
  O  O334  1  0.78793108  0.38888763  0.44566104  1.0
  O  O335  1  0.21207447  0.38888706  0.55433656  1.0
  O  O336  1  0.71207212  0.88888805  0.94566205  1.0
  O  O337  1  0.28793041  0.88888942  0.05433802  1.0
  O  O338  1  0.21206455  0.61111593  0.55433948  1.0
  O  O339  1  0.78793486  0.61112397  0.44565813  1.0
  O  O340  1  0.20306624  0.06380319  0.02046249  1.0
  O  O341  1  0.79693144  0.06380625  0.97953701  1.0
  O  O342  1  0.70307276  0.43620366  0.47954308  1.0
  O  O343  1  0.29693550  0.43620161  0.52045762  1.0
  O  O344  1  0.79692482  0.93620493  0.97954387  1.0
  O  O345  1  0.20307180  0.93620436  0.02046027  1.0
  O  O346  1  0.29692846  0.56380322  0.52046360  1.0
  O  O347  1  0.70307383  0.56380693  0.47953674  1.0
  O  O348  1  0.08876710  0.99998791  0.07108118  1.0
  O  O349  1  0.91122044  0.99999938  0.92892505  1.0
  O  O350  1  0.58877802  0.49999946  0.42892586  1.0
  O  O351  1  0.41122928  0.49999416  0.57108440  1.0
  O  O352  1  0.09095909  0.99999934  0.14489578  1.0
  O  O353  1  0.90903809  0.99999748  0.85511078  1.0
  O  O354  1  0.59096388  0.49999838  0.35511093  1.0
  O  O355  1  0.40903885  0.49998736  0.64489803  1.0
  O  O356  1  0.29454270  0.43467037  0.69499972  1.0
  O  O357  1  0.70545288  0.43466742  0.30500035  1.0
  O  O358  1  0.79455090  0.06533335  0.80499784  1.0
  O  O359  1  0.20545845  0.06533072  0.19500166  1.0
  O  O360  1  0.70545749  0.56532905  0.30499530  1.0
  O  O361  1  0.29455138  0.56533864  0.69499888  1.0
  O  O362  1  0.20545589  0.93466981  0.19500268  1.0
  O  O363  1  0.79455140  0.93466538  0.80499855  1.0
  O  O364  1  0.20928943  0.38860046  0.66037478  1.0
  O  O365  1  0.79071053  0.38860358  0.33962315  1.0
  O  O366  1  0.70929151  0.11139288  0.83962008  1.0
  O  O367  1  0.29071041  0.11139706  0.16037864  1.0
  O  O368  1  0.79070873  0.61139854  0.33962056  1.0
  O  O369  1  0.20928662  0.61140040  0.66037803  1.0
  O  O370  1  0.29070971  0.88860364  0.16037752  1.0
  O  O371  1  0.70929131  0.88860941  0.83962189  1.0
  O  O372  1  0.40092869  0.04726170  0.10523259  1.0
  O  O373  1  0.59907164  0.04726398  0.89476534  1.0
  O  O374  1  0.90092903  0.45274300  0.39475950  1.0
  O  O375  1  0.09907201  0.45273774  0.60523273  1.0
  O  O376  1  0.59906998  0.95273648  0.89476210  1.0
  O  O377  1  0.40092551  0.95274000  0.10523746  1.0
  O  O378  1  0.09906964  0.54726388  0.60524135  1.0
  O  O379  1  0.90093174  0.54726914  0.39476164  1.0
