# generated using pymatgen
data_Zr3H17C45O16
_symmetry_space_group_name_H-M   'P 1'
_cell_length_a   17.45731280
_cell_length_b   17.46177343
_cell_length_c   17.46777458
_cell_angle_alpha   93.58180846
_cell_angle_beta   93.52561089
_cell_angle_gamma   93.58728806
_symmetry_Int_Tables_number   1
_chemical_formula_structural   Zr3H17C45O16
_chemical_formula_sum   'Zr6 H34 C90 O32'
_cell_volume   5292.54020913
_cell_formula_units_Z   2
loop_
 _symmetry_equiv_pos_site_id
 _symmetry_equiv_pos_as_xyz
  1  'x, y, z'
loop_
 _atom_site_type_symbol
 _atom_site_label
 _atom_site_symmetry_multiplicity
 _atom_site_fract_x
 _atom_site_fract_y
 _atom_site_fract_z
 _atom_site_occupancy
  Zr  Zr0  1  0.01753917  0.19591549  0.14452480  1.0
  Zr  Zr1  1  0.13205113  0.23661359  0.98957203  1.0
  Zr  Zr2  1  0.98037669  0.00390796  0.06666414  1.0
  Zr  Zr3  1  0.17248318  0.08145858  0.10356146  1.0
  Zr  Zr4  1  0.93985266  0.15918611  0.95265275  1.0
  Zr  Zr5  1  0.09461865  0.04473803  0.91163643  1.0
  H  H6  1  0.71133567  0.07961054  0.38919812  1.0
  H  H7  1  0.74064346  0.08582719  0.63654888  1.0
  H  H8  1  0.93276564  0.04335658  0.49977880  1.0
  H  H9  1  0.17952522  0.18677989  0.56040175  1.0
  H  H10  1  0.36613470  0.13963351  0.41766899  1.0
  H  H11  1  0.40402555  0.15203720  0.66466291  1.0
  H  H12  1  0.41715044  0.77496975  0.98697096  1.0
  H  H13  1  0.66465126  0.80517344  0.99314073  1.0
  H  H14  1  0.52727063  0.99674100  0.95082628  1.0
  H  H15  1  0.58890557  0.24413594  0.09509347  1.0
  H  H16  1  0.44597501  0.43017776  0.04713342  1.0
  H  H17  1  0.69312076  0.46863587  0.05981091  1.0
  H  H18  1  0.01975823  0.48216980  0.68290544  1.0
  H  H19  1  0.03029802  0.72961881  0.71503275  1.0
  H  H20  1  0.98026973  0.59141628  0.90409710  1.0
  H  H21  1  0.09755139  0.75806684  0.37730051  1.0
  H  H22  1  0.08115209  0.51090738  0.34034335  1.0
  H  H23  1  0.12435317  0.65202278  0.15162884  1.0
  H  H24  1  0.17714682  0.24069411  0.14888633  1.0
  H  H25  1  0.87521894  0.11799294  0.09202938  1.0
  H  H26  1  0.11965394  0.93933999  0.02535604  1.0
  H  H27  1  0.05376541  0.18425576  0.84736016  1.0
  H  H28  1  0.97408047  0.71080930  0.59230183  1.0
  H  H29  1  0.11564826  0.51752581  0.60143824  1.0
  H  H30  1  0.14207598  0.52919265  0.46547409  1.0
  H  H31  1  0.00067599  0.72259424  0.45656009  1.0
  H  H32  1  0.65931109  0.58403346  0.11258651  1.0
  H  H33  1  0.46068963  0.51975415  0.95750429  1.0
  H  H34  1  0.44900856  0.65577459  0.93196797  1.0
  H  H35  1  0.64773661  0.71989627  0.08676515  1.0
  H  H36  1  0.59187982  0.02461259  0.42079250  1.0
  H  H37  1  0.65546461  0.17940471  0.61968219  1.0
  H  H38  1  0.51948728  0.20505268  0.63104084  1.0
  H  H39  1  0.45574617  0.05000960  0.43228856  1.0
  C  C40  1  0.82480776  0.05928774  0.43635396  1.0
  C  C41  1  0.74682031  0.07379613  0.44178768  1.0
  C  C42  1  0.71555542  0.08386901  0.51349688  1.0
  C  C43  1  0.76351455  0.07905944  0.58005025  1.0
  C  C44  1  0.84152490  0.06407522  0.57564086  1.0
  C  C45  1  0.87226125  0.05391685  0.50355432  1.0
  C  C46  1  0.28934023  0.17171606  0.62077033  1.0
  C  C47  1  0.23963405  0.17550589  0.55484892  1.0
  C  C48  1  0.26773814  0.16332421  0.48174738  1.0
  C  C49  1  0.34540990  0.14791922  0.47498981  1.0
  C  C50  1  0.39561681  0.14481245  0.54024781  1.0
  C  C51  1  0.36681564  0.15658027  0.61296188  1.0
  C  C52  1  0.46408167  0.88859396  0.96676471  1.0
  C  C53  1  0.46969596  0.81063617  0.98118377  1.0
  C  C54  1  0.54154876  0.77964481  0.99119576  1.0
  C  C55  1  0.60804263  0.82781523  0.98638609  1.0
  C  C56  1  0.60341713  0.90580476  0.97147902  1.0
  C  C57  1  0.53120623  0.93628193  0.96139697  1.0
  C  C58  1  0.64928557  0.35395470  0.07970791  1.0
  C  C59  1  0.58334655  0.30416712  0.08361907  1.0
  C  C60  1  0.51016826  0.33204209  0.07121223  1.0
  C  C61  1  0.50335008  0.40960878  0.05549664  1.0
  C  C62  1  0.56861236  0.45993856  0.05239480  1.0
  C  C63  1  0.64140167  0.43135043  0.06441595  1.0
  C  C64  1  0.99975665  0.52874809  0.79671497  1.0
  C  C65  1  0.01591061  0.53466015  0.71922142  1.0
  C  C66  1  0.02606940  0.60661181  0.68844801  1.0
  C  C67  1  0.02016661  0.67288671  0.73657100  1.0
  C  C68  1  0.00313673  0.66793447  0.81396122  1.0
  C  C69  1  0.99265610  0.59564379  0.84412395  1.0
  C  C70  1  0.11158107  0.71330812  0.26151272  1.0
  C  C71  1  0.09890086  0.70611986  0.33960474  1.0
  C  C72  1  0.08852519  0.63364758  0.36917949  1.0
  C  C73  1  0.09134724  0.56793487  0.31947806  1.0
  C  C74  1  0.10477765  0.57407111  0.24126575  1.0
  C  C75  1  0.11504182  0.64697751  0.21222543  1.0
  C  C76  1  0.91931212  0.06829820  0.23016345  1.0
  C  C77  1  0.09595286  0.36476782  0.12519874  1.0
  C  C78  1  0.15257892  0.15892683  0.27260882  1.0
  C  C79  1  0.85802234  0.26429394  0.07780441  1.0
  C  C80  1  0.19987622  0.16970426  0.82963570  1.0
  C  C81  1  0.00808815  0.87818046  0.92695447  1.0
  C  C82  1  0.30101586  0.21650182  0.06681974  1.0
  C  C83  1  0.00511541  0.32260873  0.89145318  1.0
  C  C84  1  0.81384429  0.01943231  0.98016479  1.0
  C  C85  1  0.10573483  0.92171715  0.17130369  1.0
  C  C86  1  0.25798858  0.98329455  0.97593522  1.0
  C  C87  1  0.95482013  0.07268566  0.78602415  1.0
  C  C88  1  0.11766126  0.78744203  0.23254477  1.0
  C  C89  1  0.11826049  0.85111588  0.20770899  1.0
  C  C90  1  0.10340084  0.44270155  0.15825571  1.0
  C  C91  1  0.10546472  0.50530135  0.19360164  1.0
  C  C92  1  0.99897368  0.80060320  0.89330443  1.0
  C  C93  1  0.99917339  0.73736445  0.85968880  1.0
  C  C94  1  0.99232683  0.39313878  0.85513094  1.0
  C  C95  1  0.99338836  0.45555600  0.82760397  1.0
  C  C96  1  0.01200596  0.67153037  0.56507711  1.0
  C  C97  1  0.04271633  0.61320589  0.60705401  1.0
  C  C98  1  0.08926873  0.56192099  0.56955211  1.0
  C  C99  1  0.10428773  0.56855742  0.49282594  1.0
  C  C100  1  0.07337110  0.62678024  0.45087573  1.0
  C  C101  1  0.02705825  0.67821915  0.48846168  1.0
  C  C102  1  0.72369356  0.32578758  0.08740555  1.0
  C  C103  1  0.78749440  0.30113596  0.08967730  1.0
  C  C104  1  0.44164967  0.28430394  0.07348994  1.0
  C  C105  1  0.37913000  0.24900902  0.07288211  1.0
  C  C106  1  0.67305733  0.95166312  0.96886274  1.0
  C  C107  1  0.73633372  0.98553138  0.97009833  1.0
  C  C108  1  0.32854664  0.94733092  0.96227189  1.0
  C  C109  1  0.39095131  0.91984270  0.96191701  1.0
  C  C110  1  0.61376955  0.59929405  0.07185040  1.0
  C  C111  1  0.56112273  0.54149446  0.03678920  1.0
  C  C112  1  0.50130767  0.56354127  0.98694312  1.0
  C  C113  1  0.49465101  0.64039705  0.97252187  1.0
  C  C114  1  0.54760976  0.69805963  0.00722256  1.0
  C  C115  1  0.60716191  0.67606854  0.05735391  1.0
  C  C116  1  0.26100950  0.17930891  0.69512077  1.0
  C  C117  1  0.23649506  0.18153397  0.75897377  1.0
  C  C118  1  0.18504236  0.16499154  0.35067954  1.0
  C  C119  1  0.22013722  0.16558981  0.41323248  1.0
  C  C120  1  0.92082218  0.06267008  0.70861621  1.0
  C  C121  1  0.88715643  0.06140850  0.64532076  1.0
  C  C122  1  0.85615314  0.05437992  0.36328937  1.0
  C  C123  1  0.88352823  0.05466156  0.30082952  1.0
  C  C124  1  0.57636826  0.06517135  0.46640711  1.0
  C  C125  1  0.63392083  0.09990524  0.51943488  1.0
  C  C126  1  0.61174819  0.14997787  0.57900780  1.0
  C  C127  1  0.53491791  0.16439939  0.58548938  1.0
  C  C128  1  0.47722772  0.12931442  0.53277523  1.0
  C  C129  1  0.49944046  0.07952085  0.47295356  1.0
  O  O130  1  0.92123927  0.01308890  0.17934409  1.0
  O  O131  1  0.12958425  0.34795586  0.06429813  1.0
  O  O132  1  0.09187547  0.19286666  0.25587265  1.0
  O  O133  1  0.90750659  0.26080021  0.13380181  1.0
  O  O134  1  0.86224691  0.23609216  0.00883782  1.0
  O  O135  1  0.19061029  0.11895361  0.22586662  1.0
  O  O136  1  0.05533665  0.31820042  0.16283256  1.0
  O  O137  1  0.94589808  0.13779884  0.22594657  1.0
  O  O138  1  0.02343659  0.21591956  0.02929174  1.0
  O  O139  1  0.05711031  0.08731062  0.12361720  1.0
  O  O140  1  0.14276452  0.20657581  0.11458702  1.0
  O  O141  1  0.92635051  0.11911786  0.07317905  1.0
  O  O142  1  0.19674915  0.22574407  0.87920852  1.0
  O  O143  1  0.97624607  0.89472930  0.98903344  1.0
  O  O144  1  0.28413346  0.15583782  0.10076657  1.0
  O  O145  1  0.94964805  0.27210330  0.89345173  1.0
  O  O146  1  0.83053414  0.08162663  0.94859367  1.0
  O  O147  1  0.16165081  0.97147569  0.16806852  1.0
  O  O148  1  0.20717675  0.98529835  0.92079027  1.0
  O  O149  1  0.01692986  0.04092141  0.80253659  1.0
  O  O150  1  0.25383445  0.00994439  0.04540862  1.0
  O  O151  1  0.91829313  0.11526236  0.83178431  1.0
  O  O152  1  0.25429350  0.25449437  0.02682694  1.0
  O  O153  1  0.03669294  0.92582626  0.14328531  1.0
  O  O154  1  0.85952286  0.98273934  0.02258948  1.0
  O  O155  1  0.07445593  0.31824071  0.91847610  1.0
  O  O156  1  0.17150913  0.10077793  0.83383718  1.0
  O  O157  1  0.05018156  0.92413395  0.89015010  1.0
  O  O158  1  0.99277247  0.05722377  0.96492624  1.0
  O  O159  1  0.15173041  0.12122145  0.99513062  1.0
  O  O160  1  0.10088969  0.99047994  0.02660927  1.0
  O  O161  1  0.05492680  0.16542478  0.89845106  1.0
