# generated using pymatgen
data_Zn2H11C24N2(ClO4)3
_symmetry_space_group_name_H-M   'P 1'
_cell_length_a   9.84548446
_cell_length_b   10.97273291
_cell_length_c   14.00027235
_cell_angle_alpha   95.85027238
_cell_angle_beta   99.28777758
_cell_angle_gamma   94.16959782
_symmetry_Int_Tables_number   1
_chemical_formula_structural   Zn2H11C24N2(ClO4)3
_chemical_formula_sum   'Zn2 H11 C24 N2 Cl3 O12'
_cell_volume   1478.73699639
_cell_formula_units_Z   1
loop_
 _symmetry_equiv_pos_site_id
 _symmetry_equiv_pos_as_xyz
  1  'x, y, z'
loop_
 _atom_site_type_symbol
 _atom_site_label
 _atom_site_symmetry_multiplicity
 _atom_site_fract_x
 _atom_site_fract_y
 _atom_site_fract_z
 _atom_site_occupancy
  Zn  Zn0  1  0.36059095  0.48013463  0.49347314  1.0
  Zn  Zn1  1  0.65427405  0.50801034  0.51084674  1.0
  H  H2  1  0.36428637  0.43821169  0.96773058  1.0
  H  H3  1  0.72384421  0.79597103  0.45818835  1.0
  H  H4  1  0.14628672  0.09549303  0.44550986  1.0
  H  H5  1  0.17566667  0.45564252  0.64060797  1.0
  H  H6  1  0.09527457  0.59535500  0.29237655  1.0
  H  H7  1  0.05955607  0.43117627  0.26450955  1.0
  H  H8  1  0.65702816  0.57209611  0.03235584  1.0
  H  H9  1  0.25322080  0.86703282  0.61402061  1.0
  H  H10  1  0.28079896  0.09705007  0.63925743  1.0
  H  H11  1  0.70703734  0.42577173  0.28945303  1.0
  H  H12  1  0.81385349  0.06229949  0.46140829  1.0
  C  C13  1  0.51627707  0.26485436  0.50904212  1.0
  C  C14  1  0.26650257  0.06075623  0.56170206  1.0
  C  C15  1  0.92034682  0.51257814  0.42573000  1.0
  C  C16  1  0.46717317  0.46268508  0.30788043  1.0
  C  C17  1  0.96219735  0.48210515  0.58350052  1.0
  C  C18  1  0.10203413  0.47110859  0.57706056  1.0
  C  C19  1  0.05764872  0.49999257  0.41814248  1.0
  C  C20  1  0.04063407  0.51275568  0.31090296  1.0
  C  C21  1  0.88181062  0.52248163  0.31577405  1.0
  C  C22  1  0.50801034  0.72793110  0.49271998  1.0
  C  C23  1  0.52747855  0.53430587  0.68947232  1.0
  C  C24  1  0.45790219  0.46215505  0.20414396  1.0
  C  C25  1  0.54649365  0.54252813  0.79440594  1.0
  C  C26  1  0.56380155  0.53241365  0.98231936  1.0
  C  C27  1  0.45719232  0.47735298  0.01838925  1.0
  C  C28  1  0.45887608  0.46929377  0.11779164  1.0
  C  C29  1  0.55672789  0.53945704  0.88219005  1.0
  C  C30  1  0.40259626  0.05520746  0.52255082  1.0
  C  C31  1  0.51875524  0.12948271  0.50812096  1.0
  C  C32  1  0.63247321  0.06665171  0.48859996  1.0
  C  C33  1  0.62664228  0.93532120  0.48240054  1.0
  C  C34  1  0.50962583  0.86269941  0.49723450  1.0
  C  C35  1  0.39811892  0.92825497  0.51738728  1.0
  C  C36  1  0.25976658  0.91323455  0.54885308  1.0
  N  N37  1  0.86724733  0.50466792  0.50698616  1.0
  N  N38  1  0.15145732  0.48012691  0.49335106  1.0
  Cl  Cl39  1  0.82834005  0.67515406  0.29254531  1.0
  Cl  Cl40  1  0.11847756  0.84189734  0.45748261  1.0
  Cl  Cl41  1  0.91158904  0.46580189  0.69229410  1.0
  O  O42  1  0.39821599  0.30225764  0.48143059  1.0
  O  O43  1  0.75070962  0.12584783  0.47215142  1.0
  O  O44  1  0.74217558  0.88797518  0.46050757  1.0
  O  O45  1  0.15546731  0.11881651  0.51547629  1.0
  O  O46  1  0.62933734  0.33265595  0.53651146  1.0
  O  O47  1  0.35978447  0.48179690  0.34416724  1.0
  O  O48  1  0.58583093  0.44500137  0.35577121  1.0
  O  O49  1  0.40083588  0.66770361  0.50811103  1.0
  O  O50  1  0.61848662  0.67919810  0.47355974  1.0
  O  O51  1  0.40862847  0.48880081  0.64437973  1.0
  O  O52  1  0.62969300  0.57102110  0.65114434  1.0
  O  O53  1  0.79600450  0.42942215  0.26171317  1.0
