# generated using pymatgen
data_ZnH5C9N5O4
_symmetry_space_group_name_H-M   'P 1'
_cell_length_a   14.62729257
_cell_length_b   14.62728209
_cell_length_c   18.29922259
_cell_angle_alpha   90.00011907
_cell_angle_beta   89.99993083
_cell_angle_gamma   89.92706146
_symmetry_Int_Tables_number   1
_chemical_formula_structural   ZnH5C9N5O4
_chemical_formula_sum   'Zn8 H40 C72 N40 O32'
_cell_volume   3915.25337859
_cell_formula_units_Z   8
loop_
 _symmetry_equiv_pos_site_id
 _symmetry_equiv_pos_as_xyz
  1  'x, y, z'
loop_
 _atom_site_type_symbol
 _atom_site_label
 _atom_site_symmetry_multiplicity
 _atom_site_fract_x
 _atom_site_fract_y
 _atom_site_fract_z
 _atom_site_occupancy
  Zn  Zn0  1  0.24701887  0.18047745  0.47009098  1.0
  Zn  Zn1  1  0.81952244  0.75297870  0.52990904  1.0
  Zn  Zn2  1  0.74702241  0.68047641  0.02990799  1.0
  Zn  Zn3  1  0.31952368  0.25297977  0.97009257  1.0
  Zn  Zn4  1  0.74143279  0.25856705  0.00000089  1.0
  Zn  Zn5  1  0.24143165  0.75856966  0.49999876  1.0
  Zn  Zn6  1  0.82014143  0.17985755  0.49999853  1.0
  Zn  Zn7  1  0.32014236  0.67985675  0.99999913  1.0
  H  H8  1  0.24996066  0.12112273  0.30932398  1.0
  H  H9  1  0.87887585  0.75003867  0.69067595  1.0
  H  H10  1  0.74996053  0.62112412  0.19067761  1.0
  H  H11  1  0.37887735  0.25003728  0.80932396  1.0
  H  H12  1  0.87947555  0.23015031  0.66308744  1.0
  H  H13  1  0.76984990  0.12052600  0.33691289  1.0
  H  H14  1  0.37947604  0.73014979  0.83691189  1.0
  H  H15  1  0.26985066  0.62052435  0.16308759  1.0
  H  H16  1  0.01528855  0.17013850  0.44070622  1.0
  H  H17  1  0.82986324  0.98471398  0.55929409  1.0
  H  H18  1  0.51528724  0.67014093  0.05929349  1.0
  H  H19  1  0.32986318  0.48471155  0.94070627  1.0
  H  H20  1  0.24057453  0.98623799  0.53742677  1.0
  H  H21  1  0.01376461  0.75942573  0.46257378  1.0
  H  H22  1  0.74057496  0.48623586  0.96257367  1.0
  H  H23  1  0.51376432  0.25942526  0.03742663  1.0
  H  H24  1  0.84840372  0.25749426  0.77922957  1.0
  H  H25  1  0.74251116  0.15159421  0.22076810  1.0
  H  H26  1  0.34840509  0.75749071  0.72076874  1.0
  H  H27  1  0.24251105  0.65159490  0.27923027  1.0
  H  H28  1  0.06175455  0.29274809  0.93822198  1.0
  H  H29  1  0.70725349  0.93824219  0.06177789  1.0
  H  H30  1  0.56175806  0.79274576  0.56177885  1.0
  H  H31  1  0.20725136  0.43824316  0.43821992  1.0
  H  H32  1  0.13265760  0.23558338  0.71435227  1.0
  H  H33  1  0.76441639  0.86734249  0.28564906  1.0
  H  H34  1  0.63265665  0.73558227  0.78564894  1.0
  H  H35  1  0.26442008  0.36734361  0.21434966  1.0
  H  H36  1  0.24995704  0.86777294  0.25773883  1.0
  H  H37  1  0.13222533  0.75004074  0.74226046  1.0
  H  H38  1  0.74995642  0.36777572  0.24226100  1.0
  H  H39  1  0.63222677  0.25003742  0.75773804  1.0
  H  H40  1  0.27804680  0.15185124  0.19445409  1.0
  H  H41  1  0.84814610  0.72195188  0.80554748  1.0
  H  H42  1  0.77804854  0.65185294  0.30554643  1.0
  H  H43  1  0.34814574  0.22194814  0.69445350  1.0
  H  H44  1  0.31363736  0.93913021  0.03486163  1.0
  H  H45  1  0.06087056  0.68636707  0.96513876  1.0
  H  H46  1  0.81363435  0.43913148  0.46513662  1.0
  H  H47  1  0.56086756  0.18636248  0.53486025  1.0
  C  C48  1  0.31056217  0.12360568  0.05263819  1.0
  C  C49  1  0.87639610  0.68943969  0.94736330  1.0
  C  C50  1  0.81056097  0.62360566  0.44736280  1.0
  C  C51  1  0.37639183  0.18943900  0.55263705  1.0
  C  C52  1  0.87699266  0.28232801  0.92243621  1.0
  C  C53  1  0.71767418  0.12300580  0.07756310  1.0
  C  C54  1  0.37699422  0.78232889  0.57756321  1.0
  C  C55  1  0.21767454  0.62300617  0.42243470  1.0
  C  C56  1  0.94810198  0.27693151  0.86420801  1.0
  C  C57  1  0.72307234  0.05189692  0.13579064  1.0
  C  C58  1  0.44810417  0.77692775  0.63579297  1.0
  C  C59  1  0.22307005  0.55189645  0.36420593  1.0
  C  C60  1  0.99540848  0.20211918  0.60664070  1.0
  C  C61  1  0.79788246  0.00459196  0.39335889  1.0
  C  C62  1  0.49540752  0.70211878  0.89335792  1.0
  C  C63  1  0.29788534  0.50459292  0.10664136  1.0
  C  C64  1  0.98672591  0.24408021  0.73780533  1.0
  C  C65  1  0.75592374  0.01327445  0.26219433  1.0
  C  C66  1  0.48672653  0.74407608  0.76219556  1.0
  C  C67  1  0.25592438  0.51327435  0.23780434  1.0
  C  C68  1  0.23965168  0.00431109  0.36882423  1.0
  C  C69  1  0.99569066  0.76034927  0.63117556  1.0
  C  C70  1  0.73965165  0.50431097  0.13117662  1.0
  C  C71  1  0.49569003  0.26034528  0.86882371  1.0
  C  C72  1  0.92106740  0.26011927  0.79231917  1.0
  C  C73  1  0.73988310  0.07893166  0.20767951  1.0
  C  C74  1  0.42106878  0.76011773  0.70768017  1.0
  C  C75  1  0.23988297  0.57893307  0.29231929  1.0
  C  C76  1  0.04086394  0.28114838  0.88193489  1.0
  C  C77  1  0.71885533  0.95913255  0.11806390  1.0
  C  C78  1  0.54086668  0.78114550  0.61806540  1.0
  C  C79  1  0.21885261  0.45913269  0.38193284  1.0
  C  C80  1  0.07999434  0.24819675  0.75508737  1.0
  C  C81  1  0.75180597  0.92000666  0.24491350  1.0
  C  C82  1  0.57999620  0.74819419  0.74491336  1.0
  C  C83  1  0.25180755  0.42000581  0.25508478  1.0
  C  C84  1  0.10622615  0.26805941  0.82718935  1.0
  C  C85  1  0.73194224  0.89377279  0.17281152  1.0
  C  C86  1  0.60622675  0.76805803  0.67281140  1.0
  C  C87  1  0.23194234  0.39377349  0.32718619  1.0
  C  C88  1  0.26327679  0.92038183  0.21711037  1.0
  C  C89  1  0.07961638  0.73672226  0.78288952  1.0
  C  C90  1  0.76327679  0.42038334  0.28288899  1.0
  C  C91  1  0.57961789  0.23671815  0.71710956  1.0
  C  C92  1  0.26166567  0.01361769  0.23504313  1.0
  C  C93  1  0.98638050  0.73833498  0.76495773  1.0
  C  C94  1  0.76166473  0.51361927  0.26495717  1.0
  C  C95  1  0.48638282  0.23832999  0.73504315  1.0
  C  C96  1  0.27854098  0.07931586  0.18083542  1.0
  C  C97  1  0.92068316  0.72145881  0.81916551  1.0
  C  C98  1  0.77854133  0.57931758  0.31916444  1.0
  C  C99  1  0.42068282  0.22145504  0.68083485  1.0
  C  C100  1  0.29929872  0.95972098  0.09080338  1.0
  C  C101  1  0.04027839  0.70070213  0.90919597  1.0
  C  C102  1  0.79929648  0.45972349  0.40919547  1.0
  C  C103  1  0.54027735  0.20069837  0.59080309  1.0
  C  C104  1  0.28396656  0.89436252  0.14514116  1.0
  C  C105  1  0.10563649  0.71603309  0.85485812  1.0
  C  C106  1  0.78396646  0.39436353  0.35485759  1.0
  C  C107  1  0.60563537  0.21602810  0.64514089  1.0
  C  C108  1  0.29609279  0.05232226  0.10909682  1.0
  C  C109  1  0.94767820  0.70390784  0.89090350  1.0
  C  C110  1  0.79609303  0.55232347  0.39090297  1.0
  C  C111  1  0.44767660  0.20390456  0.60909626  1.0
  C  C112  1  0.28991889  0.79525716  0.12529104  1.0
  C  C113  1  0.20474135  0.71008318  0.87471028  1.0
  C  C114  1  0.78991807  0.29525958  0.37470917  1.0
  C  C115  1  0.70473686  0.21007539  0.62529027  1.0
  C  C116  1  0.20545295  0.27004670  0.84718469  1.0
  C  C117  1  0.72995523  0.79454650  0.15281659  1.0
  C  C118  1  0.70545153  0.77004389  0.65281706  1.0
  C  C119  1  0.22995529  0.29454793  0.34718258  1.0
  N  N120  1  0.95210167  0.18562603  0.54183358  1.0
  N  N121  1  0.81437493  0.04790063  0.45816604  1.0
  N  N122  1  0.45209856  0.68562579  0.95816451  1.0
  N  N123  1  0.31437655  0.54790073  0.04183427  1.0
  N  N124  1  0.10255907  0.17606201  0.52863506  1.0
  N  N125  1  0.82393713  0.89744201  0.47136569  1.0
  N  N126  1  0.60255850  0.67606479  0.97136444  1.0
  N  N127  1  0.32394042  0.39744129  0.02863576  1.0
  N  N128  1  0.23930895  0.04763284  0.43478554  1.0
  N  N129  1  0.95236795  0.76069404  0.56521540  1.0
  N  N130  1  0.73930833  0.54763323  0.06521593  1.0
  N  N131  1  0.45236722  0.26069158  0.93478555  1.0
  N  N132  1  0.23131947  0.89803533  0.44947269  1.0
  N  N133  1  0.10196521  0.76868139  0.55052721  1.0
  N  N134  1  0.73131983  0.39803626  0.05052830  1.0
  N  N135  1  0.60196500  0.26867649  0.94947245  1.0
  N  N136  1  0.24563900  0.04933538  0.30545491  1.0
  N  N137  1  0.95066374  0.75436147  0.69454548  1.0
  N  N138  1  0.74563681  0.54933678  0.19454547  1.0
  N  N139  1  0.45066458  0.25435801  0.80545492  1.0
  N  N140  1  0.95089685  0.22385898  0.66791165  1.0
  N  N141  1  0.77614478  0.04910443  0.33208803  1.0
  N  N142  1  0.45089599  0.72385638  0.83208760  1.0
  N  N143  1  0.27614689  0.54910485  0.16791068  1.0
  N  N144  1  0.02250458  0.17049424  0.49609655  1.0
  N  N145  1  0.82950552  0.97749558  0.50390375  1.0
  N  N146  1  0.52250472  0.67049654  0.00390261  1.0
  N  N147  1  0.32950878  0.47749535  0.99609769  1.0
  N  N148  1  0.08865417  0.19405951  0.59785332  1.0
  N  N149  1  0.80593984  0.91134677  0.40214747  1.0
  N  N150  1  0.58865303  0.69406143  0.90214567  1.0
  N  N151  1  0.30594234  0.41134759  0.09785348  1.0
  N  N152  1  0.23418697  0.97804356  0.48220858  1.0
  N  N153  1  0.02195698  0.76581567  0.51779143  1.0
  N  N154  1  0.73418739  0.47804236  0.01779146  1.0
  N  N155  1  0.52195740  0.26581085  0.98220885  1.0
  N  N156  1  0.23347517  0.91144588  0.37861778  1.0
  N  N157  1  0.08855437  0.76652525  0.62138214  1.0
  N  N158  1  0.73347474  0.41144631  0.12138214  1.0
  N  N159  1  0.58855494  0.26652085  0.87861808  1.0
  O  O160  1  0.32892127  0.20605955  0.07397632  1.0
  O  O161  1  0.79393976  0.67107825  0.92602471  1.0
  O  O162  1  0.82891941  0.70606221  0.42602644  1.0
  O  O163  1  0.29393819  0.17107831  0.57397405  1.0
  O  O164  1  0.79293118  0.29575338  0.90230153  1.0
  O  O165  1  0.70424972  0.20706857  0.09770010  1.0
  O  O166  1  0.29293273  0.79575225  0.59769690  1.0
  O  O167  1  0.20424806  0.70706820  0.40229895  1.0
  O  O168  1  0.89684164  0.26921005  0.98892481  1.0
  O  O169  1  0.73079238  0.10315964  0.01107500  1.0
  O  O170  1  0.39684467  0.76921008  0.51107567  1.0
  O  O171  1  0.23079264  0.60316018  0.48892329  1.0
  O  O172  1  0.22308335  0.30265826  0.91222463  1.0
  O  O173  1  0.69734524  0.77691542  0.08777667  1.0
  O  O174  1  0.72308338  0.80265666  0.58777880  1.0
  O  O175  1  0.19734178  0.27691700  0.41222141  1.0
  O  O176  1  0.33509073  0.77984278  0.06486331  1.0
  O  O177  1  0.22015408  0.66491540  0.93514122  1.0
  O  O178  1  0.83508913  0.27984467  0.43513848  1.0
  O  O179  1  0.72015380  0.16490611  0.56486198  1.0
  O  O180  1  0.30320308  0.10597708  0.98480401  1.0
  O  O181  1  0.89402509  0.69679677  0.01519692  1.0
  O  O182  1  0.80320461  0.60597326  0.51519518  1.0
  O  O183  1  0.39402083  0.19679990  0.48480247  1.0
  O  O184  1  0.26499381  0.24123256  0.80370410  1.0
  O  O185  1  0.75876490  0.73500316  0.19629870  1.0
  O  O186  1  0.76499300  0.74123055  0.69629973  1.0
  O  O187  1  0.25876981  0.23500383  0.30370143  1.0
  O  O188  1  0.25474198  0.73476490  0.16447792  1.0
  O  O189  1  0.26523375  0.74525878  0.83552228  1.0
  O  O190  1  0.75474123  0.23476518  0.33552222  1.0
  O  O191  1  0.76522852  0.24525109  0.66448101  1.0
