# generated using pymatgen
data_ZnH3C9NO4
_symmetry_space_group_name_H-M   'P 1'
_cell_length_a   8.29320890
_cell_length_b   9.32034085
_cell_length_c   16.08463227
_cell_angle_alpha   90.03068185
_cell_angle_beta   90.00719925
_cell_angle_gamma   89.95865751
_symmetry_Int_Tables_number   1
_chemical_formula_structural   ZnH3C9NO4
_chemical_formula_sum   'Zn2 H6 C18 N2 O8'
_cell_volume   1243.26972382
_cell_formula_units_Z   2
loop_
 _symmetry_equiv_pos_site_id
 _symmetry_equiv_pos_as_xyz
  1  'x, y, z'
loop_
 _atom_site_type_symbol
 _atom_site_label
 _atom_site_symmetry_multiplicity
 _atom_site_fract_x
 _atom_site_fract_y
 _atom_site_fract_z
 _atom_site_occupancy
  Zn  Zn0  1  0.65870765  0.49993435  0.49992380  1.0
  Zn  Zn1  1  0.34129247  0.50006450  0.50007674  1.0
  H  H2  1  0.35015470  0.70835542  0.05195548  1.0
  H  H3  1  0.64984542  0.29164773  0.94804507  1.0
  H  H4  1  0.62651773  0.71993029  0.94800072  1.0
  H  H5  1  0.37348239  0.28007178  0.05199921  1.0
  H  H6  1  0.22050822  0.48816347  0.95012472  1.0
  H  H7  1  0.77949311  0.51183967  0.04987521  1.0
  C  C8  1  0.49997732  0.93485643  0.50000616  1.0
  C  C9  1  0.58339728  0.38416047  0.97204331  1.0
  C  C10  1  0.49958372  0.49990405  0.24925438  1.0
  C  C11  1  0.50041640  0.50009588  0.75074617  1.0
  C  C12  1  0.65542342  0.50658991  0.02703300  1.0
  C  C13  1  0.34457670  0.49341216  0.97296692  1.0
  C  C14  1  0.50199637  0.50021207  0.08554292  1.0
  C  C15  1  0.49800375  0.49979000  0.91445701  1.0
  C  C16  1  0.50085925  0.50005331  0.17345847  1.0
  C  C17  1  0.49914087  0.49994768  0.82654145  1.0
  C  C18  1  0.50001918  0.06514242  0.49999376  1.0
  C  C19  1  0.50000705  0.77948656  0.50001553  1.0
  C  C20  1  0.49998825  0.22051230  0.49998564  1.0
  C  C21  1  0.49949826  0.49989691  0.33862602  1.0
  C  C22  1  0.50050186  0.50010194  0.66137390  1.0
  C  C23  1  0.57043403  0.62228574  0.97204350  1.0
  C  C24  1  0.42956609  0.37771633  0.02795704  1.0
  C  C25  1  0.41660284  0.61584268  0.02795661  1.0
  N  N26  1  0.06680039  0.50005643  0.50005697  1.0
  N  N27  1  0.93319852  0.49994564  0.49994357  1.0
  O  O28  1  0.63771087  0.71852213  0.49994008  1.0
  O  O29  1  0.36228805  0.28147672  0.50006171  1.0
  O  O30  1  0.36236386  0.71861957  0.50009438  1.0
  O  O31  1  0.63763385  0.28138036  0.49990554  1.0
  O  O32  1  0.63717389  0.49989317  0.37451053  1.0
  O  O33  1  0.36282864  0.50010568  0.62549001  1.0
  O  O34  1  0.36191251  0.49992403  0.37459955  1.0
  O  O35  1  0.63808882  0.50007268  0.62540037  1.0
