# generated using pymatgen
data_CdH14C20(NO)4
_symmetry_space_group_name_H-M   'P 1'
_cell_length_a   8.48596911
_cell_length_b   17.99533918
_cell_length_c   18.60513433
_cell_angle_alpha   89.99983506
_cell_angle_beta   89.99994109
_cell_angle_gamma   89.99957292
_symmetry_Int_Tables_number   1
_chemical_formula_structural   CdH14C20(NO)4
_chemical_formula_sum   'Cd4 H56 C80 N16 O16'
_cell_volume   2841.15085136
_cell_formula_units_Z   4
loop_
 _symmetry_equiv_pos_site_id
 _symmetry_equiv_pos_as_xyz
  1  'x, y, z'
loop_
 _atom_site_type_symbol
 _atom_site_label
 _atom_site_symmetry_multiplicity
 _atom_site_fract_x
 _atom_site_fract_y
 _atom_site_fract_z
 _atom_site_occupancy
  Cd  Cd0  1  0.00284281  0.31309870  0.46980805  1.0
  Cd  Cd1  1  0.99716000  0.81310250  0.53019313  1.0
  Cd  Cd2  1  0.99715416  0.31310127  0.96981226  1.0
  Cd  Cd3  1  0.00283805  0.81309604  0.03018892  1.0
  H  H4  1  0.31479498  0.34909621  0.58581192  1.0
  H  H5  1  0.68519900  0.84908696  0.41418808  1.0
  H  H6  1  0.68521992  0.34909132  0.08581490  1.0
  H  H7  1  0.31477995  0.84908574  0.91418348  1.0
  H  H8  1  0.87432875  0.25177721  0.63057913  1.0
  H  H9  1  0.12568331  0.75178112  0.36942114  1.0
  H  H10  1  0.12568999  0.25178034  0.13058723  1.0
  H  H11  1  0.87430085  0.75177799  0.86941681  1.0
  H  H12  1  0.05206071  0.25196348  0.75629571  1.0
  H  H13  1  0.94794781  0.75196273  0.24370564  1.0
  H  H14  1  0.94795186  0.25196047  0.25630071  1.0
  H  H15  1  0.05203898  0.75195518  0.74370278  1.0
  H  H16  1  0.20224201  0.33220001  0.82436655  1.0
  H  H17  1  0.79776167  0.83220553  0.17563618  1.0
  H  H18  1  0.79773848  0.33219529  0.32437002  1.0
  H  H19  1  0.20224046  0.83219747  0.67563164  1.0
  H  H20  1  0.42670532  0.33929633  0.91035082  1.0
  H  H21  1  0.57330178  0.83930177  0.08964813  1.0
  H  H22  1  0.57326661  0.33928738  0.41034902  1.0
  H  H23  1  0.42671574  0.83929906  0.58965155  1.0
  H  H24  1  0.75354647  0.30581903  0.73709915  1.0
  H  H25  1  0.24645882  0.80580840  0.26289614  1.0
  H  H26  1  0.24645231  0.30581341  0.23708676  1.0
  H  H27  1  0.75354119  0.80581235  0.76290960  1.0
  H  H28  1  0.53054561  0.29454940  0.65038229  1.0
  H  H29  1  0.46945751  0.79453497  0.34961410  1.0
  H  H30  1  0.46947004  0.29454135  0.15037732  1.0
  H  H31  1  0.53052365  0.79453412  0.84961853  1.0
  H  H32  1  0.69107792  0.42722760  0.49469118  1.0
  H  H33  1  0.30893364  0.92723159  0.50531237  1.0
  H  H34  1  0.30892774  0.42722862  0.99469787  1.0
  H  H35  1  0.69106614  0.92722724  0.00530299  1.0
  H  H36  1  0.10782196  0.47320234  0.38000571  1.0
  H  H37  1  0.89218885  0.97320456  0.62000255  1.0
  H  H38  1  0.89220678  0.47319137  0.87999116  1.0
  H  H39  1  0.10780639  0.97319774  0.11999398  1.0
  H  H40  1  0.91764594  0.59963536  0.37802093  1.0
  H  H41  1  0.08236860  0.09963529  0.62199159  1.0
  H  H42  1  0.08238310  0.59962438  0.87800248  1.0
  H  H43  1  0.91762554  0.09963183  0.12198210  1.0
  H  H44  1  0.79088190  0.67052158  0.46983316  1.0
  H  H45  1  0.20913031  0.17052579  0.53018239  1.0
  H  H46  1  0.20911515  0.67051738  0.96982001  1.0
  H  H47  1  0.79087230  0.17052054  0.03016866  1.0
  H  H48  1  0.56894422  0.75791066  0.49436503  1.0
  H  H49  1  0.43106774  0.25791308  0.50564920  1.0
  H  H50  1  0.43104664  0.75790960  0.99435285  1.0
  H  H51  1  0.56893822  0.25791192  0.00563988  1.0
  H  H52  1  0.23822803  0.57802967  0.47535394  1.0
  H  H53  1  0.76177508  0.07803202  0.52465381  1.0
  H  H54  1  0.76177405  0.57803304  0.97534483  1.0
  H  H55  1  0.23822080  0.07803421  0.02464626  1.0
  H  H56  1  0.45743061  0.49079842  0.44485436  1.0
  H  H57  1  0.54258699  0.99080314  0.55515868  1.0
  H  H58  1  0.54258592  0.49080087  0.94484321  1.0
  H  H59  1  0.45741518  0.99080014  0.05514511  1.0
  C  C60  1  0.21913373  0.32213324  0.61426166  1.0
  C  C61  1  0.78086540  0.82212764  0.38574003  1.0
  C  C62  1  0.78088155  0.32213024  0.11426513  1.0
  C  C63  1  0.21911405  0.82212675  0.88573495  1.0
  C  C64  1  0.99311525  0.27145654  0.64028608  1.0
  C  C65  1  0.00689295  0.77145643  0.35971468  1.0
  C  C66  1  0.00690080  0.27145507  0.14029261  1.0
  C  C67  1  0.99309091  0.77145512  0.85971029  1.0
  C  C68  1  0.07977106  0.27093231  0.70246752  1.0
  C  C69  1  0.92023715  0.77093206  0.29753377  1.0
  C  C70  1  0.92024250  0.27092940  0.20247308  1.0
  C  C71  1  0.07974568  0.77092719  0.79752875  1.0
  C  C72  1  0.35324801  0.31211635  0.73285525  1.0
  C  C73  1  0.64675954  0.81211212  0.26714378  1.0
  C  C74  1  0.64675304  0.31211104  0.23285556  1.0
  C  C75  1  0.35323565  0.81210688  0.76714293  1.0
  C  C76  1  0.32311219  0.32570204  0.80554162  1.0
  C  C77  1  0.67689160  0.82570236  0.19445683  1.0
  C  C78  1  0.67687669  0.32569161  0.30554407  1.0
  C  C79  1  0.32310942  0.82569444  0.69445599  1.0
  C  C80  1  0.44872179  0.33088920  0.85326443  1.0
  C  C81  1  0.55128309  0.83088732  0.14673293  1.0
  C  C82  1  0.55125629  0.33087643  0.35326372  1.0
  C  C83  1  0.44872737  0.83088398  0.64673795  1.0
  C  C84  1  0.60394752  0.32298471  0.82883835  1.0
  C  C85  1  0.39605395  0.82297772  0.17115850  1.0
  C  C86  1  0.39603664  0.32297247  0.32883288  1.0
  C  C87  1  0.60395188  0.82297718  0.67116612  1.0
  C  C88  1  0.63233456  0.31148068  0.75547152  1.0
  C  C89  1  0.36767182  0.81146802  0.24452536  1.0
  C  C90  1  0.36765938  0.31146853  0.25546283  1.0
  C  C91  1  0.63232814  0.81146960  0.74453513  1.0
  C  C92  1  0.50777139  0.30585339  0.70709727  1.0
  C  C93  1  0.49223508  0.80584183  0.29290124  1.0
  C  C94  1  0.49223570  0.30584471  0.20709229  1.0
  C  C95  1  0.50775662  0.80584051  0.79290568  1.0
  C  C96  1  0.73738301  0.32425529  0.88144745  1.0
  C  C97  1  0.26262433  0.82424891  0.11854832  1.0
  C  C98  1  0.26260455  0.32424461  0.38144096  1.0
  C  C99  1  0.73738630  0.82424959  0.61855911  1.0
  C  C100  1  0.77827814  0.45615388  0.46261825  1.0
  C  C101  1  0.22173060  0.95615641  0.53738522  1.0
  C  C102  1  0.22173774  0.45615186  0.96261961  1.0
  C  C103  1  0.77826746  0.95615231  0.03737633  1.0
  C  C104  1  0.99257997  0.48277938  0.40336355  1.0
  C  C105  1  0.00742598  0.98278302  0.59664038  1.0
  C  C106  1  0.00743796  0.48277532  0.90336071  1.0
  C  C107  1  0.99257034  0.98277875  0.09663193  1.0
  C  C108  1  0.90070309  0.54545966  0.40216059  1.0
  C  C109  1  0.09930879  0.04546072  0.59784832  1.0
  C  C110  1  0.09931382  0.54545306  0.90215287  1.0
  C  C111  1  0.90069099  0.04545676  0.09783830  1.0
  C  C112  1  0.63656088  0.57643417  0.45468213  1.0
  C  C113  1  0.36345050  0.07643614  0.54533207  1.0
  C  C114  1  0.36344716  0.57643000  0.95467053  1.0
  C  C115  1  0.63654772  0.07643419  0.04531949  1.0
  C  C116  1  0.66917174  0.65119067  0.46857657  1.0
  C  C117  1  0.33083607  0.15119057  0.53143957  1.0
  C  C118  1  0.33082799  0.65118717  0.96856337  1.0
  C  C119  1  0.66916568  0.15118907  0.03142912  1.0
  C  C120  1  0.54541292  0.69962562  0.48260922  1.0
  C  C121  1  0.45460116  0.19962737  0.51740356  1.0
  C  C122  1  0.45458362  0.69962504  0.98259972  1.0
  C  C123  1  0.54540807  0.19962740  0.01739425  1.0
  C  C124  1  0.39000012  0.67342632  0.48484094  1.0
  C  C125  1  0.61000968  0.17342810  0.51516762  1.0
  C  C126  1  0.60999685  0.67342910  0.98483297  1.0
  C  C127  1  0.38999528  0.17342811  0.01516376  1.0
  C  C128  1  0.35943500  0.59791128  0.47276105  1.0
  C  C129  1  0.64057013  0.09791459  0.52724503  1.0
  C  C130  1  0.64056558  0.59791284  0.97275361  1.0
  C  C131  1  0.35942895  0.09791359  0.02723688  1.0
  C  C132  1  0.48199537  0.54917848  0.45642151  1.0
  C  C133  1  0.51801409  0.04918160  0.54359169  1.0
  C  C134  1  0.51801193  0.54917768  0.95641144  1.0
  C  C135  1  0.48198222  0.04918074  0.04357918  1.0
  C  C136  1  0.25885614  0.72690315  0.49967336  1.0
  C  C137  1  0.74114926  0.22690564  0.50033182  1.0
  C  C138  1  0.74113640  0.72690548  0.99966856  1.0
  C  C139  1  0.25885250  0.22690831  0.00033071  1.0
  N  N140  1  0.08098469  0.30364317  0.58606681  1.0
  N  N141  1  0.91901709  0.80364091  0.41393385  1.0
  N  N142  1  0.91903213  0.30364137  0.08607183  1.0
  N  N143  1  0.08096259  0.80363938  0.91392991  1.0
  N  N144  1  0.22375791  0.30303540  0.68518297  1.0
  N  N145  1  0.77624506  0.80303059  0.31481770  1.0
  N  N146  1  0.77625281  0.30303076  0.18518644  1.0
  N  N147  1  0.22373956  0.80302634  0.81481261  1.0
  N  N148  1  0.91500055  0.42792859  0.44131123  1.0
  N  N149  1  0.08500511  0.92793263  0.55869070  1.0
  N  N150  1  0.08501112  0.42792538  0.94131212  1.0
  N  N151  1  0.91498865  0.92792751  0.05868336  1.0
  N  N152  1  0.76446065  0.52776026  0.43977016  1.0
  N  N153  1  0.23555034  0.02776207  0.56023773  1.0
  N  N154  1  0.23555293  0.52775486  0.93976452  1.0
  N  N155  1  0.76444746  0.02775857  0.06022777  1.0
  O  O156  1  0.87011058  0.29705082  0.86112350  1.0
  O  O157  1  0.12989013  0.79704929  0.13887235  1.0
  O  O158  1  0.12987393  0.29704005  0.36111493  1.0
  O  O159  1  0.87011736  0.79704562  0.63888361  1.0
  O  O160  1  0.71454739  0.35080933  0.94398607  1.0
  O  O161  1  0.28546188  0.85079806  0.05600909  1.0
  O  O162  1  0.28543253  0.35079747  0.44397850  1.0
  O  O163  1  0.71455906  0.85080437  0.55602096  1.0
  O  O164  1  0.28211987  0.79566704  0.48766743  1.0
  O  O165  1  0.71788204  0.29566902  0.51233326  1.0
  O  O166  1  0.71787039  0.79566667  0.98766210  1.0
  O  O167  1  0.28211857  0.29566939  0.01233697  1.0
  O  O168  1  0.12790605  0.70083714  0.52310674  1.0
  O  O169  1  0.87209977  0.20083870  0.47690012  1.0
  O  O170  1  0.87208677  0.70083884  0.02310480  1.0
  O  O171  1  0.12790019  0.20084089  0.97689723  1.0
