# generated using pymatgen
data_Zn4H18C27N2O17
_symmetry_space_group_name_H-M   'P 1'
_cell_length_a   10.83198490
_cell_length_b   10.91973258
_cell_length_c   19.49402290
_cell_angle_alpha   97.54665873
_cell_angle_beta   92.05652058
_cell_angle_gamma   98.09814118
_symmetry_Int_Tables_number   1
_chemical_formula_structural   Zn4H18C27N2O17
_chemical_formula_sum   'Zn4 H18 C27 N2 O17'
_cell_volume   2259.55613665
_cell_formula_units_Z   1
loop_
 _symmetry_equiv_pos_site_id
 _symmetry_equiv_pos_as_xyz
  1  'x, y, z'
loop_
 _atom_site_type_symbol
 _atom_site_label
 _atom_site_symmetry_multiplicity
 _atom_site_fract_x
 _atom_site_fract_y
 _atom_site_fract_z
 _atom_site_occupancy
  Zn  Zn0  1  0.40263841  0.58471459  0.44404991  1.0
  Zn  Zn1  1  0.39884575  0.38354547  0.55081848  1.0
  Zn  Zn2  1  0.61576361  0.62385247  0.56551846  1.0
  Zn  Zn3  1  0.60105570  0.40068117  0.43724085  1.0
  H  H4  1  0.30150876  0.51794708  0.23101646  1.0
  H  H5  1  0.44669772  0.31110759  0.75133311  1.0
  H  H6  1  0.65389318  0.53465333  0.00866642  1.0
  H  H7  1  0.65672727  0.39509479  0.09786815  1.0
  H  H8  1  0.66745211  0.41005557  0.22693148  1.0
  H  H9  1  0.38109501  0.40623152  0.98719739  1.0
  H  H10  1  0.63829493  0.68315427  0.91423275  1.0
  H  H11  1  0.49922430  0.01005980  0.58029261  1.0
  H  H12  1  0.50032365  0.98239649  0.42030860  1.0
  H  H13  1  0.02458908  0.64661002  0.51405646  1.0
  H  H14  1  0.98479085  0.35773544  0.49174585  1.0
  H  H15  1  0.99210060  0.49040830  0.07462134  1.0
  H  H16  1  0.05369858  0.46521380  0.99162999  1.0
  H  H17  1  0.96450505  0.33950859  0.02506658  1.0
  H  H18  1  0.19318470  0.32226794  0.03702987  1.0
  H  H19  1  0.13211561  0.34754886  0.11923239  1.0
  H  H20  1  0.21070459  0.57677572  0.12809645  1.0
  H  H21  1  0.27542249  0.55267659  0.04672584  1.0
  C  C22  1  0.49393838  0.16496469  0.48156888  1.0
  C  C23  1  0.50840862  0.82895280  0.51712783  1.0
  C  C24  1  0.17363901  0.46543220  0.49809220  1.0
  C  C25  1  0.83614116  0.53649953  0.50553171  1.0
  C  C26  1  0.51640378  0.50700704  0.68463497  1.0
  C  C27  1  0.49151027  0.47723942  0.31357208  1.0
  C  C28  1  0.48483582  0.46535052  0.23648595  1.0
  C  C29  1  0.37829306  0.48989062  0.20093477  1.0
  C  C30  1  0.36935144  0.48087386  0.12878068  1.0
  C  C31  1  0.47259948  0.44848855  0.09139361  1.0
  C  C32  1  0.57933242  0.42341692  0.12739215  1.0
  C  C33  1  0.58558198  0.43063956  0.19908673  1.0
  C  C34  1  0.50738930  0.38487910  0.85705624  1.0
  C  C35  1  0.48848013  0.39296310  0.78694317  1.0
  C  C36  1  0.57997944  0.60795922  0.80914458  1.0
  C  C37  1  0.59840580  0.59987891  0.87908075  1.0
  C  C38  1  0.56020144  0.48765467  0.90548190  1.0
  C  C39  1  0.46995930  0.44342042  0.01595578  1.0
  C  C40  1  0.56758315  0.48703010  0.98061970  1.0
  C  C41  1  0.52601457  0.50519681  0.76141913  1.0
  C  C42  1  0.49818884  0.96416223  0.52704651  1.0
  C  C43  1  0.49499108  0.02825769  0.47308051  1.0
  C  C44  1  0.97443727  0.55156167  0.50511355  1.0
  C  C45  1  0.03540685  0.45248628  0.49693381  1.0
  C  C46  1  0.25231575  0.50817334  0.09307855  1.0
  C  C47  1  0.15366563  0.39175605  0.07259266  1.0
  C  C48  1  0.03438564  0.42319598  0.03912676  1.0
  N  N49  1  0.60983451  0.73355016  0.78783698  1.0
  N  N50  1  0.47542304  0.25970531  0.87853819  1.0
  O  O51  1  0.50505778  0.49862531  0.50131375  1.0
  O  O52  1  0.54187111  0.22088116  0.43303707  1.0
  O  O53  1  0.46382938  0.76484345  0.45981590  1.0
  O  O54  1  0.22234049  0.37784123  0.52130867  1.0
  O  O55  1  0.78975313  0.62678755  0.53855152  1.0
  O  O56  1  0.42402092  0.43566950  0.65188383  1.0
  O  O57  1  0.58569621  0.44196652  0.34266704  1.0
  O  O58  1  0.60386791  0.57521854  0.65975453  1.0
  O  O59  1  0.40284040  0.52238730  0.34514883  1.0
  O  O60  1  0.23128623  0.56106681  0.47567339  1.0
  O  O61  1  0.77604189  0.43553097  0.47276935  1.0
  O  O62  1  0.44648872  0.21496754  0.53537099  1.0
  O  O63  1  0.56198205  0.78881566  0.56739352  1.0
  O  O64  1  0.52687933  0.77010212  0.75406763  1.0
  O  O65  1  0.71312062  0.79359627  0.80783203  1.0
  O  O66  1  0.37177638  0.20058120  0.85778491  1.0
  O  O67  1  0.55547298  0.22219616  0.91400597  1.0
