# generated using pymatgen
data_Zn4H26C48Cl4O13
_symmetry_space_group_name_H-M   'P 1'
_cell_length_a   19.53201253
_cell_length_b   19.54719242
_cell_length_c   19.60656816
_cell_angle_alpha   89.92996710
_cell_angle_beta   84.72858523
_cell_angle_gamma   83.93177010
_symmetry_Int_Tables_number   1
_chemical_formula_structural   Zn4H26C48Cl4O13
_chemical_formula_sum   'Zn4 H26 C48 Cl4 O13'
_cell_volume   7412.01018709
_cell_formula_units_Z   1
loop_
 _symmetry_equiv_pos_site_id
 _symmetry_equiv_pos_as_xyz
  1  'x, y, z'
loop_
 _atom_site_type_symbol
 _atom_site_label
 _atom_site_symmetry_multiplicity
 _atom_site_fract_x
 _atom_site_fract_y
 _atom_site_fract_z
 _atom_site_occupancy
  Zn  Zn0  1  0.44015617  0.55657141  0.43967187  1.0
  Zn  Zn1  1  0.44297387  0.44869956  0.56362577  1.0
  Zn  Zn2  1  0.55044458  0.55719531  0.55127422  1.0
  Zn  Zn3  1  0.56334970  0.43493192  0.43771795  1.0
  H  H4  1  0.43166416  0.57152058  0.23194951  1.0
  H  H5  1  0.52362343  0.11198413  0.63675115  1.0
  H  H6  1  0.75722732  0.51166936  0.59206091  1.0
  H  H7  1  0.22905467  0.55091709  0.41625562  1.0
  H  H8  1  0.22960501  0.48352789  0.62484880  1.0
  H  H9  1  0.99353388  0.50783448  0.58574781  1.0
  H  H10  1  0.90755749  0.48471389  0.37439867  1.0
  H  H11  1  0.10174227  0.55065150  0.42292026  1.0
  H  H12  1  0.00524194  0.50554981  0.42807616  1.0
  H  H13  1  0.88265608  0.51750461  0.59368943  1.0
  H  H14  1  0.53029600  0.61166899  0.76111660  1.0
  H  H15  1  0.52514237  0.61769488  0.88874233  1.0
  H  H16  1  0.10140229  0.48535504  0.63338380  1.0
  H  H17  1  0.48392669  0.57332910  0.00039392  1.0
  H  H18  1  0.57084590  0.37985595  0.09976845  1.0
  H  H19  1  0.44676565  0.41954502  0.90133209  1.0
  H  H20  1  0.57605988  0.38950942  0.22618410  1.0
  H  H21  1  0.51055728  0.41546860  0.99667147  1.0
  H  H22  1  0.42677141  0.56319777  0.10581111  1.0
  H  H23  1  0.49403512  0.76251204  0.59315769  1.0
  H  H24  1  0.52710487  0.22115476  0.40841595  1.0
  H  H25  1  0.48598550  0.90171211  0.38232490  1.0
  H  H26  1  0.53471587  0.09393010  0.41654786  1.0
  H  H27  1  0.47428594  0.00690133  0.45071140  1.0
  H  H28  1  0.49574786  0.88821927  0.60128471  1.0
  H  H29  1  0.44955220  0.41554613  0.77400335  1.0
  C  C30  1  0.50962369  0.31510591  0.50822030  1.0
  C  C31  1  0.49885822  0.46692745  0.01951101  1.0
  C  C32  1  0.48855635  0.52159479  0.97798102  1.0
  C  C33  1  0.48844679  0.68392960  0.48620931  1.0
  C  C34  1  0.49097083  0.51286383  0.76002285  1.0
  C  C35  1  0.48724016  0.76053103  0.48471612  1.0
  C  C36  1  0.49185401  0.79389663  0.54726259  1.0
  C  C37  1  0.49395287  0.86433925  0.55157868  1.0
  C  C38  1  0.49366374  0.90469953  0.49197081  1.0
  C  C39  1  0.48698651  0.87192822  0.42935677  1.0
  C  C40  1  0.48369657  0.80107434  0.42559835  1.0
  C  C41  1  0.49970527  0.47174226  0.09363235  1.0
  C  C42  1  0.52855713  0.12527889  0.46306516  1.0
  C  C43  1  0.52442531  0.19648067  0.45834828  1.0
  C  C44  1  0.51673599  0.20675670  0.58131553  1.0
  C  C45  1  0.31403437  0.51245193  0.51362767  1.0
  C  C46  1  0.52288852  0.13532373  0.58638515  1.0
  C  C47  1  0.52720868  0.09366083  0.52761310  1.0
  C  C48  1  0.49861031  0.97863711  0.49186357  1.0
  C  C49  1  0.52917740  0.01832471  0.53411714  1.0
  C  C50  1  0.51695097  0.23861598  0.51701078  1.0
  C  C51  1  0.76094052  0.49235455  0.48414303  1.0
  C  C52  1  0.54045634  0.42206756  0.12876240  1.0
  C  C53  1  0.79132352  0.50449554  0.54484775  1.0
  C  C54  1  0.86164184  0.50794134  0.54542527  1.0
  C  C55  1  0.90539912  0.50100894  0.48390067  1.0
  C  C56  1  0.87533797  0.48952034  0.42300320  1.0
  C  C57  1  0.68433573  0.49098428  0.48913522  1.0
  C  C58  1  0.80459825  0.48449495  0.42282244  1.0
  C  C59  1  0.12933125  0.53499495  0.46721456  1.0
  C  C60  1  0.20051446  0.53560872  0.46317431  1.0
  C  C61  1  0.20090283  0.49807679  0.58103006  1.0
  C  C62  1  0.12939832  0.49900948  0.58536737  1.0
  C  C63  1  0.54362082  0.42719006  0.19910976  1.0
  C  C64  1  0.09226144  0.51542031  0.52807592  1.0
  C  C65  1  0.97942012  0.50638725  0.48003755  1.0
  C  C66  1  0.01804785  0.51063169  0.53348369  1.0
  C  C67  1  0.23721658  0.51581482  0.51960285  1.0
  C  C68  1  0.49345698  0.50940778  0.68402683  1.0
  C  C69  1  0.50572276  0.48660067  0.31211550  1.0
  C  C70  1  0.50453001  0.48135097  0.23646317  1.0
  C  C71  1  0.46269646  0.53041097  0.20217984  1.0
  C  C72  1  0.46052458  0.52575926  0.13184380  1.0
  C  C73  1  0.46610552  0.46123647  0.87066485  1.0
  C  C74  1  0.46719855  0.45888344  0.79981052  1.0
  C  C75  1  0.51201186  0.57002713  0.79245949  1.0
  C  C76  1  0.50916199  0.57303675  0.86346047  1.0
  C  C77  1  0.48765440  0.51813551  0.90384154  1.0
  Cl  Cl78  1  0.51246627  0.25413918  0.65638694  1.0
  Cl  Cl79  1  0.57432935  0.98406748  0.60102874  1.0
  Cl  Cl80  1  0.47958411  0.76511206  0.34565766  1.0
  Cl  Cl81  1  0.77374673  0.47262405  0.34421506  1.0
  O  O82  1  0.49989038  0.49877246  0.49704900  1.0
  O  O83  1  0.46539376  0.46049209  0.65823782  1.0
  O  O84  1  0.54690801  0.44249726  0.34064807  1.0
  O  O85  1  0.52375685  0.55544875  0.65022331  1.0
  O  O86  1  0.46513497  0.53492664  0.34249506  1.0
  O  O87  1  0.34303699  0.53969499  0.46073057  1.0
  O  O88  1  0.65955307  0.45074329  0.44915387  1.0
  O  O89  1  0.46079044  0.34919574  0.54518080  1.0
  O  O90  1  0.53067254  0.65391623  0.52543466  1.0
  O  O91  1  0.55213260  0.33849633  0.46311739  1.0
  O  O92  1  0.44763456  0.65564388  0.45079163  1.0
  O  O93  1  0.34492205  0.48175751  0.56167532  1.0
  O  O94  1  0.65026573  0.53059568  0.53505937  1.0
