# generated using pymatgen
data_ZnH9C18NO7
_symmetry_space_group_name_H-M   'P 1'
_cell_length_a   10.83949411
_cell_length_b   11.49934996
_cell_length_c   13.22246578
_cell_angle_alpha   109.05277789
_cell_angle_beta   90.92447929
_cell_angle_gamma   107.92585353
_symmetry_Int_Tables_number   1
_chemical_formula_structural   ZnH9C18NO7
_chemical_formula_sum   'Zn2 H18 C36 N2 O14'
_cell_volume   1469.71704621
_cell_formula_units_Z   2
loop_
 _symmetry_equiv_pos_site_id
 _symmetry_equiv_pos_as_xyz
  1  'x, y, z'
loop_
 _atom_site_type_symbol
 _atom_site_label
 _atom_site_symmetry_multiplicity
 _atom_site_fract_x
 _atom_site_fract_y
 _atom_site_fract_z
 _atom_site_occupancy
  Zn  Zn0  1  0.55157108  0.63988048  0.53215571  1.0
  Zn  Zn1  1  0.44845611  0.36012444  0.46784578  1.0
  H  H2  1  0.02817660  0.32406116  0.34781567  1.0
  H  H3  1  0.97185043  0.67592378  0.65219549  1.0
  H  H4  1  0.11742067  0.71088045  0.48202350  1.0
  H  H5  1  0.88261227  0.28910456  0.51799454  1.0
  H  H6  1  0.49705540  0.33869409  0.78959188  1.0
  H  H7  1  0.50296699  0.66136167  0.21042811  1.0
  H  H8  1  0.50527973  0.73508186  0.87297450  1.0
  H  H9  1  0.49472567  0.26496256  0.12703295  1.0
  H  H10  1  0.49505020  0.24162804  0.93333935  1.0
  H  H11  1  0.50501336  0.75844408  0.06667169  1.0
  H  H12  1  0.35795209  0.05059639  0.67259492  1.0
  H  H13  1  0.64200888  0.94937706  0.32738706  1.0
  H  H14  1  0.97529615  0.53393988  0.25267050  1.0
  H  H15  1  0.02476015  0.46608556  0.74736186  1.0
  H  H16  1  0.50454162  0.80077044  0.70306277  1.0
  H  H17  1  0.49544228  0.19922535  0.29692898  1.0
  H  H18  1  0.73818978  0.77586352  0.31004760  1.0
  H  H19  1  0.26185722  0.22420205  0.68997698  1.0
  C  C20  1  0.49913034  0.47674898  0.29549207  1.0
  C  C21  1  0.50088411  0.52328615  0.70451378  1.0
  C  C22  1  0.50176589  0.57018738  0.14929193  1.0
  C  C23  1  0.49826322  0.42986977  0.85072673  1.0
  C  C24  1  0.50125644  0.56054576  0.03984332  1.0
  C  C25  1  0.49878159  0.43951409  0.96017498  1.0
  C  C26  1  0.39487793  0.06140931  0.59895106  1.0
  C  C27  1  0.60507886  0.93856633  0.40103054  1.0
  C  C28  1  0.35970703  0.14046766  0.55299165  1.0
  C  C29  1  0.64027236  0.85953547  0.44700824  1.0
  C  C30  1  0.48584807  0.09722509  0.41306184  1.0
  C  C31  1  0.51408189  0.90273252  0.58690615  1.0
  C  C32  1  0.52261831  0.00804697  0.45145711  1.0
  C  C33  1  0.47732661  0.99191961  0.54851155  1.0
  C  C34  1  0.73090005  0.47830108  0.50308214  1.0
  C  C35  1  0.26912087  0.52167945  0.49691835  1.0
  C  C36  1  0.94931047  0.50504563  0.40746742  1.0
  C  C37  1  0.05071910  0.49494189  0.59254646  1.0
  C  C38  1  0.01487956  0.40195078  0.41613465  1.0
  C  C39  1  0.98514573  0.59802987  0.58387886  1.0
  C  C40  1  0.12979293  0.51466236  0.49712476  1.0
  C  C41  1  0.87023257  0.48531976  0.50288671  1.0
  C  C42  1  0.06609728  0.61710747  0.49042413  1.0
  C  C43  1  0.93393055  0.38287626  0.50958990  1.0
  C  C44  1  0.50096367  0.53482026  0.82024957  1.0
  C  C45  1  0.49905488  0.46522818  0.17976232  1.0
  C  C46  1  0.49643240  0.33345666  0.99383687  1.0
  C  C47  1  0.50360733  0.66666667  0.00617687  1.0
  C  C48  1  0.49584834  0.34565553  0.10078876  1.0
  C  C49  1  0.50416737  0.65439311  0.89922088  1.0
  C  C50  1  0.89813245  0.50627490  0.30404758  1.0
  C  C51  1  0.10190955  0.49370284  0.69596001  1.0
  C  C52  1  0.46991158  0.87466012  0.68636961  1.0
  C  C53  1  0.52996113  0.12524480  0.31357145  1.0
  C  C54  1  0.74140602  0.80106719  0.39909405  1.0
  C  C55  1  0.25860545  0.19897223  0.60092708  1.0
  N  N56  1  0.59224743  0.83874313  0.53680941  1.0
  N  N57  1  0.40771980  0.16124832  0.46318322  1.0
  O  O58  1  0.53387750  0.59132241  0.36642405  1.0
  O  O59  1  0.46612715  0.40870957  0.63358514  1.0
  O  O60  1  0.46249570  0.37137455  0.31602974  1.0
  O  O61  1  0.53753913  0.62865678  0.68397308  1.0
  O  O62  1  0.71273788  0.58785293  0.53236295  1.0
  O  O63  1  0.28727872  0.41212510  0.46761647  1.0
  O  O64  1  0.64265969  0.36658120  0.47526327  1.0
  O  O65  1  0.35735757  0.63339921  0.52473876  1.0
  O  O66  1  0.78241639  0.47838562  0.27269779  1.0
  O  O67  1  0.21762458  0.52153057  0.72727575  1.0
  O  O68  1  0.40552830  0.93022383  0.74716867  1.0
  O  O69  1  0.59421367  0.06955811  0.25271106  1.0
  O  O70  1  0.82624678  0.79136431  0.45426422  1.0
  O  O71  1  0.17374465  0.20866150  0.54576851  1.0
