# generated using pymatgen
data_ZnH12C22N3O10
_symmetry_space_group_name_H-M   'P 1'
_cell_length_a   16.34595400
_cell_length_b   17.56178246
_cell_length_c   18.04927004
_cell_angle_alpha   90.17019700
_cell_angle_beta   92.57370686
_cell_angle_gamma   95.42593096
_symmetry_Int_Tables_number   1
_chemical_formula_structural   ZnH12C22N3O10
_chemical_formula_sum   'Zn2 H24 C44 N6 O20'
_cell_volume   5152.74254259
_cell_formula_units_Z   2
loop_
 _symmetry_equiv_pos_site_id
 _symmetry_equiv_pos_as_xyz
  1  'x, y, z'
loop_
 _atom_site_type_symbol
 _atom_site_label
 _atom_site_symmetry_multiplicity
 _atom_site_fract_x
 _atom_site_fract_y
 _atom_site_fract_z
 _atom_site_occupancy
  Zn  Zn0  1  0.41090513  0.49828789  0.49983073  1.0
  Zn  Zn1  1  0.58948440  0.50161074  0.50042886  1.0
  H  H2  1  0.71454259  0.44235536  0.41619739  1.0
  H  H3  1  0.86599356  0.44479255  0.41454486  1.0
  H  H4  1  0.87872534  0.57613536  0.61973617  1.0
  H  H5  1  0.12187152  0.42346558  0.37939643  1.0
  H  H6  1  0.13400998  0.55594450  0.58384917  1.0
  H  H7  1  0.28546907  0.55782387  0.58289612  1.0
  H  H8  1  0.00466002  0.55129223  0.56920104  1.0
  H  H9  1  0.99564751  0.44916023  0.42927524  1.0
  H  H10  1  0.61364363  0.26466503  0.50862800  1.0
  H  H11  1  0.60956239  0.12360631  0.50460378  1.0
  H  H12  1  0.34327500  0.10959490  0.50031431  1.0
  H  H13  1  0.65621443  0.89054010  0.50080495  1.0
  H  H14  1  0.38983547  0.87610916  0.49385051  1.0
  H  H15  1  0.38605349  0.73503380  0.48974511  1.0
  H  H16  1  0.40501898  0.99552669  0.49608523  1.0
  H  H17  1  0.59426265  0.00438210  0.50349199  1.0
  H  H18  1  0.37032826  0.51809382  0.73610581  1.0
  H  H19  1  0.63188701  0.49926065  0.74516025  1.0
  H  H20  1  0.36643365  0.47341427  0.25431163  1.0
  H  H21  1  0.63161077  0.51011337  0.26505659  1.0
  H  H22  1  0.66179887  0.55424832  0.62543443  1.0
  H  H23  1  0.33910617  0.44337263  0.37532817  1.0
  H  H24  1  0.34859670  0.31062011  0.50800679  1.0
  H  H25  1  0.65144259  0.68950142  0.49632725  1.0
  C  C26  1  0.48836271  0.35132100  0.50811868  1.0
  C  C27  1  0.50230963  0.48900319  0.35264355  1.0
  C  C28  1  0.51162153  0.64860269  0.49195045  1.0
  C  C29  1  0.49858255  0.51116320  0.64771343  1.0
  C  C30  1  0.75403099  0.47089962  0.46018498  1.0
  C  C31  1  0.83833837  0.47277602  0.45968745  1.0
  C  C32  1  0.88659429  0.51175035  0.51766572  1.0
  C  C33  1  0.84551538  0.54584486  0.57316961  1.0
  C  C34  1  0.75915198  0.54002147  0.57087703  1.0
  C  C35  1  0.97612360  0.51704562  0.52264645  1.0
  C  C36  1  0.02417342  0.48345145  0.47581207  1.0
  C  C37  1  0.15493983  0.45393687  0.42593136  1.0
  C  C38  1  0.11369421  0.48852960  0.48101442  1.0
  C  C39  1  0.16180153  0.52765230  0.53898652  1.0
  C  C40  1  0.24609809  0.52918942  0.53888742  1.0
  C  C41  1  0.24130112  0.45921420  0.42874761  1.0
  C  C42  1  0.48267655  0.26730045  0.50720449  1.0
  C  C43  1  0.55501769  0.22942995  0.50697008  1.0
  C  C44  1  0.55234021  0.15071165  0.50470383  1.0
  C  C45  1  0.47553841  0.10564255  0.50212925  1.0
  C  C46  1  0.40329185  0.14266358  0.50234146  1.0
  C  C47  1  0.40549854  0.22257295  0.50521605  1.0
  C  C48  1  0.46819991  0.02242546  0.49925299  1.0
  C  C49  1  0.53108491  0.97747031  0.50024439  1.0
  C  C50  1  0.59624679  0.85736737  0.49830001  1.0
  C  C51  1  0.52386376  0.89425119  0.49753449  1.0
  C  C52  1  0.44712771  0.84906783  0.49438461  1.0
  C  C53  1  0.44462489  0.77035664  0.49214970  1.0
  C  C54  1  0.51709825  0.73261988  0.49301887  1.0
  C  C55  1  0.59424595  0.77745468  0.49611897  1.0
  C  C56  1  0.50085307  0.50983221  0.73087796  1.0
  C  C57  1  0.42794322  0.51385382  0.76771649  1.0
  C  C58  1  0.42918137  0.51281063  0.84444530  1.0
  C  C59  1  0.50126670  0.50337777  0.88879065  1.0
  C  C60  1  0.57312742  0.49727776  0.84887405  1.0
  C  C61  1  0.57407417  0.50246509  0.77221911  1.0
  C  C62  1  0.50082994  0.50024352  0.96648110  1.0
  C  C63  1  0.49856839  0.49827696  0.03382450  1.0
  C  C64  1  0.49848470  0.49612177  0.11155214  1.0
  C  C65  1  0.42550148  0.48242771  0.15090492  1.0
  C  C66  1  0.42512986  0.48154438  0.22774859  1.0
  C  C67  1  0.49959120  0.49055712  0.26949417  1.0
  C  C68  1  0.57335733  0.50288016  0.23307651  1.0
  C  C69  1  0.57205121  0.50748246  0.15649909  1.0
  N  N70  1  0.71414461  0.50415851  0.51428022  1.0
  N  N71  1  0.28617234  0.49534891  0.48529291  1.0
  N  N72  1  0.65138915  0.48365998  0.88878103  1.0
  N  N73  1  0.35072921  0.52225125  0.87962606  1.0
  N  N74  1  0.65190758  0.52619561  0.12223698  1.0
  N  N75  1  0.34501625  0.46822317  0.10999899  1.0
  O  O76  1  0.42031514  0.38360431  0.51044388  1.0
  O  O77  1  0.55891837  0.38857995  0.50623781  1.0
  O  O78  1  0.57264274  0.49671432  0.38541246  1.0
  O  O79  1  0.43381304  0.48113198  0.38470540  1.0
  O  O80  1  0.58004754  0.61659673  0.49474955  1.0
  O  O81  1  0.44100874  0.61100674  0.48865418  1.0
  O  O82  1  0.42856948  0.50933914  0.61459839  1.0
  O  O83  1  0.56732147  0.51267075  0.61626466  1.0
  O  O84  1  0.72227770  0.57103793  0.62644938  1.0
  O  O85  1  0.27835311  0.42736612  0.37377948  1.0
  O  O86  1  0.33333333  0.25401075  0.50558286  1.0
  O  O87  1  0.66657938  0.74616655  0.49721122  1.0
  O  O88  1  0.64722617  0.44155697  0.94352917  1.0
  O  O89  1  0.71519315  0.51452863  0.86321856  1.0
  O  O90  1  0.35376271  0.56350965  0.93543891  1.0
  O  O91  1  0.28784522  0.48904984  0.84913775  1.0
  O  O92  1  0.65330123  0.57115209  0.06967894  1.0
  O  O93  1  0.71156069  0.49642806  0.15024288  1.0
  O  O94  1  0.34247835  0.42905025  0.05278907  1.0
  O  O95  1  0.28616490  0.49592009  0.13720134  1.0
