# generated using pymatgen
data_Zn2H25C36N3O7
_symmetry_space_group_name_H-M   'P 1'
_cell_length_a   6.93616854
_cell_length_b   21.86216667
_cell_length_c   24.07737103
_cell_angle_alpha   107.06379094
_cell_angle_beta   89.99994102
_cell_angle_gamma   89.99955153
_symmetry_Int_Tables_number   1
_chemical_formula_structural   Zn2H25C36N3O7
_chemical_formula_sum   'Zn8 H100 C144 N12 O28'
_cell_volume   3490.35897786
_cell_formula_units_Z   4
loop_
 _symmetry_equiv_pos_site_id
 _symmetry_equiv_pos_as_xyz
  1  'x, y, z'
loop_
 _atom_site_type_symbol
 _atom_site_label
 _atom_site_symmetry_multiplicity
 _atom_site_fract_x
 _atom_site_fract_y
 _atom_site_fract_z
 _atom_site_occupancy
  Zn  Zn0  1  0.53331863  0.75688482  0.56545448  1.0
  Zn  Zn1  1  0.96669281  0.75689151  0.06545887  1.0
  Zn  Zn2  1  0.46668468  0.24311540  0.43454678  1.0
  Zn  Zn3  1  0.03332204  0.24311069  0.93454621  1.0
  Zn  Zn4  1  0.52060608  0.73605860  0.41807582  1.0
  Zn  Zn5  1  0.97939592  0.73606180  0.91808083  1.0
  Zn  Zn6  1  0.47938569  0.26394058  0.58192145  1.0
  Zn  Zn7  1  0.02060450  0.26394133  0.08192367  1.0
  H  H8  1  0.32652914  0.59518393  0.61028179  1.0
  H  H9  1  0.17348015  0.59519074  0.11027551  1.0
  H  H10  1  0.67347272  0.40481160  0.38972287  1.0
  H  H11  1  0.82653614  0.40481655  0.88972296  1.0
  H  H12  1  0.85509004  0.63917144  0.51390227  1.0
  H  H13  1  0.64495189  0.63917946  0.01390460  1.0
  H  H14  1  0.14493201  0.36082354  0.48609893  1.0
  H  H15  1  0.35508314  0.36082449  0.98609345  1.0
  H  H16  1  0.09234569  0.89792931  0.60567932  1.0
  H  H17  1  0.40764315  0.89793222  0.10567738  1.0
  H  H18  1  0.90764609  0.10207233  0.39432147  1.0
  H  H19  1  0.59234574  0.10207560  0.89432372  1.0
  H  H20  1  0.54917168  0.99823603  0.55040496  1.0
  H  H21  1  0.95081076  0.99824451  0.05040191  1.0
  H  H22  1  0.45082298  0.00176131  0.44959517  1.0
  H  H23  1  0.04917092  0.00175846  0.94959465  1.0
  H  H24  1  0.60984534  0.81204898  0.80601924  1.0
  H  H25  1  0.89014798  0.81205197  0.30601816  1.0
  H  H26  1  0.39015076  0.18794798  0.19398578  1.0
  H  H27  1  0.10984235  0.18794585  0.69398251  1.0
  H  H28  1  0.60183841  0.68802135  0.65415177  1.0
  H  H29  1  0.89817296  0.68802433  0.15415151  1.0
  H  H30  1  0.39817499  0.31197745  0.34585039  1.0
  H  H31  1  0.10183179  0.31197922  0.84585017  1.0
  H  H32  1  0.87094525  0.67384131  0.71770713  1.0
  H  H33  1  0.62905614  0.67384212  0.21770351  1.0
  H  H34  1  0.12906382  0.32615559  0.28229496  1.0
  H  H35  1  0.37093852  0.32615899  0.78229507  1.0
  H  H36  1  0.33440787  0.82913168  0.74600392  1.0
  H  H37  1  0.16558936  0.82912955  0.24600163  1.0
  H  H38  1  0.66558390  0.17086866  0.25400319  1.0
  H  H39  1  0.83440530  0.17086635  0.75399814  1.0
  H  H40  1  0.15795270  0.63339045  0.71876659  1.0
  H  H41  1  0.34204516  0.63339406  0.21876609  1.0
  H  H42  1  0.84205350  0.36660446  0.28123127  1.0
  H  H43  1  0.65795238  0.36660275  0.78123141  1.0
  H  H44  1  0.91128870  0.82027610  0.59804804  1.0
  H  H45  1  0.58870951  0.82027851  0.09804774  1.0
  H  H46  1  0.08871461  0.17972368  0.40195519  1.0
  H  H47  1  0.41128083  0.17971979  0.90195304  1.0
  H  H48  1  0.43786093  0.61701340  0.77762750  1.0
  H  H49  1  0.06214865  0.61701736  0.27762926  1.0
  H  H50  1  0.56214527  0.38298339  0.22236917  1.0
  H  H51  1  0.93785754  0.38298138  0.72236997  1.0
  H  H52  1  0.19466395  0.81216621  0.65808768  1.0
  H  H53  1  0.30532682  0.81217184  0.15808812  1.0
  H  H54  1  0.80533359  0.18782733  0.34191275  1.0
  H  H55  1  0.69465630  0.18783023  0.84191071  1.0
  H  H56  1  0.09488847  0.12869523  0.51450140  1.0
  H  H57  1  0.40511830  0.12869622  0.01449815  1.0
  H  H58  1  0.90510763  0.87130354  0.48549909  1.0
  H  H59  1  0.59487925  0.87130579  0.98549817  1.0
  H  H60  1  0.74620233  0.07787066  0.64313165  1.0
  H  H61  1  0.75378380  0.07786974  0.14313046  1.0
  H  H62  1  0.25379088  0.92213144  0.35686884  1.0
  H  H63  1  0.24620365  0.92213283  0.85686932  1.0
  H  H64  1  0.52743924  0.16739006  0.64186116  1.0
  H  H65  1  0.97254612  0.16739048  0.14186231  1.0
  H  H66  1  0.47255253  0.83261064  0.35814023  1.0
  H  H67  1  0.02744133  0.83261254  0.85813633  1.0
  H  H68  1  0.86323998  0.98330175  0.60372402  1.0
  H  H69  1  0.63674120  0.98330689  0.10372356  1.0
  H  H70  1  0.13675180  0.01669940  0.39627665  1.0
  H  H71  1  0.36324048  0.01670193  0.89627945  1.0
  H  H72  1  0.86401516  0.21724661  0.51949811  1.0
  H  H73  1  0.63598817  0.21724941  0.01949955  1.0
  H  H74  1  0.13598238  0.78275115  0.48049964  1.0
  H  H75  1  0.36400793  0.78275312  0.98049856  1.0
  H  H76  1  0.32565033  0.08666361  0.55059136  1.0
  H  H77  1  0.17433860  0.08667046  0.05058716  1.0
  H  H78  1  0.67434577  0.91333324  0.44940823  1.0
  H  H79  1  0.82564020  0.91333197  0.94940635  1.0
  H  H80  1  0.04068190  0.41664203  0.60935390  1.0
  H  H81  1  0.45930874  0.41664669  0.10935113  1.0
  H  H82  1  0.95930843  0.58335733  0.39065214  1.0
  H  H83  1  0.54069456  0.58336166  0.89065217  1.0
  H  H84  1  0.87221422  0.31983586  0.60976466  1.0
  H  H85  1  0.62776461  0.31983865  0.10976486  1.0
  H  H86  1  0.12777323  0.68016245  0.39023655  1.0
  H  H87  1  0.37222284  0.68016836  0.89024268  1.0
  H  H88  1  0.66551816  0.54921167  0.52976783  1.0
  H  H89  1  0.83449709  0.54921438  0.02976918  1.0
  H  H90  1  0.33448947  0.45078516  0.47023093  1.0
  H  H91  1  0.16551198  0.45078436  0.97022963  1.0
  H  H92  1  0.13966768  0.50662453  0.62891525  1.0
  H  H93  1  0.36033653  0.50662888  0.12890746  1.0
  H  H94  1  0.86033707  0.49337151  0.37109120  1.0
  H  H95  1  0.63967976  0.49337553  0.87108988  1.0
  H  H96  1  0.34827721  0.38824689  0.57072339  1.0
  H  H97  1  0.15172004  0.38824404  0.07073006  1.0
  H  H98  1  0.65171601  0.61175314  0.42926911  1.0
  H  H99  1  0.84828327  0.61175424  0.92926989  1.0
  H  H100  1  0.49693873  0.48974147  0.56568038  1.0
  H  H101  1  0.00306756  0.48973648  0.06567868  1.0
  H  H102  1  0.50306890  0.51026014  0.43431915  1.0
  H  H103  1  0.99693430  0.51025979  0.93431579  1.0
  H  H104  1  0.68580725  0.80328758  0.50389178  1.0
  H  H105  1  0.81420326  0.80329663  0.00389764  1.0
  H  H106  1  0.31419606  0.19670687  0.49610680  1.0
  H  H107  1  0.18580582  0.19670943  0.99611008  1.0
  C  C108  1  0.46887652  0.88708757  0.57359523  1.0
  C  C109  1  0.03110982  0.88709395  0.07359471  1.0
  C  C110  1  0.53111813  0.11291027  0.42640627  1.0
  C  C111  1  0.96887331  0.11291056  0.92640722  1.0
  C  C112  1  0.10364073  0.62128406  0.55970428  1.0
  C  C113  1  0.39637963  0.62129175  0.05970147  1.0
  C  C114  1  0.89636834  0.37871042  0.44029596  1.0
  C  C115  1  0.60363665  0.37870976  0.94029348  1.0
  C  C116  1  0.21793229  0.67508991  0.54911837  1.0
  C  C117  1  0.28208822  0.67509560  0.04911799  1.0
  C  C118  1  0.78207823  0.32490599  0.45088140  1.0
  C  C119  1  0.71794104  0.32490934  0.95088155  1.0
  C  C120  1  0.18203600  0.58396863  0.59247266  1.0
  C  C121  1  0.31798517  0.58397892  0.09246970  1.0
  C  C122  1  0.81797164  0.41602733  0.40753003  1.0
  C  C123  1  0.68203400  0.41602740  0.90752770  1.0
  C  C124  1  0.91573769  0.60872680  0.53817470  1.0
  C  C125  1  0.58429049  0.60873404  0.03817728  1.0
  C  C126  1  0.08427860  0.39127007  0.46182573  1.0
  C  C127  1  0.41572868  0.39126989  0.96181952  1.0
  C  C128  1  0.33565386  0.94272658  0.57858525  1.0
  C  C129  1  0.16433397  0.94273254  0.07858250  1.0
  C  C130  1  0.66434368  0.05727218  0.42141482  1.0
  C  C131  1  0.83564771  0.05727283  0.92141508  1.0
  C  C132  1  0.69701868  0.70337775  0.83517470  1.0
  C  C133  1  0.80298876  0.70338245  0.33517573  1.0
  C  C134  1  0.30298463  0.29661916  0.16482782  1.0
  C  C135  1  0.19701166  0.29661393  0.66482416  1.0
  C  C136  1  0.14235839  0.94000780  0.59460830  1.0
  C  C137  1  0.35763089  0.94000939  0.09460439  1.0
  C  C138  1  0.85763627  0.05999289  0.40539309  1.0
  C  C139  1  0.64235367  0.05999505  0.90539420  1.0
  C  C140  1  0.39929499  0.99636394  0.56326354  1.0
  C  C141  1  0.10069445  0.99636958  0.06325990  1.0
  C  C142  1  0.60069967  0.00363290  0.43673521  1.0
  C  C143  1  0.89929011  0.00363481  0.93673618  1.0
  C  C144  1  0.53878429  0.71379429  0.79615603  1.0
  C  C145  1  0.96122304  0.71380291  0.29616048  1.0
  C  C146  1  0.46121614  0.28619969  0.20384326  1.0
  C  C147  1  0.03878316  0.28619780  0.70384132  1.0
  C  C148  1  0.51040191  0.77319314  0.78632326  1.0
  C  C149  1  0.98960831  0.77319828  0.28632434  1.0
  C  C150  1  0.48959996  0.22680379  0.21368051  1.0
  C  C151  1  0.01040077  0.22680243  0.71367746  1.0
  C  C152  1  0.05803456  0.74217714  0.69419490  1.0
  C  C153  1  0.44196790  0.74217950  0.19419322  1.0
  C  C154  1  0.94197019  0.25781973  0.30580594  1.0
  C  C155  1  0.55802532  0.25782022  0.80580667  1.0
  C  C156  1  0.73593805  0.71472478  0.65715075  1.0
  C  C157  1  0.76406544  0.71472575  0.15715045  1.0
  C  C158  1  0.26407103  0.28527445  0.34284902  1.0
  C  C159  1  0.23593643  0.28527446  0.84285081  1.0
  C  C160  1  0.88713971  0.70708525  0.69210696  1.0
  C  C161  1  0.61285663  0.70708852  0.19210563  1.0
  C  C162  1  0.11285783  0.29290972  0.30789341  1.0
  C  C163  1  0.38713803  0.29291401  0.80789248  1.0
  C  C164  1  0.22477941  0.73269244  0.72866684  1.0
  C  C165  1  0.27523469  0.73269293  0.22866766  1.0
  C  C166  1  0.77523255  0.26730583  0.27133269  1.0
  C  C167  1  0.72476429  0.26730391  0.77133151  1.0
  C  C168  1  0.35626489  0.78236272  0.75260683  1.0
  C  C169  1  0.14374502  0.78236305  0.25260516  1.0
  C  C170  1  0.64373554  0.21763668  0.24740130  1.0
  C  C171  1  0.85626262  0.21763482  0.74739801  1.0
  C  C172  1  0.25584916  0.67288648  0.73805359  1.0
  C  C173  1  0.24416062  0.67288851  0.23805563  1.0
  C  C174  1  0.74415848  0.32710986  0.26194463  1.0
  C  C175  1  0.75583980  0.32710834  0.76194437  1.0
  C  C176  1  0.90821240  0.78948711  0.62634573  1.0
  C  C177  1  0.59179944  0.78949099  0.12634788  1.0
  C  C178  1  0.09180676  0.21051115  0.37365297  1.0
  C  C179  1  0.40819954  0.21050729  0.87365207  1.0
  C  C180  1  0.41192386  0.66339689  0.77070404  1.0
  C  C181  1  0.08807451  0.66340082  0.27070787  1.0
  C  C182  1  0.58807369  0.33660088  0.22929412  1.0
  C  C183  1  0.91192592  0.33659841  0.72929191  1.0
  C  C184  1  0.06492839  0.78505875  0.66073979  1.0
  C  C185  1  0.43507169  0.78506450  0.16074021  1.0
  C  C186  1  0.93507636  0.21493570  0.33925879  1.0
  C  C187  1  0.56492296  0.21493950  0.83925993  1.0
  C  C188  1  0.94283097  0.09504359  0.57884410  1.0
  C  C189  1  0.55716507  0.09504703  0.07884324  1.0
  C  C190  1  0.05717378  0.90495664  0.42115759  1.0
  C  C191  1  0.44282094  0.90495599  0.92115541  1.0
  C  C192  1  0.97315706  0.13602565  0.54430206  1.0
  C  C193  1  0.52684674  0.13602676  0.04429938  1.0
  C  C194  1  0.02684480  0.86397552  0.45569903  1.0
  C  C195  1  0.47315080  0.86397621  0.95569676  1.0
  C  C196  1  0.77781314  0.10674173  0.61430778  1.0
  C  C197  1  0.72217960  0.10674424  0.11430705  1.0
  C  C198  1  0.22219017  0.89325993  0.38569426  1.0
  C  C199  1  0.27781074  0.89325829  0.88569106  1.0
  C  C200  1  0.65524053  0.15679922  0.61438155  1.0
  C  C201  1  0.84476106  0.15679605  0.11437561  1.0
  C  C202  1  0.34475701  0.84320343  0.38562282  1.0
  C  C203  1  0.15523648  0.84320166  0.88561963  1.0
  C  C204  1  0.07789588  0.04287160  0.57877160  1.0
  C  C205  1  0.42209403  0.04287636  0.07876845  1.0
  C  C206  1  0.92210454  0.95712670  0.42122919  1.0
  C  C207  1  0.57788333  0.95712759  0.92122918  1.0
  C  C208  1  0.01482484  0.98892292  0.59432834  1.0
  C  C209  1  0.48515602  0.98892847  0.09432579  1.0
  C  C210  1  0.98516982  0.01107728  0.40567251  1.0
  C  C211  1  0.51482133  0.01107886  0.90567435  1.0
  C  C212  1  0.84421927  0.18525290  0.54638462  1.0
  C  C213  1  0.65577465  0.18525516  0.04638593  1.0
  C  C214  1  0.15577394  0.81474583  0.45361420  1.0
  C  C215  1  0.34421856  0.81474591  0.95361099  1.0
  C  C216  1  0.27270083  0.04576078  0.56325527  1.0
  C  C217  1  0.22728618  0.04576702  0.06325132  1.0
  C  C218  1  0.72729527  0.95423800  0.43674563  1.0
  C  C219  1  0.77269550  0.95423880  0.93674471  1.0
  C  C220  1  0.88698779  0.41434572  0.60033672  1.0
  C  C221  1  0.61300603  0.41435045  0.10033658  1.0
  C  C222  1  0.11300687  0.58565115  0.39966412  1.0
  C  C223  1  0.38699151  0.58565260  0.89966373  1.0
  C  C224  1  0.78643891  0.46336950  0.58607852  1.0
  C  C225  1  0.71356097  0.46337007  0.08607523  1.0
  C  C226  1  0.21356008  0.53663074  0.41392400  1.0
  C  C227  1  0.28644090  0.53663099  0.91392085  1.0
  C  C228  1  0.79250115  0.35881988  0.60106853  1.0
  C  C229  1  0.70748972  0.35882053  0.10106817  1.0
  C  C230  1  0.20748341  0.64117934  0.39893083  1.0
  C  C231  1  0.29251359  0.64118205  0.89893244  1.0
  C  C232  1  0.88944465  0.51995745  0.57962261  1.0
  C  C233  1  0.61057115  0.51996171  0.07962235  1.0
  C  C234  1  0.11056298  0.48003992  0.42037919  1.0
  C  C235  1  0.38943937  0.48004080  0.92037492  1.0
  C  C236  1  0.81019875  0.55871034  0.54792082  1.0
  C  C237  1  0.68982341  0.55871635  0.04792389  1.0
  C  C238  1  0.18980744  0.44128797  0.45208038  1.0
  C  C239  1  0.31018855  0.44128717  0.95207613  1.0
  C  C240  1  0.07634568  0.53441643  0.60262099  1.0
  C  C241  1  0.42366947  0.53442449  0.10261660  1.0
  C  C242  1  0.92366340  0.46557861  0.39738313  1.0
  C  C243  1  0.57634393  0.46558039  0.89738002  1.0
  C  C244  1  0.50192243  0.39712759  0.57825388  1.0
  C  C245  1  0.99807479  0.39712802  0.07825918  1.0
  C  C246  1  0.49806934  0.60287350  0.42174346  1.0
  C  C247  1  0.00192564  0.60287312  0.92174108  1.0
  C  C248  1  0.58720802  0.45357422  0.57565645  1.0
  C  C249  1  0.91278781  0.45357335  0.07565605  1.0
  C  C250  1  0.41279097  0.54642644  0.42434327  1.0
  C  C251  1  0.08720973  0.54642727  0.92434158  1.0
  N  N252  1  0.74606424  0.75504831  0.62431329  1.0
  N  N253  1  0.75394991  0.75505173  0.12431486  1.0
  N  N254  1  0.25395061  0.24495094  0.37568732  1.0
  N  N255  1  0.24605052  0.24494993  0.87568719  1.0
  N  N256  1  0.68669119  0.19581815  0.58105663  1.0
  N  N257  1  0.81330091  0.19582235  0.08105795  1.0
  N  N258  1  0.31330347  0.80418059  0.41894261  1.0
  N  N259  1  0.18668798  0.80418067  0.91894111  1.0
  N  N260  1  0.60292544  0.34975384  0.59017173  1.0
  N  N261  1  0.89706569  0.34975208  0.09017236  1.0
  N  N262  1  0.39706201  0.65024728  0.40982727  1.0
  N  N263  1  0.10293185  0.65024858  0.90982735  1.0
  O  O264  1  0.38904247  0.68281501  0.57249348  1.0
  O  O265  1  0.11098209  0.68282116  0.07249287  1.0
  O  O266  1  0.61097237  0.31718083  0.42750337  1.0
  O  O267  1  0.88903852  0.31717896  0.92750381  1.0
  O  O268  1  0.39957943  0.84143469  0.59177053  1.0
  O  O269  1  0.10041230  0.84144427  0.09177328  1.0
  O  O270  1  0.60041523  0.15856218  0.40822989  1.0
  O  O271  1  0.89958092  0.15856265  0.90823009  1.0
  O  O272  1  0.65671541  0.75711881  0.49221200  1.0
  O  O273  1  0.84328724  0.75712715  0.99221668  1.0
  O  O274  1  0.34327492  0.24287612  0.50778711  1.0
  O  O275  1  0.15672616  0.24287886  0.00778853  1.0
  O  O276  1  0.80983248  0.75196511  0.85715000  1.0
  O  O277  1  0.69016214  0.75196668  0.35714572  1.0
  O  O278  1  0.19016218  0.24803513  0.14285252  1.0
  O  O279  1  0.30983972  0.24802966  0.64285208  1.0
  O  O280  1  0.14770440  0.70865865  0.52037701  1.0
  O  O281  1  0.35231107  0.70866407  0.02037364  1.0
  O  O282  1  0.85229459  0.29133729  0.47962443  1.0
  O  O283  1  0.64771964  0.29133800  0.97962519  1.0
  O  O284  1  0.71012886  0.65068183  0.84556742  1.0
  O  O285  1  0.78987264  0.65068515  0.34556894  1.0
  O  O286  1  0.28987878  0.34931753  0.15443862  1.0
  O  O287  1  0.21011769  0.34931270  0.65443297  1.0
  O  O288  1  0.63322090  0.88691510  0.55108861  1.0
  O  O289  1  0.86677295  0.88691905  0.05108528  1.0
  O  O290  1  0.36676943  0.11308268  0.44890997  1.0
  O  O291  1  0.13321739  0.11308203  0.94891205  1.0
