# generated using pymatgen
data_Hf3H2C30N9O16
_symmetry_space_group_name_H-M   'P 1'
_cell_length_a   16.51934406
_cell_length_b   16.51901201
_cell_length_c   16.52216463
_cell_angle_alpha   92.72253754
_cell_angle_beta   92.74735789
_cell_angle_gamma   92.72681340
_symmetry_Int_Tables_number   1
_chemical_formula_structural   Hf3H2C30N9O16
_chemical_formula_sum   'Hf6 H4 C60 N18 O32'
_cell_volume   4492.73801633
_cell_formula_units_Z   2
loop_
 _symmetry_equiv_pos_site_id
 _symmetry_equiv_pos_as_xyz
  1  'x, y, z'
loop_
 _atom_site_type_symbol
 _atom_site_label
 _atom_site_symmetry_multiplicity
 _atom_site_fract_x
 _atom_site_fract_y
 _atom_site_fract_z
 _atom_site_occupancy
  Hf  Hf0  1  0.80089113  0.95752195  0.84114945  1.0
  Hf  Hf1  1  0.74931458  0.84374689  0.00667573  1.0
  Hf  Hf2  1  0.99898379  0.99100275  0.92558377  1.0
  Hf  Hf3  1  0.91480144  0.79208038  0.89291074  1.0
  Hf  Hf4  1  0.83373804  0.04186047  0.03997192  1.0
  Hf  Hf5  1  0.94824765  0.87665314  0.09088575  1.0
  H  H6  1  0.74967593  0.79242014  0.84164753  1.0
  H  H7  1  0.88180955  0.10711509  0.89566226  1.0
  H  H8  1  0.06433776  0.84673318  0.97375687  1.0
  H  H9  1  0.80392557  0.92478788  0.15613498  1.0
  C  C10  1  0.94095814  0.19587839  0.55567829  1.0
  C  C11  1  0.93828311  0.17959159  0.41895794  1.0
  C  C12  1  0.91133513  0.30094011  0.47858225  1.0
  C  C13  1  0.81616159  0.63582042  0.37388201  1.0
  C  C14  1  0.84835512  0.53451157  0.45493956  1.0
  C  C15  1  0.82423760  0.65861761  0.51012617  1.0
  C  C16  1  0.15323382  0.50671402  0.03332396  1.0
  C  C17  1  0.25832696  0.42967266  0.00380932  1.0
  C  C18  1  0.13692801  0.36996678  0.03048333  1.0
  C  C19  1  0.59277774  0.32472918  0.90787400  1.0
  C  C20  1  0.49170569  0.40594641  0.94042202  1.0
  C  C21  1  0.61587606  0.46095894  0.91619243  1.0
  C  C22  1  0.46392518  0.98353063  0.24509307  1.0
  C  C23  1  0.38677927  0.95385928  0.35011054  1.0
  C  C24  1  0.32718020  0.98098250  0.22878872  1.0
  C  C25  1  0.28192112  0.85868856  0.68479750  1.0
  C  C26  1  0.41817296  0.86660912  0.70771490  1.0
  C  C27  1  0.36305019  0.89070095  0.58355215  1.0
  C  C28  1  0.93470445  0.06329032  0.75574533  1.0
  C  C29  1  0.62310458  0.87952786  0.85541021  1.0
  C  C30  1  0.83679332  0.80617904  0.71511809  1.0
  C  C31  1  0.72030942  0.12192885  0.90856790  1.0
  C  C32  1  0.81683775  0.76340175  0.17109220  1.0
  C  C33  1  0.12226882  0.96423376  0.08159886  1.0
  C  C34  1  0.76359990  0.66588098  0.92889953  1.0
  C  C35  1  0.66393279  0.97767439  0.11239072  1.0
  C  C36  1  0.98977344  0.16502513  0.01308431  1.0
  C  C37  1  0.07920458  0.85957448  0.81240343  1.0
  C  C38  1  0.02063388  0.70680935  0.02686723  1.0
  C  C39  1  0.92137065  0.03262844  0.21396662  1.0
  C  C40  1  0.20439836  0.84957883  0.71863425  1.0
  C  C41  1  0.14397698  0.84907990  0.75787205  1.0
  C  C42  1  0.48727388  0.86491450  0.76290986  1.0
  C  C43  1  0.54563683  0.86806110  0.81079539  1.0
  C  C44  1  0.19775692  0.98059021  0.12864565  1.0
  C  C45  1  0.25646511  0.98413545  0.17610231  1.0
  C  C46  1  0.53969166  0.99014734  0.20738787  1.0
  C  C47  1  0.59820928  0.98938582  0.16548167  1.0
  C  C48  1  0.37974847  0.93206851  0.43229973  1.0
  C  C49  1  0.37241945  0.91237621  0.50164530  1.0
  C  C50  1  0.62655710  0.24717976  0.89855898  1.0
  C  C51  1  0.66565158  0.18663930  0.89811289  1.0
  C  C52  1  0.67110938  0.53001815  0.91453419  1.0
  C  C53  1  0.71893504  0.58842603  0.91756942  1.0
  C  C54  1  0.03679871  0.24050384  0.02959483  1.0
  C  C55  1  0.08421275  0.29923522  0.03343372  1.0
  C  C56  1  0.07371466  0.64106918  0.03872826  1.0
  C  C57  1  0.11554274  0.58248994  0.03982195  1.0
  C  C58  1  0.40985399  0.41536126  0.96230871  1.0
  C  C59  1  0.34052992  0.42269261  0.98207981  1.0
  C  C60  1  0.80692440  0.66972795  0.29639365  1.0
  C  C61  1  0.80643964  0.70885934  0.23588133  1.0
  C  C62  1  0.82547177  0.76149717  0.63768141  1.0
  C  C63  1  0.82252907  0.71372818  0.57925177  1.0
  C  C64  1  0.94135112  0.12694696  0.34822788  1.0
  C  C65  1  0.93777590  0.07957224  0.28948891  1.0
  C  C66  1  0.94748830  0.15817102  0.63143883  1.0
  C  C67  1  0.94653393  0.11628847  0.68997400  1.0
  C  C68  1  0.87004210  0.45257953  0.46427775  1.0
  C  C69  1  0.88966219  0.38319476  0.47157628  1.0
  N  N70  1  0.95213673  0.14608481  0.49059453  1.0
  N  N71  1  0.91820018  0.25675368  0.40864445  1.0
  N  N72  1  0.92132491  0.27398502  0.55415077  1.0
  N  N73  1  0.83516909  0.55778338  0.37833896  1.0
  N  N74  1  0.84450350  0.58198031  0.52324951  1.0
  N  N75  1  0.80808354  0.68882046  0.43728341  1.0
  N  N76  1  0.23137914  0.50524079  0.01385192  1.0
  N  N77  1  0.21413322  0.35969420  0.01058445  1.0
  N  N78  1  0.10339480  0.44160137  0.04427955  1.0
  N  N79  1  0.51479842  0.32930553  0.92699120  1.0
  N  N80  1  0.53932742  0.47419106  0.93667611  1.0
  N  N81  1  0.64588358  0.38807279  0.89980449  1.0
  N  N82  1  0.46237611  0.96376301  0.32315613  1.0
  N  N83  1  0.31684519  0.96086211  0.30591615  1.0
  N  N84  1  0.39882697  0.99482870  0.19532523  1.0
  N  N85  1  0.34529435  0.85057649  0.73785729  1.0
  N  N86  1  0.43135042  0.88676642  0.63106632  1.0
  N  N87  1  0.28642205  0.87766172  0.60677608  1.0
  O  O88  1  0.99294876  0.05507466  0.80711781  1.0
  O  O89  1  0.63456420  0.84834233  0.92351735  1.0
  O  O90  1  0.80555477  0.87427227  0.72647466  1.0
  O  O91  1  0.73025024  0.07198870  0.84961946  1.0
  O  O92  1  0.75547641  0.12399478  0.97955948  1.0
  O  O93  1  0.87881894  0.76834709  0.76708762  1.0
  O  O94  1  0.67500068  0.92152817  0.81752297  1.0
  O  O95  1  0.86298070  0.03000255  0.75514592  1.0
  O  O96  1  0.77491159  0.95523873  0.96186094  1.0
  O  O97  1  0.91243271  0.91280231  0.86674088  1.0
  O  O98  1  0.78531559  0.82805522  0.87725947  1.0
  O  O99  1  0.87959107  0.05249133  0.91483695  1.0
  O  O100  1  0.75783685  0.77326257  0.12116017  1.0
  O  O101  1  0.11134128  0.99399751  0.01271567  1.0
  O  O102  1  0.83169872  0.67729442  0.89771651  1.0
  O  O103  1  0.71524453  0.03592601  0.10413485  1.0
  O  O104  1  0.92090030  0.15408282  0.04284303  1.0
  O  O105  1  0.02930696  0.80058967  0.82235282  1.0
  O  O106  1  0.01240106  0.75819136  0.08506608  1.0
  O  O107  1  0.95119896  0.96376937  0.20304102  1.0
  O  O108  1  0.98730386  0.70615031  0.95514943  1.0
  O  O109  1  0.87437541  0.06785934  0.16426768  1.0
  O  O110  1  0.72569633  0.71783839  0.97082920  1.0
  O  O111  1  0.08114807  0.93061837  0.84743486  1.0
  O  O112  1  0.02498665  0.11533014  0.96609758  1.0
  O  O113  1  0.66333591  0.90595502  0.07906938  1.0
  O  O114  1  0.88783393  0.79854038  0.17307660  1.0
  O  O115  1  0.07254724  0.91726607  0.11680374  1.0
  O  O116  1  0.94021902  0.98307491  0.03202176  1.0
  O  O117  1  0.87007362  0.81774157  0.00437715  1.0
  O  O118  1  0.00971082  0.86589293  0.97152517  1.0
  O  O119  1  0.82306798  0.92253544  0.10151825  1.0
