# generated using pymatgen
data_Zn2H17C24N8Cl
_symmetry_space_group_name_H-M   'P 1'
_cell_length_a   13.52436224
_cell_length_b   15.57255407
_cell_length_c   15.57192136
_cell_angle_alpha   92.39501552
_cell_angle_beta   113.63643676
_cell_angle_gamma   113.63630160
_symmetry_Int_Tables_number   1
_chemical_formula_structural   Zn2H17C24N8Cl
_chemical_formula_sum   'Zn4 H34 C48 N16 Cl2'
_cell_volume   2671.05665954
_cell_formula_units_Z   2
loop_
 _symmetry_equiv_pos_site_id
 _symmetry_equiv_pos_as_xyz
  1  'x, y, z'
loop_
 _atom_site_type_symbol
 _atom_site_label
 _atom_site_symmetry_multiplicity
 _atom_site_fract_x
 _atom_site_fract_y
 _atom_site_fract_z
 _atom_site_occupancy
  Zn  Zn100  1  0.34387509  0.84464870  0.88117614  1.0
  Zn  Zn101  1  0.65614603  0.11883373  0.15534761  1.0
  Zn  Zn102  1  0.33748233  0.00110894  0.03654501  1.0
  Zn  Zn103  1  0.66249603  0.96347295  0.99886756  1.0
  H  H50  1  0.25640729  0.93407029  0.70217797  1.0
  H  H51  1  0.21399611  0.47676105  0.96794856  1.0
  H  H52  1  0.78603718  0.03207426  0.52331221  1.0
  H  H53  1  0.75971137  0.13515727  0.53565652  1.0
  H  H54  1  0.24023657  0.46435837  0.86484294  1.0
  H  H55  1  0.78825315  0.01056568  0.68201841  1.0
  H  H56  1  0.21174238  0.31798513  0.98943063  1.0
  H  H57  1  0.74361986  0.29784538  0.06588754  1.0
  H  H58  1  0.04137764  0.49843469  0.93518133  1.0
  H  H59  1  0.95856508  0.06478018  0.50149216  1.0
  H  H60  1  0.93998141  0.44775647  0.08352173  1.0
  H  H61  1  0.06003019  0.91647515  0.55224844  1.0
  H  H62  1  0.06749920  0.62570626  0.10756025  1.0
  H  H63  1  0.93249034  0.89241947  0.37425415  1.0
  H  H64  1  0.94366578  0.32747260  0.92358748  1.0
  H  H65  1  0.05634764  0.07642723  0.67248482  1.0
  H  H66  1  0.33172729  0.19311550  0.96526457  1.0
  H  H67  1  0.66828052  0.03476438  0.80697512  1.0
  H  H68  1  0.87284047  0.13531219  0.94556709  1.0
  H  H69  1  0.12719773  0.05445232  0.86469614  1.0
  H  H70  1  0.33788858  0.68092353  0.00132260  1.0
  H  H71  1  0.66215050  0.99869320  0.31905015  1.0
  H  H72  1  0.23113154  0.82088741  0.13473138  1.0
  H  H73  1  0.30089203  0.85603043  0.35438769  1.0
  H  H74  1  0.76875962  0.86528685  0.17901161  1.0
  H  H75  1  0.88890912  0.13643270  0.36799384  1.0
  H  H76  1  0.11106795  0.63197318  0.86358771  1.0
  H  H77  1  0.69443320  0.75787384  0.02503008  1.0
  H  H78  1  0.30554062  0.97493796  0.24209747  1.0
  H  H79  1  0.69914689  0.64565747  0.14392868  1.0
  H  H80  1  0.30298629  0.83672440  0.50875589  1.0
  H  H81  1  0.69702060  0.49120416  0.16327787  1.0
  H  H82  1  0.69319456  0.34888127  0.20383307  1.0
  H  H83  1  0.30680982  0.79616371  0.65115080  1.0
  C  C0  1  0.23415627  0.95788131  0.75538310  1.0
  C  C1  1  0.48604601  0.97369871  0.31894178  1.0
  C  C2  1  0.51397648  0.68107747  0.02630040  1.0
  C  C3  1  0.14122399  0.69028333  0.01228945  1.0
  C  C4  1  0.85872932  0.98768929  0.30968666  1.0
  C  C5  1  0.59883341  0.98439924  0.58771535  1.0
  C  C6  1  0.40118776  0.41231234  0.01559610  1.0
  C  C7  1  0.76583366  0.24461107  0.04208623  1.0
  C  C8  1  0.49489630  0.92916045  0.59801582  1.0
  C  C9  1  0.50512891  0.40200919  0.07084921  1.0
  C  C10  1  0.38861367  0.88254541  0.50859674  1.0
  C  C11  1  0.61142850  0.49142580  0.11745427  1.0
  C  C12  1  0.38718260  0.89383487  0.41981581  1.0
  C  C13  1  0.61286932  0.58021172  0.10614947  1.0
  C  C14  1  0.49212869  0.95249647  0.41078496  1.0
  C  C15  1  0.50791169  0.58923562  0.04748910  1.0
  C  C16  1  0.59765989  0.99468728  0.49870727  1.0
  C  C17  1  0.40236723  0.50131839  0.00529347  1.0
  C  C18  1  0.73307829  0.06025808  0.54257134  1.0
  C  C19  1  0.26692916  0.45746852  0.93975315  1.0
  C  C20  1  0.41992931  0.21620078  0.02657185  1.0
  C  C21  1  0.58007085  0.97346564  0.78382416  1.0
  C  C22  1  0.73486126  0.04631142  0.64259334  1.0
  C  C23  1  0.60878951  0.75411066  0.01601289  1.0
  C  C24  1  0.26514976  0.35744168  0.95370701  1.0
  C  C25  1  0.91807445  0.34013960  0.97955657  1.0
  C  C26  1  0.08192836  0.02044144  0.65984107  1.0
  C  C27  1  0.95964413  0.43318066  0.02428713  1.0
  C  C28  1  0.04035841  0.97571018  0.56679606  1.0
  C  C29  1  0.39121085  0.98397003  0.24590775  1.0
  C  C30  1  0.07692384  0.60904804  0.04308821  1.0
  C  C31  1  0.92304465  0.95688170  0.39091155  1.0
  C  C32  1  0.02861027  0.51487878  0.99796599  1.0
  C  C33  1  0.97137552  0.00201265  0.48508279  1.0
  C  C34  1  0.60499226  0.29653848  0.14741565  1.0
  C  C35  1  0.39501466  0.85260627  0.70346771  1.0
  C  C36  1  0.83098145  0.16129507  0.97994264  1.0
  C  C37  1  0.16903007  0.02005685  0.83870411  1.0
  C  C38  1  0.15701922  0.00065722  0.74497487  1.0
  C  C39  1  0.84297229  0.25501409  0.99932288  1.0
  C  C40  1  0.50889476  0.31068527  0.08088734  1.0
  C  C41  1  0.49112127  0.91915218  0.68933497  1.0
  C  C42  1  0.42599504  0.71425126  0.00239488  1.0
  C  C43  1  0.57404031  0.99762861  0.28576708  1.0
  C  C44  1  0.21131466  0.78833831  0.06306012  1.0
  C  C45  1  0.78861177  0.93693987  0.21162195  1.0
  C  C46  1  0.84984413  0.07479425  0.30878399  1.0
  C  C47  1  0.15014224  0.69120339  0.92520356  1.0
  N  N84  1  0.28611766  0.95131078  0.84735350  1.0
  N  N85  1  0.42599481  0.86605102  0.79827048  1.0
  N  N86  1  0.57400251  0.20173467  0.13396047  1.0
  N  N87  1  0.75585428  0.10188993  0.01124448  1.0
  N  N88  1  0.24415497  0.98875780  0.89811471  1.0
  N  N89  1  0.46518188  0.80015623  0.97916500  1.0
  N  N90  1  0.53483391  0.02085633  0.19986489  1.0
  N  N91  1  0.71387189  0.15264923  0.04867017  1.0
  N  N92  1  0.25797909  0.84269238  0.01087915  1.0
  N  N93  1  0.74198261  0.98913835  0.15728635  1.0
  N  N94  1  0.78087969  0.07477722  0.21807678  1.0
  N  N95  1  0.21911840  0.78191590  0.92523896  1.0
  N  N96  1  0.57811612  0.82380293  0.98715523  1.0
  N  N97  1  0.42189253  0.01284078  0.17621728  1.0
  N  N98  1  0.45974555  0.15153003  0.05860966  1.0
  N  N99  1  0.54023907  0.94140684  0.84848274  1.0
  Cl  Cl48  1  0.78952699  0.15738421  0.72689584  1.0
  Cl  Cl49  1  0.21039119  0.27307334  0.84263059  1.0
