# generated using pymatgen
data_Al2H17C31O14
_symmetry_space_group_name_H-M   'P 1'
_cell_length_a   6.67670084
_cell_length_b   19.62864768
_cell_length_c   24.66080922
_cell_angle_alpha   90.36446814
_cell_angle_beta   91.49065513
_cell_angle_gamma   92.81503858
_symmetry_Int_Tables_number   1
_chemical_formula_structural   Al2H17C31O14
_chemical_formula_sum   'Al4 H34 C62 O28'
_cell_volume   3226.82582782
_cell_formula_units_Z   2
loop_
 _symmetry_equiv_pos_site_id
 _symmetry_equiv_pos_as_xyz
  1  'x, y, z'
loop_
 _atom_site_type_symbol
 _atom_site_label
 _atom_site_symmetry_multiplicity
 _atom_site_fract_x
 _atom_site_fract_y
 _atom_site_fract_z
 _atom_site_occupancy
  Al  Al0  1  0.75813967  0.24984437  0.25022465  1.0
  Al  Al1  1  0.24334298  0.74946921  0.74921900  1.0
  Al  Al2  1  0.25752301  0.25064646  0.24833284  1.0
  Al  Al3  1  0.74289624  0.74765680  0.75072891  1.0
  H  H4  1  0.20283758  0.40328232  0.52737040  1.0
  H  H5  1  0.79867139  0.59557344  0.47220592  1.0
  H  H6  1  0.83034272  0.43760516  0.57248047  1.0
  H  H7  1  0.17110995  0.56134235  0.42703357  1.0
  H  H8  1  0.28550010  0.49267937  0.06374204  1.0
  H  H9  1  0.70727039  0.50437223  0.93418974  1.0
  H  H10  1  0.23503338  0.98734049  0.56760761  1.0
  H  H11  1  0.76746249  0.01113398  0.43177301  1.0
  H  H12  1  0.17990926  0.04884735  0.02470523  1.0
  H  H13  1  0.82028973  0.94633446  0.97633337  1.0
  H  H14  1  0.40782305  0.60678477  0.53410320  1.0
  H  H15  1  0.59544720  0.39202142  0.46383946  1.0
  H  H16  1  0.34542458  0.62430058  0.95416487  1.0
  H  H17  1  0.51928234  0.42552356  0.97643617  1.0
  H  H18  1  0.04723411  0.06614554  0.52916260  1.0
  H  H19  1  0.95566586  0.93241423  0.47042740  1.0
  H  H20  1  0.99076672  0.97056210  0.86951016  1.0
  H  H21  1  0.24340872  0.00339149  0.86553270  1.0
  H  H22  1  0.91075308  0.07099300  0.92749776  1.0
  H  H23  1  0.15917795  0.10508388  0.92181454  1.0
  H  H24  1  0.10705964  0.11350711  0.81979039  1.0
  H  H25  1  0.92947797  0.16028658  0.85491558  1.0
  H  H26  1  0.85723478  0.07948437  0.82592279  1.0
  H  H27  1  0.82721591  0.93121071  0.10717558  1.0
  H  H28  1  0.72794455  0.00364166  0.13986113  1.0
  H  H29  1  0.17213149  0.98703828  0.11664236  1.0
  H  H30  1  0.07382616  0.05791140  0.14947919  1.0
  H  H31  1  0.95544647  0.98096284  0.22577283  1.0
  H  H32  1  0.21757914  0.97714786  0.21706132  1.0
  H  H33  1  0.05254950  0.90977356  0.19219618  1.0
  H  H34  1  0.52231464  0.33802431  0.26280863  1.0
  H  H35  1  0.47646809  0.66498785  0.72652783  1.0
  H  H36  1  0.00237782  0.16760443  0.27381814  1.0
  H  H37  1  0.99706657  0.83142756  0.72610924  1.0
  C  C38  1  0.50265938  0.17083375  0.32492459  1.0
  C  C39  1  0.49685524  0.82836157  0.67475972  1.0
  C  C40  1  0.48908429  0.16886626  0.17621639  1.0
  C  C41  1  0.51534711  0.82964259  0.82287520  1.0
  C  C42  1  0.00746636  0.32741923  0.17423954  1.0
  C  C43  1  0.99646464  0.67164780  0.82505515  1.0
  C  C44  1  0.02960392  0.33279987  0.32355943  1.0
  C  C45  1  0.96996955  0.66601024  0.67583871  1.0
  C  C46  1  0.90876753  0.46407909  0.53986403  1.0
  C  C47  1  0.09293139  0.53477084  0.45963402  1.0
  C  C48  1  0.11246638  0.44583119  0.51532854  1.0
  C  C49  1  0.88923191  0.55303610  0.48419594  1.0
  C  C50  1  0.03724933  0.37644786  0.37084245  1.0
  C  C51  1  0.96494997  0.62227488  0.62873022  1.0
  C  C52  1  0.81381023  0.47698851  0.48206195  1.0
  C  C53  1  0.18795950  0.52189093  0.51738139  1.0
  C  C54  1  0.02286366  0.45664743  0.45631819  1.0
  C  C55  1  0.97890365  0.54219434  0.54318337  1.0
  C  C56  1  0.03682411  0.41341632  0.41066973  1.0
  C  C57  1  0.96534699  0.58533881  0.58887984  1.0
  C  C58  1  0.15775283  0.49474467  0.03546654  1.0
  C  C59  1  0.83460227  0.50150939  0.96253605  1.0
  C  C60  1  0.98707385  0.45135771  0.04284816  1.0
  C  C61  1  0.00469552  0.54519239  0.95532352  1.0
  C  C62  1  0.82270705  0.45542112  0.00515654  1.0
  C  C63  1  0.16855765  0.54121376  0.99287586  1.0
  C  C64  1  0.98596217  0.40662949  0.08753846  1.0
  C  C65  1  0.00699103  0.59065154  0.91103263  1.0
  C  C66  1  0.99775449  0.62781947  0.87177141  1.0
  C  C67  1  0.00359911  0.37099903  0.12744843  1.0
  C  C68  1  0.35293896  0.99289583  0.53788408  1.0
  C  C69  1  0.64962740  0.00563781  0.46153159  1.0
  C  C70  1  0.52010642  0.95243162  0.54349873  1.0
  C  C71  1  0.48261125  0.04619798  0.45595047  1.0
  C  C72  1  0.67099567  0.95962420  0.50396243  1.0
  C  C73  1  0.33172894  0.03900701  0.49550911  1.0
  C  C74  1  0.52744142  0.90753631  0.58792352  1.0
  C  C75  1  0.47521187  0.09127339  0.41166246  1.0
  C  C76  1  0.49245267  0.12736854  0.37190120  1.0
  C  C77  1  0.50905612  0.87170398  0.62780668  1.0
  C  C78  1  0.32373101  0.98474683  0.96844998  1.0
  C  C79  1  0.67563280  0.00994269  0.03267520  1.0
  C  C80  1  0.50611208  0.95595919  0.95382395  1.0
  C  C81  1  0.49538642  0.04103150  0.04606020  1.0
  C  C82  1  0.68009172  0.96882181  0.98670989  1.0
  C  C83  1  0.32056131  0.02722393  0.01369225  1.0
  C  C84  1  0.51212215  0.91280960  0.90798374  1.0
  C  C85  1  0.49118962  0.08577437  0.09097190  1.0
  C  C86  1  0.48702699  0.12436211  0.12974513  1.0
  C  C87  1  0.51788454  0.87513972  0.86864704  1.0
  C  C88  1  0.38090105  0.55060788  0.53965576  1.0
  C  C89  1  0.62060999  0.44847404  0.45980562  1.0
  C  C90  1  0.35214702  0.58596114  0.98717765  1.0
  C  C91  1  0.63209777  0.41385134  0.00907072  1.0
  C  C92  1  0.14602069  0.07726742  0.49392307  1.0
  C  C93  1  0.85688549  0.92145398  0.50568512  1.0
  C  C94  1  0.10854696  0.00262608  0.89049356  1.0
  C  C95  1  0.03920901  0.07428947  0.90038736  1.0
  C  C96  1  0.98014826  0.10879095  0.84732612  1.0
  C  C97  1  0.85146248  0.98650786  0.11511527  1.0
  C  C98  1  0.05270986  0.00244494  0.14335903  1.0
  C  C99  1  0.07000197  0.96547493  0.19753696  1.0
  O  O100  1  0.32105803  0.18884939  0.19170931  1.0
  O  O101  1  0.68144588  0.80591242  0.80949319  1.0
  O  O102  1  0.67708962  0.18961806  0.30953271  1.0
  O  O103  1  0.32181666  0.80785490  0.68862368  1.0
  O  O104  1  0.85465500  0.31701062  0.30390393  1.0
  O  O105  1  0.14287118  0.68010037  0.69759278  1.0
  O  O106  1  0.66057752  0.18324345  0.19842780  1.0
  O  O107  1  0.34530496  0.81732975  0.79911537  1.0
  O  O108  1  0.83759080  0.30806774  0.19230161  1.0
  O  O109  1  0.16715782  0.69416173  0.80959168  1.0
  O  O110  1  0.33481164  0.18522361  0.30341836  1.0
  O  O111  1  0.66352847  0.81558768  0.69786789  1.0
  O  O112  1  0.51408337  0.29094883  0.25056086  1.0
  O  O113  1  0.48597056  0.70682342  0.74783549  1.0
  O  O114  1  0.17856511  0.31291074  0.19361951  1.0
  O  O115  1  0.82638409  0.68288497  0.80336959  1.0
  O  O116  1  0.19633065  0.31458202  0.30575003  1.0
  O  O117  1  0.80249258  0.68615083  0.69174717  1.0
  O  O118  1  0.00276974  0.20872317  0.25219675  1.0
  O  O119  1  0.99774519  0.78994468  0.74728435  1.0
  O  O120  1  0.50392462  0.51724931  0.56425003  1.0
  O  O121  1  0.49534691  0.48247940  0.43674830  1.0
  O  O122  1  0.50360048  0.58162018  0.01595349  1.0
  O  O123  1  0.59396735  0.37112336  0.04350128  1.0
  O  O124  1  0.09665333  0.11674253  0.45847008  1.0
  O  O125  1  0.90631270  0.88222672  0.54132643  1.0
  O  O126  1  0.14793220  0.96691583  0.94067483  1.0
  O  O127  1  0.84869598  0.02151406  0.06334080  1.0
