# generated using pymatgen
data_Cu3H16(C12N13)2
_symmetry_space_group_name_H-M   'P 1'
_cell_length_a   13.30168824
_cell_length_b   14.56037336
_cell_length_c   15.73051628
_cell_angle_alpha   89.99994662
_cell_angle_beta   92.89245478
_cell_angle_gamma   89.99992128
_symmetry_Int_Tables_number   1
_chemical_formula_structural   Cu3H16(C12N13)2
_chemical_formula_sum   'Cu6 H32 C48 N52'
_cell_volume   3042.76641198
_cell_formula_units_Z   2
loop_
 _symmetry_equiv_pos_site_id
 _symmetry_equiv_pos_as_xyz
  1  'x, y, z'
loop_
 _atom_site_type_symbol
 _atom_site_label
 _atom_site_symmetry_multiplicity
 _atom_site_fract_x
 _atom_site_fract_y
 _atom_site_fract_z
 _atom_site_occupancy
  Cu  Cu0  1  0.47050417  0.19798171  0.61136804  1.0
  Cu  Cu1  1  0.02949699  0.69798277  0.88863155  1.0
  Cu  Cu2  1  0.52949458  0.80201850  0.38863322  1.0
  Cu  Cu3  1  0.97050702  0.30201882  0.11136612  1.0
  Cu  Cu4  1  0.50000011  0.99999896  0.49999918  1.0
  Cu  Cu5  1  0.00000140  0.49999861  0.00000096  1.0
  H  H6  1  0.14851339  0.86965890  0.93732692  1.0
  H  H7  1  0.26686903  0.97479284  0.86512269  1.0
  H  H8  1  0.26721222  0.77990096  0.65849264  1.0
  H  H9  1  0.14712896  0.68359646  0.73775392  1.0
  H  H10  1  0.94249624  0.87818021  0.83344602  1.0
  H  H11  1  0.81488894  0.93385474  0.72245473  1.0
  H  H12  1  0.79165594  0.65520879  0.63030178  1.0
  H  H13  1  0.91697965  0.60987259  0.74804476  1.0
  H  H14  1  0.35148676  0.36965804  0.56267249  1.0
  H  H15  1  0.23313095  0.47479206  0.63487598  1.0
  H  H16  1  0.23278807  0.27990066  0.84150621  1.0
  H  H17  1  0.35287223  0.18359678  0.76224569  1.0
  H  H18  1  0.55750142  0.37818100  0.66655358  1.0
  H  H19  1  0.68510938  0.43385526  0.77754676  1.0
  H  H20  1  0.70834658  0.15520918  0.86969821  1.0
  H  H21  1  0.58302219  0.10987120  0.75195652  1.0
  H  H22  1  0.85148913  0.13034132  0.06267196  1.0
  H  H23  1  0.73313122  0.02520875  0.13487610  1.0
  H  H24  1  0.73278728  0.22009994  0.34150484  1.0
  H  H25  1  0.85287205  0.31640375  0.26224490  1.0
  H  H26  1  0.05750176  0.12181932  0.16655331  1.0
  H  H27  1  0.18511131  0.06614616  0.27754533  1.0
  H  H28  1  0.20834431  0.34479211  0.36969573  1.0
  H  H29  1  0.08301985  0.39012762  0.25195336  1.0
  H  H30  1  0.64851124  0.63034217  0.43732811  1.0
  H  H31  1  0.76686855  0.52520747  0.36512404  1.0
  H  H32  1  0.76721295  0.72009886  0.15849579  1.0
  H  H33  1  0.64712953  0.81640343  0.23775507  1.0
  H  H34  1  0.44249658  0.62181991  0.33344702  1.0
  H  H35  1  0.31488787  0.56614702  0.22245508  1.0
  H  H36  1  0.29165519  0.84479309  0.13030381  1.0
  H  H37  1  0.41697883  0.89012696  0.24804612  1.0
  C  C38  1  0.17526413  0.85345878  0.87471373  1.0
  C  C39  1  0.24184649  0.91085976  0.83497532  1.0
  C  C40  1  0.27645069  0.88530549  0.75552814  1.0
  C  C41  1  0.24221071  0.80181797  0.72014102  1.0
  C  C42  1  0.17494893  0.74892580  0.76339337  1.0
  C  C43  1  0.34355013  0.94299149  0.70860547  1.0
  C  C44  1  0.90612198  0.83088477  0.78778681  1.0
  C  C45  1  0.83582952  0.86161482  0.72617720  1.0
  C  C46  1  0.79213006  0.79827653  0.66808817  1.0
  C  C47  1  0.82304155  0.70629741  0.67465268  1.0
  C  C48  1  0.89254577  0.68081859  0.73902602  1.0
  C  C49  1  0.71564314  0.82691942  0.60421681  1.0
  C  C50  1  0.32473679  0.35345927  0.62528572  1.0
  C  C51  1  0.25815284  0.41085960  0.66502274  1.0
  C  C52  1  0.22355018  0.38530530  0.74447001  1.0
  C  C53  1  0.25779029  0.30181770  0.77985784  1.0
  C  C54  1  0.32505291  0.24892618  0.73660621  1.0
  C  C55  1  0.15644915  0.44298996  0.79139320  1.0
  C  C56  1  0.59387875  0.33088409  0.71221105  1.0
  C  C57  1  0.66416816  0.36161468  0.77382178  1.0
  C  C58  1  0.70787073  0.29827627  0.83191163  1.0
  C  C59  1  0.67695789  0.20629789  0.82534778  1.0
  C  C60  1  0.60744994  0.18081853  0.76097812  1.0
  C  C61  1  0.78435761  0.32692038  0.89578296  1.0
  C  C62  1  0.82473838  0.14654075  0.12528578  1.0
  C  C63  1  0.75815376  0.08914114  0.16502346  1.0
  C  C64  1  0.72355107  0.11469541  0.24447198  1.0
  C  C65  1  0.75779029  0.19818293  0.27985779  1.0
  C  C66  1  0.82505358  0.25107441  0.23660551  1.0
  C  C67  1  0.65645088  0.05701010  0.29139335  1.0
  C  C68  1  0.09387451  0.16911476  0.21221373  1.0
  C  C69  1  0.16416998  0.13838608  0.27382283  1.0
  C  C70  1  0.20787019  0.20172437  0.33191062  1.0
  C  C71  1  0.17695720  0.29370280  0.32534605  1.0
  C  C72  1  0.10745148  0.31918093  0.26097328  1.0
  C  C73  1  0.28435335  0.17307942  0.39578436  1.0
  C  C74  1  0.67526271  0.64654163  0.37471495  1.0
  C  C75  1  0.74184516  0.58914061  0.33497659  1.0
  C  C76  1  0.77644932  0.61469560  0.25552811  1.0
  C  C77  1  0.74220997  0.69818320  0.22014222  1.0
  C  C78  1  0.67494735  0.75107404  0.26339512  1.0
  C  C79  1  0.84354960  0.55700957  0.20860679  1.0
  C  C80  1  0.40612526  0.66911544  0.28778662  1.0
  C  C81  1  0.33582984  0.63838691  0.22617882  1.0
  C  C82  1  0.29212954  0.70172531  0.16809224  1.0
  C  C83  1  0.32304237  0.79370439  0.17465418  1.0
  C  C84  1  0.39255032  0.81918099  0.23902511  1.0
  C  C85  1  0.21564792  0.67308052  0.10421668  1.0
  N  N86  1  0.14142788  0.77416415  0.83950422  1.0
  N  N87  1  0.36981897  0.03034385  0.72908761  1.0
  N  N88  1  0.42623125  0.05784314  0.66659236  1.0
  N  N89  1  0.43380061  0.98855831  0.61129410  1.0
  N  N90  1  0.38316335  0.91599013  0.63528229  1.0
  N  N91  1  0.93356737  0.74203057  0.79487099  1.0
  N  N92  1  0.66934420  0.90966801  0.60424799  1.0
  N  N93  1  0.60490560  0.90600609  0.53794216  1.0
  N  N94  1  0.61147558  0.82495942  0.49852602  1.0
  N  N95  1  0.68045356  0.77352043  0.53891515  1.0
  N  N96  1  0.58237884  0.13098133  0.55754056  1.0
  N  N97  1  0.67024837  0.15271904  0.56191852  1.0
  N  N98  1  0.75570721  0.17108871  0.56451042  1.0
  N  N99  1  0.35857392  0.27416525  0.66049597  1.0
  N  N100  1  0.13017945  0.53034283  0.77091075  1.0
  N  N101  1  0.07376637  0.55784282  0.83340594  1.0
  N  N102  1  0.06619860  0.48855748  0.88870389  1.0
  N  N103  1  0.11683672  0.41598927  0.86471643  1.0
  N  N104  1  0.56643125  0.24202855  0.70512877  1.0
  N  N105  1  0.83065792  0.40966823  0.89574986  1.0
  N  N106  1  0.89509578  0.40600684  0.96205694  1.0
  N  N107  1  0.88852674  0.32496065  0.00147397  1.0
  N  N108  1  0.81954803  0.27352197  0.96108534  1.0
  N  N109  1  0.91761845  0.63098115  0.94245796  1.0
  N  N110  1  0.82975115  0.65271692  0.93808135  1.0
  N  N111  1  0.74428926  0.67108669  0.93548931  1.0
  N  N112  1  0.85857539  0.22583675  0.16049469  1.0
  N  N113  1  0.63018129  0.96965774  0.27091118  1.0
  N  N114  1  0.57376900  0.94215639  0.33340643  1.0
  N  N115  1  0.56619965  0.01144122  0.38870469  1.0
  N  N116  1  0.61683615  0.08401077  0.36471710  1.0
  N  N117  1  0.06642987  0.25796965  0.20512894  1.0
  N  N118  1  0.33065304  0.09033151  0.39575194  1.0
  N  N119  1  0.39509090  0.09399206  0.46205838  1.0
  N  N120  1  0.38852016  0.17503804  0.50147576  1.0
  N  N121  1  0.31954294  0.22647772  0.46108730  1.0
  N  N122  1  0.41762217  0.86901820  0.44246143  1.0
  N  N123  1  0.32974738  0.84727843  0.43808135  1.0
  N  N124  1  0.24429530  0.82891151  0.43548719  1.0
  N  N125  1  0.64142634  0.72583703  0.33950600  1.0
  N  N126  1  0.86982006  0.46965670  0.22908928  1.0
  N  N127  1  0.92623314  0.44215602  0.16659409  1.0
  N  N128  1  0.93380241  0.51144136  0.11129620  1.0
  N  N129  1  0.88316504  0.58401026  0.13528305  1.0
  N  N130  1  0.43356901  0.75797029  0.29487256  1.0
  N  N131  1  0.16934686  0.59033268  0.10425039  1.0
  N  N132  1  0.10490975  0.59399200  0.03794270  1.0
  N  N133  1  0.11147953  0.67503751  0.99852380  1.0
  N  N134  1  0.18045750  0.72647687  0.03891239  1.0
  N  N135  1  0.08237729  0.36901837  0.05753936  1.0
  N  N136  1  0.17025363  0.34727849  0.06192016  1.0
  N  N137  1  0.25570348  0.32891009  0.06451488  1.0
