# generated using pymatgen
data_CuH2C4N3
_symmetry_space_group_name_H-M   'P 1'
_cell_length_a   14.91374435
_cell_length_b   22.71104320
_cell_length_c   23.20566409
_cell_angle_alpha   89.78811276
_cell_angle_beta   90.44724245
_cell_angle_gamma   89.84489546
_symmetry_Int_Tables_number   1
_chemical_formula_structural   CuH2C4N3
_chemical_formula_sum   'Cu12 H24 C48 N36'
_cell_volume   7859.59110449
_cell_formula_units_Z   12
loop_
 _symmetry_equiv_pos_site_id
 _symmetry_equiv_pos_as_xyz
  1  'x, y, z'
loop_
 _atom_site_type_symbol
 _atom_site_label
 _atom_site_symmetry_multiplicity
 _atom_site_fract_x
 _atom_site_fract_y
 _atom_site_fract_z
 _atom_site_occupancy
  Cu  Cu0  1  0.38444404  0.42011393  0.33680537  1.0
  Cu  Cu1  1  0.34722532  0.39584688  0.46071941  1.0
  Cu  Cu2  1  0.40699907  0.29207360  0.36400036  1.0
  Cu  Cu3  1  0.62854794  0.08693111  0.83324463  1.0
  Cu  Cu4  1  0.65064269  0.10627406  0.96044750  1.0
  Cu  Cu5  1  0.58155194  0.20991954  0.86462378  1.0
  Cu  Cu6  1  0.88129192  0.58128753  0.16293858  1.0
  Cu  Cu7  1  0.84301822  0.60473230  0.03833908  1.0
  Cu  Cu8  1  0.90473568  0.70845754  0.13506040  1.0
  Cu  Cu9  1  0.12397572  0.91501418  0.66566932  1.0
  Cu  Cu10  1  0.14558337  0.89472385  0.53941056  1.0
  Cu  Cu11  1  0.08309718  0.79039149  0.63568261  1.0
  H  H12  1  0.25244458  0.52662481  0.31095310  1.0
  H  H13  1  0.24049761  0.52070092  0.49746362  1.0
  H  H14  1  0.50639476  0.24653239  0.24161106  1.0
  H  H15  1  0.52047357  0.43695881  0.23472875  1.0
  H  H16  1  0.37697992  0.31853368  0.57206517  1.0
  H  H17  1  0.37039829  0.18197648  0.44242857  1.0
  H  H18  1  0.76884014  0.98560109  0.81079510  1.0
  H  H19  1  0.75512777  0.97948834  0.99720853  1.0
  H  H20  1  0.47306249  0.25377996  0.74357502  1.0
  H  H21  1  0.49914623  0.06446467  0.72689010  1.0
  H  H22  1  0.61873405  0.17994515  0.07294609  1.0
  H  H23  1  0.61174343  0.31893706  0.94483352  1.0
  H  H24  1  0.74991707  0.47569364  0.18893832  1.0
  H  H25  1  0.73510225  0.48016036  0.00234607  1.0
  H  H26  1  0.00488180  0.75449920  0.25801923  1.0
  H  H27  1  0.01882285  0.56401273  0.26567375  1.0
  H  H28  1  0.87444075  0.68113798  0.92677233  1.0
  H  H29  1  0.87242087  0.81831873  0.05580399  1.0
  H  H30  1  0.26272990  0.01721869  0.68854319  1.0
  H  H31  1  0.24998298  0.02086367  0.50189557  1.0
  H  H32  1  0.97922173  0.74633315  0.75724963  1.0
  H  H33  1  0.99600163  0.93627941  0.77097927  1.0
  H  H34  1  0.11353567  0.82023212  0.42751686  1.0
  H  H35  1  0.11735792  0.68148413  0.55595528  1.0
  C  C36  1  0.25929007  0.51596371  0.35636258  1.0
  C  C37  1  0.22270356  0.54546203  0.40380777  1.0
  C  C38  1  0.25359658  0.51359024  0.45210543  1.0
  C  C39  1  0.50001488  0.29356620  0.24838388  1.0
  C  C40  1  0.53589437  0.34047897  0.21636879  1.0
  C  C41  1  0.50801249  0.39126606  0.24560104  1.0
  C  C42  1  0.37583888  0.29274085  0.53280927  1.0
  C  C43  1  0.37225771  0.23142197  0.52616729  1.0
  C  C44  1  0.37097426  0.22289944  0.46634200  1.0
  C  C45  1  0.75658189  0.99364707  0.85608748  1.0
  C  C46  1  0.78523511  0.96049651  0.90401807  1.0
  C  C47  1  0.74865062  0.98979296  0.95169598  1.0
  C  C48  1  0.48957224  0.20742471  0.74787521  1.0
  C  C49  1  0.46305453  0.15965966  0.71341937  1.0
  C  C50  1  0.50216495  0.11018707  0.74007257  1.0
  C  C51  1  0.61560224  0.20650977  0.03402549  1.0
  C  C52  1  0.61583929  0.26799807  0.02803669  1.0
  C  C53  1  0.61373711  0.27757805  0.96829577  1.0
  C  C54  1  0.75594510  0.48594869  0.14345700  1.0
  C  C55  1  0.71917702  0.45592690  0.09611077  1.0
  C  C56  1  0.74897475  0.48749354  0.04769533  1.0
  C  C57  1  0.99845144  0.70746202  0.25138078  1.0
  C  C58  1  0.03495428  0.66054603  0.28364995  1.0
  C  C59  1  0.00655154  0.60974138  0.25453285  1.0
  C  C60  1  0.87444158  0.70710774  0.96591060  1.0
  C  C61  1  0.87318836  0.76851019  0.97228233  1.0
  C  C62  1  0.87183546  0.77728572  0.03205580  1.0
  C  C63  1  0.25046084  0.00875294  0.64321057  1.0
  C  C64  1  0.27983473  0.04089292  0.59514627  1.0
  C  C65  1  0.24311775  0.01119558  0.54745453  1.0
  C  C66  1  0.99318980  0.79289888  0.75223503  1.0
  C  C67  1  0.96515854  0.84070708  0.78600946  1.0
  C  C68  1  0.00107709  0.89042691  0.75855213  1.0
  C  C69  1  0.11279550  0.79375908  0.46651178  1.0
  C  C70  1  0.11616588  0.73232106  0.47257040  1.0
  C  C71  1  0.11635129  0.72277836  0.53233150  1.0
  C  C72  1  0.83654077  0.90623603  0.89877732  1.0
  C  C73  1  0.87332647  0.81379899  0.92773262  1.0
  C  C74  1  0.91359836  0.84529627  0.83889008  1.0
  C  C75  1  0.16781578  0.59826244  0.39778010  1.0
  C  C76  1  0.08672041  0.65734202  0.33707395  1.0
  C  C77  1  0.12021565  0.68788959  0.42756371  1.0
  C  C78  1  0.33208218  0.09463467  0.60031568  1.0
  C  C79  1  0.41066948  0.15506831  0.66034796  1.0
  C  C80  1  0.37093594  0.18632228  0.57086696  1.0
  C  C81  1  0.66558857  0.40280074  0.10233513  1.0
  C  C82  1  0.58660539  0.34362793  0.16305233  1.0
  C  C83  1  0.61934471  0.31268114  0.07287608  1.0
  N  N84  1  0.30463260  0.46811613  0.43440749  1.0
  N  N85  1  0.30909405  0.47050172  0.37496674  1.0
  N  N86  1  0.45839069  0.37591402  0.29100145  1.0
  N  N87  1  0.45433302  0.31513556  0.29360966  1.0
  N  N88  1  0.37431415  0.27524859  0.43913737  1.0
  N  N89  1  0.37553309  0.31897232  0.48069968  1.0
  N  N90  1  0.70188128  0.03719579  0.93325339  1.0
  N  N91  1  0.70601577  0.03880137  0.87374409  1.0
  N  N92  1  0.54951064  0.12721657  0.78630931  1.0
  N  N93  1  0.54054557  0.18748050  0.79213643  1.0
  N  N94  1  0.61133661  0.22570466  0.94058725  1.0
  N  N95  1  0.61441317  0.18120273  0.98160286  1.0
  N  N96  1  0.79981256  0.53315709  0.06521037  1.0
  N  N97  1  0.80503227  0.53129595  0.12468352  1.0
  N  N98  1  0.95615949  0.62511078  0.20893900  1.0
  N  N99  1  0.95203829  0.68587561  0.20609245  1.0
  N  N100  1  0.87301355  0.72501443  0.05946437  1.0
  N  N101  1  0.87288167  0.68110386  0.01811925  1.0
  N  N102  1  0.19552856  0.96453848  0.56598943  1.0
  N  N103  1  0.19933854  0.96385587  0.62556542  1.0
  N  N104  1  0.04797259  0.87353665  0.71254000  1.0
  N  N105  1  0.04202549  0.81303800  0.70766592  1.0
  N  N106  1  0.11232097  0.77465012  0.55995793  1.0
  N  N107  1  0.11197590  0.81911888  0.51887353  1.0
  N  N108  1  0.83856126  0.86673168  0.94216098  1.0
  N  N109  1  0.90841134  0.79965971  0.87598236  1.0
  N  N110  1  0.87655902  0.89857857  0.84758278  1.0
  N  N111  1  0.13084095  0.60620131  0.34524689  1.0
  N  N112  1  0.08491440  0.70175454  0.37537962  1.0
  N  N113  1  0.15911281  0.63595993  0.44200590  1.0
  N  N114  1  0.37251497  0.10216608  0.65182229  1.0
  N  N115  1  0.40642467  0.20040815  0.62283790  1.0
  N  N116  1  0.33470167  0.13377212  0.55661887  1.0
  N  N117  1  0.62980975  0.39487639  0.15482132  1.0
  N  N118  1  0.58481562  0.29900293  0.12492620  1.0
  N  N119  1  0.65714156  0.36469611  0.05832881  1.0
