# generated using pymatgen
data_Al6H62C102O31
_symmetry_space_group_name_H-M   'P 1'
_cell_length_a   12.63380541
_cell_length_b   12.70755906
_cell_length_c   27.81878116
_cell_angle_alpha   89.80904757
_cell_angle_beta   89.36601895
_cell_angle_gamma   61.34070025
_symmetry_Int_Tables_number   1
_chemical_formula_structural   Al6H62C102O31
_chemical_formula_sum   'Al6 H62 C102 O31'
_cell_volume   3918.74909954
_cell_formula_units_Z   1
loop_
 _symmetry_equiv_pos_site_id
 _symmetry_equiv_pos_as_xyz
  1  'x, y, z'
loop_
 _atom_site_type_symbol
 _atom_site_label
 _atom_site_symmetry_multiplicity
 _atom_site_fract_x
 _atom_site_fract_y
 _atom_site_fract_z
 _atom_site_occupancy
  Al  Al0  1  0.41013530  0.39986227  0.50239076  1.0
  Al  Al1  1  0.41169953  0.65079134  0.50335942  1.0
  Al  Al2  1  0.65059109  0.42658968  0.50138002  1.0
  Al  Al3  1  0.92545578  0.91562506  0.01483909  1.0
  Al  Al4  1  0.66976193  0.92022513  0.01650596  1.0
  Al  Al5  1  0.89472090  0.68088296  0.01723643  1.0
  H  H6  1  0.17975888  0.47690402  0.80605464  1.0
  H  H7  1  0.11984456  0.83932353  0.71656473  1.0
  H  H8  1  0.43827214  0.78318989  0.37712971  1.0
  H  H9  1  0.80088587  0.50187275  0.22311558  1.0
  H  H10  1  0.82598160  0.52689081  0.13596194  1.0
  H  H11  1  0.46257742  0.80862140  0.29003420  1.0
  H  H12  1  0.53157658  0.87470826  0.23262321  1.0
  H  H13  1  0.55081256  0.89508399  0.14466083  1.0
  H  H14  1  0.83570235  0.53556528  0.29740741  1.0
  H  H15  1  0.46276933  0.83983516  0.80478378  1.0
  H  H16  1  0.80723332  0.50589155  0.38379270  1.0
  H  H17  1  0.72099504  0.35538385  0.36436802  1.0
  H  H18  1  0.51078811  0.14568823  0.23075945  1.0
  H  H19  1  0.52961570  0.09057067  0.14400787  1.0
  H  H20  1  0.73709280  0.31129554  0.27677858  1.0
  H  H21  1  0.84057821  0.16648590  0.21973908  1.0
  H  H22  1  0.85570878  0.11478161  0.13260220  1.0
  H  H23  1  0.60167021  0.06257977  0.30268651  1.0
  H  H24  1  0.23466835  0.45910803  0.38294630  1.0
  H  H25  1  0.82254106  0.53807135  0.80398881  1.0
  H  H26  1  0.00530597  0.86325712  0.24351806  1.0
  H  H27  1  0.95707817  0.88672562  0.15655343  1.0
  H  H28  1  0.16963657  0.48372502  0.29727295  1.0
  H  H29  1  0.23847929  0.48490914  0.22083384  1.0
  H  H30  1  0.15815758  0.82806878  0.29361282  1.0
  H  H31  1  0.21976235  0.80359175  0.37941482  1.0
  H  H32  1  0.85760649  0.14735685  0.71457372  1.0
  H  H33  1  0.86007303  0.12072500  0.80347686  1.0
  H  H34  1  0.49643458  0.19211273  0.71114574  1.0
  H  H35  1  0.20879800  0.46739133  0.71690663  1.0
  H  H36  1  0.42270009  0.00378205  0.74079063  1.0
  H  H37  1  0.24390356  0.15052863  0.69620696  1.0
  H  H38  1  0.14331773  0.07942548  0.63775717  1.0
  H  H39  1  0.22071812  0.85971991  0.62625777  1.0
  H  H40  1  0.39598251  0.71392869  0.67204710  1.0
  H  H41  1  0.98128148  0.87187907  0.86933330  1.0
  H  H42  1  0.95713219  0.05079398  0.91125618  1.0
  H  H43  1  0.04035070  0.17667930  0.87516258  1.0
  H  H44  1  0.15306695  0.11423488  0.79667345  1.0
  H  H45  1  0.19436582  0.92424951  0.75876401  1.0
  H  H46  1  0.71211222  0.04638861  0.44952863  1.0
  H  H47  1  0.63998522  0.93999371  0.50453185  1.0
  H  H48  1  0.45775095  0.92244422  0.48423498  1.0
  H  H49  1  0.34653694  0.01454175  0.40883570  1.0
  H  H50  1  0.41811565  0.12253460  0.35408113  1.0
  H  H51  1  0.23110170  0.34695289  0.17051661  1.0
  H  H52  1  0.35385157  0.37455688  0.15608794  1.0
  H  H53  1  0.34391232  0.32377369  0.06939932  1.0
  H  H54  1  0.36608920  0.20167953  0.10690422  1.0
  H  H55  1  0.22042779  0.29800526  0.08339310  1.0
  H  H56  1  0.78878965  0.36372536  0.71915518  1.0
  H  H57  1  0.89430647  0.36572815  0.76075175  1.0
  H  H58  1  0.04430545  0.31995322  0.69285307  1.0
  H  H59  1  0.00239773  0.20569157  0.69971579  1.0
  H  H60  1  0.94005595  0.31240661  0.65216187  1.0
  H  H61  1  0.56217654  0.03883699  0.85767326  1.0
  H  H62  1  0.53262954  0.98041363  0.80442106  1.0
  H  H63  1  0.30907188  0.10542194  0.82178401  1.0
  H  H64  1  0.38367402  0.00519404  0.86991291  1.0
  H  H65  1  0.34261514  0.15946486  0.87547589  1.0
  H  H66  1  0.34465577  0.26555582  0.52919523  1.0
  H  H67  1  0.00650538  0.03974226  0.03735420  1.0
  C  C68  1  0.27923149  0.60426249  0.57266775  1.0
  C  C69  1  0.74137222  0.59899822  0.78472956  1.0
  C  C70  1  0.73473260  0.58813437  0.73520157  1.0
  C  C71  1  0.63064119  0.66958786  0.70962640  1.0
  C  C72  1  0.64403565  0.69146324  0.80990168  1.0
  C  C73  1  0.65502041  0.70615883  0.85978627  1.0
  C  C74  1  0.62752212  0.65545919  0.65943640  1.0
  C  C75  1  0.67023855  0.71860833  0.90219312  1.0
  C  C76  1  0.65924192  0.22373513  0.61478300  1.0
  C  C77  1  0.77959560  0.15201845  0.73345241  1.0
  C  C78  1  0.78123969  0.13650973  0.78272391  1.0
  C  C79  1  0.59692265  0.61534019  0.56921148  1.0
  C  C80  1  0.57824953  0.15847346  0.78068771  1.0
  C  C81  1  0.57605687  0.17688636  0.73123545  1.0
  C  C82  1  0.67575422  0.17475985  0.70723490  1.0
  C  C83  1  0.68081843  0.14091170  0.80742393  1.0
  C  C84  1  0.68554595  0.12514318  0.85767929  1.0
  C  C85  1  0.66946309  0.19822583  0.65735735  1.0
  C  C86  1  0.69222918  0.10519311  0.90076042  1.0
  C  C87  1  0.22201142  0.63437407  0.61923260  1.0
  C  C88  1  0.18298499  0.55026256  0.73661331  1.0
  C  C89  1  0.16684019  0.55587716  0.78595546  1.0
  C  C90  1  0.62787622  0.27674625  0.56789739  1.0
  C  C91  1  0.11897570  0.76802940  0.78689227  1.0
  C  C92  1  0.13345117  0.76043997  0.73680984  1.0
  C  C93  1  0.16711818  0.65343969  0.71143323  1.0
  C  C94  1  0.13613574  0.66254766  0.81181931  1.0
  C  C95  1  0.12303476  0.66047868  0.86223842  1.0
  C  C96  1  0.19192508  0.64629730  0.66149212  1.0
  C  C97  1  0.10707175  0.65925957  0.90555474  1.0
  C  C98  1  0.62084445  0.64282338  0.38579514  1.0
  C  C99  1  0.52500048  0.72999706  0.35925844  1.0
  C  C100  1  0.53968806  0.74421943  0.31052658  1.0
  C  C101  1  0.27859203  0.60850344  0.43573283  1.0
  C  C102  1  0.65074548  0.67335345  0.28686805  1.0
  C  C103  1  0.74751815  0.58885933  0.31435178  1.0
  C  C104  1  0.73274276  0.57297845  0.36295073  1.0
  C  C105  1  0.74674279  0.58907426  0.20637915  1.0
  C  C106  1  0.75989576  0.60176601  0.15734977  1.0
  C  C107  1  0.60433718  0.80924935  0.16233332  1.0
  C  C108  1  0.59356011  0.79682541  0.21148899  1.0
  C  C109  1  0.66406401  0.68641240  0.23464548  1.0
  C  C110  1  0.68819759  0.71210898  0.13474734  1.0
  C  C111  1  0.64750481  0.23867254  0.38211573  1.0
  C  C112  1  0.59915330  0.61620742  0.43576131  1.0
  C  C113  1  0.69579490  0.29065165  0.35031056  1.0
  C  C114  1  0.70490480  0.26560618  0.30139612  1.0
  C  C115  1  0.66744219  0.18580606  0.28333832  1.0
  C  C116  1  0.62389949  0.13035761  0.31580178  1.0
  C  C117  1  0.61287777  0.15510353  0.36512534  1.0
  C  C118  1  0.58700569  0.13831313  0.20941225  1.0
  C  C119  1  0.59623655  0.10894302  0.16095751  1.0
  C  C120  1  0.77988501  0.12343625  0.15448712  1.0
  C  C121  1  0.77063289  0.15256315  0.20298919  1.0
  C  C122  1  0.67485042  0.15925570  0.23149475  1.0
  C  C123  1  0.61692190  0.28936215  0.43165617  1.0
  C  C124  1  0.69315747  0.10026309  0.13308221  1.0
  C  C125  1  0.23067803  0.62991007  0.38614809  1.0
  C  C126  1  0.21659016  0.53970046  0.36283584  1.0
  C  C127  1  0.18167667  0.55361500  0.31502584  1.0
  C  C128  1  0.15991906  0.65743109  0.28923245  1.0
  C  C129  1  0.17282481  0.74790064  0.31328304  1.0
  C  C130  1  0.20781072  0.73445695  0.36106622  1.0
  C  C131  1  0.04636521  0.78561376  0.21968949  1.0
  C  C132  1  0.01795828  0.79876756  0.17120664  1.0
  C  C133  1  0.14301240  0.58519944  0.15821009  1.0
  C  C134  1  0.62177262  0.64239733  0.61626641  1.0
  C  C135  1  0.17351589  0.57225676  0.20697478  1.0
  C  C136  1  0.12561162  0.67180154  0.23810726  1.0
  C  C137  1  0.06401607  0.70038994  0.13987502  1.0
  C  C138  1  0.72126707  0.04808204  0.94687669  1.0
  C  C139  1  0.70026299  0.74212509  0.94914762  1.0
  C  C140  1  0.05117387  0.69230908  0.95218724  1.0
  C  C141  1  0.71160038  0.05492372  0.08290868  1.0
  C  C142  1  0.70888718  0.73107642  0.08362667  1.0
  C  C143  1  0.02354731  0.72391404  0.08912583  1.0
  C  C144  1  0.53140994  0.76214389  0.73520872  1.0
  C  C145  1  0.53931126  0.77115587  0.78485900  1.0
  C  C146  1  0.42226173  0.84856346  0.70940058  1.0
  C  C147  1  0.37712982  0.97230263  0.71627163  1.0
  C  C148  1  0.27699878  0.05482773  0.69084068  1.0
  C  C149  1  0.22047163  0.01501039  0.65821665  1.0
  C  C150  1  0.26377346  0.89216588  0.65157402  1.0
  C  C151  1  0.36364528  0.80953258  0.67711743  1.0
  C  C152  1  0.09218214  0.88164337  0.81126698  1.0
  C  C153  1  0.02327599  0.92160238  0.85390274  1.0
  C  C154  1  0.00646240  0.02570173  0.87718420  1.0
  C  C155  1  0.05328187  0.09549430  0.85688445  1.0
  C  C156  1  0.11709900  0.06010066  0.81331307  1.0
  C  C157  1  0.13853899  0.95343205  0.79123297  1.0
  C  C158  1  0.57026802  0.09116380  0.39789575  1.0
  C  C159  1  0.63172978  0.03953320  0.44059575  1.0
  C  C160  1  0.59147951  0.97927129  0.47140947  1.0
  C  C161  1  0.48913937  0.96950154  0.46002690  1.0
  C  C162  1  0.42761580  0.02017225  0.41756888  1.0
  C  C163  1  0.46806206  0.08017388  0.38663676  1.0
  C  C164  1  0.27271093  0.37494719  0.14154064  1.0
  C  C165  1  0.30246146  0.29486219  0.09774028  1.0
  C  C166  1  0.86657265  0.37992933  0.72280325  1.0
  C  C167  1  0.96921903  0.29992328  0.68974240  1.0
  C  C168  1  0.49618515  0.05755107  0.82926971  1.0
  C  C169  1  0.37560941  0.08375484  0.85024700  1.0
  O  O170  1  0.52858109  0.29357650  0.55095598  1.0
  O  O171  1  0.49881409  0.68779643  0.45612410  1.0
  O  O172  1  0.67938507  0.51838958  0.45458478  1.0
  O  O173  1  0.69386609  0.31325197  0.45252338  1.0
  O  O174  1  0.49217839  0.49319049  0.50310811  1.0
  O  O175  1  0.03342357  0.79166843  0.96912861  1.0
  O  O176  1  0.82977301  0.00607040  0.95958071  1.0
  O  O177  1  0.63708879  0.03926770  0.97035567  1.0
  O  O178  1  0.62741229  0.84363259  0.96836269  1.0
  O  O179  1  0.79934600  0.66335573  0.96716456  1.0
  O  O180  1  0.01705919  0.62073250  0.97177865  1.0
  O  O181  1  0.31516488  0.49843823  0.55816708  1.0
  O  O182  1  0.00424836  0.82383926  0.07177290  1.0
  O  O183  1  0.80701937  0.03631647  0.06089375  1.0
  O  O184  1  0.63025972  0.03146853  0.06574561  1.0
  O  O185  1  0.63636651  0.83102530  0.06415206  1.0
  O  O186  1  0.80303927  0.64858163  0.06250154  1.0
  O  O187  1  0.00447670  0.64589360  0.06693669  1.0
  O  O188  1  0.82812346  0.83849004  0.01601474  1.0
  O  O189  1  0.29307681  0.68673382  0.55054585  1.0
  O  O190  1  0.49413323  0.68818153  0.55127678  1.0
  O  O191  1  0.67590125  0.51771252  0.54957193  1.0
  O  O192  1  0.70189845  0.30730337  0.54792379  1.0
  O  O193  1  0.51482212  0.31275893  0.44828604  1.0
  O  O194  1  0.30073863  0.51080834  0.45567917  1.0
  O  O195  1  0.29934725  0.68969651  0.45473473  1.0
  O  O196  1  0.18858812  0.49379256  0.12600785  1.0
  O  O197  1  0.82823110  0.50299498  0.70897914  1.0
  O  O198  1  0.47804863  0.16261331  0.80163636  1.0
  O  O199  1  0.33372957  0.31556589  0.50144689  1.0
  O  O200  1  0.01312285  0.98878243  0.01052403  1.0
