# generated using pymatgen
data_ZnH15C23(NO3)2
_symmetry_space_group_name_H-M   'P 1'
_cell_length_a   15.10349324
_cell_length_b   15.85767973
_cell_length_c   24.17043067
_cell_angle_alpha   90.00004276
_cell_angle_beta   90.00007329
_cell_angle_gamma   68.18095900
_symmetry_Int_Tables_number   1
_chemical_formula_structural   ZnH15C23(NO3)2
_chemical_formula_sum   'Zn8 H120 C184 N16 O48'
_cell_volume   5374.26355317
_cell_formula_units_Z   8
loop_
 _symmetry_equiv_pos_site_id
 _symmetry_equiv_pos_as_xyz
  1  'x, y, z'
loop_
 _atom_site_type_symbol
 _atom_site_label
 _atom_site_symmetry_multiplicity
 _atom_site_fract_x
 _atom_site_fract_y
 _atom_site_fract_z
 _atom_site_occupancy
  Zn  Zn0  1  0.30787721  0.64248336  0.72431096  1.0
  Zn  Zn1  1  0.69212345  0.85751594  0.22431221  1.0
  Zn  Zn2  1  0.69212344  0.35751846  0.27568809  1.0
  Zn  Zn3  1  0.30787616  0.14248178  0.77568766  1.0
  Zn  Zn4  1  0.16347138  0.86479965  0.72458236  1.0
  Zn  Zn5  1  0.83652915  0.63520169  0.22458404  1.0
  Zn  Zn6  1  0.83652862  0.13520216  0.27541751  1.0
  Zn  Zn7  1  0.16347178  0.36479604  0.77541708  1.0
  H  H8  1  0.53310812  0.17546746  0.70127949  1.0
  H  H9  1  0.46689254  0.32453138  0.20128054  1.0
  H  H10  1  0.46689082  0.82453366  0.29872122  1.0
  H  H11  1  0.53310733  0.67546906  0.79871974  1.0
  H  H12  1  0.86733140  0.77555026  0.72639393  1.0
  H  H13  1  0.13266848  0.72444767  0.22639425  1.0
  H  H14  1  0.13266766  0.22445222  0.27360636  1.0
  H  H15  1  0.86732994  0.27555141  0.77360645  1.0
  H  H16  1  0.36022480  0.95693058  0.64563807  1.0
  H  H17  1  0.63977572  0.54306868  0.14563871  1.0
  H  H18  1  0.63977692  0.04306852  0.35436098  1.0
  H  H19  1  0.36022575  0.45692769  0.85435992  1.0
  H  H20  1  0.53099997  0.67141180  0.64385614  1.0
  H  H21  1  0.46900241  0.82858610  0.14385679  1.0
  H  H22  1  0.46899938  0.32858660  0.35614374  1.0
  H  H23  1  0.53099959  0.17140891  0.85614557  1.0
  H  H24  1  0.66316465  0.70376517  0.59595842  1.0
  H  H25  1  0.33683605  0.79623339  0.09595853  1.0
  H  H26  1  0.33683497  0.29623256  0.40404311  1.0
  H  H27  1  0.66316462  0.20376502  0.90404258  1.0
  H  H28  1  0.49107283  0.98903909  0.59729352  1.0
  H  H29  1  0.50892787  0.51095947  0.09729446  1.0
  H  H30  1  0.50892970  0.01095797  0.40270594  1.0
  H  H31  1  0.49107280  0.48903894  0.90270376  1.0
  H  H32  1  0.51657782  0.83516589  0.50348217  1.0
  H  H33  1  0.48342415  0.66483739  0.00348151  1.0
  H  H34  1  0.48342231  0.16483728  0.49651770  1.0
  H  H35  1  0.51657559  0.33516170  0.99651753  1.0
  H  H36  1  0.77712618  0.88766876  0.49953904  1.0
  H  H37  1  0.22287712  0.61233204  0.99953853  1.0
  H  H38  1  0.22287423  0.11233033  0.50046042  1.0
  H  H39  1  0.77712209  0.38766841  0.00045969  1.0
  H  H40  1  0.77767768  0.87873531  0.39649247  1.0
  H  H41  1  0.22232410  0.62126543  0.89649196  1.0
  H  H42  1  0.22232365  0.12126310  0.60350740  1.0
  H  H43  1  0.77767550  0.37873570  0.10350667  1.0
  H  H44  1  0.51780095  0.82759746  0.40080010  1.0
  H  H45  1  0.48220096  0.67240465  0.90079941  1.0
  H  H46  1  0.48219839  0.17240435  0.59920019  1.0
  H  H47  1  0.51779930  0.32759648  0.09920005  1.0
  H  H48  1  0.10493616  0.54701358  0.66249648  1.0
  H  H49  1  0.89506320  0.95298705  0.16249712  1.0
  H  H50  1  0.89506411  0.45298755  0.33750257  1.0
  H  H51  1  0.10493759  0.04701273  0.83750565  1.0
  H  H52  1  0.94840412  0.83173173  0.63553254  1.0
  H  H53  1  0.05159492  0.66826956  0.13553153  1.0
  H  H54  1  0.05159389  0.16827007  0.36446899  1.0
  H  H55  1  0.94840521  0.33173021  0.86446752  1.0
  H  H56  1  0.97864513  0.51003315  0.61212163  1.0
  H  H57  1  0.02135506  0.98996677  0.11212283  1.0
  H  H58  1  0.02135606  0.48996730  0.38787741  1.0
  H  H59  1  0.97864414  0.01003367  0.88787953  1.0
  H  H60  1  0.82203231  0.79464928  0.58426115  1.0
  H  H61  1  0.17796651  0.70535063  0.08426109  1.0
  H  H62  1  0.17796597  0.20535184  0.41573872  1.0
  H  H63  1  0.82203243  0.29465050  0.91573837  1.0
  H  H64  1  0.70639770  0.61459116  0.49491429  1.0
  H  H65  1  0.29360095  0.88540961  0.99491438  1.0
  H  H66  1  0.29360388  0.38540997  0.50508517  1.0
  H  H67  1  0.70639681  0.11458947  0.00508549  1.0
  H  H68  1  0.97376818  0.65368875  0.50532051  1.0
  H  H69  1  0.02623182  0.84631112  0.00532040  1.0
  H  H70  1  0.02623301  0.34631170  0.49467937  1.0
  H  H71  1  0.97376726  0.15368796  0.99467948  1.0
  H  H72  1  0.71326462  0.62222349  0.39158225  1.0
  H  H73  1  0.28673384  0.87777724  0.89158233  1.0
  H  H74  1  0.28673484  0.37777968  0.60841721  1.0
  H  H75  1  0.71326524  0.12222184  0.10841795  1.0
  H  H76  1  0.97982452  0.66085336  0.40274063  1.0
  H  H77  1  0.02017490  0.83914669  0.90274007  1.0
  H  H78  1  0.02017734  0.33914709  0.59726007  1.0
  H  H79  1  0.97982418  0.16085239  0.09725939  1.0
  H  H80  1  0.29958279  0.45485715  0.70906914  1.0
  H  H81  1  0.70041735  0.04514306  0.20906901  1.0
  H  H82  1  0.70041549  0.54514397  0.29093156  1.0
  H  H83  1  0.29958278  0.95485671  0.79093086  1.0
  H  H84  1  0.51292534  0.56079606  0.70402797  1.0
  H  H85  1  0.48707437  0.93920391  0.20402828  1.0
  H  H86  1  0.48707282  0.43920370  0.29597107  1.0
  H  H87  1  0.51292484  0.06079654  0.79597201  1.0
  H  H88  1  0.41562399  0.29743670  0.71313486  1.0
  H  H89  1  0.58437576  0.20256283  0.21313554  1.0
  H  H90  1  0.58437402  0.70256511  0.28686460  1.0
  H  H91  1  0.41562530  0.79743626  0.78686516  1.0
  H  H92  1  0.64063783  0.40439330  0.70749255  1.0
  H  H93  1  0.35936098  0.09560690  0.20749217  1.0
  H  H94  1  0.35936138  0.59560714  0.29250732  1.0
  H  H95  1  0.64063796  0.90439422  0.79250729  1.0
  H  H96  1  0.62956775  0.02570520  0.65423647  1.0
  H  H97  1  0.37043110  0.47429295  0.15423711  1.0
  H  H98  1  0.37042894  0.97429660  0.34576506  1.0
  H  H99  1  0.62956810  0.52570750  0.84576359  1.0
  H  H100  1  0.71543964  0.12122154  0.80404230  1.0
  H  H101  1  0.28456187  0.37877736  0.30404324  1.0
  H  H102  1  0.28456008  0.87878094  0.19595799  1.0
  H  H103  1  0.71543920  0.62122174  0.69595705  1.0
  H  H104  1  0.82954979  0.96486668  0.82434960  1.0
  H  H105  1  0.17044948  0.53513334  0.32435027  1.0
  H  H106  1  0.17044862  0.03513580  0.17565069  1.0
  H  H107  1  0.82955000  0.46486643  0.67565043  1.0
  H  H108  1  0.74237735  0.86963873  0.67475436  1.0
  H  H109  1  0.25762178  0.63035918  0.17475474  1.0
  H  H110  1  0.25762066  0.13036307  0.32524635  1.0
  H  H111  1  0.74237704  0.36964059  0.82524596  1.0
  H  H112  1  0.84769633  0.63819839  0.77379891  1.0
  H  H113  1  0.15230390  0.86180229  0.27379974  1.0
  H  H114  1  0.15230447  0.36180138  0.22620013  1.0
  H  H115  1  0.84769756  0.13819749  0.72620055  1.0
  H  H116  1  0.09291696  0.69738748  0.82474683  1.0
  H  H117  1  0.90708059  0.80261186  0.32474120  1.0
  H  H118  1  0.90708252  0.30261229  0.17525387  1.0
  H  H119  1  0.09291967  0.19738927  0.67525826  1.0
  H  H120  1  0.95656864  0.47407163  0.76542422  1.0
  H  H121  1  0.04343094  0.02592861  0.26542562  1.0
  H  H122  1  0.04343123  0.52592882  0.23457524  1.0
  H  H123  1  0.95657184  0.97407117  0.73457591  1.0
  H  H124  1  0.19180913  0.53183682  0.81319759  1.0
  H  H125  1  0.80818919  0.96816387  0.31319403  1.0
  H  H126  1  0.80818981  0.46816431  0.18680311  1.0
  H  H127  1  0.19181345  0.03183794  0.68680543  1.0
  C  C128  1  0.35651922  0.79284122  0.67224409  1.0
  C  C129  1  0.64348387  0.70715670  0.17224482  1.0
  C  C130  1  0.64348158  0.20715855  0.32775537  1.0
  C  C131  1  0.35652078  0.29283832  0.82775547  1.0
  C  C132  1  0.43708174  0.81206661  0.64663432  1.0
  C  C133  1  0.56291945  0.68793265  0.14663539  1.0
  C  C134  1  0.56291813  0.18793384  0.35336472  1.0
  C  C135  1  0.43708229  0.31206304  0.85336490  1.0
  C  C136  1  0.42655183  0.90180956  0.63484721  1.0
  C  C137  1  0.57345026  0.59818902  0.13484866  1.0
  C  C138  1  0.57344923  0.09818953  0.36515225  1.0
  C  C139  1  0.42655121  0.40180735  0.86515163  1.0
  C  C140  1  0.52311138  0.74077702  0.63385509  1.0
  C  C141  1  0.47688873  0.75922155  0.13385612  1.0
  C  C142  1  0.47688757  0.25922070  0.36614479  1.0
  C  C143  1  0.52311089  0.24077618  0.86614541  1.0
  C  C144  1  0.59655070  0.75819635  0.60750061  1.0
  C  C145  1  0.40345227  0.74180154  0.10750116  1.0
  C  C146  1  0.40345276  0.24180003  0.39250010  1.0
  C  C147  1  0.59654893  0.25819551  0.89250037  1.0
  C  C148  1  0.49932014  0.92001436  0.60843688  1.0
  C  C149  1  0.50068151  0.57998353  0.10843825  1.0
  C  C150  1  0.50068251  0.07998406  0.39156176  1.0
  C  C151  1  0.49932063  0.42001284  0.89156162  1.0
  C  C152  1  0.58240429  0.84783012  0.59405651  1.0
  C  C153  1  0.41759680  0.65216912  0.09405703  1.0
  C  C154  1  0.41759731  0.15216762  0.40594336  1.0
  C  C155  1  0.58240413  0.34782861  0.90594243  1.0
  C  C156  1  0.64718345  0.86194169  0.50745692  1.0
  C  C157  1  0.35281905  0.63806023  0.00745656  1.0
  C  C158  1  0.35281535  0.13806147  0.49254254  1.0
  C  C159  1  0.64718347  0.36193683  0.99254249  1.0
  C  C160  1  0.57353101  0.84512154  0.48014376  1.0
  C  C161  1  0.42647052  0.65488196  0.98014344  1.0
  C  C162  1  0.42646686  0.15488231  0.51985611  1.0
  C  C163  1  0.57353068  0.34511509  0.01985519  1.0
  C  C164  1  0.72049644  0.87480397  0.47746783  1.0
  C  C165  1  0.27950681  0.62519682  0.97746655  1.0
  C  C166  1  0.27950356  0.12519784  0.52253204  1.0
  C  C167  1  0.72049280  0.37480091  0.02253250  1.0
  C  C168  1  0.72041666  0.86988251  0.42016310  1.0
  C  C169  1  0.27958529  0.63011960  0.92016306  1.0
  C  C170  1  0.27958228  0.13011861  0.57983636  1.0
  C  C171  1  0.72041578  0.36987949  0.07983681  1.0
  C  C172  1  0.57442965  0.84084378  0.42267478  1.0
  C  C173  1  0.42557111  0.65915969  0.92267446  1.0
  C  C174  1  0.42556823  0.15916006  0.57732468  1.0
  C  C175  1  0.57442929  0.34083940  0.07732500  1.0
  C  C176  1  0.64732276  0.85312870  0.39196787  1.0
  C  C177  1  0.35267913  0.64687340  0.89196707  1.0
  C  C178  1  0.35267816  0.14687243  0.60803200  1.0
  C  C179  1  0.64732034  0.35312637  0.10803197  1.0
  C  C180  1  0.64521187  0.85052211  0.33056102  1.0
  C  C181  1  0.35479150  0.64947929  0.83056064  1.0
  C  C182  1  0.35479051  0.14947699  0.66943885  1.0
  C  C183  1  0.64521167  0.35052117  0.16943924  1.0
  C  C184  1  0.11346039  0.71282770  0.67716031  1.0
  C  C185  1  0.88653967  0.78716953  0.17716169  1.0
  C  C186  1  0.88653868  0.28717478  0.32283998  1.0
  C  C187  1  0.11346127  0.21282480  0.82283860  1.0
  C  C188  1  0.03497540  0.69131072  0.65091167  1.0
  C  C189  1  0.96502328  0.80868990  0.15091271  1.0
  C  C190  1  0.96502393  0.30869109  0.34908862  1.0
  C  C191  1  0.03497646  0.19130918  0.84908882  1.0
  C  C192  1  0.04256841  0.60087852  0.64561717  1.0
  C  C193  1  0.95743251  0.89912142  0.14561741  1.0
  C  C194  1  0.95743345  0.39912193  0.35438312  1.0
  C  C195  1  0.04256855  0.10087767  0.85438411  1.0
  C  C196  1  0.95427239  0.76163796  0.63011433  1.0
  C  C197  1  0.04572652  0.73836197  0.13011336  1.0
  C  C198  1  0.04572589  0.23836316  0.36988596  1.0
  C  C199  1  0.95427203  0.26163848  0.86988569  1.0
  C  C200  1  0.97261294  0.58007065  0.61770657  1.0
  C  C201  1  0.02738673  0.91993064  0.11770815  1.0
  C  C202  1  0.02738825  0.41992981  0.38229165  1.0
  C  C203  1  0.97261181  0.08006981  0.88229296  1.0
  C  C204  1  0.88432916  0.74148666  0.60183346  1.0
  C  C205  1  0.11567128  0.75851258  0.10183297  1.0
  C  C206  1  0.11567151  0.25851175  0.39816683  1.0
  C  C207  1  0.88432793  0.24148787  0.89816649  1.0
  C  C208  1  0.89596221  0.65055628  0.59457540  1.0
  C  C209  1  0.10403927  0.84944364  0.09457494  1.0
  C  C210  1  0.10403805  0.34944485  0.40542489  1.0
  C  C211  1  0.89595967  0.15055749  0.90542452  1.0
  C  C212  1  0.83904315  0.63407926  0.50596380  1.0
  C  C213  1  0.16095579  0.86591994  0.00596298  1.0
  C  C214  1  0.16095672  0.36592119  0.49403608  1.0
  C  C215  1  0.83904170  0.13407983  0.99403607  1.0
  C  C216  1  0.76584979  0.62451786  0.47417492  1.0
  C  C217  1  0.23414988  0.87548359  0.97417455  1.0
  C  C218  1  0.23415020  0.37548395  0.52582536  1.0
  C  C219  1  0.76584920  0.12451549  0.02582532  1.0
  C  C220  1  0.91655325  0.64687910  0.48060433  1.0
  C  C221  1  0.08344697  0.85312100  0.98060342  1.0
  C  C222  1  0.08344834  0.35312204  0.51939637  1.0
  C  C223  1  0.91655343  0.14687809  0.01939563  1.0
  C  C224  1  0.77006132  0.62868907  0.41691653  1.0
  C  C225  1  0.22993759  0.87131235  0.91691533  1.0
  C  C226  1  0.22993854  0.37131478  0.58308293  1.0
  C  C227  1  0.77006269  0.12868538  0.08308454  1.0
  C  C228  1  0.91994999  0.65078526  0.42312584  1.0
  C  C229  1  0.08004893  0.84921617  0.92312575  1.0
  C  C230  1  0.08005093  0.34921588  0.57687403  1.0
  C  C231  1  0.91994989  0.15078360  0.07687454  1.0
  C  C232  1  0.84696357  0.64180055  0.39071886  1.0
  C  C233  1  0.15303463  0.85820086  0.89071841  1.0
  C  C234  1  0.15303775  0.35820127  0.60928102  1.0
  C  C235  1  0.84696472  0.14179754  0.10928146  1.0
  C  C236  1  0.85290861  0.64404499  0.32944606  1.0
  C  C237  1  0.14709053  0.85595707  0.82944602  1.0
  C  C238  1  0.14709484  0.35595479  0.67055464  1.0
  C  C239  1  0.85291039  0.14404406  0.17055510  1.0
  C  C240  1  0.37571375  0.44160154  0.70889003  1.0
  C  C241  1  0.62428612  0.05839935  0.20889025  1.0
  C  C242  1  0.62428426  0.55840027  0.29110902  1.0
  C  C243  1  0.37571336  0.94160041  0.79110962  1.0
  C  C244  1  0.49551433  0.50008799  0.70558729  1.0
  C  C245  1  0.50448499  0.99991129  0.20558806  1.0
  C  C246  1  0.50448488  0.49991246  0.29441093  1.0
  C  C247  1  0.49551422  0.00008915  0.79441140  1.0
  C  C248  1  0.44190446  0.35278326  0.71103935  1.0
  C  C249  1  0.55809556  0.14721559  0.21103998  1.0
  C  C250  1  0.55809250  0.64721786  0.28896052  1.0
  C  C251  1  0.44190551  0.85278350  0.78896030  1.0
  C  C252  1  0.56559136  0.41383150  0.70755168  1.0
  C  C253  1  0.43440865  0.08616735  0.20755219  1.0
  C  C254  1  0.43440679  0.58616827  0.29244695  1.0
  C  C255  1  0.56559122  0.91383310  0.79244727  1.0
  C  C256  1  0.53917929  0.33830600  0.71228057  1.0
  C  C257  1  0.46082112  0.16169353  0.21228072  1.0
  C  C258  1  0.46081965  0.66169512  0.28771930  1.0
  C  C259  1  0.53917901  0.83830624  0.78771957  1.0
  C  C260  1  0.61850343  0.24836291  0.72292996  1.0
  C  C261  1  0.38149687  0.25163527  0.22293091  1.0
  C  C262  1  0.38149643  0.75163754  0.27706950  1.0
  C  C263  1  0.61850260  0.74836449  0.77706896  1.0
  C  C264  1  0.66538145  0.08403850  0.72770230  1.0
  C  C265  1  0.33461833  0.41596103  0.22770371  1.0
  C  C266  1  0.33461696  0.91596398  0.27229882  1.0
  C  C267  1  0.66538048  0.58403873  0.77229699  1.0
  C  C268  1  0.67385409  0.01266404  0.69126644  1.0
  C  C269  1  0.32614643  0.48733344  0.19126747  1.0
  C  C270  1  0.32614326  0.98733776  0.30873426  1.0
  C  C271  1  0.67385265  0.51266564  0.80873323  1.0
  C  C272  1  0.72187025  0.06608216  0.77558727  1.0
  C  C273  1  0.27813015  0.43391604  0.27558823  1.0
  C  C274  1  0.27812909  0.93391965  0.22441343  1.0
  C  C275  1  0.72186959  0.56608305  0.72441164  1.0
  C  C276  1  0.78639951  0.97883427  0.78700147  1.0
  C  C277  1  0.21360061  0.52116506  0.28700217  1.0
  C  C278  1  0.21359889  0.02116822  0.21299882  1.0
  C  C279  1  0.78639847  0.47883403  0.71299811  1.0
  C  C280  1  0.73795308  0.92531823  0.70244192  1.0
  C  C281  1  0.26204676  0.57467969  0.20244269  1.0
  C  C282  1  0.26204520  0.07468289  0.29755878  1.0
  C  C283  1  0.73795139  0.42532007  0.79755843  1.0
  C  C284  1  0.79504909  0.90757053  0.75020194  1.0
  C  C285  1  0.20495110  0.59242674  0.25020309  1.0
  C  C286  1  0.20494958  0.09243128  0.24979834  1.0
  C  C287  1  0.79504851  0.40757099  0.74979719  1.0
  C  C288  1  0.90178869  0.77884375  0.80730230  1.0
  C  C289  1  0.09820962  0.72115694  0.30730136  1.0
  C  C290  1  0.09821092  0.22115738  0.19269840  1.0
  C  C291  1  0.90178985  0.27884283  0.69269893  1.0
  C  C292  1  0.96273315  0.67974442  0.80060900  1.0
  C  C293  1  0.03726620  0.82025695  0.30060682  1.0
  C  C294  1  0.03726712  0.32025671  0.19939129  1.0
  C  C295  1  0.96273433  0.17974351  0.69939388  1.0
  C  C296  1  0.92356809  0.61669238  0.78341192  1.0
  C  C297  1  0.07642951  0.88330830  0.28341229  1.0
  C  C298  1  0.07642926  0.38330942  0.21658754  1.0
  C  C299  1  0.92357354  0.11669080  0.71658924  1.0
  C  C300  1  0.06012338  0.64953777  0.81263407  1.0
  C  C301  1  0.93987442  0.85046088  0.31263014  1.0
  C  C302  1  0.93987649  0.35046267  0.18736705  1.0
  C  C303  1  0.06012638  0.14953890  0.68736973  1.0
  C  C304  1  0.98323241  0.52584003  0.77895317  1.0
  C  C305  1  0.01676651  0.97416065  0.27895394  1.0
  C  C306  1  0.01676667  0.47415906  0.22104629  1.0
  C  C307  1  0.98323547  0.02584117  0.72104800  1.0
  C  C308  1  0.11509402  0.55795808  0.80606406  1.0
  C  C309  1  0.88490495  0.94204261  0.30606054  1.0
  C  C310  1  0.88490573  0.44204101  0.19393664  1.0
  C  C311  1  0.11509676  0.05795988  0.69393974  1.0
  N  N312  1  0.40184437  0.51407591  0.70757026  1.0
  N  N313  1  0.59815627  0.98592338  0.20757068  1.0
  N  N314  1  0.59815484  0.48592453  0.29242796  1.0
  N  N315  1  0.40184360  0.01407707  0.79242878  1.0
  N  N316  1  0.59855583  0.17213594  0.71602521  1.0
  N  N317  1  0.40144579  0.32786224  0.21602622  1.0
  N  N318  1  0.40144351  0.82786587  0.28397631  1.0
  N  N319  1  0.59855369  0.67213753  0.78397407  1.0
  N  N320  1  0.85872501  0.81836698  0.75901354  1.0
  N  N321  1  0.14127374  0.68163233  0.25901344  1.0
  N  N322  1  0.14127486  0.18163347  0.24098633  1.0
  N  N323  1  0.85872309  0.31836743  0.74098726  1.0
  N  N324  1  0.07745553  0.49696944  0.78977305  1.0
  N  N325  1  0.92254331  0.00302944  0.28977183  1.0
  N  N326  1  0.92254328  0.50303033  0.21022765  1.0
  N  N327  1  0.07746013  0.99697034  0.71022887  1.0
  O  O328  1  0.27963047  0.86009294  0.68161751  1.0
  O  O329  1  0.72036932  0.63990838  0.18161744  1.0
  O  O330  1  0.72036926  0.13990955  0.31838112  1.0
  O  O331  1  0.27963069  0.36009003  0.81838202  1.0
  O  O332  1  0.37168109  0.70967427  0.68254095  1.0
  O  O333  1  0.62832056  0.79032569  0.18254130  1.0
  O  O334  1  0.62831918  0.29032686  0.31745768  1.0
  O  O335  1  0.37168157  0.20967068  0.81745858  1.0
  O  O336  1  0.65264166  0.86621270  0.56436737  1.0
  O  O337  1  0.34736243  0.63378381  0.06436700  1.0
  O  O338  1  0.34736074  0.13378299  0.43563250  1.0
  O  O339  1  0.65264156  0.36621121  0.93563205  1.0
  O  O340  1  0.57516506  0.84364601  0.30523046  1.0
  O  O341  1  0.42483575  0.65635673  0.80523096  1.0
  O  O342  1  0.42483601  0.15635309  0.69476942  1.0
  O  O343  1  0.57516635  0.34364644  0.19477057  1.0
  O  O344  1  0.71740114  0.85746403  0.30464219  1.0
  O  O345  1  0.28260259  0.64253464  0.80464092  1.0
  O  O346  1  0.28260046  0.14253371  0.69535809  1.0
  O  O347  1  0.71740204  0.35746379  0.19535771  1.0
  O  O348  1  0.10079024  0.79640163  0.68216437  1.0
  O  O349  1  0.89921247  0.70359902  0.18216737  1.0
  O  O350  1  0.89921187  0.20360155  0.31783302  1.0
  O  O351  1  0.10078979  0.29639872  0.81783291  1.0
  O  O352  1  0.18748285  0.64542630  0.69171819  1.0
  O  O353  1  0.81251697  0.85457162  0.19171913  1.0
  O  O354  1  0.81251634  0.35457755  0.30828375  1.0
  O  O355  1  0.18748053  0.14542474  0.80828033  1.0
  O  O356  1  0.82994448  0.62941677  0.56281632  1.0
  O  O357  1  0.17005616  0.87058177  0.06281468  1.0
  O  O358  1  0.17005592  0.37058232  0.43718397  1.0
  O  O359  1  0.82994212  0.12941935  0.93718395  1.0
  O  O360  1  0.92657911  0.64574116  0.30555491  1.0
  O  O361  1  0.07341839  0.85426157  0.80555399  1.0
  O  O362  1  0.07342500  0.35425522  0.69444579  1.0
  O  O363  1  0.92657922  0.14574296  0.19444506  1.0
  O  O364  1  0.78038695  0.64232314  0.30097281  1.0
  O  O365  1  0.21961147  0.85767891  0.80097241  1.0
  O  O366  1  0.21961410  0.35767936  0.69902789  1.0
  O  O367  1  0.78038906  0.14232154  0.19902870  1.0
  O  O368  1  0.89379875  0.81734784  0.85242935  1.0
  O  O369  1  0.10619871  0.68265355  0.35242922  1.0
  O  O370  1  0.10620244  0.18265261  0.14757094  1.0
  O  O371  1  0.89379984  0.31734689  0.64757148  1.0
  O  O372  1  0.69760422  0.24713659  0.73812997  1.0
  O  O373  1  0.30239717  0.25286227  0.23813086  1.0
  O  O374  1  0.30239512  0.75286521  0.26186784  1.0
  O  O375  1  0.69760389  0.74713682  0.76186736  1.0
