# generated using pymatgen
data_Zn2H16C23IN8O
_symmetry_space_group_name_H-M   'P 1'
_cell_length_a   14.67093021
_cell_length_b   14.82706907
_cell_length_c   15.38712924
_cell_angle_alpha   107.83614161
_cell_angle_beta   112.82119874
_cell_angle_gamma   105.70952519
_symmetry_Int_Tables_number   1
_chemical_formula_structural   Zn2H16C23IN8O
_chemical_formula_sum   'Zn4 H32 C46 I2 N16 O2'
_cell_volume   2631.49356246
_cell_formula_units_Z   2
loop_
 _symmetry_equiv_pos_site_id
 _symmetry_equiv_pos_as_xyz
  1  'x, y, z'
loop_
 _atom_site_type_symbol
 _atom_site_label
 _atom_site_symmetry_multiplicity
 _atom_site_fract_x
 _atom_site_fract_y
 _atom_site_fract_z
 _atom_site_occupancy
  Zn  Zn0  1  0.93282907  0.52555601  0.38020310  1.0
  Zn  Zn1  1  0.83381777  0.36470924  0.50685410  1.0
  Zn  Zn2  1  0.10866175  0.48924674  0.62361528  1.0
  Zn  Zn3  1  0.17343732  0.64038151  0.50633377  1.0
  H  H4  1  0.73651465  0.35816171  0.14178809  1.0
  H  H5  1  0.85411811  0.62300972  0.02104752  1.0
  H  H6  1  0.97051593  0.77345067  0.97900844  1.0
  H  H7  1  0.38866610  0.36409676  0.26713308  1.0
  H  H8  1  0.55318816  0.05631605  0.14767610  1.0
  H  H9  1  0.21109498  0.26339064  0.35994785  1.0
  H  H10  1  0.52981554  0.92634089  0.88597420  1.0
  H  H11  1  0.55844807  0.16650997  0.36661534  1.0
  H  H12  1  0.16985052  0.16857072  0.74688701  1.0
  H  H13  1  0.18346583  0.00742271  0.72599875  1.0
  H  H14  1  0.92089597  0.02908309  0.58997411  1.0
  H  H15  1  0.93289283  0.89689139  0.63367158  1.0
  H  H16  1  0.13174577  0.30544961  0.47861125  1.0
  H  H17  1  0.41614139  0.80414398  0.68134009  1.0
  H  H18  1  0.81392867  0.14408345  0.52125695  1.0
  H  H19  1  0.85191407  0.67686788  0.51766047  1.0
  H  H20  1  0.23265080  0.73003028  0.34121326  1.0
  H  H21  1  0.16628905  0.66410320  0.84485117  1.0
  H  H22  1  0.17046442  0.31684826  0.70682949  1.0
  H  H23  1  0.20865849  0.85269740  0.68929852  1.0
  H  H24  1  0.87574508  0.57389304  0.17209386  1.0
  H  H25  1  0.81227103  0.49227740  0.69483444  1.0
  H  H26  1  0.08056303  0.45677131  0.27529111  1.0
  H  H27  1  0.08097978  0.51314769  0.06458202  1.0
  H  H28  1  0.31709307  0.65730135  0.85351218  1.0
  H  H29  1  0.72574425  0.16373694  0.30108429  1.0
  H  H30  1  0.54293370  0.46668934  0.45405904  1.0
  H  H31  1  0.87946537  0.46413192  0.88563347  1.0
  H  H32  1  0.17131304  0.82202266  0.15511323  1.0
  H  H33  1  0.19749042  0.66515508  0.02082105  1.0
  H  H34  1  0.26784979  0.39068369  0.16254312  1.0
  H  H35  1  0.39997744  0.93754710  0.09048641  1.0
  C  C36  1  0.74378478  0.32570336  0.19718169  1.0
  C  C37  1  0.02669657  0.80750651  0.62528824  1.0
  C  C38  1  0.99475067  0.19185226  0.62433343  1.0
  C  C39  1  0.05207068  0.65979254  0.21796222  1.0
  C  C40  1  0.99448641  0.59675226  0.81547240  1.0
  C  C41  1  0.05612702  0.57006976  0.04302962  1.0
  C  C42  1  0.12090598  0.65454243  0.02118975  1.0
  C  C43  1  0.57419840  0.24902251  0.39801845  1.0
  C  C44  1  0.94459706  0.54358978  0.94666597  1.0
  C  C45  1  0.10644713  0.74195290  0.09526613  1.0
  C  C46  1  0.00945964  0.62639304  0.92212837  1.0
  C  C47  1  0.04138480  0.65782024  0.11856283  1.0
  C  C48  1  0.99505242  0.71515743  0.99765425  1.0
  C  C49  1  0.93038800  0.63123409  0.02041139  1.0
  C  C50  1  0.33257180  0.30681850  0.27646353  1.0
  C  C51  1  0.55166143  0.03750320  0.07219658  1.0
  C  C52  1  0.38054710  0.25127795  0.31718945  1.0
  C  C53  1  0.62009411  0.12373494  0.07679881  1.0
  C  C54  1  0.23464956  0.32310816  0.26011564  1.0
  C  C55  1  0.47612585  0.92768410  0.99364450  1.0
  C  C56  1  0.11264753  0.35284549  0.43890307  1.0
  C  C57  1  0.37791099  0.75218200  0.70678468  1.0
  C  C58  1  0.18529255  0.30769281  0.31796361  1.0
  C  C59  1  0.12368569  0.35535788  0.35155104  1.0
  C  C60  1  0.47249319  0.87686623  0.89990750  1.0
  C  C61  1  0.09173709  0.09665088  0.70056516  1.0
  C  C62  1  0.10023441  0.00154503  0.69939132  1.0
  C  C63  1  0.99892216  0.10126977  0.63905843  1.0
  C  C64  1  0.01646810  0.90492272  0.65762067  1.0
  C  C65  1  0.39944935  0.77377250  0.81070523  1.0
  C  C66  1  0.90025881  0.20034808  0.56282178  1.0
  C  C67  1  0.94033026  0.70519022  0.55066162  1.0
  C  C68  1  0.14582536  0.68962354  0.31438864  1.0
  C  C69  1  0.07836152  0.61418514  0.79120402  1.0
  C  C70  1  0.08192989  0.28855380  0.65865834  1.0
  C  C71  1  0.12242469  0.79504410  0.63863636  1.0
  C  C72  1  0.96379320  0.60981731  0.22837672  1.0
  C  C73  1  0.89787209  0.52686241  0.71595763  1.0
  C  C74  1  0.08778923  0.43088864  0.33525365  1.0
  C  C75  1  0.32545023  0.67742213  0.79425045  1.0
  C  C76  1  0.73908794  0.22701881  0.27912526  1.0
  C  C77  1  0.56830388  0.40360728  0.44252452  1.0
  C  C78  1  0.69650901  0.22011335  0.17651126  1.0
  C  C79  1  0.49894329  0.29291211  0.37787561  1.0
  C  C80  1  0.21083967  0.37700727  0.19385765  1.0
  C  C81  1  0.40082167  0.87862304  0.02507996  1.0
  I  I82  1  0.28547303  0.10724679  0.30804401  1.0
  I  I83  1  0.62498975  0.13196233  0.94312894  1.0
  N  N84  1  0.80644347  0.38913013  0.30326001  1.0
  N  N85  1  0.98187637  0.63920046  0.51961239  1.0
  N  N86  1  0.92882328  0.29374069  0.56093672  1.0
  N  N87  1  0.11471605  0.65883530  0.37664810  1.0
  N  N88  1  0.03495232  0.55706854  0.68547016  1.0
  N  N89  1  0.04186400  0.34821789  0.62054908  1.0
  N  N90  1  0.09423300  0.69501263  0.57448285  1.0
  N  N91  1  0.67748407  0.32836721  0.46749267  1.0
  N  N92  1  0.00150840  0.60891816  0.32279549  1.0
  N  N93  1  0.92332087  0.50318781  0.63903935  1.0
  N  N94  1  0.06366164  0.47325483  0.41067469  1.0
  N  N95  1  0.26318044  0.60805122  0.69073616  1.0
  N  N96  1  0.80423049  0.32785853  0.35411621  1.0
  N  N97  1  0.67383080  0.42446415  0.49517244  1.0
  N  N98  1  0.07849491  0.42317663  0.47366605  1.0
  N  N99  1  0.29501650  0.65489997  0.63507813  1.0
  O  O100  1  0.13702986  0.40524306  0.16992295  1.0
  O  O101  1  0.34152171  0.78401921  0.98759983  1.0
