# generated using pymatgen
data_ZnH19C19NO4
_symmetry_space_group_name_H-M   'P 1'
_cell_length_a   8.96532006
_cell_length_b   13.95282712
_cell_length_c   15.28648319
_cell_angle_alpha   89.43095698
_cell_angle_beta   89.57212791
_cell_angle_gamma   79.95854500
_symmetry_Int_Tables_number   1
_chemical_formula_structural   ZnH19C19NO4
_chemical_formula_sum   'Zn2 H38 C38 N2 O8'
_cell_volume   1882.79372196
_cell_formula_units_Z   2
loop_
 _symmetry_equiv_pos_site_id
 _symmetry_equiv_pos_as_xyz
  1  'x, y, z'
loop_
 _atom_site_type_symbol
 _atom_site_label
 _atom_site_symmetry_multiplicity
 _atom_site_fract_x
 _atom_site_fract_y
 _atom_site_fract_z
 _atom_site_occupancy
  Zn  Zn0  1  0.48741693  0.60162419  0.50052573  1.0
  Zn  Zn1  1  0.51211378  0.39917218  0.49967805  1.0
  H  H2  1  0.02898115  0.38901853  0.49836851  1.0
  H  H3  1  0.27377344  0.78085947  0.45423750  1.0
  H  H4  1  0.28741375  0.27388293  0.54696239  1.0
  H  H5  1  0.71382073  0.72543039  0.54413013  1.0
  H  H6  1  0.27260545  0.09561341  0.54947608  1.0
  H  H7  1  0.72875436  0.90366798  0.54749222  1.0
  H  H8  1  0.15374069  0.79169372  0.92228383  1.0
  H  H9  1  0.06655452  0.83253477  0.02311274  1.0
  H  H10  1  0.21971335  0.88493722  0.98124263  1.0
  H  H11  1  0.31316113  0.76662791  0.10167611  1.0
  H  H12  1  0.39639825  0.72505686  0.00131337  1.0
  H  H13  1  0.96866516  0.61334896  0.49943199  1.0
  H  H14  1  0.20873759  0.61525964  0.98373454  1.0
  H  H15  1  0.12023674  0.65521354  0.08324266  1.0
  H  H16  1  0.12862002  0.29436106  0.08048497  1.0
  H  H17  1  0.04754460  0.27089418  0.97896929  1.0
  H  H18  1  0.19204276  0.18254205  0.02617156  1.0
  H  H19  1  0.30186459  0.27112291  0.90428140  1.0
  H  H20  1  0.38016757  0.29571246  0.00522853  1.0
  H  H21  1  0.20016928  0.45177705  0.01627146  1.0
  H  H22  1  0.11574159  0.42982040  0.91656593  1.0
  H  H23  1  0.04382139  0.55409016  0.19861320  1.0
  H  H24  1  0.66128078  0.38987250  0.21807202  1.0
  H  H25  1  0.13283320  0.50670027  0.29685669  1.0
  H  H26  1  0.00338586  0.61859570  0.29818898  1.0
  H  H27  1  0.27131788  0.64854520  0.30452636  1.0
  H  H28  1  0.18328608  0.69773935  0.20743562  1.0
  H  H29  1  0.12706283  0.56917282  0.70458135  1.0
  H  H30  1  0.00251963  0.48301853  0.70439422  1.0
  H  H31  1  0.04049145  0.53965583  0.80369983  1.0
  H  H32  1  0.27391151  0.39904071  0.69559473  1.0
  H  H33  1  0.18682960  0.36630054  0.79234743  1.0
  H  H34  1  0.66158077  0.56886923  0.78150329  1.0
  H  H35  1  0.64867491  0.38977341  0.05476844  1.0
  H  H36  1  0.65059021  0.56861082  0.94490680  1.0
  H  H37  1  0.73209243  0.04064151  0.44978749  1.0
  H  H38  1  0.26931039  0.96152826  0.45082723  1.0
  H  H39  1  0.72742157  0.22124194  0.45396574  1.0
  C  C40  1  0.48670627  0.50089035  0.32943401  1.0
  C  C41  1  0.62613593  0.87983045  0.52510356  1.0
  C  C42  1  0.50204011  0.05306966  0.49962013  1.0
  C  C43  1  0.49931853  0.94765810  0.49926007  1.0
  C  C44  1  0.79618632  0.47252218  0.50052406  1.0
  C  C45  1  0.20140286  0.53020168  0.49928429  1.0
  C  C46  1  0.96366008  0.46261941  0.49950733  1.0
  C  C47  1  0.03397731  0.53973032  0.49944671  1.0
  C  C48  1  0.34393222  0.56798786  0.09706814  1.0
  C  C49  1  0.34213006  0.46250937  0.90379702  1.0
  C  C50  1  0.35024622  0.56778584  0.18950023  1.0
  C  C51  1  0.48276325  0.49967400  0.67070398  1.0
  C  C52  1  0.34902462  0.46167519  0.81135483  1.0
  C  C53  1  0.46716071  0.50354861  0.23194688  1.0
  C  C54  1  0.46593444  0.49980701  0.76853695  1.0
  C  C55  1  0.57304669  0.43928993  0.18351740  1.0
  C  C56  1  0.57310663  0.53894288  0.81627804  1.0
  C  C57  1  0.56570861  0.43928087  0.09282626  1.0
  C  C58  1  0.56665274  0.53893872  0.90711100  1.0
  C  C59  1  0.45184792  0.50297874  0.04896593  1.0
  C  C60  1  0.45175154  0.50149717  0.95145778  1.0
  C  C61  1  0.23001384  0.64241083  0.04885681  1.0
  C  C62  1  0.63167858  0.08945626  0.47307273  1.0
  C  C63  1  0.28768140  0.73938256  0.03701575  1.0
  C  C64  1  0.17587611  0.81638580  0.98831753  1.0
  C  C65  1  0.22367408  0.41714005  0.95220016  1.0
  C  C66  1  0.27413528  0.30716205  0.96760547  1.0
  C  C67  1  0.15418467  0.26110004  0.01589785  1.0
  C  C68  1  0.22569318  0.62916806  0.24210493  1.0
  C  C69  1  0.09377531  0.57422796  0.25983242  1.0
  C  C70  1  0.22653863  0.42713206  0.75856895  1.0
  C  C71  1  0.09110421  0.50936260  0.74194638  1.0
  C  C72  1  0.36971047  0.91204125  0.47324171  1.0
  C  C73  1  0.62993506  0.18917534  0.47427241  1.0
  C  C74  1  0.37138765  0.81230757  0.47395913  1.0
  C  C75  1  0.38262474  0.21875378  0.52652882  1.0
  C  C76  1  0.61878245  0.78119959  0.52444333  1.0
  C  C77  1  0.37523303  0.12012029  0.52667076  1.0
  N  N78  1  0.50766976  0.25239936  0.50068026  1.0
  N  N79  1  0.49360071  0.74828176  0.49929123  1.0
  O  O80  1  0.48928164  0.58123710  0.36792105  1.0
  O  O81  1  0.50819437  0.41738027  0.63301025  1.0
  O  O82  1  0.50341261  0.41745105  0.36633112  1.0
  O  O83  1  0.47365825  0.58241915  0.63328657  1.0
  O  O84  1  0.71912327  0.55802883  0.50597924  1.0
  O  O85  1  0.27890058  0.44465989  0.50372587  1.0
  O  O86  1  0.74320968  0.39347738  0.49610678  1.0
  O  O87  1  0.25379911  0.60957068  0.49500313  1.0
