# generated using pymatgen
data_Al4H32C64Br8O31
_symmetry_space_group_name_H-M   'P 1'
_cell_length_a   6.69997613
_cell_length_b   22.28964195
_cell_length_c   23.89498007
_cell_angle_alpha   112.91205320
_cell_angle_beta   92.24941225
_cell_angle_gamma   93.64141967
_symmetry_Int_Tables_number   1
_chemical_formula_structural   Al4H32C64Br8O31
_chemical_formula_sum   'Al4 H32 C64 Br8 O31'
_cell_volume   3272.34762990
_cell_formula_units_Z   1
loop_
 _symmetry_equiv_pos_site_id
 _symmetry_equiv_pos_as_xyz
  1  'x, y, z'
loop_
 _atom_site_type_symbol
 _atom_site_label
 _atom_site_symmetry_multiplicity
 _atom_site_fract_x
 _atom_site_fract_y
 _atom_site_fract_z
 _atom_site_occupancy
  Al  Al0  1  0.14677581  0.49851224  0.50139089  1.0
  Al  Al1  1  0.64727444  0.50086425  0.50156257  1.0
  Al  Al2  1  0.66272829  0.00138339  0.00427999  1.0
  Al  Al3  1  0.16185505  0.99870466  0.00047378  1.0
  H  H4  1  0.61085754  0.86292599  0.07390947  1.0
  H  H5  1  0.59445351  0.79281557  0.13407871  1.0
  H  H6  1  0.86254871  0.86724963  0.29743437  1.0
  H  H7  1  0.58683646  0.61785587  0.41241997  1.0
  H  H8  1  0.17709702  0.64955807  0.30555231  1.0
  H  H9  1  0.67459758  0.68193210  0.64264520  1.0
  H  H10  1  0.55475647  0.78690358  0.70894897  1.0
  H  H11  1  0.12195752  0.82137537  0.86124394  1.0
  H  H12  1  0.61431243  0.32444345  0.35748663  1.0
  H  H13  1  0.74890589  0.13361154  0.18654981  1.0
  H  H14  1  0.72029961  0.18729472  0.84324644  1.0
  H  H15  1  0.62790764  0.15443660  0.72588917  1.0
  H  H16  1  0.17752435  0.33250191  0.76347604  1.0
  H  H17  1  0.16638037  0.26724512  0.82724304  1.0
  H  H18  1  0.09189494  0.29842013  0.64470578  1.0
  H  H19  1  0.08293883  0.36677969  0.58328314  1.0
  H  H20  1  0.71361888  0.42430898  0.63063118  1.0
  H  H21  1  0.22862947  0.57031556  0.40835412  1.0
  H  H22  1  0.24846546  0.58954831  0.64277990  1.0
  H  H23  1  0.12797697  0.12423141  0.10987310  1.0
  H  H24  1  0.94188726  0.07790602  0.85970851  1.0
  H  H25  1  0.06499499  0.15669943  0.76868689  1.0
  H  H26  1  0.73269687  0.09197944  0.93178505  1.0
  H  H27  1  0.32884858  0.89845049  0.21830361  1.0
  H  H28  1  0.73648498  0.33768226  0.72640389  1.0
  H  H29  1  0.84058397  0.85142096  0.38565477  1.0
  H  H30  1  0.88670075  0.59435197  0.22302746  1.0
  H  H31  1  0.42656231  0.67084311  0.36531620  1.0
  H  H32  1  0.41573523  0.58703561  0.52612489  1.0
  H  H33  1  0.87172296  0.41716352  0.45774606  1.0
  H  H34  1  0.39651429  0.91802806  0.95809167  1.0
  H  H35  1  0.93536955  0.08115127  0.00488533  1.0
  C  C36  1  0.36377255  0.41269608  0.40112207  1.0
  C  C37  1  0.39760996  0.43618985  0.56291423  1.0
  C  C38  1  0.93011159  0.59177860  0.60036847  1.0
  C  C39  1  0.89908965  0.56596264  0.43990811  1.0
  C  C40  1  0.73710801  0.86357901  0.10427809  1.0
  C  C41  1  0.72853811  0.82491432  0.13791389  1.0
  C  C42  1  0.89089587  0.82582046  0.17687380  1.0
  C  C43  1  0.06474994  0.86732418  0.18235549  1.0
  C  C44  1  0.07287287  0.90612970  0.14783403  1.0
  C  C45  1  0.91054804  0.90417818  0.10794320  1.0
  C  C46  1  0.86546678  0.81424490  0.27583024  1.0
  C  C47  1  0.85691735  0.77691384  0.31094481  1.0
  C  C48  1  0.86599779  0.70888140  0.28399525  1.0
  C  C49  1  0.88253037  0.67889487  0.22068807  1.0
  C  C50  1  0.88982823  0.71668042  0.18533438  1.0
  C  C51  1  0.88187347  0.78450644  0.21285973  1.0
  C  C52  1  0.70228370  0.66077633  0.35262035  1.0
  C  C53  1  0.71651325  0.62600706  0.38955627  1.0
  C  C54  1  0.89571096  0.60091762  0.39884061  1.0
  C  C55  1  0.06485755  0.61036329  0.36886175  1.0
  C  C56  1  0.04750773  0.64286244  0.32943196  1.0
  C  C57  1  0.87037249  0.66985556  0.32196016  1.0
  C  C58  1  0.95401190  0.64874690  0.65944154  1.0
  C  C59  1  0.85276344  0.85727745  0.84127504  1.0
  C  C60  1  0.67838775  0.79427708  0.74262253  1.0
  C  C61  1  0.69141638  0.84780406  0.79711447  1.0
  C  C62  1  0.99770632  0.81284034  0.82764200  1.0
  C  C63  1  0.98922693  0.75739155  0.77233515  1.0
  C  C64  1  0.82258695  0.74767836  0.72911332  1.0
  C  C65  1  0.80560550  0.69173864  0.67434408  1.0
  C  C66  1  0.12799821  0.65969477  0.70044367  1.0
  C  C67  1  0.13663903  0.71158597  0.75712965  1.0
  C  C68  1  0.34567705  0.36094909  0.33791437  1.0
  C  C69  1  0.45311964  0.14978321  0.15893803  1.0
  C  C70  1  0.63210104  0.21643342  0.25466768  1.0
  C  C71  1  0.62609944  0.16489528  0.19943869  1.0
  C  C72  1  0.28860034  0.18826360  0.17432053  1.0
  C  C73  1  0.31094469  0.24985896  0.22596258  1.0
  C  C74  1  0.48020542  0.26127669  0.26900678  1.0
  C  C75  1  0.49009246  0.31663176  0.32407019  1.0
  C  C76  1  0.18981333  0.35395480  0.29309502  1.0
  C  C77  1  0.17566014  0.29994495  0.23764779  1.0
  C  C78  1  0.22776243  0.09324363  0.85803981  1.0
  C  C79  1  0.22401267  0.13271296  0.82419735  1.0
  C  C80  1  0.39999175  0.16746050  0.81935519  1.0
  C  C81  1  0.58111494  0.16200820  0.84764091  1.0
  C  C82  1  0.58528483  0.12469193  0.88249605  1.0
  C  C83  1  0.40753665  0.09165687  0.89071218  1.0
  C  C84  1  0.53078651  0.19411421  0.73493150  1.0
  C  C85  1  0.53342617  0.23062090  0.69899892  1.0
  C  C86  1  0.40794349  0.28173976  0.70850068  1.0
  C  C87  1  0.27442588  0.29273152  0.75493064  1.0
  C  C88  1  0.26751972  0.25588204  0.79043548  1.0
  C  C89  1  0.39828857  0.20643125  0.78142103  1.0
  C  C90  1  0.22784963  0.32615762  0.64144286  1.0
  C  C91  1  0.22182028  0.36399237  0.60704356  1.0
  C  C92  1  0.39872746  0.39816964  0.60206211  1.0
  C  C93  1  0.57742885  0.39657623  0.63347941  1.0
  C  C94  1  0.58074469  0.36032011  0.66960605  1.0
  C  C95  1  0.40681950  0.32236240  0.67210851  1.0
  C  C96  1  0.40841286  0.06150739  0.93580243  1.0
  C  C97  1  0.44518661  0.09274501  0.10070359  1.0
  C  C98  1  0.91217009  0.94026290  0.06693337  1.0
  C  C99  1  0.87521845  0.91079871  0.90342780  1.0
  Br  Br100  1  0.35172607  0.71912049  0.81413956  1.0
  Br  Br101  1  0.49072494  0.90747298  0.80789404  1.0
  Br  Br102  1  0.01037715  0.41993133  0.30641907  1.0
  Br  Br103  1  0.84964836  0.22741363  0.31273770  1.0
  Br  Br104  1  0.98574564  0.29809777  0.17586968  1.0
  Br  Br105  1  0.70391358  0.20490299  0.63275459  1.0
  Br  Br106  1  0.31343184  0.96246087  0.16198752  1.0
  Br  Br107  1  0.91942539  0.67412112  0.10045114  1.0
  O  O108  1  0.56721625  0.45396296  0.54930753  1.0
  O  O109  1  0.20258624  0.43166116  0.42619982  1.0
  O  O110  1  0.07150092  0.55262140  0.45660317  1.0
  O  O111  1  0.22744938  0.44766856  0.54514348  1.0
  O  O112  1  0.09122503  0.56540268  0.57848050  1.0
  O  O113  1  0.54014950  0.43205207  0.42638069  1.0
  O  O114  1  0.40420533  0.53979559  0.51085990  1.0
  O  O115  1  0.75612895  0.57256871  0.57442064  1.0
  O  O116  1  0.73203764  0.55167757  0.45704685  1.0
  O  O117  1  0.88671707  0.46049126  0.49016139  1.0
  O  O118  1  0.26958476  0.07038143  0.07334741  1.0
  O  O119  1  0.58253904  0.05373926  0.95749268  1.0
  O  O120  1  0.71651216  0.93234350  0.92874057  1.0
  O  O121  1  0.60648649  0.06926925  0.07949899  1.0
  O  O122  1  0.74268521  0.95321386  0.05040470  1.0
  O  O123  1  0.24404411  0.04758333  0.95402148  1.0
  O  O124  1  0.40433027  0.96076983  0.99133523  1.0
  O  O125  1  0.07980746  0.95367251  0.04947277  1.0
  O  O126  1  0.05348550  0.92907517  0.92756757  1.0
  O  O127  1  0.92237506  0.04090056  0.01149254  1.0
  O  O128  1  0.24683631  0.59029387  0.37786123  1.0
  O  O129  1  0.27827973  0.61997507  0.68612584  1.0
  O  O130  1  0.11134422  0.16866640  0.14247531  1.0
  O  O131  1  0.06391826  0.05421753  0.85671532  1.0
  O  O132  1  0.04339446  0.13175126  0.79402440  1.0
  O  O133  1  0.76524709  0.12138330  0.90943102  1.0
  O  O134  1  0.22030473  0.86780542  0.22079151  1.0
  O  O135  1  0.75621543  0.36448057  0.70273173  1.0
  O  O136  1  0.84644971  0.80447493  0.37293427  1.0
  O  O137  1  0.89194129  0.61313226  0.19221839  1.0
  O  O138  1  0.52871064  0.68638634  0.34482389  1.0
