# generated using pymatgen
data_Zn4H53C97NO13
_symmetry_space_group_name_H-M   'P 1'
_cell_length_a   17.80792059
_cell_length_b   17.83736185
_cell_length_c   17.88631246
_cell_angle_alpha   86.55122431
_cell_angle_beta   68.79387841
_cell_angle_gamma   65.12318831
_symmetry_Int_Tables_number   1
_chemical_formula_structural   Zn4H53C97NO13
_chemical_formula_sum   'Zn4 H53 C97 N1 O13'
_cell_volume   4776.81207451
_cell_formula_units_Z   1
loop_
 _symmetry_equiv_pos_site_id
 _symmetry_equiv_pos_as_xyz
  1  'x, y, z'
loop_
 _atom_site_type_symbol
 _atom_site_label
 _atom_site_symmetry_multiplicity
 _atom_site_fract_x
 _atom_site_fract_y
 _atom_site_fract_z
 _atom_site_occupancy
  Zn  Zn0  1  0.43246721  0.55685376  0.44146342  1.0
  Zn  Zn1  1  0.42884526  0.46847246  0.60098344  1.0
  Zn  Zn2  1  0.54938342  0.56450735  0.53718244  1.0
  Zn  Zn3  1  0.60494334  0.39157488  0.43742927  1.0
  H  H4  1  0.61725883  0.27741754  0.96048402  1.0
  H  H5  1  0.49547980  0.46348274  0.81888568  1.0
  H  H6  1  0.59786479  0.05636577  0.67759048  1.0
  H  H7  1  0.21452865  0.48294467  0.46515143  1.0
  H  H8  1  0.13444847  0.62833607  0.68589737  1.0
  H  H9  1  0.86279504  0.65624632  0.66865607  1.0
  H  H10  1  0.04105709  0.31858460  0.29217086  1.0
  H  H11  1  0.79543350  0.50783894  0.52810309  1.0
  H  H12  1  0.18593473  0.40207542  0.42379363  1.0
  H  H13  1  0.97505275  0.66224859  0.71368586  1.0
  H  H14  1  0.65943450  0.24181427  0.07833332  1.0
  H  H15  1  0.33919140  0.76047048  0.92906668  1.0
  H  H16  1  0.65075143  0.28431588  0.21339187  1.0
  H  H17  1  0.47714639  0.53470164  0.20317599  1.0
  H  H18  1  0.54554556  0.38036609  0.88271851  1.0
  H  H19  1  0.41929812  0.61727909  0.14104559  1.0
  H  H20  1  0.58334654  0.10270000  0.35955119  1.0
  H  H21  1  0.55688934  0.17162552  0.24076377  1.0
  H  H22  1  0.43999825  0.31653640  0.25933646  1.0
  H  H23  1  0.35041666  0.39213051  0.39729876  1.0
  H  H24  1  0.37382179  0.32166519  0.51627463  1.0
  H  H25  1  0.73058160  0.92058179  0.57796430  1.0
  H  H26  1  0.30745598  0.09148661  0.41435415  1.0
  H  H27  1  0.81606149  0.84096168  0.66183169  1.0
  H  H28  1  0.74165325  0.79053370  0.78766451  1.0
  H  H29  1  0.58247819  0.81810604  0.82699347  1.0
  H  H30  1  0.49775052  0.89702517  0.74198777  1.0
  H  H31  1  0.24738559  0.37520807  0.26529308  1.0
  H  H32  1  0.37627937  0.25350314  0.17410492  1.0
  H  H33  1  0.37735402  0.11307219  0.18439401  1.0
  H  H34  1  0.24815348  0.09567526  0.28608416  1.0
  H  H35  1  0.11965506  0.21734732  0.37745259  1.0
  H  H36  1  0.97015362  0.21336695  0.29715919  1.0
  H  H37  1  0.57526803  0.20197623  0.65608308  1.0
  H  H38  1  0.94362659  0.15666158  0.19065714  1.0
  H  H39  1  0.84082729  0.25194300  0.12652122  1.0
  H  H40  1  0.76578881  0.40413103  0.16936194  1.0
  H  H41  1  0.79254008  0.46054683  0.27579141  1.0
  H  H42  1  0.81326001  0.65999784  0.46682959  1.0
  H  H43  1  0.65217866  0.73135351  0.49110468  1.0
  H  H44  1  0.53971677  0.72696119  0.62317284  1.0
  H  H45  1  0.59027507  0.65300276  0.72971083  1.0
  H  H46  1  0.75239963  0.58127943  0.70507066  1.0
  H  H47  1  0.29585795  0.67461858  0.73298436  1.0
  H  H48  1  0.29039132  0.96513234  0.38917022  1.0
  H  H49  1  0.24320961  0.78150381  0.64629432  1.0
  H  H50  1  0.27076155  0.90821937  0.63883175  1.0
  H  H51  1  0.35097672  0.92714627  0.71955190  1.0
  H  H52  1  0.40579910  0.81872120  0.80535430  1.0
  H  H53  1  0.32726886  0.81477005  0.40221904  1.0
  H  H54  1  0.50255142  0.80041732  0.52004582  1.0
  H  H55  1  0.37781079  0.15780641  0.46259163  1.0
  H  H56  1  0.53642016  0.85896708  0.57868959  1.0
  C  C57  1  0.52610067  0.28960638  0.54433127  1.0
  C  C58  1  0.43001071  0.59725333  0.08030057  1.0
  C  C59  1  0.39467546  0.65694442  0.03451141  1.0
  C  C60  1  0.44376615  0.70955540  0.46944106  1.0
  C  C61  1  0.40749658  0.63479698  0.95328161  1.0
  C  C62  1  0.45333605  0.54881839  0.92318379  1.0
  C  C63  1  0.37596766  0.69528893  0.90394014  1.0
  C  C64  1  0.38910408  0.67419460  0.82518348  1.0
  C  C65  1  0.46265674  0.52811058  0.84449934  1.0
  C  C66  1  0.41823896  0.79973216  0.46194152  1.0
  C  C67  1  0.52726197  0.20570992  0.56015391  1.0
  C  C68  1  0.61568058  0.32908930  0.17971571  1.0
  C  C69  1  0.33673938  0.92901367  0.41831248  1.0
  C  C70  1  0.35685166  0.84590805  0.42526433  1.0
  C  C71  1  0.45602195  0.83856741  0.49227883  1.0
  C  C72  1  0.27670202  0.53999535  0.55243991  1.0
  C  C73  1  0.43567499  0.92351472  0.48727662  1.0
  C  C74  1  0.37555077  0.96942558  0.44812469  1.0
  C  C75  1  0.47387635  0.96471415  0.51991285  1.0
  C  C76  1  0.45870247  0.04823922  0.50592935  1.0
  C  C77  1  0.39609856  0.09215634  0.46840755  1.0
  C  C78  1  0.35565072  0.05502375  0.44155820  1.0
  C  C79  1  0.51712593  0.47155442  0.17336944  1.0
  C  C80  1  0.52445893  0.92285787  0.56784117  1.0
  C  C81  1  0.55750326  0.96105741  0.60362907  1.0
  C  C82  1  0.54367722  0.04538855  0.59047097  1.0
  C  C83  1  0.50102014  0.08733071  0.53581945  1.0
  C  C84  1  0.73615627  0.44284339  0.45203018  1.0
  C  C85  1  0.56954866  0.08787174  0.63358209  1.0
  C  C86  1  0.55781945  0.16818432  0.62135017  1.0
  C  C87  1  0.50080979  0.16658606  0.51582736  1.0
  C  C88  1  0.83129693  0.42830660  0.42637788  1.0
  C  C89  1  0.18271274  0.55417387  0.57268931  1.0
  C  C90  1  0.52274664  0.45067685  0.09619743  1.0
  C  C91  1  0.98697635  0.35975119  0.34489548  1.0
  C  C92  1  0.90026240  0.37528259  0.35619797  1.0
  C  C93  1  0.85094708  0.46868202  0.47563179  1.0
  C  C94  1  0.93787502  0.45996377  0.46058241  1.0
  C  C95  1  0.00838022  0.39801197  0.39639942  1.0
  C  C96  1  0.45601246  0.55835366  0.71088740  1.0
  C  C97  1  0.95750449  0.50817114  0.50754934  1.0
  C  C98  1  0.04870155  0.48763540  0.49147864  1.0
  C  C99  1  0.11667197  0.42146463  0.43121619  1.0
  C  C100  1  0.09946159  0.37673066  0.38474210  1.0
  C  C101  1  0.57432002  0.36565432  0.06235826  1.0
  C  C102  1  0.89012795  0.57474371  0.57041322  1.0
  C  C103  1  0.91484823  0.60749335  0.62044870  1.0
  C  C104  1  0.00503286  0.58551349  0.60822387  1.0
  C  C105  1  0.07312645  0.52984887  0.53909321  1.0
  C  C106  1  0.02815168  0.62080005  0.66053179  1.0
  C  C107  1  0.11581128  0.60319866  0.64497418  1.0
  C  C108  1  0.55237885  0.43776256  0.29689200  1.0
  C  C109  1  0.16128193  0.51915002  0.52068602  1.0
  C  C110  1  0.56255140  0.41251009  0.21448523  1.0
  C  C111  1  0.43348875  0.58819025  0.79607378  1.0
  C  C112  1  0.48020834  0.51184174  0.04983138  1.0
  C  C113  1  0.62010264  0.30629589  0.10541454  1.0
  C  C114  1  0.48040805  0.20739231  0.44603011  1.0
  C  C115  1  0.53151246  0.16583781  0.36771225  1.0
  C  C116  1  0.51660786  0.20468034  0.30118993  1.0
  C  C117  1  0.45102044  0.28600224  0.31149835  1.0
  C  C118  1  0.40040038  0.32807992  0.38886879  1.0
  C  C119  1  0.41451161  0.28899201  0.45575789  1.0
  C  C120  1  0.60812688  0.91454514  0.65462909  1.0
  C  C121  1  0.69811664  0.89831251  0.63281018  1.0
  C  C122  1  0.74602644  0.85358987  0.68004510  1.0
  C  C123  1  0.49028534  0.48679766  0.97161998  1.0
  C  C124  1  0.70454450  0.82488447  0.75023500  1.0
  C  C125  1  0.61524119  0.84044431  0.77237725  1.0
  C  C126  1  0.56756324  0.88467251  0.72474330  1.0
  C  C127  1  0.17459875  0.30486521  0.32771610  1.0
  C  C128  1  0.24788640  0.31372758  0.27011212  1.0
  C  C129  1  0.32020819  0.24524888  0.21880992  1.0
  C  C130  1  0.32082213  0.16660248  0.22437652  1.0
  C  C131  1  0.24823110  0.15692649  0.28143547  1.0
  C  C132  1  0.17576621  0.22534817  0.33246922  1.0
  C  C133  1  0.88298193  0.34075312  0.29400183  1.0
  C  C134  1  0.53903313  0.40073751  0.94179840  1.0
  C  C135  1  0.92589795  0.25527783  0.26861125  1.0
  C  C136  1  0.91060062  0.22342003  0.20893574  1.0
  C  C137  1  0.85291472  0.27668134  0.17312910  1.0
  C  C138  1  0.81065170  0.36209440  0.19728844  1.0
  C  C139  1  0.82544970  0.39378550  0.25722661  1.0
  C  C140  1  0.79350634  0.61547809  0.58424755  1.0
  C  C141  1  0.76427254  0.65896401  0.52466558  1.0
  C  C142  1  0.67360068  0.69912600  0.53861712  1.0
  C  C143  1  0.61075617  0.69702115  0.61227356  1.0
  C  C144  1  0.63913860  0.65514612  0.67233828  1.0
  C  C145  1  0.57935839  0.34266712  0.98523461  1.0
  C  C146  1  0.72991214  0.61494294  0.65858451  1.0
  C  C147  1  0.35512606  0.73903118  0.77495108  1.0
  C  C148  1  0.30886427  0.72957120  0.72972444  1.0
  C  C149  1  0.27850747  0.79012323  0.68135623  1.0
  C  C150  1  0.29353825  0.86137682  0.67746847  1.0
  C  C151  1  0.33861450  0.87188007  0.72277721  1.0
  C  C152  1  0.36898977  0.81127318  0.77126597  1.0
  C  C153  1  0.34549414  0.74188451  0.06795824  1.0
  N  N154  1  0.30499681  0.81177783  0.09456737  1.0
  O  O155  1  0.50560353  0.49354866  0.50327151  1.0
  O  O156  1  0.43245150  0.50227287  0.70168926  1.0
  O  O157  1  0.60077628  0.38355558  0.32980291  1.0
  O  O158  1  0.49905909  0.58942126  0.65564773  1.0
  O  O159  1  0.49542510  0.51195769  0.32750539  1.0
  O  O160  1  0.32408504  0.53613935  0.47805085  1.0
  O  O161  1  0.71934077  0.38633910  0.43087642  1.0
  O  O162  1  0.46293981  0.34895304  0.59733270  1.0
  O  O163  1  0.50729945  0.67174173  0.49475341  1.0
  O  O164  1  0.58847608  0.29359131  0.48330036  1.0
  O  O165  1  0.40090839  0.67650199  0.45005514  1.0
  O  O166  1  0.30326715  0.53266337  0.61129231  1.0
  O  O167  1  0.67874192  0.51163281  0.49521539  1.0
