# generated using pymatgen
data_Zn4H37C46N19O2
_symmetry_space_group_name_H-M   'P 1'
_cell_length_a   14.72899197
_cell_length_b   14.84366653
_cell_length_c   15.09562327
_cell_angle_alpha   66.67178349
_cell_angle_beta   76.08852677
_cell_angle_gamma   110.13941287
_symmetry_Int_Tables_number   1
_chemical_formula_structural   Zn4H37C46N19O2
_chemical_formula_sum   'Zn4 H37 C46 N19 O2'
_cell_volume   2559.18816523
_cell_formula_units_Z   1
loop_
 _symmetry_equiv_pos_site_id
 _symmetry_equiv_pos_as_xyz
  1  'x, y, z'
loop_
 _atom_site_type_symbol
 _atom_site_label
 _atom_site_symmetry_multiplicity
 _atom_site_fract_x
 _atom_site_fract_y
 _atom_site_fract_z
 _atom_site_occupancy
  Zn  Zn0  1  0.99008915  0.88038526  0.64422079  1.0
  Zn  Zn1  1  0.98771232  0.16048229  0.37302937  1.0
  Zn  Zn2  1  0.14099376  0.15645560  0.49833928  1.0
  Zn  Zn3  1  0.85427751  0.88576316  0.50379002  1.0
  H  H4  1  0.81563218  0.85637075  0.84394318  1.0
  H  H5  1  0.81514075  0.20095233  0.51812353  1.0
  H  H6  1  0.24940129  0.42957788  0.43379975  1.0
  H  H7  1  0.63203480  0.63943231  0.67780206  1.0
  H  H8  1  0.03305541  0.42333198  0.28350319  1.0
  H  H9  1  0.80334588  0.64920981  0.87266312  1.0
  H  H10  1  0.65351428  0.83524291  0.69029754  1.0
  H  H11  1  0.02721968  0.21929622  0.65988993  1.0
  H  H12  1  0.15664717  0.23658635  0.15040247  1.0
  H  H13  1  0.35873087  0.17260974  0.55073288  1.0
  H  H14  1  0.76532918  0.84635856  0.33321622  1.0
  H  H15  1  0.94410413  0.21159622  0.15195322  1.0
  H  H16  1  0.13527229  0.81467392  0.76698603  1.0
  H  H17  1  0.99431948  0.86737720  0.31732497  1.0
  H  H18  1  0.34645609  0.20264384  0.32753688  1.0
  H  H19  1  0.47297105  0.52962630  0.83420262  1.0
  H  H20  1  0.48097558  0.59500819  0.90962185  1.0
  H  H21  1  0.31563808  0.43741597  0.04096713  1.0
  H  H22  1  0.32695984  0.35970544  0.97941871  1.0
  H  H23  1  0.54004862  0.38579667  0.86846059  1.0
  H  H24  1  0.40507218  0.22959133  0.03699449  1.0
  H  H25  1  0.64378522  0.49125269  0.02925655  1.0
  H  H26  1  0.60464700  0.59563191  0.00181231  1.0
  H  H27  1  0.43077765  0.46555745  0.14003289  1.0
  H  H28  1  0.48320294  0.37485734  0.18435470  1.0
  H  H29  1  0.62919250  0.38796608  0.92828960  1.0
  H  H30  1  0.48816166  0.25469557  0.10104243  1.0
  H  H31  1  0.44669170  0.05946665  0.63296370  1.0
  H  H32  1  0.49358838  0.83400181  0.77485360  1.0
  H  H33  1  0.59217918  0.09280505  0.64636064  1.0
  H  H34  1  0.09352756  0.62040363  0.23157972  1.0
  H  H35  1  0.21427735  0.61329730  0.37264264  1.0
  H  H36  1  0.07667072  0.76859284  0.24567691  1.0
  H  H37  1  0.18669939  0.73670224  0.39650129  1.0
  H  H38  1  0.92913540  0.19714810  0.00145798  1.0
  H  H39  1  0.95701106  0.20717588  0.83818977  1.0
  H  H40  1  0.80167454  0.95135927  0.96168185  1.0
  C  C41  1  0.87514612  0.94406482  0.78410189  1.0
  C  C42  1  0.79087092  0.11226508  0.55074867  1.0
  C  C43  1  0.19216720  0.40948633  0.40130531  1.0
  C  C44  1  0.68936829  0.65622367  0.71084688  1.0
  C  C45  1  0.08251769  0.40701031  0.32392402  1.0
  C  C46  1  0.77649727  0.66152565  0.80990909  1.0
  C  C47  1  0.70804676  0.92557015  0.63901164  1.0
  C  C48  1  0.98321930  0.12951426  0.69094814  1.0
  C  C49  1  0.90016240  0.03982501  0.79344796  1.0
  C  C50  1  0.69110157  0.01600789  0.63038842  1.0
  C  C51  1  0.15408361  0.47754217  0.34553098  1.0
  C  C52  1  0.67444863  0.60317278  0.81747096  1.0
  C  C53  1  0.11506816  0.84632185  0.47544547  1.0
  C  C54  1  0.18800240  0.21718238  0.20956402  1.0
  C  C55  1  0.29057578  0.08741563  0.59779598  1.0
  C  C56  1  0.81191743  0.93542950  0.30391843  1.0
  C  C57  1  0.90328817  0.12176666  0.21064995  1.0
  C  C58  1  0.17599047  0.90448607  0.70992805  1.0
  C  C59  1  0.02853830  0.86516731  0.37383788  1.0
  C  C60  1  0.28478638  0.20019800  0.29944240  1.0
  C  C61  1  0.10320714  0.82978707  0.39146543  1.0
  C  C62  1  0.29491401  0.25313523  0.19453012  1.0
  C  C63  1  0.28131770  0.98774400  0.67691287  1.0
  C  C64  1  0.84662877  0.02910853  0.20290268  1.0
  C  C65  1  0.47431155  0.51854156  0.91024375  1.0
  C  C66  1  0.37014994  0.41276309  0.00597453  1.0
  C  C67  1  0.55501143  0.39220223  0.93434258  1.0
  C  C68  1  0.58043590  0.51027534  0.01645268  1.0
  C  C69  1  0.57366485  0.50844282  0.91679052  1.0
  C  C70  1  0.39619112  0.34240208  0.09263077  1.0
  C  C71  1  0.45937851  0.29554068  0.04475744  1.0
  C  C72  1  0.47128193  0.42353796  0.11576386  1.0
  C  C73  1  0.38836587  0.90293366  0.76197988  1.0
  C  C74  1  0.37084530  0.98268822  0.69470747  1.0
  C  C75  1  0.49459984  0.91447377  0.74057856  1.0
  C  C76  1  0.59002962  0.01144985  0.67572815  1.0
  C  C77  1  0.13095013  0.64666505  0.27786012  1.0
  C  C78  1  0.17195913  0.58550907  0.33008973  1.0
  C  C79  1  0.11910481  0.73535886  0.28797361  1.0
  C  C80  1  0.14341625  0.76908648  0.35487681  1.0
  C  C81  1  0.88502739  0.11633799  0.00887819  1.0
  C  C82  1  0.83397540  0.02405817  0.11168237  1.0
  C  C83  1  0.89995789  0.12283013  0.90864485  1.0
  C  C84  1  0.86108840  0.03554584  0.89263708  1.0
  C  C85  1  0.77211396  0.91247184  0.13601848  1.0
  C  C86  1  0.17935720  0.82103303  0.52614417  1.0
  N  N87  1  0.93979224  0.97453313  0.68602591  1.0
  N  N88  1  0.85966538  0.08055103  0.51398579  1.0
  N  N89  1  0.14714730  0.30783603  0.41186374  1.0
  N  N90  1  0.79213543  0.73983370  0.64505568  1.0
  N  N91  1  0.07855456  0.30661985  0.36374210  1.0
  N  N92  1  0.84636198  0.74300299  0.70704233  1.0
  N  N93  1  0.80829871  0.96588432  0.56865654  1.0
  N  N94  1  0.00583837  0.08853667  0.62875703  1.0
  N  N95  1  0.04960882  0.88530266  0.50584116  1.0
  N  N96  1  0.12012247  0.15069914  0.31540752  1.0
  N  N97  1  0.20002214  0.06550876  0.58573158  1.0
  N  N98  1  0.84577821  0.96960755  0.36582484  1.0
  N  N99  1  0.90234312  0.08545479  0.30816105  1.0
  N  N100  1  0.12953007  0.95059301  0.65477022  1.0
  N  N101  1  0.99735672  0.89587312  0.44355505  1.0
  N  N102  1  0.17989346  0.14032362  0.37118231  1.0
  N  N103  1  0.30011714  0.79388770  0.85383828  1.0
  N  N104  1  0.72049368  0.81868961  0.16128209  1.0
  N  N105  1  0.23300201  0.79689363  0.56616164  1.0
  O  O106  1  0.32281803  0.72207228  0.90454990  1.0
  O  O107  1  0.20644779  0.77794139  0.87936690  1.0
