# generated using pymatgen
data_Zn4H12C24S3O22
_symmetry_space_group_name_H-M   'P 1'
_cell_length_a   18.10878672
_cell_length_b   18.20681614
_cell_length_c   18.23825448
_cell_angle_alpha   119.08296728
_cell_angle_beta   119.43054550
_cell_angle_gamma   60.94059641
_symmetry_Int_Tables_number   1
_chemical_formula_structural   Zn4H12C24S3O22
_chemical_formula_sum   'Zn8 H24 C48 S6 O44'
_cell_volume   4329.45771678
_cell_formula_units_Z   2
loop_
 _symmetry_equiv_pos_site_id
 _symmetry_equiv_pos_as_xyz
  1  'x, y, z'
loop_
 _atom_site_type_symbol
 _atom_site_label
 _atom_site_symmetry_multiplicity
 _atom_site_fract_x
 _atom_site_fract_y
 _atom_site_fract_z
 _atom_site_occupancy
  Zn  Zn0  1  0.95126048  0.94839011  0.04585941  1.0
  Zn  Zn1  1  0.13238907  0.94611150  0.05143357  1.0
  Zn  Zn2  1  0.96240857  0.12092377  0.05157904  1.0
  Zn  Zn3  1  0.95917905  0.95236828  0.87624623  1.0
  Zn  Zn4  1  0.54324746  0.53107440  0.45705516  1.0
  Zn  Zn5  1  0.36934223  0.53168925  0.46522122  1.0
  Zn  Zn6  1  0.54413744  0.53605053  0.63717759  1.0
  Zn  Zn7  1  0.55244054  0.35973544  0.46868475  1.0
  H  H8  1  0.10758808  0.85305152  0.27884142  1.0
  H  H9  1  0.20970982  0.75244944  0.37109669  1.0
  H  H10  1  0.27064183  0.70203316  0.10985129  1.0
  H  H11  1  0.48739472  0.59314824  0.30705176  1.0
  H  H12  1  0.68223415  0.16564545  0.09327633  1.0
  H  H13  1  0.58793372  0.26839780  0.19034059  1.0
  H  H14  1  0.91630892  0.21779465  0.31533521  1.0
  H  H15  1  0.90907421  0.39706893  0.46795084  1.0
  H  H16  1  0.85735095  0.72870875  0.89208485  1.0
  H  H17  1  0.76122356  0.63039413  0.79212925  1.0
  H  H18  1  0.72838605  0.86454397  0.70142982  1.0
  H  H19  1  0.60454660  0.87912833  0.54539015  1.0
  H  H20  1  0.26079100  0.13324967  0.31238241  1.0
  H  H21  1  0.35286038  0.23427449  0.41097057  1.0
  H  H22  1  0.16382814  0.23485023  0.10052448  1.0
  H  H23  1  0.14702755  0.43263570  0.13703042  1.0
  H  H24  1  0.29819999  0.86256437  0.89618132  1.0
  H  H25  1  0.39137995  0.76438174  0.79626944  1.0
  H  H26  1  0.11458821  0.71401143  0.72663839  1.0
  H  H27  1  0.07890604  0.57812783  0.59255032  1.0
  H  H28  1  0.70180755  0.24684735  0.86423528  1.0
  H  H29  1  0.60411773  0.34242116  0.76687600  1.0
  H  H30  1  0.91714651  0.15828934  0.76935287  1.0
  H  H31  1  0.84854503  0.21518672  0.53898096  1.0
  C  C32  1  0.12791703  0.84782260  0.13730020  1.0
  C  C33  1  0.18388352  0.78544650  0.19008827  1.0
  C  C34  1  0.16531361  0.79812873  0.26217084  1.0
  C  C35  1  0.22198572  0.74189039  0.31334172  1.0
  C  C36  1  0.29678966  0.67137593  0.29272939  1.0
  C  C37  1  0.35808439  0.61904203  0.35596997  1.0
  C  C38  1  0.31214428  0.65663347  0.21723220  1.0
  C  C39  1  0.25696650  0.71387774  0.16723464  1.0
  C  C40  1  0.86247649  0.12813415  0.14065108  1.0
  C  C41  1  0.80485278  0.18631396  0.19814820  1.0
  C  C42  1  0.71282399  0.19902487  0.16341091  1.0
  C  C43  1  0.66017679  0.25565169  0.21787706  1.0
  C  C44  1  0.69945388  0.29615200  0.30882848  1.0
  C  C45  1  0.64059501  0.35339262  0.36606153  1.0
  C  C46  1  0.79226328  0.28013452  0.34323275  1.0
  C  C47  1  0.84476340  0.22763351  0.28822012  1.0
  C  C48  1  0.85726714  0.85889216  0.86078086  1.0
  C  C49  1  0.79966872  0.80066998  0.80121565  1.0
  C  C50  1  0.80849641  0.73584809  0.82801189  1.0
  C  C51  1  0.75497965  0.68171871  0.77284981  1.0
  C  C52  1  0.69120942  0.69206519  0.69113819  1.0
  C  C53  1  0.63719858  0.63006596  0.63569436  1.0
  C  C54  1  0.68119812  0.75880909  0.66542878  1.0
  C  C55  1  0.73599020  0.81209252  0.71981142  1.0
  C  C56  1  0.14490508  0.12403669  0.14425264  1.0
  C  C57  1  0.20465309  0.18002526  0.20151022  1.0
  C  C58  1  0.26006403  0.17768640  0.28795726  1.0
  C  C59  1  0.31218700  0.23330218  0.34251073  1.0
  C  C60  1  0.31352091  0.28857537  0.31047178  1.0
  C  C61  1  0.37067067  0.34778872  0.37379595  1.0
  C  C62  1  0.26192764  0.28625005  0.22197601  1.0
  C  C63  1  0.20552701  0.23436271  0.16835259  1.0
  C  C64  1  0.14151702  0.85433603  0.87205866  1.0
  C  C65  1  0.19946074  0.79545786  0.81508609  1.0
  C  C66  1  0.27844453  0.80895615  0.83663775  1.0
  C  C67  1  0.33033628  0.75418090  0.78145736  1.0
  C  C68  1  0.30553270  0.68454892  0.70560109  1.0
  C  C69  1  0.36274966  0.63100023  0.64741425  1.0
  C  C70  1  0.22797262  0.66914343  0.68665377  1.0
  C  C71  1  0.17446630  0.72528387  0.74023366  1.0
  C  C72  1  0.86992625  0.13342790  0.87441739  1.0
  C  C73  1  0.81348455  0.19332015  0.81924595  1.0
  C  C74  1  0.72663666  0.24764047  0.82106894  1.0
  C  C75  1  0.67251042  0.30140825  0.76738418  1.0
  C  C76  1  0.70571300  0.30434687  0.71423817  1.0
  C  C77  1  0.64331869  0.36008699  0.65433462  1.0
  C  C78  1  0.79486338  0.25404053  0.71744914  1.0
  C  C79  1  0.84812761  0.19686513  0.76776893  1.0
  S  S80  1  0.39830443  0.56196910  0.17696893  1.0
  S  S81  1  0.84704307  0.31843878  0.45995582  1.0
  S  S82  1  0.59352928  0.77993200  0.56566943  1.0
  S  S83  1  0.27725619  0.33817999  0.17110766  1.0
  S  S84  1  0.20070001  0.57342450  0.59716222  1.0
  S  S85  1  0.84811709  0.27451310  0.67201105  1.0
  O  O86  1  0.00134349  0.99101494  0.00628192  1.0
  O  O87  1  0.16699556  0.85330298  0.09879257  1.0
  O  O88  1  0.04658560  0.89042738  0.13524925  1.0
  O  O89  1  0.32126931  0.60229914  0.38719615  1.0
  O  O90  1  0.44276332  0.60011840  0.37749839  1.0
  O  O91  1  0.39810771  0.48561363  0.18209062  1.0
  O  O92  1  0.38998257  0.56264035  0.09487472  1.0
  O  O93  1  0.48627582  0.58703101  0.24893909  1.0
  O  O94  1  0.91359267  0.16117739  0.14570313  1.0
  O  O95  1  0.85652401  0.05052633  0.09271247  1.0
  O  O96  1  0.63317929  0.31342663  0.40175833  1.0
  O  O97  1  0.60279283  0.43434688  0.37063031  1.0
  O  O98  1  0.78906862  0.40068385  0.50093739  1.0
  O  O99  1  0.89013150  0.24344889  0.49142102  1.0
  O  O100  1  0.92982319  0.33605298  0.46719762  1.0
  O  O101  1  0.86380023  0.90056703  0.82567278  1.0
  O  O102  1  0.89529490  0.86155903  0.94195859  1.0
  O  O103  1  0.61416756  0.61196735  0.67894029  1.0
  O  O104  1  0.62192723  0.60037456  0.55227944  1.0
  O  O105  1  0.62380348  0.72610557  0.48990158  1.0
  O  O106  1  0.51208108  0.78431469  0.56528876  1.0
  O  O107  1  0.58328495  0.88140212  0.58674852  1.0
  O  O108  1  0.06550307  0.16066529  0.09883957  1.0
  O  O109  1  0.17803330  0.04458610  0.14565622  1.0
  O  O110  1  0.45432340  0.30946925  0.38697013  1.0
  O  O111  1  0.33015586  0.42794638  0.41036926  1.0
  O  O112  1  0.30372551  0.41464793  0.23717260  1.0
  O  O113  1  0.32784701  0.26936887  0.11389326  1.0
  O  O114  1  0.17693633  0.37195443  0.10486275  1.0
  O  O115  1  0.05918457  0.85873672  0.83442988  1.0
  O  O116  1  0.17875295  0.89511234  0.95309957  1.0
  O  O117  1  0.44682330  0.61148182  0.68778182  1.0
  O  O118  1  0.32185853  0.61323410  0.56395410  1.0
  O  O119  1  0.14153745  0.59427337  0.51603689  1.0
  O  O120  1  0.28147711  0.49864425  0.60138280  1.0
  O  O121  1  0.14127357  0.55966341  0.63062550  1.0
  O  O122  1  0.91580390  0.05504242  0.83832411  1.0
  O  O123  1  0.86712914  0.16544916  0.95316892  1.0
  O  O124  1  0.61230201  0.44289533  0.69228508  1.0
  O  O125  1  0.62394790  0.31741803  0.57136433  1.0
  O  O126  1  0.80044406  0.36369554  0.66745121  1.0
  O  O127  1  0.94289901  0.24956768  0.72034593  1.0
  O  O128  1  0.82847270  0.20446938  0.57420406  1.0
  O  O129  1  0.50138039  0.49040402  0.50652007  1.0
