# generated using pymatgen
data_Zr6H24C52S10N4O37
_symmetry_space_group_name_H-M   'P 1'
_cell_length_a   16.44297280
_cell_length_b   16.47073080
_cell_length_c   16.47570849
_cell_angle_alpha   88.46335624
_cell_angle_beta   60.23019214
_cell_angle_gamma   60.25932073
_symmetry_Int_Tables_number   1
_chemical_formula_structural   Zr6H24C52S10N4O37
_chemical_formula_sum   'Zr6 H24 C52 S10 N4 O37'
_cell_volume   3217.25428207
_cell_formula_units_Z   1
loop_
 _symmetry_equiv_pos_site_id
 _symmetry_equiv_pos_as_xyz
  1  'x, y, z'
loop_
 _atom_site_type_symbol
 _atom_site_label
 _atom_site_symmetry_multiplicity
 _atom_site_fract_x
 _atom_site_fract_y
 _atom_site_fract_z
 _atom_site_occupancy
  Zr  Zr0  1  0.51032357  0.09811113  0.59967174  1.0
  Zr  Zr1  1  0.49375823  0.89462931  0.39646492  1.0
  Zr  Zr2  1  0.29104251  0.10265972  0.60467704  1.0
  Zr  Zr3  1  0.71147541  0.89063754  0.39298839  1.0
  Zr  Zr4  1  0.50112917  0.10621116  0.38923395  1.0
  Zr  Zr5  1  0.50104130  0.88754861  0.60844537  1.0
  H  H6  1  0.34206085  0.24569077  0.57731622  1.0
  H  H7  1  0.66130099  0.91766248  0.24947612  1.0
  H  H8  1  0.32891379  0.91468832  0.58765169  1.0
  H  H9  1  0.67499800  0.90753144  0.58075286  1.0
  H  H10  1  0.51430491  0.38823757  0.36080191  1.0
  H  H11  1  0.48779123  0.87293716  0.90211060  1.0
  H  H12  1  0.01432419  0.87519748  0.11942974  1.0
  H  H13  1  0.01359779  0.60451193  0.36497016  1.0
  H  H14  1  0.30440339  0.35223919  0.82849067  1.0
  H  H15  1  0.70196482  0.66399154  0.14358426  1.0
  H  H16  1  0.76891196  0.12772406  0.60966043  1.0
  H  H17  1  0.51765487  0.54523995  0.67432291  1.0
  H  H18  1  0.49099558  0.18631323  0.06007004  1.0
  H  H19  1  0.89353291  0.18526662  0.93522564  1.0
  H  H20  1  0.89314739  0.41621586  0.67122220  1.0
  H  H21  1  0.24561004  0.82739769  0.31691878  1.0
  H  H22  1  0.84398537  0.50476042  0.92133853  1.0
  H  H23  1  0.72325162  0.57165289  0.02960003  1.0
  H  H24  1  0.05995217  0.27941778  0.83820243  1.0
  H  H25  1  0.92361331  0.37071029  0.93938251  1.0
  H  H26  1  0.16543578  0.57423915  0.98341686  1.0
  H  H27  1  0.28462398  0.46461311  0.92050741  1.0
  H  H28  1  0.94546468  0.66258652  0.21066918  1.0
  H  H29  1  0.08325994  0.56144562  0.11993659  1.0
  C  C30  1  0.51877647  0.26135984  0.48501169  1.0
  C  C31  1  0.48610946  0.01002185  0.23360324  1.0
  C  C32  1  0.50141060  0.72451634  0.50404828  1.0
  C  C33  1  0.50299469  0.99195332  0.77083834  1.0
  C  C34  1  0.24929678  0.25685649  0.76622212  1.0
  C  C35  1  0.77844305  0.99730961  0.48984663  1.0
  C  C36  1  0.75674399  0.72856571  0.23753605  1.0
  C  C37  1  0.22717704  0.00416029  0.49635490  1.0
  C  C38  1  0.23053359  0.26641432  0.49467212  1.0
  C  C39  1  0.23067339  0.00041691  0.77636060  1.0
  C  C40  1  0.77261901  0.71937467  0.49613513  1.0
  C  C41  1  0.77303791  0.00154595  0.22964573  1.0
  C  C42  1  0.51308010  0.57468642  0.56319322  1.0
  C  C43  1  0.51624461  0.40669163  0.42243975  1.0
  C  C44  1  0.50776505  0.63294840  0.50058699  1.0
  C  C45  1  0.51987388  0.35007446  0.48554351  1.0
  C  C46  1  0.51440303  0.48843071  0.45000328  1.0
  C  C47  1  0.51686438  0.49203956  0.53396224  1.0
  C  C48  1  0.48790484  0.07429662  0.08847624  1.0
  C  C49  1  0.48945010  0.93464049  0.92096611  1.0
  C  C50  1  0.48403131  0.01088831  0.14601374  1.0
  C  C51  1  0.49580134  0.99661745  0.86332943  1.0
  C  C52  1  0.48609090  0.96277853  0.00342461  1.0
  C  C53  1  0.48938364  0.04633302  0.00682247  1.0
  C  C54  1  0.02470337  0.07176600  0.91777457  1.0
  C  C55  1  0.97801494  0.93758252  0.09496395  1.0
  C  C56  1  0.14117207  0.00408758  0.86730562  1.0
  C  C57  1  0.86272462  0.00381054  0.14314159  1.0
  C  C58  1  0.03758526  0.96222363  0.01304654  1.0
  C  C59  1  0.96583422  0.04743088  0.00087629  1.0
  C  C60  1  0.02410667  0.40120333  0.55978370  1.0
  C  C61  1  0.97715449  0.57901417  0.42631172  1.0
  C  C62  1  0.14065605  0.35240571  0.49352915  1.0
  C  C63  1  0.86191449  0.62795963  0.49344396  1.0
  C  C64  1  0.03686918  0.49586600  0.44957307  1.0
  C  C65  1  0.96517784  0.48322655  0.53441433  1.0
  C  C66  1  0.05123327  0.38722812  0.90738964  1.0
  C  C67  1  0.21369769  0.38572307  0.87601662  1.0
  C  C68  1  0.14801113  0.46548310  0.95551645  1.0
  C  C69  1  0.02792514  0.51118031  0.01553698  1.0
  C  C70  1  0.95559825  0.58950644  0.10513471  1.0
  C  C71  1  0.79281909  0.61741387  0.10950520  1.0
  C  C72  1  0.85891840  0.53737336  0.03012518  1.0
  C  C73  1  0.97898064  0.47807047  0.98427906  1.0
  C  C74  1  0.16925804  0.34336119  0.85164832  1.0
  C  C75  1  0.83737480  0.64334996  0.15056746  1.0
  C  C76  1  0.15480713  0.94023708  0.42531344  1.0
  C  C77  1  0.85230064  0.06821307  0.55043158  1.0
  C  C78  1  0.14045207  0.00595008  0.49092441  1.0
  C  C79  1  0.86708348  0.00132964  0.48689700  1.0
  C  C80  1  0.95684971  0.04699371  0.52788814  1.0
  C  C81  1  0.04933162  0.96406744  0.44692311  1.0
  S  S82  1  0.50791276  0.58631818  0.40649200  1.0
  S  S83  1  0.52169995  0.39503078  0.57883708  1.0
  S  S84  1  0.48091337  0.91842495  0.10070428  1.0
  S  S85  1  0.49661040  0.09024822  0.90891655  1.0
  S  S86  1  0.17762501  0.91195226  0.92249952  1.0
  S  S87  1  0.82540077  0.09723159  0.09002254  1.0
  S  S88  1  0.17701817  0.40663705  0.40042247  1.0
  S  S89  1  0.82472486  0.57313357  0.58528707  1.0
  S  S90  1  0.99894430  0.09645103  0.57753188  1.0
  S  S91  1  0.00795847  0.91250716  0.39841020  1.0
  N  N92  1  0.80601046  0.51594405  0.99496771  1.0
  N  N93  1  0.00612337  0.34456088  0.89084698  1.0
  N  N94  1  0.20141061  0.50116577  0.97563704  1.0
  N  N95  1  0.00096125  0.61003276  0.14523918  1.0
  O  O96  1  0.52132135  0.22384694  0.55339274  1.0
  O  O97  1  0.48494688  0.94059017  0.27014747  1.0
  O  O98  1  0.49597273  0.76311636  0.43679412  1.0
  O  O99  1  0.50969232  0.05820923  0.73131945  1.0
  O  O100  1  0.21232372  0.22192518  0.73405423  1.0
  O  O101  1  0.80989816  0.92864273  0.42457094  1.0
  O  O102  1  0.79340201  0.76120074  0.27279778  1.0
  O  O103  1  0.19468029  0.07008707  0.56534219  1.0
  O  O104  1  0.33253365  0.23471644  0.42561374  1.0
  O  O105  1  0.33258153  0.92972818  0.74278103  1.0
  O  O106  1  0.67099730  0.75349574  0.56668114  1.0
  O  O107  1  0.67132927  0.07027469  0.26172513  1.0
  O  O108  1  0.19972642  0.06742348  0.73669414  1.0
  O  O109  1  0.80554899  0.75734775  0.42805347  1.0
  O  O110  1  0.80550795  0.92987559  0.26391315  1.0
  O  O111  1  0.20006878  0.23040719  0.56540023  1.0
  O  O112  1  0.35494364  0.22089141  0.72510051  1.0
  O  O113  1  0.32922101  0.93518992  0.43202136  1.0
  O  O114  1  0.65145429  0.76886548  0.27378141  1.0
  O  O115  1  0.67727063  0.06258079  0.55918599  1.0
  O  O116  1  0.50337313  0.92246635  0.73758429  1.0
  O  O117  1  0.51328814  0.23078749  0.41860548  1.0
  O  O118  1  0.49104909  0.07623993  0.26591342  1.0
  O  O119  1  0.50057004  0.75941187  0.57321777  1.0
  O  O120  1  0.62586454  0.93216937  0.55744377  1.0
  O  O121  1  0.37822030  0.93787221  0.56301277  1.0
  O  O122  1  0.61605819  0.94139383  0.32023160  1.0
  O  O123  1  0.38863407  0.17491243  0.55341135  1.0
  O  O124  1  0.41138588  0.04386185  0.45511295  1.0
  O  O125  1  0.59343814  0.04017349  0.45060955  1.0
  O  O126  1  0.58528858  0.86547692  0.45871278  1.0
  O  O127  1  0.41880352  0.03672514  0.62962193  1.0
  O  O128  1  0.51384126  0.59608180  0.64184242  1.0
  O  O129  1  0.49097015  0.15168646  0.10894733  1.0
  O  O130  1  0.97503951  0.15040276  0.88973612  1.0
  O  O131  1  0.97462804  0.37344307  0.63871304  1.0
  O  O132  1  0.25694105  0.86336491  0.35179120  1.0
