# generated using pymatgen
data_CuSiH8C20(N4F7)2
_symmetry_space_group_name_H-M   'P 1'
_cell_length_a   7.98452432
_cell_length_b   12.17167886
_cell_length_c   12.22511701
_cell_angle_alpha   81.67138523
_cell_angle_beta   78.15898901
_cell_angle_gamma   77.93126871
_symmetry_Int_Tables_number   1
_chemical_formula_structural   CuSiH8C20(N4F7)2
_chemical_formula_sum   'Cu1 Si1 H8 C20 N8 F14'
_cell_volume   1130.64652381
_cell_formula_units_Z   1
loop_
 _symmetry_equiv_pos_site_id
 _symmetry_equiv_pos_as_xyz
  1  'x, y, z'
loop_
 _atom_site_type_symbol
 _atom_site_label
 _atom_site_symmetry_multiplicity
 _atom_site_fract_x
 _atom_site_fract_y
 _atom_site_fract_z
 _atom_site_occupancy
  Cu  Cu0  1  0.49025099  0.50172700  0.50470310  1.0
  Si  Si1  1  0.02402416  0.46731991  0.46818116  1.0
  H  H2  1  0.19288203  0.42018576  0.63813310  1.0
  H  H3  1  0.00356463  0.43777292  0.82439344  1.0
  H  H4  1  0.67955464  0.38874835  0.08641399  1.0
  H  H5  1  0.94947689  0.62779957  0.17649570  1.0
  H  H6  1  0.19505808  0.63579402  0.42017124  1.0
  H  H7  1  0.00536617  0.82312841  0.43760013  1.0
  H  H8  1  0.68437362  0.08914307  0.38525663  1.0
  H  H9  1  0.94620757  0.17469646  0.63055713  1.0
  C  C10  1  0.23332195  0.45583463  0.70282253  1.0
  C  C11  1  0.12934135  0.46391372  0.80768763  1.0
  C  C12  1  0.18247214  0.51035797  0.89045171  1.0
  C  C13  1  0.34504332  0.54369159  0.86292289  1.0
  C  C14  1  0.44194192  0.53344712  0.75456274  1.0
  C  C15  1  0.69427098  0.44572847  0.14304213  1.0
  C  C16  1  0.83533980  0.50210704  0.12065043  1.0
  C  C17  1  0.84412504  0.58089797  0.19094679  1.0
  C  C18  1  0.71242862  0.59392743  0.28378056  1.0
  C  C19  1  0.57099469  0.46799591  0.23887214  1.0
  C  C20  1  0.23519022  0.70046316  0.45621704  1.0
  C  C21  1  0.13104895  0.80601494  0.46408539  1.0
  C  C22  1  0.18381878  0.88884013  0.51089986  1.0
  C  C23  1  0.34649738  0.86079153  0.54439133  1.0
  C  C24  1  0.44366706  0.75172449  0.53433400  1.0
  C  C25  1  0.69786307  0.14513929  0.44324806  1.0
  C  C26  1  0.83626702  0.12070786  0.50208558  1.0
  C  C27  1  0.84291903  0.19050715  0.58176756  1.0
  C  C28  1  0.71265662  0.28499286  0.59305684  1.0
  C  C29  1  0.57605502  0.24273485  0.46316398  1.0
  N  N30  1  0.38602626  0.49360887  0.67543208  1.0
  N  N31  1  0.07613668  0.53306869  0.99542200  1.0
  N  N32  1  0.95622045  0.47568779  0.02177179  1.0
  N  N33  1  0.58292796  0.53463886  0.31389921  1.0
  N  N34  1  0.38765639  0.67232495  0.49464243  1.0
  N  N35  1  0.07754985  0.99459150  0.53330790  1.0
  N  N36  1  0.95671507  0.02081823  0.47654180  1.0
  N  N37  1  0.58614028  0.31740310  0.53106725  1.0
  F  F38  1  0.25081441  0.46204136  0.46450189  1.0
  F  F39  1  0.79950829  0.47666937  0.47599506  1.0
  F  F40  1  0.03136090  0.36071944  0.57605850  1.0
  F  F41  1  0.03313096  0.57463039  0.36126216  1.0
  F  F42  1  0.97818587  0.56398433  0.56349837  1.0
  F  F43  1  0.06659423  0.37219457  0.37469560  1.0
  F  F44  1  0.59700868  0.56456000  0.72945184  1.0
  F  F45  1  0.41114453  0.58477606  0.93794789  1.0
  F  F46  1  0.42870476  0.42237751  0.25735102  1.0
  F  F47  1  0.70502597  0.67546577  0.34804191  1.0
  F  F48  1  0.59879567  0.72615224  0.56553372  1.0
  F  F49  1  0.41260977  0.93600635  0.58539986  1.0
  F  F50  1  0.43809769  0.26370186  0.41304723  1.0
  F  F51  1  0.70392903  0.34897708  0.67479220  1.0
