# generated using pymatgen
data_Zn4H24C48N2O17
_symmetry_space_group_name_H-M   'P 1'
_cell_length_a   18.48355602
_cell_length_b   18.48360853
_cell_length_c   28.89909304
_cell_angle_alpha   108.63222676
_cell_angle_beta   108.63196662
_cell_angle_gamma   90.06689582
_symmetry_Int_Tables_number   1
_chemical_formula_structural   Zn4H24C48N2O17
_chemical_formula_sum   'Zn8 H48 C96 N4 O34'
_cell_volume   8806.57934359
_cell_formula_units_Z   2
loop_
 _symmetry_equiv_pos_site_id
 _symmetry_equiv_pos_as_xyz
  1  'x, y, z'
loop_
 _atom_site_type_symbol
 _atom_site_label
 _atom_site_symmetry_multiplicity
 _atom_site_fract_x
 _atom_site_fract_y
 _atom_site_fract_z
 _atom_site_occupancy
  Zn  Zn0  1  0.97806110  0.39196600  0.95591437  1.0
  Zn  Zn1  1  0.39196547  0.97806175  0.95591441  1.0
  Zn  Zn2  1  0.97783616  0.56387142  0.95594238  1.0
  Zn  Zn3  1  0.56387230  0.97783700  0.95594255  1.0
  Zn  Zn4  1  0.93529887  0.52230413  0.04438732  1.0
  Zn  Zn5  1  0.52208690  0.10904056  0.04438907  1.0
  Zn  Zn6  1  0.10904071  0.52208815  0.04438909  1.0
  Zn  Zn7  1  0.52230323  0.93529846  0.04438664  1.0
  H  H8  1  0.41618705  0.31958792  0.10811465  1.0
  H  H9  1  0.31943104  0.69197484  0.10809756  1.0
  H  H10  1  0.69194803  0.78853589  0.10807998  1.0
  H  H11  1  0.78866552  0.41612352  0.10809067  1.0
  H  H12  1  0.69197299  0.31943365  0.10809779  1.0
  H  H13  1  0.78853632  0.69194660  0.10807891  1.0
  H  H14  1  0.41612184  0.78866725  0.10809107  1.0
  H  H15  1  0.31958900  0.41618706  0.10811590  1.0
  H  H16  1  0.43722330  0.34065620  0.05746374  1.0
  H  H17  1  0.34042004  0.62029611  0.05744122  1.0
  H  H18  1  0.62025981  0.71681288  0.05742861  1.0
  H  H19  1  0.71697225  0.43714670  0.05744540  1.0
  H  H20  1  0.62029351  0.34042407  0.05744188  1.0
  H  H21  1  0.71681364  0.62025917  0.05742780  1.0
  H  H22  1  0.43714359  0.71697409  0.05744514  1.0
  H  H23  1  0.34065626  0.43722313  0.05746428  1.0
  H  H24  1  0.89245159  0.29889085  0.45136737  1.0
  H  H25  1  0.15251491  0.55891280  0.45141044  1.0
  H  H26  1  0.55893842  0.15244982  0.45141273  1.0
  H  H27  1  0.29882650  0.89248435  0.45136739  1.0
  H  H28  1  0.84877141  0.46578187  0.69868710  1.0
  H  H29  1  0.23294564  0.84993702  0.69867072  1.0
  H  H30  1  0.84996199  0.23294732  0.69867023  1.0
  H  H31  1  0.46577940  0.84879702  0.69868580  1.0
  H  H32  1  0.89735853  0.51412567  0.79590187  1.0
  H  H33  1  0.28180417  0.89852728  0.79588234  1.0
  H  H34  1  0.89855400  0.28180319  0.79588199  1.0
  H  H35  1  0.51412525  0.89737915  0.79590029  1.0
  H  H36  1  0.65039467  0.26739631  0.30202695  1.0
  H  H37  1  0.03461946  0.65154975  0.30201574  1.0
  H  H38  1  0.65157838  0.03461789  0.30201518  1.0
  H  H39  1  0.26739805  0.65042405  0.30202687  1.0
  H  H40  1  0.60180274  0.21858831  0.20487169  1.0
  H  H41  1  0.98627189  0.60301138  0.20485740  1.0
  H  H42  1  0.60303839  0.98627047  0.20485696  1.0
  H  H43  1  0.21858992  0.60183251  0.20487127  1.0
  H  H44  1  0.11349738  0.20856001  0.94317706  1.0
  H  H45  1  0.20865919  0.82964916  0.94316316  1.0
  H  H46  1  0.82965204  0.73459207  0.94313018  1.0
  H  H47  1  0.73443445  0.11346062  0.94316627  1.0
  H  H48  1  0.82964842  0.20866038  0.94316377  1.0
  H  H49  1  0.73459170  0.82965180  0.94313047  1.0
  H  H50  1  0.11345901  0.73443441  0.94316480  1.0
  H  H51  1  0.20855888  0.11349903  0.94317565  1.0
  H  H52  1  0.94156596  0.34800135  0.54955097  1.0
  H  H53  1  0.20166609  0.60805678  0.54959229  1.0
  H  H54  1  0.60808328  0.20160666  0.54959530  1.0
  H  H55  1  0.34792881  0.94159840  0.54955089  1.0
  C  C56  1  0.07053985  0.57055260  0.14110605  1.0
  C  C57  1  0.57055036  0.07053887  0.14110643  1.0
  C  C58  1  0.73639994  0.23642664  0.47280939  1.0
  C  C59  1  0.23642907  0.73639990  0.47280787  1.0
  C  C60  1  0.85708111  0.28955212  0.47320998  1.0
  C  C61  1  0.18373066  0.61611509  0.47322436  1.0
  C  C62  1  0.61613491  0.18368215  0.47322598  1.0
  C  C63  1  0.28950629  0.85710267  0.47320989  1.0
  C  C64  1  0.88435109  0.31680827  0.52770636  1.0
  C  C65  1  0.21098398  0.64337994  0.52771727  1.0
  C  C66  1  0.64339801  0.21093921  0.52771906  1.0
  C  C67  1  0.31675731  0.88437597  0.52770699  1.0
  C  C68  1  0.83864179  0.30442010  0.55504681  1.0
  C  C69  1  0.25071049  0.71643989  0.55505482  1.0
  C  C70  1  0.71644858  0.25068962  0.55505656  1.0
  C  C71  1  0.30438988  0.83865653  0.55504711  1.0
  C  C72  1  0.76405102  0.26407560  0.52808568  1.0
  C  C73  1  0.26407383  0.76405409  0.52808467  1.0
  C  C74  1  0.86873640  0.33345804  0.61259130  1.0
  C  C75  1  0.27925913  0.74392454  0.61259246  1.0
  C  C76  1  0.74393063  0.27918780  0.61259494  1.0
  C  C77  1  0.33343216  0.86874929  0.61259067  1.0
  C  C78  1  0.85962347  0.42586324  0.72023946  1.0
  C  C79  1  0.29441383  0.86066576  0.72022953  1.0
  C  C80  1  0.86067955  0.29441473  0.72023016  1.0
  C  C81  1  0.42586244  0.85963686  0.72023816  1.0
  C  C82  1  0.88672841  0.45274553  0.77419584  1.0
  C  C83  1  0.32148311  0.88750077  0.77418541  1.0
  C  C84  1  0.88751850  0.32148442  0.77418562  1.0
  C  C85  1  0.45274394  0.88674060  0.77419537  1.0
  C  C86  1  0.90073775  0.40072394  0.80141089  1.0
  C  C87  1  0.40072437  0.90073577  0.80141114  1.0
  C  C88  1  0.84686630  0.34684043  0.69363057  1.0
  C  C89  1  0.34683798  0.84686777  0.69363037  1.0
  C  C90  1  0.92970455  0.42966952  0.85935143  1.0
  C  C91  1  0.42966991  0.92970345  0.85935139  1.0
  C  C92  1  0.63968916  0.20590863  0.28048924  1.0
  C  C93  1  0.07456861  0.64072658  0.28048085  1.0
  C  C94  1  0.64074129  0.07456848  0.28048107  1.0
  C  C95  1  0.20590975  0.63970731  0.28048807  1.0
  C  C96  1  0.61283354  0.17881477  0.22650657  1.0
  C  C97  1  0.04768137  0.61361377  0.22650363  1.0
  C  C98  1  0.61362830  0.04767991  0.22650379  1.0
  C  C99  1  0.17881690  0.61284964  0.22650629  1.0
  C  C100  1  0.59956489  0.09958233  0.19917369  1.0
  C  C101  1  0.09958311  0.59956669  0.19917347  1.0
  C  C102  1  0.65355131  0.15358682  0.30718343  1.0
  C  C103  1  0.15358848  0.65355348  0.30718307  1.0
  C  C104  1  0.86233336  0.36122705  0.99977023  1.0
  C  C105  1  0.36118103  0.13752761  0.99982120  1.0
  C  C106  1  0.13742876  0.63851979  0.99980944  1.0
  C  C107  1  0.63861387  0.86225974  0.99977301  1.0
  C  C108  1  0.13752661  0.36118142  0.99982359  1.0
  C  C109  1  0.63851883  0.13743045  0.99981003  1.0
  C  C110  1  0.86225967  0.63861433  0.99977233  1.0
  C  C111  1  0.36122433  0.86233569  0.99977023  1.0
  C  C112  1  0.27135283  0.32475396  0.03140003  1.0
  C  C113  1  0.32472994  0.76007919  0.03137466  1.0
  C  C114  1  0.76003004  0.70663473  0.03135143  1.0
  C  C115  1  0.70663105  0.27128110  0.03137847  1.0
  C  C116  1  0.76007661  0.32473264  0.03137418  1.0
  C  C117  1  0.70663480  0.76002997  0.03135164  1.0
  C  C118  1  0.27127807  0.70663379  0.03137923  1.0
  C  C119  1  0.32475322  0.27135371  0.03139938  1.0
  C  C120  1  0.19443902  0.30442864  0.00007074  1.0
  C  C121  1  0.30443926  0.80563459  0.00003524  1.0
  C  C122  1  0.80560593  0.69561966  0.00001609  1.0
  C  C123  1  0.69557349  0.19437035  0.00004620  1.0
  C  C124  1  0.80563273  0.30444163  0.00003472  1.0
  C  C125  1  0.69561943  0.80560543  0.00001617  1.0
  C  C126  1  0.19436796  0.69557621  0.00004683  1.0
  C  C127  1  0.30442839  0.19444023  0.00006947  1.0
  C  C128  1  0.17322229  0.22651579  0.96820166  1.0
  C  C129  1  0.22654264  0.79493367  0.96817334  1.0
  C  C130  1  0.79493639  0.74164182  0.96814191  1.0
  C  C131  1  0.74159016  0.17319462  0.96817852  1.0
  C  C132  1  0.79493162  0.22654441  0.96817318  1.0
  C  C133  1  0.74164168  0.79493609  0.96814220  1.0
  C  C134  1  0.17319198  0.74159104  0.96817795  1.0
  C  C135  1  0.22651471  0.17322332  0.96820120  1.0
  C  C136  1  0.39067524  0.33020238  0.07130522  1.0
  C  C137  1  0.33005415  0.68067144  0.07128643  1.0
  C  C138  1  0.68064003  0.74111791  0.07126904  1.0
  C  C139  1  0.74121397  0.39061729  0.07127947  1.0
  C  C140  1  0.68066900  0.33005707  0.07128620  1.0
  C  C141  1  0.74111894  0.68064023  0.07126874  1.0
  C  C142  1  0.39061463  0.74121619  0.07128027  1.0
  C  C143  1  0.33020208  0.39067537  0.07130604  1.0
  C  C144  1  0.63173177  0.16697627  0.38831088  1.0
  C  C145  1  0.22130113  0.75654042  0.38829640  1.0
  C  C146  1  0.75652781  0.22132195  0.38829707  1.0
  C  C147  1  0.16700466  0.63172248  0.38830988  1.0
  C  C148  1  0.78402020  0.24980106  0.44583867  1.0
  C  C149  1  0.19608027  0.66180302  0.44585471  1.0
  C  C150  1  0.66181261  0.19605209  0.44585514  1.0
  C  C151  1  0.24977691  0.78403241  0.44583772  1.0
  N  N152  1  0.68155935  0.18158671  0.36318244  1.0
  N  N153  1  0.18158962  0.68156080  0.36318187  1.0
  N  N154  1  0.81887781  0.31886585  0.63766880  1.0
  N  N155  1  0.31886098  0.81888034  0.63766790  1.0
  O  O156  1  0.00024845  0.50023329  0.00054138  1.0
  O  O157  1  0.50023253  0.00024860  0.00054097  1.0
  O  O158  1  0.12098368  0.55922479  0.11870773  1.0
  O  O159  1  0.55948840  0.99767416  0.11871006  1.0
  O  O160  1  0.99767438  0.55948774  0.11871029  1.0
  O  O161  1  0.55922193  0.12098235  0.11870754  1.0
  O  O162  1  0.94102961  0.37925304  0.88175128  1.0
  O  O163  1  0.37925466  0.94102623  0.88175152  1.0
  O  O164  1  0.94078775  0.50249237  0.88177230  1.0
  O  O165  1  0.50249400  0.94078928  0.88177200  1.0
  O  O166  1  0.86880124  0.42973605  0.03115150  1.0
  O  O167  1  0.42967283  0.16247005  0.03127336  1.0
  O  O168  1  0.16239017  0.60137894  0.03117485  1.0
  O  O169  1  0.60155309  0.86874449  0.03120502  1.0
  O  O170  1  0.16246921  0.42967314  0.03127456  1.0
  O  O171  1  0.60137862  0.16239117  0.03117617  1.0
  O  O172  1  0.86874522  0.60155379  0.03120463  1.0
  O  O173  1  0.42973410  0.86880173  0.03115122  1.0
  O  O174  1  0.06895820  0.63131545  0.96851970  1.0
  O  O175  1  0.63133573  0.89931817  0.96840007  1.0
  O  O176  1  0.89946544  0.33711008  0.96845771  1.0
  O  O177  1  0.33706034  0.06909030  0.96844807  1.0
  O  O178  1  0.89931711  0.63133545  0.96839889  1.0
  O  O179  1  0.33710894  0.89946808  0.96845850  1.0
  O  O180  1  0.06908873  0.33705934  0.96845094  1.0
  O  O181  1  0.63131355  0.06895996  0.96852015  1.0
  O  O182  1  0.56721288  0.13226751  0.36323633  1.0
  O  O183  1  0.23087567  0.79598039  0.36320947  1.0
  O  O184  1  0.79596040  0.23091756  0.36321092  1.0
  O  O185  1  0.13231221  0.56719416  0.36323334  1.0
  O  O186  1  0.93329318  0.36809507  0.63767665  1.0
  O  O187  1  0.26962553  0.70449033  0.63767790  1.0
  O  O188  1  0.70450322  0.26959208  0.63767985  1.0
  O  O189  1  0.36804818  0.93331200  0.63767523  1.0
