# generated using pymatgen
data_Al2H5C18O10F
_symmetry_space_group_name_H-M   'P 1'
_cell_length_a   6.69390551
_cell_length_b   18.17890145
_cell_length_c   20.83575694
_cell_angle_alpha   107.99491401
_cell_angle_beta   89.98032549
_cell_angle_gamma   89.89163855
_symmetry_Int_Tables_number   1
_chemical_formula_structural   Al2H5C18O10F
_chemical_formula_sum   'Al4 H10 C36 O20 F2'
_cell_volume   2411.42834685
_cell_formula_units_Z   2
loop_
 _symmetry_equiv_pos_site_id
 _symmetry_equiv_pos_as_xyz
  1  'x, y, z'
loop_
 _atom_site_type_symbol
 _atom_site_label
 _atom_site_symmetry_multiplicity
 _atom_site_fract_x
 _atom_site_fract_y
 _atom_site_fract_z
 _atom_site_occupancy
  Al  Al0  1  0.13387577  0.49996214  0.49962343  1.0
  Al  Al1  1  0.63418358  0.49929830  0.49922161  1.0
  Al  Al2  1  0.64866703  0.99944984  0.99873443  1.0
  Al  Al3  1  0.14835562  0.99997374  0.99908895  1.0
  H  H4  1  0.20843256  0.30312474  0.72046447  1.0
  H  H5  1  0.21166870  0.22304878  0.79855125  1.0
  H  H6  1  0.57277865  0.19686380  0.77900491  1.0
  H  H7  1  0.56941837  0.27694708  0.70091734  1.0
  H  H8  1  0.68873335  0.66852393  0.25550267  1.0
  H  H9  1  0.09102765  0.75215445  0.32143381  1.0
  H  H10  1  0.38363502  0.40011862  0.48981924  1.0
  H  H11  1  0.88228909  0.60122388  0.52188241  1.0
  H  H12  1  0.39860709  0.10109907  0.01868432  1.0
  H  H13  1  0.89953668  0.90645746  0.00534817  1.0
  C  C14  1  0.38356942  0.60620742  0.60369019  1.0
  C  C15  1  0.38450356  0.57686130  0.42373286  1.0
  C  C16  1  0.88608390  0.39411165  0.39497477  1.0
  C  C17  1  0.88350460  0.42186918  0.57504280  1.0
  C  C18  1  0.07198057  0.23505973  0.77685497  1.0
  C  C19  1  0.89249186  0.20477646  0.79379711  1.0
  C  C20  1  0.71096809  0.22050748  0.76603963  1.0
  C  C21  1  0.70906485  0.26503864  0.72271697  1.0
  C  C22  1  0.88862340  0.29528693  0.70572839  1.0
  C  C23  1  0.07015538  0.27956564  0.73351385  1.0
  C  C24  1  0.89471577  0.15951131  0.83813644  1.0
  C  C25  1  0.88665685  0.34029939  0.66116106  1.0
  C  C26  1  0.88471449  0.37849070  0.62231654  1.0
  C  C27  1  0.89728081  0.12079623  0.87653427  1.0
  C  C28  1  0.89527848  0.16783874  0.16691567  1.0
  C  C29  1  0.89234242  0.22082053  0.22006804  1.0
  C  C30  1  0.88959066  0.27947036  0.27863733  1.0
  C  C31  1  0.88722205  0.33265308  0.33164778  1.0
  C  C32  1  0.38547684  0.66755193  0.66706197  1.0
  C  C33  1  0.38896797  0.72070629  0.72008372  1.0
  C  C34  1  0.39306193  0.77951671  0.77852025  1.0
  C  C35  1  0.39744790  0.83285641  0.83138886  1.0
  C  C36  1  0.55734601  0.74832384  0.21034288  1.0
  C  C37  1  0.39448618  0.79576232  0.20526107  1.0
  C  C38  1  0.22906330  0.79500242  0.24719062  1.0
  C  C39  1  0.22262582  0.75068265  0.29041222  1.0
  C  C40  1  0.38939597  0.70454983  0.29386937  1.0
  C  C41  1  0.55888032  0.70378511  0.25341562  1.0
  C  C42  1  0.39660198  0.84048850  0.16093025  1.0
  C  C43  1  0.38682159  0.65927893  0.33821848  1.0
  C  C44  1  0.38460153  0.62077178  0.37675732  1.0
  C  C45  1  0.39806967  0.87864289  0.12212297  1.0
  C  C46  1  0.39781495  0.92228174  0.07501648  1.0
  C  C47  1  0.39963946  0.89428225  0.89481669  1.0
  C  C48  1  0.89876790  0.07639883  0.92298365  1.0
  C  C49  1  0.89659790  0.10678925  0.10324850  1.0
  O  O50  1  0.55499958  0.55871145  0.44134072  1.0
  O  O51  1  0.21263711  0.58217224  0.57943957  1.0
  O  O52  1  0.05368267  0.43807932  0.55545017  1.0
  O  O53  1  0.21434148  0.56153671  0.44368598  1.0
  O  O54  1  0.05601947  0.41878107  0.41956033  1.0
  O  O55  1  0.55350748  0.58286225  0.57780644  1.0
  O  O56  1  0.38398567  0.45430352  0.49264975  1.0
  O  O57  1  0.71553795  0.41686436  0.42050730  1.0
  O  O58  1  0.71258470  0.43893814  0.55659134  1.0
  O  O59  1  0.88357973  0.54522051  0.50678477  1.0
  O  O60  1  0.22992025  0.91737556  0.92076691  1.0
  O  O61  1  0.56793304  0.93754682  0.05477502  1.0
  O  O62  1  0.72626012  0.08241956  0.07868635  1.0
  O  O63  1  0.57048755  0.91827430  0.91884875  1.0
  O  O64  1  0.72900485  0.05979298  0.94239879  1.0
  O  O65  1  0.22710809  0.94052383  0.05741811  1.0
  O  O66  1  0.39843298  0.04520295  0.00641564  1.0
  O  O67  1  0.06923115  0.05868377  0.94109495  1.0
  O  O68  1  0.06750508  0.08434330  0.07776759  1.0
  O  O69  1  0.89893662  0.95410912  0.99365388  1.0
  F  F70  1  0.71813811  0.74649767  0.17060402  1.0
  F  F71  1  0.07055404  0.84011389  0.24459753  1.0
