# generated using pymatgen
data_ZnH4C13SNO7F3
_symmetry_space_group_name_H-M   'P 1'
_cell_length_a   8.06759229
_cell_length_b   10.89338336
_cell_length_c   34.29788397
_cell_angle_alpha   90.39180596
_cell_angle_beta   90.40931881
_cell_angle_gamma   90.59734612
_symmetry_Int_Tables_number   1
_chemical_formula_structural   ZnH4C13SNO7F3
_chemical_formula_sum   'Zn4 H16 C52 S4 N4 O28 F12'
_cell_volume   3013.90106957
_cell_formula_units_Z   4
loop_
 _symmetry_equiv_pos_site_id
 _symmetry_equiv_pos_as_xyz
  1  'x, y, z'
loop_
 _atom_site_type_symbol
 _atom_site_label
 _atom_site_symmetry_multiplicity
 _atom_site_fract_x
 _atom_site_fract_y
 _atom_site_fract_z
 _atom_site_occupancy
  Zn  Zn0  1  0.28354924  0.00060625  0.50094080  1.0
  Zn  Zn1  1  0.62231059  0.00247837  0.50005730  1.0
  Zn  Zn2  1  0.81403789  0.00078748  0.99870797  1.0
  Zn  Zn3  1  0.47503943  0.99748140  0.00006498  1.0
  H  H4  1  0.32671911  0.01756862  0.12296452  1.0
  H  H5  1  0.32662379  0.01327050  0.19520164  1.0
  H  H6  1  0.85531781  0.96307350  0.19472680  1.0
  H  H7  1  0.24350297  0.96253099  0.30521344  1.0
  H  H8  1  0.77334601  0.01430278  0.30498719  1.0
  H  H9  1  0.77326851  0.01880599  0.37726449  1.0
  H  H10  1  0.32634483  0.99144289  0.87639456  1.0
  H  H11  1  0.32528261  0.00207636  0.80431857  1.0
  H  H12  1  0.85824238  0.02979358  0.80603533  1.0
  H  H13  1  0.23855513  0.03415199  0.69429941  1.0
  H  H14  1  0.77030753  0.00215173  0.69576984  1.0
  H  H15  1  0.76866132  0.99393452  0.62359358  1.0
  H  H16  1  0.88189042  0.07206176  0.07552395  1.0
  H  H17  1  0.21782997  0.07289890  0.42471994  1.0
  H  H18  1  0.88142477  0.89173969  0.92287613  1.0
  H  H19  1  0.21059549  0.89957668  0.57689008  1.0
  C  C20  1  0.39188196  0.77031500  0.49534612  1.0
  C  C21  1  0.52154321  0.00043331  0.42606150  1.0
  C  C22  1  0.39155196  0.23257859  0.49764256  1.0
  C  C23  1  0.51400756  0.99790550  0.57428217  1.0
  C  C24  1  0.70518322  0.76898901  0.00453962  1.0
  C  C25  1  0.57768691  0.99936529  0.07403681  1.0
  C  C26  1  0.70633555  0.23116355  0.00232961  1.0
  C  C27  1  0.58112579  0.99235581  0.92577540  1.0
  C  C28  1  0.58909099  0.99156674  0.11733550  1.0
  C  C29  1  0.44256344  0.00517398  0.13882872  1.0
  C  C30  1  0.44210142  0.00336812  0.17933416  1.0
  C  C31  1  0.59282873  0.98893723  0.19944518  1.0
  C  C32  1  0.74001967  0.97472836  0.17861041  1.0
  C  C33  1  0.74004016  0.97470701  0.13815302  1.0
  C  C34  1  0.35906879  0.97448609  0.32139239  1.0
  C  C35  1  0.50661468  0.98919551  0.30062953  1.0
  C  C36  1  0.65764659  0.00411061  0.32081638  1.0
  C  C37  1  0.65718173  0.00596859  0.36133051  1.0
  C  C38  1  0.51031265  0.99195650  0.38275002  1.0
  C  C39  1  0.35896696  0.97457506  0.36184864  1.0
  C  C40  1  0.59126014  0.00393307  0.88262911  1.0
  C  C41  1  0.44296541  0.00000278  0.86088990  1.0
  C  C42  1  0.44184976  0.00594444  0.82045485  1.0
  C  C43  1  0.59327715  0.01609704  0.80072074  1.0
  C  C44  1  0.74234943  0.02162853  0.82185790  1.0
  C  C45  1  0.74323298  0.01583647  0.86228188  1.0
  C  C46  1  0.35412587  0.02566447  0.67841360  1.0
  C  C47  1  0.50297252  0.01809279  0.69948651  1.0
  C  C48  1  0.65395190  0.00749048  0.67966283  1.0
  C  C49  1  0.65246463  0.00304586  0.63918066  1.0
  C  C50  1  0.50431665  0.00890347  0.61749889  1.0
  C  C51  1  0.35291810  0.02141664  0.63795820  1.0
  C  C52  1  0.38604562  0.63249983  0.49157611  1.0
  C  C53  1  0.45478990  0.56624390  0.45952383  1.0
  C  C54  1  0.31875112  0.56737209  0.52196812  1.0
  C  C55  1  0.52056014  0.62544453  0.42629565  1.0
  C  C56  1  0.58946718  0.56168569  0.39563694  1.0
  C  C57  1  0.38646411  0.37004179  0.49276089  1.0
  C  C58  1  0.31894771  0.43789245  0.52264287  1.0
  C  C59  1  0.45491421  0.43360469  0.46014097  1.0
  C  C60  1  0.52026041  0.37184158  0.42734278  1.0
  C  C61  1  0.58927140  0.43269482  0.39619163  1.0
  C  C62  1  0.71106943  0.63140199  0.00831211  1.0
  C  C63  1  0.64311251  0.56540363  0.04044734  1.0
  C  C64  1  0.77803861  0.56603326  0.97786902  1.0
  C  C65  1  0.57742276  0.62482718  0.07371891  1.0
  C  C66  1  0.50974353  0.56120928  0.10450752  1.0
  C  C67  1  0.71165085  0.36888051  0.00721224  1.0
  C  C68  1  0.77822182  0.43652256  0.97723108  1.0
  C  C69  1  0.64395613  0.43274837  0.03992040  1.0
  C  C70  1  0.57977833  0.37126722  0.07282396  1.0
  C  C71  1  0.51102636  0.43221624  0.10404329  1.0
  S  S72  1  0.94254431  0.94675438  0.11821007  1.0
  S  S73  1  0.15561967  0.94633557  0.38163308  1.0
  S  S74  1  0.94877833  0.02685860  0.88316003  1.0
  S  S75  1  0.14812714  0.03504973  0.61709990  1.0
  N  N76  1  0.61609665  0.98814645  0.24037005  1.0
  N  N77  1  0.48334914  0.98827971  0.25970312  1.0
  N  N78  1  0.61498292  0.01903403  0.75984434  1.0
  N  N79  1  0.48135310  0.01947547  0.74037843  1.0
  O  O80  1  0.25098790  0.82414778  0.49612156  1.0
  O  O81  1  0.53323988  0.82043377  0.49879946  1.0
  O  O82  1  0.66288728  0.99719256  0.44332727  1.0
  O  O83  1  0.38631727  0.01309399  0.44494746  1.0
  O  O84  1  0.53132404  0.18393008  0.50269111  1.0
  O  O85  1  0.25040471  0.17636151  0.49737662  1.0
  O  O86  1  0.37849985  0.97465626  0.55579979  1.0
  O  O87  1  0.65390968  0.00990518  0.55726020  1.0
  O  O88  1  0.84608411  0.82495589  0.00352182  1.0
  O  O89  1  0.56372321  0.81673425  0.00130682  1.0
  O  O90  1  0.43609125  0.99389259  0.05688085  1.0
  O  O91  1  0.71271533  0.01345093  0.05507145  1.0
  O  O92  1  0.56636877  0.18023022  0.99749141  1.0
  O  O93  1  0.84736737  0.17702088  0.00239182  1.0
  O  O94  1  0.71624766  0.97010818  0.94417168  1.0
  O  O95  1  0.44143772  0.00323446  0.94288057  1.0
  O  O96  1  0.97814608  0.06929963  0.09434478  1.0
  O  O97  1  0.06072832  0.94925085  0.14980678  1.0
  O  O98  1  0.93411788  0.84178732  0.09256824  1.0
  O  O99  1  0.12239619  0.06942757  0.40571430  1.0
  O  O100  1  0.03776921  0.94794008  0.34998281  1.0
  O  O101  1  0.16118954  0.84199953  0.40706940  1.0
  O  O102  1  0.97063012  0.89542159  0.90288266  1.0
  O  O103  1  0.06453282  0.02765881  0.85146671  1.0
  O  O104  1  0.95649845  0.12299735  0.91209947  1.0
  O  O105  1  0.12041855  0.90403763  0.59664496  1.0
  O  O106  1  0.03209475  0.03680402  0.64872615  1.0
  O  O107  1  0.14560808  0.13152385  0.58868578  1.0
  F  F108  1  0.25702461  0.38245247  0.55439856  1.0
  F  F109  1  0.25624039  0.62622375  0.55330914  1.0
  F  F110  1  0.51254129  0.24789537  0.42494307  1.0
  F  F111  1  0.65139781  0.37000444  0.36582449  1.0
  F  F112  1  0.65173773  0.62116093  0.36476431  1.0
  F  F113  1  0.51462069  0.74851565  0.42299587  1.0
  F  F114  1  0.83967996  0.38061945  0.94542332  1.0
  F  F115  1  0.83977823  0.62454118  0.94643999  1.0
  F  F116  1  0.58873881  0.24762513  0.07524590  1.0
  F  F117  1  0.45014284  0.36978175  0.13453098  1.0
  F  F118  1  0.44745103  0.62096541  0.13540479  1.0
  F  F119  1  0.58168184  0.74815682  0.07689790  1.0
