# generated using pymatgen
data_Zn2H22C25N9O2
_symmetry_space_group_name_H-M   'P 1'
_cell_length_a   14.68547856
_cell_length_b   15.31195323
_cell_length_c   23.61015199
_cell_angle_alpha   86.10162423
_cell_angle_beta   87.33264278
_cell_angle_gamma   76.81865959
_symmetry_Int_Tables_number   1
_chemical_formula_structural   Zn2H22C25N9O2
_chemical_formula_sum   'Zn8 H88 C100 N36 O8'
_cell_volume   5154.58856818
_cell_formula_units_Z   4
loop_
 _symmetry_equiv_pos_site_id
 _symmetry_equiv_pos_as_xyz
  1  'x, y, z'
loop_
 _atom_site_type_symbol
 _atom_site_label
 _atom_site_symmetry_multiplicity
 _atom_site_fract_x
 _atom_site_fract_y
 _atom_site_fract_z
 _atom_site_occupancy
  Zn  Zn0  1  0.92484269  0.91866150  0.41947830  1.0
  Zn  Zn1  1  0.04853247  0.06456112  0.41589978  1.0
  Zn  Zn2  1  0.42504731  0.44242844  0.92951233  1.0
  Zn  Zn3  1  0.57451017  0.57395611  0.93351880  1.0
  Zn  Zn4  1  0.00246701  0.10740680  0.55743569  1.0
  Zn  Zn5  1  0.93036118  0.93572778  0.56454737  1.0
  Zn  Zn6  1  0.56182057  0.56545933  0.07053325  1.0
  Zn  Zn7  1  0.42911398  0.42078343  0.06703299  1.0
  H  H8  1  0.89947226  0.22179583  0.65839046  1.0
  H  H9  1  0.13557385  0.81184377  0.53848156  1.0
  H  H10  1  0.49516956  0.64461782  0.19609593  1.0
  H  H11  1  0.58209437  0.23560389  0.06658907  1.0
  H  H12  1  0.07535111  0.26356304  0.37663615  1.0
  H  H13  1  0.92202427  0.70698696  0.41827269  1.0
  H  H14  1  0.44492972  0.77676138  0.91060958  1.0
  H  H15  1  0.35218803  0.25012224  0.90609915  1.0
  H  H16  1  0.72459884  0.04584245  0.58424616  1.0
  H  H17  1  0.22188341  0.10317317  0.59371339  1.0
  H  H18  1  0.23918480  0.56849051  0.09738274  1.0
  H  H19  1  0.75691882  0.63120842  0.09763820  1.0
  H  H20  1  0.97419376  0.30987071  0.54924612  1.0
  H  H21  1  0.01450555  0.72302755  0.58769244  1.0
  H  H22  1  0.40763668  0.75041509  0.09360936  1.0
  H  H23  1  0.37875843  0.22218481  0.08860500  1.0
  H  H24  1  0.71635987  0.02240842  0.40291852  1.0
  H  H25  1  0.26621161  0.99580559  0.42724448  1.0
  H  H26  1  0.24262854  0.60197846  0.91354671  1.0
  H  H27  1  0.77912661  0.63973279  0.91413896  1.0
  H  H28  1  0.81590245  0.97164446  0.70289458  1.0
  H  H29  1  0.19220219  0.93432861  0.68922151  1.0
  H  H30  1  0.32804543  0.44551064  0.19744428  1.0
  H  H31  1  0.76363013  0.41773036  0.08839081  1.0
  H  H32  1  0.93306762  0.20167597  0.32807023  1.0
  H  H33  1  0.09884691  0.74591601  0.42987220  1.0
  H  H34  1  0.54198688  0.67625586  0.80469195  1.0
  H  H35  1  0.56269221  0.25722821  0.90878688  1.0
  H  H36  1  0.39119370  0.17514157  0.44561370  1.0
  H  H37  1  0.56919486  0.92511869  0.56419416  1.0
  H  H38  1  0.92165561  0.79543642  0.02881397  1.0
  H  H39  1  0.08158449  0.48807039  0.98679240  1.0
  H  H40  1  0.50420378  0.19238909  0.53688036  1.0
  H  H41  1  0.42474101  0.06644374  0.60419808  1.0
  H  H42  1  0.04700684  0.67529656  0.10119533  1.0
  H  H43  1  0.95434450  0.53671521  0.08074880  1.0
  H  H44  1  0.45602243  0.90785604  0.47322527  1.0
  H  H45  1  0.53569908  0.03424567  0.40538816  1.0
  H  H46  1  0.95480155  0.60887520  0.91414271  1.0
  H  H47  1  0.04652224  0.74747915  0.93497494  1.0
  H  H48  1  0.24868407  0.61648992  0.39762597  1.0
  H  H49  1  0.97316325  0.10230061  0.16519559  1.0
  H  H50  1  0.70285824  0.12538849  0.88318767  1.0
  H  H51  1  0.48808820  0.73300801  0.70219422  1.0
  H  H52  1  0.31884359  0.75907797  0.32033000  1.0
  H  H53  1  0.79478213  0.20580269  0.22532737  1.0
  H  H54  1  0.82106925  0.26362942  0.84898389  1.0
  H  H55  1  0.30991159  0.66023831  0.72426247  1.0
  H  H56  1  0.03886140  0.45722275  0.42974885  1.0
  H  H57  1  0.96557483  0.53944091  0.50000209  1.0
  H  H58  1  0.42704776  0.93855183  0.97553036  1.0
  H  H59  1  0.35660692  0.07589118  0.95507284  1.0
  H  H60  1  0.85465157  0.88355658  0.28752318  1.0
  H  H61  1  0.78534507  0.97088107  0.24344780  1.0
  H  H62  1  0.90305007  0.92490788  0.22358947  1.0
  H  H63  1  0.22863276  0.01658824  0.31952733  1.0
  H  H64  1  0.32836075  0.93274902  0.34133416  1.0
  H  H65  1  0.26576480  0.91727851  0.28186402  1.0
  H  H66  1  0.28722752  0.47097415  0.83701431  1.0
  H  H67  1  0.25384865  0.55249390  0.77994201  1.0
  H  H68  1  0.33767221  0.45209185  0.76763626  1.0
  H  H69  1  0.79911217  0.47402394  0.88218579  1.0
  H  H70  1  0.80750177  0.45026996  0.95651673  1.0
  H  H71  1  0.85883118  0.36615260  0.90900107  1.0
  H  H72  1  0.88266979  0.99663331  0.86203743  1.0
  H  H73  1  0.79306668  0.96800035  0.82451826  1.0
  H  H74  1  0.89720926  0.98292385  0.78748047  1.0
  H  H75  1  0.46180456  0.86884517  0.63895246  1.0
  H  H76  1  0.34787440  0.92099025  0.61412323  1.0
  H  H77  1  0.37184613  0.91423807  0.68794437  1.0
  H  H78  1  0.46343730  0.52331004  0.37311504  1.0
  H  H79  1  0.37535389  0.46155456  0.37454875  1.0
  H  H80  1  0.45036324  0.46283862  0.31295429  1.0
  H  H81  1  0.99522457  0.23144147  0.09001243  1.0
  H  H82  1  0.89660878  0.30070296  0.05508666  1.0
  H  H83  1  0.92644285  0.32408057  0.12412354  1.0
  H  H84  1  0.25070869  0.37485337  0.54125118  1.0
  H  H85  1  0.15419497  0.37660970  0.58868010  1.0
  H  H86  1  0.18046017  0.29538887  0.53575696  1.0
  H  H87  1  0.25069134  0.53625239  0.48740550  1.0
  H  H88  1  0.17735293  0.63768121  0.51146659  1.0
  H  H89  1  0.21961896  0.54643020  0.56015039  1.0
  H  H90  1  0.18069209  0.95718216  0.07459639  1.0
  H  H91  1  0.25121521  0.84819037  0.06419684  1.0
  H  H92  1  0.27208038  0.90977183  0.12122051  1.0
  H  H93  1  0.22039310  0.06675025  0.11487521  1.0
  H  H94  1  0.33310203  0.08165836  0.12754920  1.0
  H  H95  1  0.25217766  0.16797768  0.09006078  1.0
  C  C96  1  0.88625935  0.01252329  0.29237294  1.0
  C  C97  1  0.19492712  0.89946321  0.36175930  1.0
  C  C98  1  0.38960546  0.54762827  0.81210992  1.0
  C  C99  1  0.71016885  0.38850887  0.91817967  1.0
  C  C100  1  0.88581239  0.15490928  0.66044693  1.0
  C  C101  1  0.13595760  0.85234505  0.57439695  1.0
  C  C102  1  0.46350745  0.58926313  0.18814390  1.0
  C  C103  1  0.61523513  0.29175621  0.06870372  1.0
  C  C104  1  0.04629578  0.26065960  0.41974669  1.0
  C  C105  1  0.93671514  0.72684711  0.45962534  1.0
  C  C106  1  0.44307498  0.75500137  0.95536881  1.0
  C  C107  1  0.36075910  0.25779481  0.95085882  1.0
  C  C108  1  0.73858764  0.03613509  0.53929078  1.0
  C  C109  1  0.21690412  0.07953914  0.55189120  1.0
  C  C110  1  0.25524646  0.56812370  0.05199652  1.0
  C  C111  1  0.74730916  0.63093104  0.05227939  1.0
  C  C112  1  0.99543821  0.28301759  0.50796329  1.0
  C  C113  1  0.98513800  0.73520925  0.54571026  1.0
  C  C114  1  0.42261619  0.74151349  0.04858841  1.0
  C  C115  1  0.37278804  0.24344399  0.04389386  1.0
  C  C116  1  0.73462149  0.02437403  0.44683257  1.0
  C  C117  1  0.23888666  0.02417793  0.46705650  1.0
  C  C118  1  0.25706170  0.58548806  0.95820764  1.0
  C  C119  1  0.75814801  0.63570222  0.95878998  1.0
  C  C120  1  0.84428257  0.02652612  0.68360253  1.0
  C  C121  1  0.16360971  0.91632387  0.65113782  1.0
  C  C122  1  0.37766516  0.48799319  0.18875399  1.0
  C  C123  1  0.70788524  0.38481865  0.08016359  1.0
  C  C124  1  0.92116930  0.13535320  0.32245765  1.0
  C  C125  1  0.12276002  0.80352986  0.41066281  1.0
  C  C126  1  0.49752939  0.62856192  0.81239228  1.0
  C  C127  1  0.60295452  0.30703167  0.91483288  1.0
  C  C128  1  0.88980568  0.10195591  0.27499095  1.0
  C  C129  1  0.20405205  0.80679113  0.37732341  1.0
  C  C130  1  0.42329727  0.61623212  0.78036861  1.0
  C  C131  1  0.69865259  0.30356240  0.90341755  1.0
  C  C132  1  0.84372268  0.11082495  0.70483258  1.0
  C  C133  1  0.20301795  0.84479257  0.61582700  1.0
  C  C134  1  0.39207054  0.55885548  0.21940420  1.0
  C  C135  1  0.70637404  0.29251309  0.08467877  1.0
  C  C136  1  0.04196498  0.32045735  0.46261204  1.0
  C  C137  1  0.98494387  0.67383651  0.50433153  1.0
  C  C138  1  0.40878462  0.80635657  0.00249787  1.0
  C  C139  1  0.35485108  0.19645129  0.99768125  1.0
  C  C140  1  0.67583643  0.04227669  0.49536187  1.0
  C  C141  1  0.28728243  0.04927882  0.51092452  1.0
  C  C142  1  0.19840678  0.60657395  0.00644675  1.0
  C  C143  1  0.80801068  0.64475112  0.00649376  1.0
  C  C144  1  0.49337036  0.12903069  0.52266496  1.0
  C  C145  1  0.44947651  0.05931593  0.55988369  1.0
  C  C146  1  0.02661117  0.65980101  0.05964231  1.0
  C  C147  1  0.97637132  0.58305214  0.04832668  1.0
  C  C148  1  0.43229785  0.11955043  0.47181842  1.0
  C  C149  1  0.52845229  0.98081188  0.53789365  1.0
  C  C150  1  0.95759252  0.72681984  0.01940181  1.0
  C  C151  1  0.04346438  0.55608232  0.99607243  1.0
  C  C152  1  0.38723235  0.04941435  0.50928819  1.0
  C  C153  1  0.57400116  0.05019421  0.50023279  1.0
  C  C154  1  0.90654127  0.64906213  0.00767431  1.0
  C  C155  1  0.09577832  0.63258245  0.00758543  1.0
  C  C156  1  0.46762852  0.97124295  0.48700799  1.0
  C  C157  1  0.51112147  0.04111003  0.44974123  1.0
  C  C158  1  0.97595549  0.62332215  0.95577124  1.0
  C  C159  1  0.02630463  0.69998814  0.96724954  1.0
  C  C160  1  0.28521202  0.64578080  0.36243230  1.0
  C  C161  1  0.90439282  0.14758644  0.17078326  1.0
  C  C162  1  0.75366582  0.15640753  0.85862418  1.0
  C  C163  1  0.41750710  0.72433601  0.69541823  1.0
  C  C164  1  0.27355032  0.73594152  0.35334373  1.0
  C  C165  1  0.85978863  0.15397149  0.22213718  1.0
  C  C166  1  0.76353979  0.23897839  0.87069984  1.0
  C  C167  1  0.38132918  0.66642986  0.73094458  1.0
  C  C168  1  0.80228815  0.10666343  0.81107309  1.0
  C  C169  1  0.36214754  0.78766362  0.65495560  1.0
  C  C170  1  0.34370964  0.58495910  0.32333395  1.0
  C  C171  1  0.86405958  0.20918075  0.12330992  1.0
  C  C172  1  0.80350437  0.14731458  0.75815563  1.0
  C  C173  1  0.28497259  0.77452266  0.62902452  1.0
  C  C174  1  0.33558194  0.60237785  0.26654719  1.0
  C  C175  1  0.77281829  0.21757901  0.11080292  1.0
  C  C176  1  0.11855978  0.43045754  0.50308113  1.0
  C  C177  1  0.10859324  0.52765204  0.50816037  1.0
  C  C178  1  0.31815676  0.95653162  0.03753524  1.0
  C  C179  1  0.31307295  0.05421079  0.04024211  1.0
  C  C180  1  0.06898225  0.40585100  0.46226833  1.0
  C  C181  1  0.01952835  0.57685816  0.50487923  1.0
  C  C182  1  0.38281551  0.90445874  0.00347273  1.0
  C  C183  1  0.34068799  0.10568243  0.99621557  1.0
  C  C184  1  0.85549038  0.94436785  0.26023147  1.0
  C  C185  1  0.25781087  0.94391629  0.32439580  1.0
  C  C186  1  0.31319349  0.50359642  0.79861674  1.0
  C  C187  1  0.79825930  0.42158314  0.91635737  1.0
  C  C188  1  0.84665742  0.00834342  0.82153861  1.0
  C  C189  1  0.38610625  0.87843563  0.64843249  1.0
  C  C190  1  0.41249686  0.50365120  0.34670849  1.0
  C  C191  1  0.92280285  0.27006069  0.09626817  1.0
  C  C192  1  0.17842207  0.36536605  0.54434713  1.0
  C  C193  1  0.19296622  0.56411182  0.51712725  1.0
  C  C194  1  0.25248690  0.91568184  0.07640939  1.0
  C  C195  1  0.27786488  0.09493768  0.09590613  1.0
  N  N196  1  0.91493218  0.99573011  0.34642357  1.0
  N  N197  1  0.11436734  0.94581338  0.38424953  1.0
  N  N198  1  0.44064595  0.52216483  0.85866355  1.0
  N  N199  1  0.62631543  0.43822795  0.93560149  1.0
  N  N200  1  0.90940309  0.10027677  0.61718153  1.0
  N  N201  1  0.06295582  0.92136465  0.58599860  1.0
  N  N202  1  0.48971772  0.54006090  0.14277930  1.0
  N  N203  1  0.56717815  0.37612602  0.05733992  1.0
  N  N204  1  0.00799267  0.19182460  0.43891816  1.0
  N  N205  1  0.91154547  0.81349237  0.47272045  1.0
  N  N206  1  0.47460641  0.66783088  0.97244308  1.0
  N  N207  1  0.37925245  0.33412151  0.96786199  1.0
  N  N208  1  0.82791520  0.01398166  0.51821815  1.0
  N  N209  1  0.13340546  0.07417054  0.53244849  1.0
  N  N210  1  0.34025127  0.52563630  0.03177087  1.0
  N  N211  1  0.66823344  0.61462549  0.03304283  1.0
  N  N212  1  0.97523882  0.20560894  0.49358528  1.0
  N  N213  1  0.94097356  0.81860271  0.52661876  1.0
  N  N214  1  0.46315465  0.65967095  0.03000277  1.0
  N  N215  1  0.38689176  0.32472163  0.02592732  1.0
  N  N216  1  0.82524009  0.00681524  0.46127116  1.0
  N  N217  1  0.14639392  0.04005361  0.48027273  1.0
  N  N218  1  0.34137587  0.53620557  0.97425346  1.0
  N  N219  1  0.67504138  0.61706694  0.97479342  1.0
  N  N220  1  0.88400716  0.02104781  0.63139798  1.0
  N  N221  1  0.08037090  0.96150579  0.63368277  1.0
  N  N222  1  0.43664719  0.47667327  0.14313180  1.0
  N  N223  1  0.62393729  0.43339896  0.06388406  1.0
  N  N224  1  0.93740203  0.07070666  0.36472908  1.0
  N  N225  1  0.06939731  0.88711263  0.41443961  1.0
  N  N226  1  0.50713584  0.57291412  0.85917035  1.0
  N  N227  1  0.56117046  0.38744974  0.93349853  1.0
  N  N228  1  0.75301488  0.24352012  0.74917385  1.0
  N  N229  1  0.27435471  0.68168256  0.62388203  1.0
  N  N230  1  0.25821100  0.67714099  0.24413451  1.0
  N  N231  1  0.72951023  0.14134931  0.13254543  1.0
  O  O232  1  0.80199206  0.29913900  0.73764019  1.0
  O  O233  1  0.66662117  0.26111629  0.75062917  1.0
  O  O234  1  0.19648157  0.66466691  0.63721784  1.0
  O  O235  1  0.34181681  0.62580615  0.60459410  1.0
  O  O236  1  0.28169626  0.74085804  0.21632035  1.0
  O  O237  1  0.17674411  0.66812628  0.25103220  1.0
  O  O238  1  0.65600736  0.15880596  0.16196926  1.0
  O  O239  1  0.76850436  0.06522869  0.11808445  1.0
