# generated using pymatgen
data_AlH7C13BrO6
_symmetry_space_group_name_H-M   'P 1'
_cell_length_a   6.60441186
_cell_length_b   10.99411888
_cell_length_c   15.24982117
_cell_angle_alpha   88.92241599
_cell_angle_beta   78.43182376
_cell_angle_gamma   74.10347740
_symmetry_Int_Tables_number   1
_chemical_formula_structural   AlH7C13BrO6
_chemical_formula_sum   'Al2 H14 C26 Br2 O12'
_cell_volume   1042.54067142
_cell_formula_units_Z   2
loop_
 _symmetry_equiv_pos_site_id
 _symmetry_equiv_pos_as_xyz
  1  'x, y, z'
loop_
 _atom_site_type_symbol
 _atom_site_label
 _atom_site_symmetry_multiplicity
 _atom_site_fract_x
 _atom_site_fract_y
 _atom_site_fract_z
 _atom_site_occupancy
  Al  Al0  1  0.00119735  0.49549064  0.49952368  1.0
  Al  Al1  1  0.50556807  0.48878937  0.49652784  1.0
  H  H2  1  0.32995547  0.41284501  0.39396839  1.0
  H  H3  1  0.64664286  0.64399913  0.54809509  1.0
  H  H4  1  0.54847745  0.55994286  0.22226744  1.0
  H  H5  1  0.42793827  0.37051572  0.76896752  1.0
  H  H6  1  0.84092952  0.66145714  0.76805840  1.0
  H  H7  1  0.76606189  0.67475160  0.93294928  1.0
  H  H8  1  0.22000216  0.45802504  0.23002486  1.0
  H  H9  1  0.30863601  0.46517877  0.06465788  1.0
  H  H10  1  0.51462931  0.22212643  0.61791059  1.0
  H  H11  1  0.78286259  0.75292621  0.61767897  1.0
  H  H12  1  0.36875675  0.88328628  0.44297729  1.0
  H  H13  1  0.24607743  0.12037203  0.45437144  1.0
  H  H14  1  0.46452333  0.59671627  0.08915581  1.0
  H  H15  1  0.47858316  0.29682113  0.89920936  1.0
  C  C16  1  0.86084785  0.26841375  0.51604995  1.0
  C  C17  1  0.82404141  0.49474789  0.33534711  1.0
  C  C18  1  0.14085525  0.72165065  0.49819248  1.0
  C  C19  1  0.18721047  0.50142592  0.65857928  1.0
  C  C20  1  0.87806891  0.50758566  0.23679877  1.0
  C  C21  1  0.13884368  0.51361272  0.75788789  1.0
  C  C22  1  0.71596061  0.54141421  0.18729749  1.0
  C  C23  1  0.76479383  0.55104109  0.09442797  1.0
  C  C24  1  0.28033531  0.43591652  0.80560186  1.0
  C  C25  1  0.23036958  0.43659188  0.89887794  1.0
  C  C26  1  0.95183474  0.59969473  0.80461650  1.0
  C  C27  1  0.90894116  0.60534329  0.89764589  1.0
  C  C28  1  0.09275531  0.48398302  0.19190264  1.0
  C  C29  1  0.14124536  0.49031358  0.09939135  1.0
  C  C30  1  0.98186228  0.52271342  0.04701915  1.0
  C  C31  1  0.04107471  0.52240053  0.94819213  1.0
  C  C32  1  0.92722967  0.12805818  0.52315828  1.0
  C  C33  1  0.78320535  0.05897997  0.56659439  1.0
  C  C34  1  0.13697336  0.06507645  0.48343306  1.0
  C  C35  1  0.57463986  0.11943380  0.61666379  1.0
  C  C36  1  0.44652475  0.05013597  0.66409097  1.0
  C  C37  1  0.06794164  0.86173076  0.51428905  1.0
  C  C38  1  0.20658067  0.93220615  0.47804103  1.0
  C  C39  1  0.85733334  0.92333588  0.56394875  1.0
  C  C40  1  0.72320731  0.85514843  0.61469897  1.0
  C  C41  1  0.52219154  0.91612109  0.66366359  1.0
  Br  Br42  1  0.17227422  0.13799306  0.73127478  1.0
  Br  Br43  1  0.35523950  0.81655512  0.72985059  1.0
  O  O44  1  0.99518648  0.32698792  0.52774394  1.0
  O  O45  1  0.62757073  0.50589630  0.37174643  1.0
  O  O46  1  0.33305048  0.66547840  0.50494184  1.0
  O  O47  1  0.02793844  0.52777441  0.61936128  1.0
  O  O48  1  0.00539044  0.66905072  0.47824969  1.0
  O  O49  1  0.38405625  0.46556351  0.61896549  1.0
  O  O50  1  0.67995556  0.31821653  0.49479494  1.0
  O  O51  1  0.97967091  0.47175097  0.37677141  1.0
  O  O52  1  0.29673164  0.43448335  0.45756163  1.0
  O  O53  1  0.70538110  0.55381337  0.53454419  1.0
  O  O54  1  0.60228008  0.58492150  0.04766285  1.0
  O  O55  1  0.36285035  0.35049035  0.94347297  1.0
