# generated using pymatgen
data_Zn2H35C51N7O8
_symmetry_space_group_name_H-M   'P 1'
_cell_length_a   15.31330356
_cell_length_b   15.31329781
_cell_length_c   37.43445457
_cell_angle_alpha   86.10356922
_cell_angle_beta   86.10351970
_cell_angle_gamma   74.59887672
_symmetry_Int_Tables_number   1
_chemical_formula_structural   Zn2H35C51N7O8
_chemical_formula_sum   'Zn8 H140 C204 N28 O32'
_cell_volume   8432.11231272
_cell_formula_units_Z   4
loop_
 _symmetry_equiv_pos_site_id
 _symmetry_equiv_pos_as_xyz
  1  'x, y, z'
loop_
 _atom_site_type_symbol
 _atom_site_label
 _atom_site_symmetry_multiplicity
 _atom_site_fract_x
 _atom_site_fract_y
 _atom_site_fract_z
 _atom_site_occupancy
  Zn  Zn0  1  0.73790537  0.00174421  0.67538296  1.0
  Zn  Zn1  1  0.74953471  0.01248118  0.59836134  1.0
  Zn  Zn2  1  0.00174278  0.73790451  0.17538103  1.0
  Zn  Zn3  1  0.01247846  0.74953170  0.09835896  1.0
  Zn  Zn4  1  0.99825642  0.26210178  0.82461806  1.0
  Zn  Zn5  1  0.98751882  0.25047189  0.90163972  1.0
  Zn  Zn6  1  0.26210337  0.99825797  0.32461839  1.0
  Zn  Zn7  1  0.25047211  0.98751829  0.40164014  1.0
  H  H8  1  0.00290357  0.09244468  0.58831338  1.0
  H  H9  1  0.83591406  0.71275659  0.57850210  1.0
  H  H10  1  0.73046001  0.72637588  0.68771157  1.0
  H  H11  1  0.86725329  0.95292682  0.46509406  1.0
  H  H12  1  0.72786381  0.56479139  0.68860507  1.0
  H  H13  1  0.79130205  0.88630281  0.52799521  1.0
  H  H14  1  0.99280433  0.03426153  0.45346048  1.0
  H  H15  1  0.04480274  0.14069126  0.41035955  1.0
  H  H16  1  0.83729266  0.55029769  0.57939043  1.0
  H  H17  1  0.16113162  0.10982137  0.58799629  1.0
  H  H18  1  0.47644200  0.01218848  0.58001212  1.0
  H  H19  1  0.71275952  0.30570418  0.58089628  1.0
  H  H20  1  0.79248570  0.15682607  0.54093031  1.0
  H  H21  1  0.97164216  0.71960389  0.40979453  1.0
  H  H22  1  0.78522232  0.26271383  0.69056445  1.0
  H  H23  1  0.73555664  0.46077507  0.57912423  1.0
  H  H24  1  0.03103867  0.60986947  0.25251879  1.0
  H  H25  1  0.97217546  0.53391548  0.30556345  1.0
  H  H26  1  0.04284121  0.93635510  0.68805955  1.0
  H  H27  1  0.31293045  0.01470377  0.57997909  1.0
  H  H28  1  0.75547357  0.24636277  0.48298449  1.0
  H  H29  1  0.80949730  0.35463046  0.43973118  1.0
  H  H30  1  0.97027975  0.78978367  0.34856389  1.0
  H  H31  1  0.20151498  0.94870634  0.68719302  1.0
  H  H32  1  0.80995686  0.41693457  0.68911618  1.0
  H  H33  1  0.28505717  0.05665242  0.69338904  1.0
  H  H34  1  0.97216568  0.55548642  0.41935277  1.0
  H  H35  1  0.44842329  0.05443978  0.69271197  1.0
  H  H36  1  0.85476091  0.85379513  0.22988133  1.0
  H  H37  1  0.85954948  0.82911007  0.30181997  1.0
  H  H38  1  0.06312814  0.19023340  0.33505169  1.0
  H  H39  1  0.95897298  0.24495332  0.31443455  1.0
  H  H40  1  0.95788515  0.17865489  0.35559848  1.0
  H  H41  1  0.01458300  0.92158852  0.22625922  1.0
  H  H42  1  0.02896550  0.88336664  0.30258180  1.0
  H  H43  1  0.09244437  0.00290375  0.08831204  1.0
  H  H44  1  0.71275448  0.83591861  0.07849994  1.0
  H  H45  1  0.72637061  0.73046332  0.18770896  1.0
  H  H46  1  0.95292693  0.86725600  0.96509183  1.0
  H  H47  1  0.56478758  0.72786715  0.18860219  1.0
  H  H48  1  0.88629989  0.79130176  0.02799261  1.0
  H  H49  1  0.03426118  0.99280225  0.95345991  1.0
  H  H50  1  0.14069192  0.04480347  0.91035949  1.0
  H  H51  1  0.55029450  0.83729660  0.07938700  1.0
  H  H52  1  0.10982377  0.16113035  0.08799628  1.0
  H  H53  1  0.01218824  0.47644118  0.08001118  1.0
  H  H54  1  0.30570357  0.71275486  0.08089383  1.0
  H  H55  1  0.15682403  0.79248238  0.04092897  1.0
  H  H56  1  0.71960482  0.97164299  0.90979559  1.0
  H  H57  1  0.26271322  0.78521848  0.19056200  1.0
  H  H58  1  0.46077422  0.73555440  0.07912197  1.0
  H  H59  1  0.60987090  0.03103534  0.75252033  1.0
  H  H60  1  0.53391894  0.97217633  0.80556394  1.0
  H  H61  1  0.93635185  0.04284141  0.18805761  1.0
  H  H62  1  0.01470360  0.31292940  0.07997892  1.0
  H  H63  1  0.24636439  0.75547298  0.98298401  1.0
  H  H64  1  0.35463286  0.80949804  0.93973116  1.0
  H  H65  1  0.78978670  0.97027893  0.84856519  1.0
  H  H66  1  0.94870581  0.20151425  0.18719266  1.0
  H  H67  1  0.41693152  0.80995741  0.18911339  1.0
  H  H68  1  0.05665989  0.28505686  0.19338837  1.0
  H  H69  1  0.55548557  0.97216766  0.91935334  1.0
  H  H70  1  0.05444599  0.44842345  0.19271055  1.0
  H  H71  1  0.85379925  0.85476418  0.72988219  1.0
  H  H72  1  0.82911696  0.85955233  0.80182051  1.0
  H  H73  1  0.19023390  0.06312867  0.83505243  1.0
  H  H74  1  0.24495462  0.95897547  0.81443510  1.0
  H  H75  1  0.17865604  0.95788616  0.85559909  1.0
  H  H76  1  0.92158499  0.01458798  0.72625900  1.0
  H  H77  1  0.88336459  0.02897508  0.80258171  1.0
  H  H78  1  0.90755437  0.99710188  0.91168441  1.0
  H  H79  1  0.28724209  0.16408769  0.92149896  1.0
  H  H80  1  0.27362340  0.26954027  0.81228954  1.0
  H  H81  1  0.04707823  0.13274758  0.03490505  1.0
  H  H82  1  0.43520644  0.27213645  0.81139524  1.0
  H  H83  1  0.11370038  0.20870048  0.97200415  1.0
  H  H84  1  0.96574037  0.00719995  0.04654003  1.0
  H  H85  1  0.85930928  0.95520010  0.08963963  1.0
  H  H86  1  0.44970262  0.16270768  0.92060979  1.0
  H  H87  1  0.89017942  0.83887324  0.91200117  1.0
  H  H88  1  0.98780767  0.52356511  0.91998907  1.0
  H  H89  1  0.69429482  0.28724194  0.91910500  1.0
  H  H90  1  0.84317692  0.20751712  0.95907025  1.0
  H  H91  1  0.28040143  0.02835379  0.09020357  1.0
  H  H92  1  0.73728691  0.21478172  0.80943642  1.0
  H  H93  1  0.53922347  0.26444512  0.92087627  1.0
  H  H94  1  0.39014432  0.96899731  0.24748034  1.0
  H  H95  1  0.46607673  0.02783334  0.19443650  1.0
  H  H96  1  0.06365988  0.95715941  0.81194237  1.0
  H  H97  1  0.98529755  0.68707687  0.92002066  1.0
  H  H98  1  0.75363896  0.24452991  0.01701480  1.0
  H  H99  1  0.64536965  0.19050553  0.06026765  1.0
  H  H100  1  0.21021761  0.02970770  0.15143295  1.0
  H  H101  1  0.05131055  0.79848385  0.81280754  1.0
  H  H102  1  0.58306743  0.19004483  0.81088475  1.0
  H  H103  1  0.94335703  0.71494667  0.80661061  1.0
  H  H104  1  0.44451837  0.02783793  0.08064699  1.0
  H  H105  1  0.94556124  0.55158214  0.80728809  1.0
  H  H106  1  0.14616416  0.14518597  0.27011633  1.0
  H  H107  1  0.17085157  0.14039577  0.19817740  1.0
  H  H108  1  0.80976682  0.93687422  0.16494671  1.0
  H  H109  1  0.75504711  0.04102606  0.18556485  1.0
  H  H110  1  0.82134546  0.04211875  0.14440159  1.0
  H  H111  1  0.07847040  0.98530764  0.27374523  1.0
  H  H112  1  0.11667142  0.97093212  0.19742300  1.0
  H  H113  1  0.99710359  0.90755618  0.41168405  1.0
  H  H114  1  0.16408984  0.28724152  0.42149949  1.0
  H  H115  1  0.26953939  0.27362700  0.31228975  1.0
  H  H116  1  0.13274720  0.04707946  0.53490553  1.0
  H  H117  1  0.27213379  0.43521082  0.31139630  1.0
  H  H118  1  0.20869880  0.11370212  0.47200415  1.0
  H  H119  1  0.00720061  0.96574269  0.54654038  1.0
  H  H120  1  0.95520107  0.85931229  0.58964056  1.0
  H  H121  1  0.16270827  0.44970179  0.42061120  1.0
  H  H122  1  0.83887536  0.89018016  0.41200192  1.0
  H  H123  1  0.52356901  0.98780485  0.41999154  1.0
  H  H124  1  0.28724647  0.69429596  0.41910574  1.0
  H  H125  1  0.20751893  0.84317679  0.45907140  1.0
  H  H126  1  0.02835407  0.28040377  0.59020381  1.0
  H  H127  1  0.21478070  0.73728768  0.30943734  1.0
  H  H128  1  0.26444656  0.53922576  0.42087757  1.0
  H  H129  1  0.96899834  0.39014484  0.74748126  1.0
  H  H130  1  0.02783243  0.46607993  0.69443731  1.0
  H  H131  1  0.95715823  0.06366268  0.31194245  1.0
  H  H132  1  0.68708078  0.98529636  0.42002253  1.0
  H  H133  1  0.24453107  0.75364010  0.51701616  1.0
  H  H134  1  0.19050443  0.64537107  0.56026878  1.0
  H  H135  1  0.02970623  0.21022064  0.65143373  1.0
  H  H136  1  0.79848167  0.05131213  0.31280850  1.0
  H  H137  1  0.19004384  0.58306829  0.31088617  1.0
  H  H138  1  0.71494684  0.94335790  0.30661197  1.0
  H  H139  1  0.02784023  0.44451916  0.58064777  1.0
  H  H140  1  0.55158317  0.94556103  0.30729082  1.0
  H  H141  1  0.14518875  0.14616525  0.77011462  1.0
  H  H142  1  0.14039370  0.17085506  0.69817629  1.0
  H  H143  1  0.93687585  0.80976948  0.66494817  1.0
  H  H144  1  0.04102857  0.75504888  0.68556620  1.0
  H  H145  1  0.04211967  0.82134729  0.64440245  1.0
  H  H146  1  0.98531093  0.07846747  0.77374558  1.0
  H  H147  1  0.97093302  0.11667173  0.69742253  1.0
  C  C148  1  0.04775838  0.06059059  0.60960368  1.0
  C  C149  1  0.78174226  0.73063981  0.63293619  1.0
  C  C150  1  0.91826438  0.00301345  0.63795854  1.0
  C  C151  1  0.01358040  0.01206070  0.63782141  1.0
  C  C152  1  0.81188717  0.68003193  0.60253633  1.0
  C  C153  1  0.77629405  0.83010879  0.63252242  1.0
  C  C154  1  0.75377372  0.68704503  0.66410256  1.0
  C  C155  1  0.78091225  0.54559361  0.63385534  1.0
  C  C156  1  0.57200122  0.02463330  0.63694092  1.0
  C  C157  1  0.87052836  0.13387483  0.47060503  1.0
  C  C158  1  0.73323260  0.18045700  0.63669226  1.0
  C  C159  1  0.95393743  0.31981543  0.39509877  1.0
  C  C160  1  0.84107309  0.98353043  0.49017595  1.0
  C  C161  1  0.75318851  0.59634738  0.66451703  1.0
  C  C162  1  0.80239562  0.95245924  0.52092392  1.0
  C  C163  1  0.97159731  0.66673108  0.32289428  1.0
  C  C164  1  0.47243993  0.03206017  0.63643918  1.0
  C  C165  1  0.95138136  0.10383734  0.45009761  1.0
  C  C166  1  0.92852866  0.25426153  0.42127425  1.0
  C  C167  1  0.77371688  0.45101074  0.63411446  1.0
  C  C168  1  0.98016977  0.16395804  0.42540269  1.0
  C  C169  1  0.81176517  0.58900268  0.60305346  1.0
  C  C170  1  0.13591847  0.06936026  0.60937933  1.0
  C  C171  1  0.74712560  0.27422714  0.63584002  1.0
  C  C172  1  0.43349281  0.02274453  0.60457926  1.0
  C  C173  1  0.97251807  0.44119744  0.36893462  1.0
  C  C174  1  0.19297018  0.02912517  0.63723604  1.0
  C  C175  1  0.73486284  0.33047482  0.60441936  1.0
  C  C176  1  0.28769769  0.03484329  0.63673052  1.0
  C  C177  1  0.80039029  0.09273135  0.52875436  1.0
  C  C178  1  0.97197144  0.67870030  0.38703591  1.0
  C  C179  1  0.77446818  0.30669273  0.66623686  1.0
  C  C180  1  0.74808864  0.41714212  0.60353140  1.0
  C  C181  1  0.99106848  0.67960163  0.25567310  1.0
  C  C182  1  0.97446783  0.57485661  0.32802080  1.0
  C  C183  1  0.97489009  0.53562838  0.36293588  1.0
  C  C184  1  0.06962521  0.97306664  0.66587894  1.0
  C  C185  1  0.34212266  0.02471940  0.60469341  1.0
  C  C186  1  0.81923609  0.22422556  0.46724615  1.0
  C  C187  1  0.84875943  0.28419105  0.44290653  1.0
  C  C188  1  0.97110883  0.71861333  0.35249359  1.0
  C  C189  1  0.15800922  0.98109333  0.66554802  1.0
  C  C190  1  0.78758451  0.39339165  0.66533489  1.0
  C  C191  1  0.32679118  0.04648513  0.66841980  1.0
  C  C192  1  0.97324550  0.58765617  0.39253587  1.0
  C  C193  1  0.41785515  0.04555266  0.66823376  1.0
  C  C194  1  0.91930542  0.82593104  0.24282713  1.0
  C  C195  1  0.92185466  0.80940043  0.28463623  1.0
  C  C196  1  0.99128068  0.22478861  0.34004043  1.0
  C  C197  1  0.98265658  0.88512892  0.24673572  1.0
  C  C198  1  0.98837768  0.86759512  0.28238902  1.0
  C  C199  1  0.06059098  0.04775667  0.10960346  1.0
  C  C200  1  0.73063746  0.78174427  0.13293382  1.0
  C  C201  1  0.00301315  0.91826299  0.13795769  1.0
  C  C202  1  0.01206237  0.01357944  0.13782087  1.0
  C  C203  1  0.68002997  0.81189144  0.10253390  1.0
  C  C204  1  0.83010488  0.77629089  0.13251913  1.0
  C  C205  1  0.68704014  0.75377630  0.16410050  1.0
  C  C206  1  0.54558982  0.78091450  0.13385276  1.0
  C  C207  1  0.02463436  0.57199840  0.13693920  1.0
  C  C208  1  0.13387504  0.87052788  0.97060462  1.0
  C  C209  1  0.18045508  0.73322722  0.13668962  1.0
  C  C210  1  0.31981604  0.95394146  0.89509982  1.0
  C  C211  1  0.98353063  0.84107413  0.99017374  1.0
  C  C212  1  0.59634324  0.75319104  0.16451470  1.0
  C  C213  1  0.95245841  0.80239399  0.02092183  1.0
  C  C214  1  0.66673314  0.97159867  0.82289504  1.0
  C  C215  1  0.03206433  0.47243909  0.13643785  1.0
  C  C216  1  0.10383845  0.95138121  0.95009719  1.0
  C  C217  1  0.25426290  0.92853032  0.92127455  1.0
  C  C218  1  0.45100802  0.77371633  0.13411167  1.0
  C  C219  1  0.16395951  0.98017081  0.92540276  1.0
  C  C220  1  0.58899883  0.81176897  0.10305111  1.0
  C  C221  1  0.06936293  0.13591753  0.10937984  1.0
  C  C222  1  0.27422785  0.74711959  0.13583785  1.0
  C  C223  1  0.02274571  0.43349191  0.10457800  1.0
  C  C224  1  0.44119839  0.97252398  0.86893533  1.0
  C  C225  1  0.02912825  0.19296879  0.13723604  1.0
  C  C226  1  0.33047539  0.73485760  0.10441689  1.0
  C  C227  1  0.03484614  0.28769640  0.13673000  1.0
  C  C228  1  0.09272944  0.80038747  0.02875275  1.0
  C  C229  1  0.67870177  0.97197349  0.88703693  1.0
  C  C230  1  0.30669212  0.77446345  0.16623469  1.0
  C  C231  1  0.41714138  0.74808515  0.10352891  1.0
  C  C232  1  0.67960346  0.99106691  0.75567448  1.0
  C  C233  1  0.57485897  0.97447039  0.82802153  1.0
  C  C234  1  0.53562891  0.97489428  0.86293662  1.0
  C  C235  1  0.97306562  0.06962480  0.16587749  1.0
  C  C236  1  0.02472008  0.34212179  0.10469295  1.0
  C  C237  1  0.22422616  0.81923702  0.96724567  1.0
  C  C238  1  0.28419240  0.84876161  0.94290679  1.0
  C  C239  1  0.71861344  0.97111044  0.85249465  1.0
  C  C240  1  0.98109456  0.15800832  0.16554734  1.0
  C  C241  1  0.39338974  0.78758262  0.16533213  1.0
  C  C242  1  0.04649093  0.32678981  0.16841868  1.0
  C  C243  1  0.58765503  0.97324891  0.89253614  1.0
  C  C244  1  0.04555928  0.41785477  0.16823288  1.0
  C  C245  1  0.82593376  0.91930595  0.74282866  1.0
  C  C246  1  0.80940332  0.92185696  0.78463717  1.0
  C  C247  1  0.22479012  0.99128451  0.84004096  1.0
  C  C248  1  0.88512964  0.98266197  0.74673530  1.0
  C  C249  1  0.86759517  0.98838422  0.78238966  1.0
  C  C250  1  0.93941321  0.95224555  0.89039454  1.0
  C  C251  1  0.26936065  0.21825864  0.86706459  1.0
  C  C252  1  0.99699436  0.08173650  0.86204057  1.0
  C  C253  1  0.98794573  0.98642275  0.86217890  1.0
  C  C254  1  0.31996863  0.18811214  0.89746448  1.0
  C  C255  1  0.16989330  0.22370932  0.86747854  1.0
  C  C256  1  0.31295535  0.24622662  0.83589771  1.0
  C  C257  1  0.45440652  0.21908775  0.86614491  1.0
  C  C258  1  0.97536269  0.42800857  0.86305993  1.0
  C  C259  1  0.86612835  0.12947230  0.02939479  1.0
  C  C260  1  0.81954427  0.26677094  0.86330861  1.0
  C  C261  1  0.68018493  0.04606549  0.10490028  1.0
  C  C262  1  0.01647487  0.15892809  0.00982342  1.0
  C  C263  1  0.40365309  0.24681120  0.83548323  1.0
  C  C264  1  0.04754334  0.19760755  0.97907625  1.0
  C  C265  1  0.33333333  0.02839677  0.17710458  1.0
  C  C266  1  0.96793831  0.52756651  0.86356117  1.0
  C  C267  1  0.89616424  0.04862168  0.04990216  1.0
  C  C268  1  0.74573979  0.07147257  0.07872481  1.0
  C  C269  1  0.54898867  0.22628456  0.86588576  1.0
  C  C270  1  0.83604235  0.01983275  0.07459660  1.0
  C  C271  1  0.41099780  0.18823463  0.89694679  1.0
  C  C272  1  0.93064173  0.86408536  0.89061840  1.0
  C  C273  1  0.72577363  0.25287788  0.86416114  1.0
  C  C274  1  0.97725347  0.56651438  0.89542136  1.0
  C  C275  1  0.55880051  0.02748839  0.13106522  1.0
  C  C276  1  0.97088020  0.80703204  0.86276376  1.0
  C  C277  1  0.66952579  0.26513852  0.89558188  1.0
  C  C278  1  0.96515947  0.71230783  0.86326925  1.0
  C  C279  1  0.90727117  0.19961340  0.97124538  1.0
  C  C280  1  0.32130216  0.02802465  0.11296226  1.0
  C  C281  1  0.69330705  0.22553539  0.83376352  1.0
  C  C282  1  0.58285832  0.25191166  0.89646908  1.0
  C  C283  1  0.32040232  0.00893663  0.24432559  1.0
  C  C284  1  0.42513837  0.02553792  0.17197889  1.0
  C  C285  1  0.46436903  0.02511674  0.13706425  1.0
  C  C286  1  0.02694860  0.93037398  0.83412221  1.0
  C  C287  1  0.97527994  0.65788381  0.89530667  1.0
  C  C288  1  0.77577719  0.18076587  0.03275287  1.0
  C  C289  1  0.71581077  0.15124195  0.05709227  1.0
  C  C290  1  0.28138844  0.02888297  0.14750418  1.0
  C  C291  1  0.01891930  0.84199182  0.83445260  1.0
  C  C292  1  0.60660974  0.21241758  0.83466578  1.0
  C  C293  1  0.95351748  0.67321374  0.83158078  1.0
  C  C294  1  0.41234564  0.02675668  0.10746373  1.0
  C  C295  1  0.95444746  0.58215014  0.83176632  1.0
  C  C296  1  0.17405976  0.08064410  0.25717123  1.0
  C  C297  1  0.19058662  0.07809174  0.21536312  1.0
  C  C298  1  0.77521156  0.00871972  0.15995919  1.0
  C  C299  1  0.11489987  0.01725271  0.25326725  1.0
  C  C300  1  0.13242559  0.01153386  0.21761462  1.0
  C  C301  1  0.95224772  0.93941432  0.39039500  1.0
  C  C302  1  0.21826076  0.26936170  0.36706507  1.0
  C  C303  1  0.08173774  0.99699419  0.36203991  1.0
  C  C304  1  0.98642201  0.98794828  0.36217860  1.0
  C  C305  1  0.18811341  0.31996890  0.39746528  1.0
  C  C306  1  0.22371404  0.16989339  0.36747869  1.0
  C  C307  1  0.24622682  0.31295853  0.33589818  1.0
  C  C308  1  0.21908881  0.45440790  0.36614624  1.0
  C  C309  1  0.42800874  0.97536410  0.36306240  1.0
  C  C310  1  0.12947509  0.86613007  0.52939613  1.0
  C  C311  1  0.26677203  0.81954586  0.36330972  1.0
  C  C312  1  0.04606703  0.68018811  0.60490213  1.0
  C  C313  1  0.15892740  0.01647585  0.50982418  1.0
  C  C314  1  0.24681154  0.40365549  0.33548400  1.0
  C  C315  1  0.19760456  0.04754568  0.47907652  1.0
  C  C316  1  0.02839793  0.33333333  0.67710457  1.0
  C  C317  1  0.52756723  0.96793793  0.36356339  1.0
  C  C318  1  0.04862293  0.89616688  0.54990327  1.0
  C  C319  1  0.07147414  0.74574337  0.57872692  1.0
  C  C320  1  0.22628632  0.54899009  0.36588708  1.0
  C  C321  1  0.01983452  0.83604618  0.57459846  1.0
  C  C322  1  0.18823523  0.41099884  0.39694813  1.0
  C  C323  1  0.86408667  0.93064330  0.39061942  1.0
  C  C324  1  0.25288218  0.72577368  0.36416139  1.0
  C  C325  1  0.56651584  0.97725289  0.39542329  1.0
  C  C326  1  0.02748989  0.55880270  0.63106654  1.0
  C  C327  1  0.80703239  0.97088312  0.36276478  1.0
  C  C328  1  0.26514333  0.66952465  0.39558213  1.0
  C  C329  1  0.71230820  0.96516228  0.36327109  1.0
  C  C330  1  0.19961304  0.90727152  0.47124632  1.0
  C  C331  1  0.02802614  0.32130464  0.61296326  1.0
  C  C332  1  0.22553781  0.69330741  0.33376488  1.0
  C  C333  1  0.25191604  0.58285803  0.39647038  1.0
  C  C334  1  0.00893826  0.32040328  0.74432636  1.0
  C  C335  1  0.02553823  0.42514084  0.67197968  1.0
  C  C336  1  0.02511788  0.46437177  0.63706502  1.0
  C  C337  1  0.93037406  0.02695182  0.33412224  1.0
  C  C338  1  0.65788595  0.97528074  0.39530827  1.0
  C  C339  1  0.18076885  0.77577866  0.53275445  1.0
  C  C340  1  0.15124421  0.71581317  0.55709411  1.0
  C  C341  1  0.02888340  0.28138960  0.64750470  1.0
  C  C342  1  0.84199124  0.01892310  0.33445291  1.0
  C  C343  1  0.21241999  0.60660918  0.33466715  1.0
  C  C344  1  0.67321375  0.95351908  0.33158214  1.0
  C  C345  1  0.02675897  0.41234739  0.60746422  1.0
  C  C346  1  0.58215084  0.95444748  0.33176825  1.0
  C  C347  1  0.08064712  0.17405845  0.75717066  1.0
  C  C348  1  0.07809346  0.19058838  0.71536250  1.0
  C  C349  1  0.00872265  0.77521427  0.65996024  1.0
  C  C350  1  0.01725720  0.11490131  0.75326470  1.0
  C  C351  1  0.01153477  0.13242491  0.71761516  1.0
  N  N352  1  0.96841417  0.73773027  0.22859874  1.0
  N  N353  1  0.83928370  0.07287398  0.49544212  1.0
  N  N354  1  0.77760362  0.02117411  0.54458690  1.0
  N  N355  1  0.98046066  0.30507838  0.35994542  1.0
  N  N356  1  0.99224469  0.38204984  0.34288368  1.0
  N  N357  1  0.94815685  0.40593010  0.40139329  1.0
  N  N358  1  0.96369007  0.71158773  0.28876360  1.0
  N  N359  1  0.73773134  0.96841400  0.72859981  1.0
  N  N360  1  0.07287383  0.83928362  0.99544064  1.0
  N  N361  1  0.02117281  0.77759980  0.04458451  1.0
  N  N362  1  0.30507797  0.98046433  0.85994652  1.0
  N  N363  1  0.38205069  0.99225113  0.84288439  1.0
  N  N364  1  0.40593175  0.94816129  0.90139428  1.0
  N  N365  1  0.71159115  0.96369002  0.78876515  1.0
  N  N366  1  0.26227224  0.03157532  0.27140041  1.0
  N  N367  1  0.92713005  0.16071724  0.00455794  1.0
  N  N368  1  0.97882798  0.22240039  0.95541363  1.0
  N  N369  1  0.69492270  0.01954127  0.14005309  1.0
  N  N370  1  0.61794987  0.00775988  0.15711561  1.0
  N  N371  1  0.59406798  0.05185041  0.09860626  1.0
  N  N372  1  0.28840766  0.03629255  0.21123457  1.0
  N  N373  1  0.03157840  0.26227129  0.77140038  1.0
  N  N374  1  0.16071845  0.92713093  0.50455854  1.0
  N  N375  1  0.22239906  0.97882877  0.45541353  1.0
  N  N376  1  0.01954429  0.69492585  0.64005491  1.0
  N  N377  1  0.00776244  0.61795098  0.65711722  1.0
  N  N378  1  0.05185076  0.59407141  0.59860732  1.0
  N  N379  1  0.03629243  0.28840980  0.71123455  1.0
  O  O380  1  0.79340302  0.87023682  0.60283557  1.0
  O  O381  1  0.61866800  0.00827118  0.60745433  1.0
  O  O382  1  0.71569117  0.15215261  0.60741253  1.0
  O  O383  1  0.88006454  0.02134564  0.60820957  1.0
  O  O384  1  0.75408348  0.86831119  0.66221670  1.0
  O  O385  1  0.74198348  0.13517525  0.66676367  1.0
  O  O386  1  0.88338872  0.97750515  0.66729522  1.0
  O  O387  1  0.60242949  0.03364389  0.66691271  1.0
  O  O388  1  0.87023388  0.79339934  0.10283200  1.0
  O  O389  1  0.00827035  0.61866474  0.10745242  1.0
  O  O390  1  0.15215163  0.71568613  0.10741039  1.0
  O  O391  1  0.02134434  0.88006250  0.10820876  1.0
  O  O392  1  0.86830985  0.75407633  0.16221344  1.0
  O  O393  1  0.13517494  0.74198015  0.16676121  1.0
  O  O394  1  0.97751022  0.88338543  0.16729543  1.0
  O  O395  1  0.03364256  0.60243029  0.16691017  1.0
  O  O396  1  0.12976227  0.20660357  0.89716672  1.0
  O  O397  1  0.99172281  0.38133952  0.89254715  1.0
  O  O398  1  0.84784936  0.28431065  0.89258970  1.0
  O  O399  1  0.97865952  0.11993835  0.89179116  1.0
  O  O400  1  0.13168866  0.24592251  0.83778533  1.0
  O  O401  1  0.86482513  0.25802275  0.83323768  1.0
  O  O402  1  0.02249657  0.11661676  0.83270517  1.0
  O  O403  1  0.96635664  0.39757600  0.83308839  1.0
  O  O404  1  0.20660773  0.12976263  0.39716634  1.0
  O  O405  1  0.38134070  0.99172352  0.39254909  1.0
  O  O406  1  0.28431184  0.84784889  0.39259060  1.0
  O  O407  1  0.11993928  0.97865793  0.39178920  1.0
  O  O408  1  0.24592954  0.13168961  0.33778485  1.0
  O  O409  1  0.25802066  0.86482691  0.33323941  1.0
  O  O410  1  0.11661594  0.02249773  0.33270409  1.0
  O  O411  1  0.39757691  0.96635962  0.33309081  1.0
