# generated using pymatgen
data_Zn3H28C30(NO6)2
_symmetry_space_group_name_H-M   'P 1'
_cell_length_a   9.02532906
_cell_length_b   9.12105736
_cell_length_c   19.70253504
_cell_angle_alpha   95.48595012
_cell_angle_beta   97.73774666
_cell_angle_gamma   117.90179620
_symmetry_Int_Tables_number   1
_chemical_formula_structural   Zn3H28C30(NO6)2
_chemical_formula_sum   'Zn3 H28 C30 N2 O12'
_cell_volume   1396.83447190
_cell_formula_units_Z   1
loop_
 _symmetry_equiv_pos_site_id
 _symmetry_equiv_pos_as_xyz
  1  'x, y, z'
loop_
 _atom_site_type_symbol
 _atom_site_label
 _atom_site_symmetry_multiplicity
 _atom_site_fract_x
 _atom_site_fract_y
 _atom_site_fract_z
 _atom_site_occupancy
  Zn  Zn0  1  0.31209391  0.44133086  0.77383437  1.0
  Zn  Zn1  1  0.43874558  0.61600267  0.93646523  1.0
  Zn  Zn2  1  0.56732341  0.79090486  0.09931404  1.0
  H  H3  1  0.37547051  0.98603959  0.83941116  1.0
  H  H4  1  0.48502085  0.06658879  0.77175726  1.0
  H  H5  1  0.77815592  0.07637814  0.77263618  1.0
  H  H6  1  0.85762552  0.99645964  0.83789920  1.0
  H  H7  1  0.84757401  0.46121152  0.89409969  1.0
  H  H8  1  0.77590744  0.35772792  0.80552644  1.0
  H  H9  1  0.03549349  0.77122199  0.97879591  1.0
  H  H10  1  0.10468370  0.87439700  0.06739378  1.0
  H  H11  1  0.50272645  0.25053127  0.03396864  1.0
  H  H12  1  0.39337565  0.16870653  0.10155257  1.0
  H  H13  1  0.09845530  0.15247794  0.10012061  1.0
  H  H14  1  0.01646133  0.23123012  0.03519374  1.0
  H  H15  1  0.00249231  0.16590049  0.68716906  1.0
  H  H16  1  0.87644567  0.04326275  0.56174480  1.0
  H  H17  1  0.32302720  0.45672809  0.51477072  1.0
  H  H18  1  0.42763236  0.56453097  0.64421262  1.0
  H  H19  1  0.10975737  0.25864529  0.41905469  1.0
  H  H20  1  0.79325870  0.96486952  0.45324064  1.0
  H  H21  1  0.58358274  0.76204367  0.35910087  1.0
  H  H22  1  0.46766652  0.65910172  0.22973899  1.0
  H  H23  1  0.87708209  0.06947367  0.18413016  1.0
  H  H24  1  0.01251521  0.18892615  0.30913183  1.0
  H  H25  1  0.61409208  0.95192878  0.89688241  1.0
  H  H26  1  0.89115134  0.22899159  0.92890472  1.0
  H  H27  1  0.60452063  0.22563741  0.92710347  1.0
  H  H28  1  0.98789689  0.00134932  0.94372556  1.0
  H  H29  1  0.26130449  0.27996587  0.97598428  1.0
  H  H30  1  0.27697568  0.00889328  0.94632055  1.0
  C  C31  1  0.50359737  0.33477274  0.85718512  1.0
  C  C32  1  0.59725895  0.23566291  0.87162850  1.0
  C  C33  1  0.50317965  0.05795328  0.82729561  1.0
  C  C34  1  0.60609629  0.96553167  0.84198030  1.0
  C  C35  1  0.51220176  0.78980613  0.79845131  1.0
  C  C36  1  0.78665100  0.06539921  0.82794487  1.0
  C  C37  1  0.88106222  0.24090823  0.87354977  1.0
  C  C38  1  0.06339883  0.34684980  0.86330382  1.0
  C  C39  1  0.78118034  0.33687110  0.85978086  1.0
  C  C40  1  0.81522408  0.88216805  0.00905238  1.0
  C  C41  1  0.99753293  0.98903260  0.99902511  1.0
  C  C42  1  0.09963641  0.89537660  0.01315506  1.0
  C  C43  1  0.28381015  0.99902910  0.00180916  1.0
  C  C44  1  0.37841987  0.90080335  0.01651487  1.0
  C  C45  1  0.37521323  0.17678816  0.04595271  1.0
  C  C46  1  0.26964576  0.26658130  0.03091951  1.0
  C  C47  1  0.36186784  0.44231416  0.07436298  1.0
  C  C48  1  0.08957477  0.16425049  0.04488679  1.0
  C  C49  1  0.06853575  0.22461394  0.64665124  1.0
  C  C50  1  0.99990434  0.15811865  0.57654616  1.0
  C  C51  1  0.08960983  0.23995726  0.52630023  1.0
  C  C52  1  0.24774041  0.38771675  0.55117827  1.0
  C  C53  1  0.30845625  0.44792038  0.62230939  1.0
  C  C54  1  0.02607742  0.18103771  0.45150173  1.0
  C  C55  1  0.87588714  0.04300894  0.42063463  1.0
  C  C56  1  0.80902936  0.98503048  0.34598104  1.0
  C  C57  1  0.65285569  0.83461840  0.32206217  1.0
  C  C58  1  0.58606238  0.77691050  0.25114008  1.0
  C  C59  1  0.81694165  0.00707605  0.22518118  1.0
  C  C60  1  0.89127553  0.07149090  0.29505078  1.0
  N  N61  1  0.22011457  0.36758224  0.66929619  1.0
  N  N62  1  0.66675591  0.86215341  0.20344781  1.0
  O  O63  1  0.45318596  0.33291861  0.79259043  1.0
  O  O64  1  0.48324537  0.41248148  0.90854051  1.0
  O  O65  1  0.51170539  0.76265933  0.73533818  1.0
  O  O66  1  0.42658416  0.66639186  0.83119887  1.0
  O  O67  1  0.09117857  0.31596044  0.80262339  1.0
  O  O68  1  0.17169617  0.45788850  0.91400548  1.0
  O  O69  1  0.70591916  0.77366163  0.95788900  1.0
  O  O70  1  0.78844402  0.91061622  0.07014510  1.0
  O  O71  1  0.39418277  0.81902283  0.96516057  1.0
  O  O72  1  0.43304452  0.90642505  0.08112499  1.0
  O  O73  1  0.44874324  0.56571805  0.04187090  1.0
  O  O74  1  0.36044561  0.46920401  0.13729017  1.0
