# generated using pymatgen
data_Zn4H11C28S2Br2ClO13
_symmetry_space_group_name_H-M   'P 1'
_cell_length_a   18.54570041
_cell_length_b   19.71804533
_cell_length_c   32.75354555
_cell_angle_alpha   85.97450998
_cell_angle_beta   73.62934508
_cell_angle_gamma   62.07729351
_symmetry_Int_Tables_number   1
_chemical_formula_structural   Zn4H11C28S2Br2ClO13
_chemical_formula_sum   'Zn16 H44 C112 S8 Br8 Cl4 O52'
_cell_volume   10127.00638884
_cell_formula_units_Z   4
loop_
 _symmetry_equiv_pos_site_id
 _symmetry_equiv_pos_as_xyz
  1  'x, y, z'
loop_
 _atom_site_type_symbol
 _atom_site_label
 _atom_site_symmetry_multiplicity
 _atom_site_fract_x
 _atom_site_fract_y
 _atom_site_fract_z
 _atom_site_occupancy
  Zn  Zn0  1  0.87299563  0.55465594  0.51857450  1.0
  Zn  Zn1  1  0.03868604  0.48390329  0.43864345  1.0
  Zn  Zn2  1  0.04384977  0.39842944  0.52361784  1.0
  Zn  Zn3  1  0.04474122  0.56234090  0.51786327  1.0
  Zn  Zn4  1  0.62591735  0.19088188  0.73249090  1.0
  Zn  Zn5  1  0.46424229  0.34992566  0.72535403  1.0
  Zn  Zn6  1  0.45605605  0.26618634  0.81261600  1.0
  Zn  Zn7  1  0.45451584  0.19243484  0.72868861  1.0
  Zn  Zn8  1  0.46207436  0.76428731  0.31278835  1.0
  Zn  Zn9  1  0.45368484  0.69113822  0.23164386  1.0
  Zn  Zn10  1  0.62573434  0.69357230  0.22926467  1.0
  Zn  Zn11  1  0.45660277  0.85138938  0.22623110  1.0
  Zn  Zn12  1  0.03731570  0.89901882  0.02408912  1.0
  Zn  Zn13  1  0.04941462  0.05757967  0.01893849  1.0
  Zn  Zn14  1  0.87601822  0.05847085  0.01970599  1.0
  Zn  Zn15  1  0.03766034  0.98525728  0.93735546  1.0
  H  H16  1  0.80549106  0.96401333  0.65507653  1.0
  H  H17  1  0.31190400  0.97488720  0.40212267  1.0
  H  H18  1  0.81155320  0.24258669  0.65403764  1.0
  H  H19  1  0.54550516  0.48483489  0.62008290  1.0
  H  H20  1  0.55113367  0.52507381  0.66542489  1.0
  H  H21  1  0.65203061  0.56851891  0.61708581  1.0
  H  H22  1  0.64634827  0.52833822  0.57177918  1.0
  H  H23  1  0.29391285  0.60310642  0.29601147  1.0
  H  H24  1  0.34973122  0.67301876  0.43526308  1.0
  H  H25  1  0.25941044  0.76140169  0.43249218  1.0
  H  H26  1  0.16220455  0.71134347  0.47772247  1.0
  H  H27  1  0.25233990  0.62302220  0.48056209  1.0
  H  H28  1  0.80894955  0.60220624  0.29517345  1.0
  H  H29  1  0.54838982  0.76164096  0.43072822  1.0
  H  H30  1  0.54268261  0.67363087  0.43331606  1.0
  H  H31  1  0.64321926  0.62323561  0.47937185  1.0
  H  H32  1  0.64905620  0.71118632  0.47672713  1.0
  H  H33  1  0.30833097  0.45673972  0.64637168  1.0
  H  H34  1  0.32840449  0.18020134  0.62961139  1.0
  H  H35  1  0.23773500  0.22088813  0.67503177  1.0
  H  H36  1  0.14213305  0.27423123  0.62635083  1.0
  H  H37  1  0.23296434  0.23357467  0.58109019  1.0
  H  H38  1  0.18843475  0.65916491  0.96284277  1.0
  H  H39  1  0.69027457  0.14731495  0.95555365  1.0
  H  H40  1  0.95440089  0.07814366  0.81647246  1.0
  H  H41  1  0.94955561  0.98970947  0.81905560  1.0
  H  H42  1  0.84775981  0.03992430  0.77368543  1.0
  H  H43  1  0.85255167  0.12832976  0.77118943  1.0
  H  H44  1  0.19211885  0.05230185  0.84499474  1.0
  H  H45  1  0.17153002  0.21561408  0.97527015  1.0
  H  H46  1  0.26252382  0.12747268  0.97749188  1.0
  H  H47  1  0.35756666  0.17412699  0.92645175  1.0
  H  H48  1  0.26652289  0.26216741  0.92433029  1.0
  H  H49  1  0.92816085  0.28357516  0.09459422  1.0
  H  H50  1  0.19253081  0.79449027  0.10306263  1.0
  H  H51  1  0.26153632  0.03142388  0.07471682  1.0
  H  H52  1  0.17054144  0.07176083  0.12001587  1.0
  H  H53  1  0.26564002  0.01890946  0.16871208  1.0
  H  H54  1  0.35668357  0.97869369  0.12351832  1.0
  H  H55  1  0.69048223  0.00649747  0.09627730  1.0
  H  H56  1  0.95007151  0.72312452  0.08526460  1.0
  H  H57  1  0.95479099  0.76350154  0.13085757  1.0
  H  H58  1  0.85296366  0.72072646  0.17860364  1.0
  H  H59  1  0.84850192  0.67994657  0.13311436  1.0
  C  C60  1  0.86271524  0.56734676  0.43048799  1.0
  C  C61  1  0.12484249  0.31499932  0.43881986  1.0
  C  C62  1  0.86564343  0.42756819  0.56841302  1.0
  C  C63  1  0.13893815  0.43508265  0.56807699  1.0
  C  C64  1  0.87208263  0.68438092  0.56051416  1.0
  C  C65  1  0.13767966  0.56889767  0.43070728  1.0
  C  C66  1  0.63974055  0.31743411  0.68138812  1.0
  C  C67  1  0.37658013  0.43510518  0.81040914  1.0
  C  C68  1  0.63388954  0.18190539  0.82071446  1.0
  C  C69  1  0.36110641  0.18072061  0.81704271  1.0
  C  C70  1  0.62584382  0.06534299  0.68840422  1.0
  C  C71  1  0.36304630  0.31911598  0.68051034  1.0
  C  C72  1  0.36282576  0.68151162  0.32016187  1.0
  C  C73  1  0.62360034  0.56569829  0.18861319  1.0
  C  C74  1  0.63741471  0.68169237  0.31877175  1.0
  C  C75  1  0.63439065  0.82106574  0.18035718  1.0
  C  C76  1  0.37532100  0.93334368  0.31219674  1.0
  C  C77  1  0.36134449  0.81706068  0.18115450  1.0
  C  C78  1  0.13814635  0.93148932  0.06855666  1.0
  C  C79  1  0.88051786  0.18425996  0.06144004  1.0
  C  C80  1  0.86211040  0.93113919  0.06913942  1.0
  C  C81  1  0.86197541  0.06932031  0.93126826  1.0
  C  C82  1  0.12192792  0.81527688  0.93913173  1.0
  C  C83  1  0.13839370  0.06857408  0.93096731  1.0
  C  C84  1  0.73388965  0.80370856  0.60109638  1.0
  C  C85  1  0.76169687  0.94635800  0.64915151  1.0
  C  C86  1  0.82168308  0.75875297  0.58579369  1.0
  C  C87  1  0.67424493  0.99031552  0.66374020  1.0
  C  C88  1  0.78366043  0.87819969  0.62618930  1.0
  C  C89  1  0.71216312  0.87192995  0.62406296  1.0
  C  C90  1  0.20236829  0.22631899  0.36921103  1.0
  C  C91  1  0.29891448  0.02134739  0.38084205  1.0
  C  C92  1  0.17416545  0.24100763  0.41339626  1.0
  C  C93  1  0.32616595  0.00826782  0.33688681  1.0
  C  C94  1  0.25371128  0.10101251  0.39281586  1.0
  C  C95  1  0.24778010  0.14642789  0.35752487  1.0
  C  C96  1  0.69698810  0.34538101  0.65294025  1.0
  C  C97  1  0.81180950  0.39645655  0.59743178  1.0
  C  C98  1  0.66725098  0.41726842  0.63624517  1.0
  C  C99  1  0.84145910  0.32341275  0.61492643  1.0
  C  C100  1  0.72312551  0.44112602  0.60956218  1.0
  C  C101  1  0.78579953  0.29908650  0.64155273  1.0
  C  C102  1  0.58870755  0.49126231  0.63469255  1.0
  C  C103  1  0.65180800  0.51849105  0.60444573  1.0
  C  C104  1  0.30602866  0.65298453  0.34838508  1.0
  C  C105  1  0.19437583  0.59623817  0.40102077  1.0
  C  C106  1  0.27994527  0.66415673  0.39272406  1.0
  C  C107  1  0.22132770  0.58515861  0.35571559  1.0
  C  C108  1  0.22611636  0.63660200  0.41767649  1.0
  C  C109  1  0.27517504  0.61269642  0.33056647  1.0
  C  C110  1  0.28581184  0.69849978  0.43084844  1.0
  C  C111  1  0.22489107  0.66721474  0.45921509  1.0
  C  C112  1  0.69439282  0.65281102  0.34712227  1.0
  C  C113  1  0.80888146  0.59513590  0.40051053  1.0
  C  C114  1  0.66453002  0.66393186  0.39146606  1.0
  C  C115  1  0.83876549  0.58417456  0.35519745  1.0
  C  C116  1  0.72025689  0.63589652  0.41679193  1.0
  C  C117  1  0.78314554  0.61210795  0.32969318  1.0
  C  C118  1  0.58592288  0.69871911  0.42923752  1.0
  C  C119  1  0.64887575  0.66713300  0.45806409  1.0
  C  C120  1  0.30558688  0.34860991  0.65242586  1.0
  C  C121  1  0.19563470  0.40916282  0.59672047  1.0
  C  C122  1  0.27158536  0.30671006  0.63966185  1.0
  C  C123  1  0.23046979  0.45151025  0.61011103  1.0
  C  C124  1  0.21878480  0.33643276  0.61284436  1.0
  C  C125  1  0.28328476  0.42209239  0.63698507  1.0
  C  C126  1  0.26737123  0.23159443  0.64287117  1.0
  C  C127  1  0.20757982  0.26499859  0.61248174  1.0
  C  C128  1  0.29835237  0.58399015  0.82033679  1.0
  C  C129  1  0.20098675  0.66827142  0.92899134  1.0
  C  C130  1  0.32732317  0.51027765  0.83481265  1.0
  C  C131  1  0.17233651  0.74087877  0.91381434  1.0
  C  C132  1  0.24702422  0.61076557  0.89492190  1.0
  C  C133  1  0.25239129  0.64125632  0.85462152  1.0
  C  C134  1  0.80439080  0.09764357  0.90319923  1.0
  C  C135  1  0.68828684  0.15450027  0.85051673  1.0
  C  C136  1  0.83341725  0.08672030  0.85884860  1.0
  C  C137  1  0.65933265  0.16495152  0.89583650  1.0
  C  C138  1  0.77695693  0.11444122  0.83387312  1.0
  C  C139  1  0.71557791  0.13761805  0.92100503  1.0
  C  C140  1  0.91154641  0.05260484  0.82077251  1.0
  C  C141  1  0.84781727  0.08399369  0.79237440  1.0
  C  C142  1  0.19502745  0.09687597  0.90222607  1.0
  C  C143  1  0.30407520  0.15107583  0.84420830  1.0
  C  C144  1  0.22853025  0.13737305  0.91689509  1.0
  C  C145  1  0.26943065  0.10978742  0.82955532  1.0
  C  C146  1  0.28087687  0.16316357  0.88865583  1.0
  C  C147  1  0.21705471  0.08373275  0.85769651  1.0
  C  C148  1  0.23262851  0.17022025  0.95610752  1.0
  C  C149  1  0.29208794  0.19942568  0.92420669  1.0
  C  C150  1  0.64382728  0.44663820  0.14866620  1.0
  C  C151  1  0.86063826  0.30216544  0.10069017  1.0
  C  C152  1  0.67261773  0.49121720  0.16356056  1.0
  C  C153  1  0.83027970  0.25899742  0.08634338  1.0
  C  C154  1  0.79268643  0.37088320  0.12348568  1.0
  C  C155  1  0.71236400  0.37807129  0.12583258  1.0
  C  C156  1  0.19496327  0.90270856  0.09691721  1.0
  C  C157  1  0.30449062  0.84296728  0.15269728  1.0
  C  C158  1  0.22824141  0.94513957  0.10983305  1.0
  C  C159  1  0.27023413  0.80009249  0.13928405  1.0
  C  C160  1  0.28079035  0.91581424  0.13674427  1.0
  C  C161  1  0.21744261  0.82929499  0.11239973  1.0
  C  C162  1  0.23178049  0.02055819  0.10680051  1.0
  C  C163  1  0.29136765  0.98752018  0.13729653  1.0
  C  C164  1  0.80466214  0.90312014  0.09732962  1.0
  C  C165  1  0.68880093  0.85220420  0.15193629  1.0
  C  C166  1  0.83382939  0.83113432  0.11393236  1.0
  C  C167  1  0.65971681  0.92549340  0.13471180  1.0
  C  C168  1  0.77745279  0.80739252  0.14023057  1.0
  C  C169  1  0.71586365  0.94976052  0.10853338  1.0
  C  C170  1  0.91200111  0.75711122  0.11590912  1.0
  C  C171  1  0.84834760  0.73012151  0.14578922  1.0
  S  S172  1  0.87720849  0.80013067  0.59969991  1.0
  S  S173  1  0.61814336  0.94958935  0.64994584  1.0
  S  S174  1  0.20343633  0.15707956  0.44031409  1.0
  S  S175  1  0.29747724  0.09178645  0.30977973  1.0
  S  S176  1  0.29836473  0.51155025  0.89030919  1.0
  S  S177  1  0.20097142  0.74014224  0.85841789  1.0
  S  S178  1  0.78329223  0.44903054  0.14938605  1.0
  S  S179  1  0.71986704  0.30097421  0.10023061  1.0
  Br  Br180  1  0.95896553  0.25050645  0.60461970  1.0
  Br  Br181  1  0.18677694  0.53389470  0.32404070  1.0
  Br  Br182  1  0.95608442  0.53123647  0.32387882  1.0
  Br  Br183  1  0.21048758  0.55200789  0.59303894  1.0
  Br  Br184  1  0.54205918  0.21632983  0.92755806  1.0
  Br  Br185  1  0.28856924  0.08612003  0.77070472  1.0
  Br  Br186  1  0.29032226  0.69972109  0.15636065  1.0
  Br  Br187  1  0.54245769  0.99880950  0.14477022  1.0
  Cl  Cl188  1  0.65810600  0.78308012  0.59421021  1.0
  Cl  Cl189  1  0.18726765  0.29263871  0.33186435  1.0
  Cl  Cl190  1  0.31312022  0.60716199  0.76847899  1.0
  Cl  Cl191  1  0.54061100  0.46793313  0.15546466  1.0
  O  O192  1  0.99820545  0.50067750  0.50104627  1.0
  O  O193  1  0.82279055  0.58179470  0.47032282  1.0
  O  O194  1  0.10103354  0.37538446  0.41843193  1.0
  O  O195  1  0.94586985  0.38622659  0.55809975  1.0
  O  O196  1  0.94289402  0.53192913  0.41461493  1.0
  O  O197  1  0.82493458  0.49470585  0.55622080  1.0
  O  O198  1  0.11004130  0.31200584  0.47940966  1.0
  O  O199  1  0.11826162  0.38565090  0.55900346  1.0
  O  O200  1  0.95291446  0.65826584  0.55057642  1.0
  O  O201  1  0.11571386  0.50233223  0.55509960  1.0
  O  O202  1  0.83214914  0.65295312  0.55085383  1.0
  O  O203  1  0.11776813  0.52501796  0.41514626  1.0
  O  O204  1  0.11404021  0.59185077  0.47013966  1.0
  O  O205  1  0.50100450  0.24959351  0.74999681  1.0
  O  O206  1  0.67445703  0.25081902  0.69504821  1.0
  O  O207  1  0.40000940  0.43497529  0.76990183  1.0
  O  O208  1  0.55379467  0.22031630  0.83623585  1.0
  O  O209  1  0.56010510  0.36345897  0.68955916  1.0
  O  O210  1  0.67418185  0.16386456  0.78103875  1.0
  O  O211  1  0.39139373  0.37616673  0.83247495  1.0
  O  O212  1  0.38012531  0.22091909  0.83694488  1.0
  O  O213  1  0.54488149  0.09584286  0.69650569  1.0
  O  O214  1  0.38667690  0.16392970  0.77707596  1.0
  O  O215  1  0.66807061  0.09313893  0.69934600  1.0
  O  O216  1  0.38877489  0.36377600  0.69035189  1.0
  O  O217  1  0.38175744  0.25110520  0.69221815  1.0
  O  O218  1  0.50077248  0.75039255  0.25024811  1.0
  O  O219  1  0.38724786  0.71851659  0.33866176  1.0
  O  O220  1  0.54291671  0.59400011  0.20000822  1.0
  O  O221  1  0.67242527  0.66798266  0.27863715  1.0
  O  O222  1  0.38206983  0.66666667  0.28008886  1.0
  O  O223  1  0.55779829  0.71798163  0.33762116  1.0
  O  O224  1  0.66694779  0.59539341  0.19679898  1.0
  O  O225  1  0.67444908  0.75300294  0.19167345  1.0
  O  O226  1  0.39220179  0.93525266  0.27159841  1.0
  O  O227  1  0.55424249  0.86320094  0.19110321  1.0
  O  O228  1  0.39649134  0.87363009  0.33342410  1.0
  O  O229  1  0.38691634  0.74878569  0.19274968  1.0
  O  O230  1  0.38022595  0.86696293  0.19147661  1.0
  O  O231  1  0.00074501  0.99999234  0.99996890  1.0
  O  O232  1  0.11197216  0.88681464  0.05919865  1.0
  O  O233  1  0.96137156  0.15533701  0.05154420  1.0
  O  O234  1  0.82734915  0.99902133  0.05695504  1.0
  O  O235  1  0.12056696  0.99890263  0.05614018  1.0
  O  O236  1  0.94170330  0.88429949  0.05957400  1.0
  O  O237  1  0.83789700  0.15512868  0.05196966  1.0
  O  O238  1  0.82721814  0.08491061  0.97134874  1.0
  O  O239  1  0.10223938  0.87529291  0.91790966  1.0
  O  O240  1  0.94156368  0.03163522  0.91253026  1.0
  O  O241  1  0.10245411  0.81327737  0.97965094  1.0
  O  O242  1  0.12059437  0.08408828  0.97089573  1.0
  O  O243  1  0.11255765  0.03169398  0.91342688  1.0
