# generated using pymatgen
data_Zn2H16C33I4(N3O5)2
_symmetry_space_group_name_H-M   'P 1'
_cell_length_a   9.74113738
_cell_length_b   11.05215660
_cell_length_c   19.13504008
_cell_angle_alpha   80.90297488
_cell_angle_beta   83.94329439
_cell_angle_gamma   81.26398461
_symmetry_Int_Tables_number   1
_chemical_formula_structural   Zn2H16C33I4(N3O5)2
_chemical_formula_sum   'Zn2 H16 C33 I4 N6 O10'
_cell_volume   2003.55597350
_cell_formula_units_Z   1
loop_
 _symmetry_equiv_pos_site_id
 _symmetry_equiv_pos_as_xyz
  1  'x, y, z'
loop_
 _atom_site_type_symbol
 _atom_site_label
 _atom_site_symmetry_multiplicity
 _atom_site_fract_x
 _atom_site_fract_y
 _atom_site_fract_z
 _atom_site_occupancy
  Zn  Zn0  1  0.64542500  0.48546580  0.48839139  1.0
  Zn  Zn1  1  0.34890322  0.52527252  0.50624813  1.0
  H  H2  1  0.73420372  0.40428816  0.71558937  1.0
  H  H3  1  0.83767950  0.83571271  0.51032118  1.0
  H  H4  1  0.80195558  0.88533258  0.41969863  1.0
  H  H5  1  0.83780860  0.05697564  0.52611184  1.0
  H  H6  1  0.84787125  0.32282925  0.62172225  1.0
  H  H7  1  0.94123414  0.22676754  0.55967237  1.0
  H  H8  1  0.72356301  0.36470074  0.84791024  1.0
  H  H9  1  0.17014968  0.27770452  0.59260046  1.0
  H  H10  1  0.29270297  0.52803033  0.85822404  1.0
  H  H11  1  0.30388203  0.56360522  0.72514152  1.0
  H  H12  1  0.70562313  0.37407454  0.15275006  1.0
  H  H13  1  0.70277182  0.41279297  0.27866386  1.0
  H  H14  1  0.25804317  0.50874097  0.28800503  1.0
  H  H15  1  0.25958311  0.47111593  0.16210649  1.0
  H  H16  1  0.28099034  0.12731811  0.54999411  1.0
  H  H17  1  0.17117515  0.78078681  0.63378499  1.0
  C  C18  1  0.49703047  0.26483484  0.51827864  1.0
  C  C19  1  0.51776995  0.48252306  0.71252268  1.0
  C  C20  1  0.48469306  0.40229267  0.07529167  1.0
  C  C21  1  0.49661301  0.41342095  0.93900882  1.0
  C  C22  1  0.60820284  0.40427387  0.18253172  1.0
  C  C23  1  0.60681329  0.42577883  0.25219849  1.0
  C  C24  1  0.48069131  0.46401763  0.29025067  1.0
  C  C25  1  0.35539020  0.47975068  0.25772668  1.0
  C  C26  1  0.35621677  0.45897308  0.18789688  1.0
  C  C27  1  0.48283869  0.42117612  0.14958534  1.0
  C  C28  1  0.62103751  0.05144912  0.50176749  1.0
  C  C29  1  0.51814968  0.49403372  0.63341961  1.0
  C  C30  1  0.49984962  0.12914239  0.51908535  1.0
  C  C31  1  0.37883678  0.07169996  0.53531088  1.0
  C  C32  1  0.37861062  0.94547051  0.53390214  1.0
  C  C33  1  0.50065798  0.86945216  0.51090465  1.0
  C  C34  1  0.62028262  0.92672978  0.49640071  1.0
  C  C35  1  0.77482273  0.90423973  0.47436845  1.0
  C  C36  1  0.77629035  0.04263266  0.48420373  1.0
  C  C37  1  0.06337812  0.45183768  0.53687153  1.0
  C  C38  1  0.05749386  0.60942262  0.44555285  1.0
  C  C39  1  0.92846533  0.57794134  0.42858111  1.0
  C  C40  1  0.50033976  0.74006199  0.49725958  1.0
  C  C41  1  0.93584960  0.42538487  0.52231578  1.0
  C  C42  1  0.93337883  0.31547269  0.57994246  1.0
  C  C43  1  0.07839025  0.34715920  0.59746601  1.0
  C  C44  1  0.48127172  0.48715025  0.36516024  1.0
  C  C45  1  0.63730976  0.42988781  0.74707050  1.0
  C  C46  1  0.63199038  0.40877028  0.82082748  1.0
  C  C47  1  0.50642046  0.44142605  0.86130427  1.0
  C  C48  1  0.38869136  0.50054996  0.82656450  1.0
  C  C49  1  0.39463877  0.52030730  0.75291945  1.0
  C  C50  1  0.24463484  0.89688750  0.56154447  1.0
  I  I51  1  0.85390328  0.15927289  0.39054903  1.0
  I  I52  1  0.13502250  0.76558650  0.38980003  1.0
  I  I53  1  0.83938500  0.66107115  0.33525250  1.0
  I  I54  1  0.07633233  0.40072385  0.70148176  1.0
  N  N55  1  0.36876159  0.42694584  0.97491437  1.0
  N  N56  1  0.36301823  0.42216369  0.04427770  1.0
  N  N57  1  0.60599162  0.35531649  0.04164851  1.0
  N  N58  1  0.61208995  0.36173402  0.97212784  1.0
  N  N59  1  0.12770665  0.54325552  0.50019127  1.0
  N  N60  1  0.86406064  0.48773393  0.46937184  1.0
  O  O61  1  0.61553515  0.30224625  0.51296357  1.0
  O  O62  1  0.37803185  0.33116466  0.52121237  1.0
  O  O63  1  0.63603079  0.48234024  0.59745208  1.0
  O  O64  1  0.39901435  0.51259417  0.60856114  1.0
  O  O65  1  0.61838734  0.67620995  0.48554535  1.0
  O  O66  1  0.38195370  0.70537453  0.49618201  1.0
  O  O67  1  0.60001579  0.47919541  0.38903877  1.0
  O  O68  1  0.36428126  0.51288032  0.39982521  1.0
  O  O69  1  0.13059897  0.93827674  0.53992461  1.0
  O  O70  1  0.26205511  0.80881240  0.61928262  1.0
