# generated using pymatgen
data_CuSiH28C28(N2F3)2
_symmetry_space_group_name_H-M   'P 1'
_cell_length_a   7.97331496
_cell_length_b   13.73689173
_cell_length_c   13.73687868
_cell_angle_alpha   89.62963763
_cell_angle_beta   85.51374673
_cell_angle_gamma   85.51305158
_symmetry_Int_Tables_number   1
_chemical_formula_structural   CuSiH28C28(N2F3)2
_chemical_formula_sum   'Cu1 Si1 H28 C28 N4 F6'
_cell_volume   1495.37353012
_cell_formula_units_Z   1
loop_
 _symmetry_equiv_pos_site_id
 _symmetry_equiv_pos_as_xyz
  1  'x, y, z'
loop_
 _atom_site_type_symbol
 _atom_site_label
 _atom_site_symmetry_multiplicity
 _atom_site_fract_x
 _atom_site_fract_y
 _atom_site_fract_z
 _atom_site_occupancy
  Cu  Cu0  1  0.49999036  0.49999574  0.49999700  1.0
  Si  Si1  1  0.99998053  0.49999830  0.49999835  1.0
  H  H2  1  0.26026683  0.49999279  0.34340027  1.0
  H  H3  1  0.26628028  0.49998709  0.17056577  1.0
  H  H4  1  0.81244365  0.50038330  0.16501293  1.0
  H  H5  1  0.78164483  0.50023545  0.33915978  1.0
  H  H6  1  0.18753824  0.49964905  0.83497790  1.0
  H  H7  1  0.73366647  0.50029427  0.82941642  1.0
  H  H8  1  0.73969681  0.50013450  0.65658789  1.0
  H  H9  1  0.21833837  0.49974652  0.66083272  1.0
  H  H10  1  0.26028594  0.34340686  0.49987030  1.0
  H  H11  1  0.26631707  0.17057708  0.49970979  1.0
  H  H12  1  0.81244654  0.16501376  0.50034550  1.0
  H  H13  1  0.78164610  0.33915944  0.50024153  1.0
  H  H14  1  0.18754552  0.83498062  0.49960943  1.0
  H  H15  1  0.73370519  0.82942464  0.50002107  1.0
  H  H16  1  0.73972371  0.65659335  0.50001179  1.0
  H  H17  1  0.21834828  0.66083345  0.49975189  1.0
  H  H18  1  0.76679489  0.56493161  0.94489528  1.0
  H  H19  1  0.83623372  0.49929362  0.04544468  1.0
  H  H20  1  0.78349750  0.43494017  0.94437367  1.0
  H  H21  1  0.21619293  0.56501722  0.05539980  1.0
  H  H22  1  0.16380938  0.50018454  0.95454225  1.0
  H  H23  1  0.23347757  0.43502387  0.05530577  1.0
  H  H24  1  0.78379408  0.94459350  0.43498803  1.0
  H  H25  1  0.83617091  0.04545035  0.49982466  1.0
  H  H26  1  0.76649832  0.94468799  0.56498160  1.0
  H  H27  1  0.23317346  0.05509631  0.43507388  1.0
  H  H28  1  0.16374682  0.95454903  0.50071940  1.0
  H  H29  1  0.21649236  0.05562115  0.56506686  1.0
  C  C30  1  0.38142938  0.50005091  0.30095951  1.0
  C  C31  1  0.38783261  0.50005671  0.19960047  1.0
  C  C32  1  0.54208721  0.50009372  0.14061502  1.0
  C  C33  1  0.68382976  0.50023179  0.19720133  1.0
  C  C34  1  0.66964890  0.50017756  0.29853505  1.0
  C  C35  1  0.56479858  0.49998339  0.03108196  1.0
  C  C36  1  0.43518757  0.49998544  0.96890685  1.0
  C  C37  1  0.31615226  0.49978961  0.80278809  1.0
  C  C38  1  0.45789453  0.49994008  0.85937216  1.0
  C  C39  1  0.61213158  0.50008591  0.80038976  1.0
  C  C40  1  0.61853983  0.50004206  0.69903006  1.0
  C  C41  1  0.33033319  0.49982340  0.70145448  1.0
  C  C42  1  0.38144364  0.30096482  0.49995847  1.0
  C  C43  1  0.38785114  0.19960577  0.49991590  1.0
  C  C44  1  0.54209092  0.14062252  0.50005909  1.0
  C  C45  1  0.68383400  0.19720495  0.50020541  1.0
  C  C46  1  0.66965400  0.29853894  0.50016771  1.0
  C  C47  1  0.56479454  0.03108738  0.50001525  1.0
  C  C48  1  0.43518373  0.96891065  0.50001668  1.0
  C  C49  1  0.31615894  0.80279161  0.49976040  1.0
  C  C50  1  0.45790041  0.85937697  0.49990458  1.0
  C  C51  1  0.61215388  0.80039300  0.49994382  1.0
  C  C52  1  0.61856091  0.69903393  0.49994932  1.0
  C  C53  1  0.33034237  0.70145906  0.49981396  1.0
  C  C54  1  0.74653822  0.49978320  0.98971482  1.0
  C  C55  1  0.25345365  0.50006080  0.01027298  1.0
  C  C56  1  0.74653110  0.98971998  0.49994284  1.0
  C  C57  1  0.25344065  0.01027945  0.50022258  1.0
  N  N58  1  0.51975056  0.50005794  0.35088399  1.0
  N  N59  1  0.48022920  0.49994157  0.64910565  1.0
  N  N60  1  0.51975540  0.35088559  0.50005296  1.0
  N  N61  1  0.48023750  0.64910950  0.49993542  1.0
  F  F62  1  0.21623327  0.50154507  0.50153787  1.0
  F  F63  1  0.78372689  0.49845011  0.49845335  1.0
  F  F64  1  0.99996876  0.58847212  0.41152480  1.0
  F  F65  1  0.99998148  0.41153035  0.58847379  1.0
  F  F66  1  0.02722378  0.41157683  0.41157726  1.0
  F  F67  1  0.97272824  0.58842275  0.58841791  1.0
