# generated using pymatgen
data_ZnSiH8C24N12(O8F3)2
_symmetry_space_group_name_H-M   'P 1'
_cell_length_a   7.43262342
_cell_length_b   14.02798160
_cell_length_c   14.05556073
_cell_angle_alpha   90.00264366
_cell_angle_beta   89.97836024
_cell_angle_gamma   90.01238406
_symmetry_Int_Tables_number   1
_chemical_formula_structural   ZnSiH8C24N12(O8F3)2
_chemical_formula_sum   'Zn1 Si1 H8 C24 N12 O16 F6'
_cell_volume   1465.49874685
_cell_formula_units_Z   1
loop_
 _symmetry_equiv_pos_site_id
 _symmetry_equiv_pos_as_xyz
  1  'x, y, z'
loop_
 _atom_site_type_symbol
 _atom_site_label
 _atom_site_symmetry_multiplicity
 _atom_site_fract_x
 _atom_site_fract_y
 _atom_site_fract_z
 _atom_site_occupancy
  Zn  Zn0  1  0.49998485  0.50003021  0.50008220  1.0
  Si  Si1  1  0.99997795  0.50001916  0.49995080  1.0
  H  H2  1  0.74053009  0.42209541  0.33716622  1.0
  H  H3  1  0.25989418  0.57803806  0.33718330  1.0
  H  H4  1  0.74029542  0.57790010  0.66295265  1.0
  H  H5  1  0.25917537  0.42223339  0.66298821  1.0
  H  H6  1  0.73753028  0.33787133  0.58001296  1.0
  H  H7  1  0.26220165  0.33786799  0.42010486  1.0
  H  H8  1  0.73774543  0.66216734  0.41997058  1.0
  H  H9  1  0.26252127  0.66216925  0.58016426  1.0
  C  C10  1  0.63104593  0.45528253  0.29708853  1.0
  C  C11  1  0.63207182  0.45197834  0.19841352  1.0
  C  C12  1  0.50013151  0.49991219  0.14324333  1.0
  C  C13  1  0.36823687  0.54794983  0.19841808  1.0
  C  C14  1  0.36934620  0.54478849  0.29709344  1.0
  C  C15  1  0.50019776  0.49986855  0.04362652  1.0
  C  C16  1  0.49983915  0.49983472  0.95652648  1.0
  C  C17  1  0.49989331  0.49987021  0.85690967  1.0
  C  C18  1  0.63188540  0.54787205  0.80173001  1.0
  C  C19  1  0.63075192  0.54471174  0.70304953  1.0
  C  C20  1  0.36878999  0.45534377  0.70306315  1.0
  C  C21  1  0.36781254  0.45200552  0.80173871  1.0
  C  C22  1  0.62930326  0.29758195  0.54591186  1.0
  C  C23  1  0.63053215  0.19869758  0.54876741  1.0
  C  C24  1  0.49993570  0.14358191  0.49994664  1.0
  C  C25  1  0.36933999  0.19870092  0.45117822  1.0
  C  C26  1  0.37043930  0.29757914  0.45416568  1.0
  C  C27  1  0.49988723  0.04356895  0.49991162  1.0
  C  C28  1  0.49999111  0.95647221  0.49988425  1.0
  C  C29  1  0.49999375  0.85645924  0.49991681  1.0
  C  C30  1  0.63053662  0.80134867  0.45104061  1.0
  C  C31  1  0.62949572  0.70246489  0.45407140  1.0
  C  C32  1  0.37073751  0.70246276  0.54601265  1.0
  C  C33  1  0.36951198  0.80134370  0.54886659  1.0
  N  N34  1  0.50019834  0.50006087  0.34571765  1.0
  N  N35  1  0.49975255  0.50005799  0.65443039  1.0
  N  N36  1  0.49983668  0.34613065  0.50008436  1.0
  N  N37  1  0.50016531  0.65391907  0.50008857  1.0
  N  N38  1  0.22198469  0.60322127  0.15303353  1.0
  N  N39  1  0.77822838  0.39666630  0.15295361  1.0
  N  N40  1  0.22154617  0.39674427  0.84718755  1.0
  N  N41  1  0.77833752  0.60304417  0.84710499  1.0
  N  N42  1  0.22479888  0.15328131  0.39477347  1.0
  N  N43  1  0.77522850  0.15328374  0.60504127  1.0
  N  N44  1  0.22492637  0.84674518  0.60528121  1.0
  N  N45  1  0.77494017  0.84677493  0.39450715  1.0
  O  O46  1  0.19722334  0.59083974  0.06693956  1.0
  O  O47  1  0.13545332  0.65763229  0.20497240  1.0
  O  O48  1  0.80113882  0.40798871  0.06655729  1.0
  O  O49  1  0.86648422  0.34326363  0.20506380  1.0
  O  O50  1  0.19926851  0.40767457  0.93367610  1.0
  O  O51  1  0.13254905  0.34374955  0.79497680  1.0
  O  O52  1  0.80271178  0.59089186  0.93325677  1.0
  O  O53  1  0.86544382  0.65715414  0.79510097  1.0
  O  O54  1  0.18574580  0.06995676  0.41435065  1.0
  O  O55  1  0.15415343  0.20297218  0.33242420  1.0
  O  O56  1  0.81477140  0.07011964  0.58512013  1.0
  O  O57  1  0.84553740  0.20284948  0.66762979  1.0
  O  O58  1  0.18538142  0.92992262  0.58544300  1.0
  O  O59  1  0.15470627  0.79715454  0.66789794  1.0
  O  O60  1  0.81367540  0.93018947  0.41386833  1.0
  O  O61  1  0.84581814  0.79700350  0.33225660  1.0
  F  F62  1  0.76714197  0.49957444  0.50051634  1.0
  F  F63  1  0.23281302  0.50047955  0.49943462  1.0
  F  F64  1  0.99866677  0.58567448  0.41428645  1.0
  F  F65  1  0.00095995  0.41432104  0.58557419  1.0
  F  F66  1  0.00004109  0.41413169  0.41451528  1.0
  F  F67  1  0.00018746  0.58591446  0.58539181  1.0
