# generated using pymatgen
data_Zn6H23C62I4(O8F3)3
_symmetry_space_group_name_H-M   'P 1'
_cell_length_a   18.47142257
_cell_length_b   18.79993060
_cell_length_c   18.84702523
_cell_angle_alpha   109.93076554
_cell_angle_beta   108.86742290
_cell_angle_gamma   109.07754879
_symmetry_Int_Tables_number   1
_chemical_formula_structural   Zn6H23C62I4(O8F3)3
_chemical_formula_sum   'Zn6 H23 C62 I4 O24 F9'
_cell_volume   5071.02689655
_cell_formula_units_Z   1
loop_
 _symmetry_equiv_pos_site_id
 _symmetry_equiv_pos_as_xyz
  1  'x, y, z'
loop_
 _atom_site_type_symbol
 _atom_site_label
 _atom_site_symmetry_multiplicity
 _atom_site_fract_x
 _atom_site_fract_y
 _atom_site_fract_z
 _atom_site_occupancy
  Zn  Zn0  1  0.00257246  0.44261673  0.94019657  1.0
  Zn  Zn1  1  0.00109864  0.56572504  0.06685321  1.0
  Zn  Zn2  1  0.56180998  0.00070345  0.05667846  1.0
  Zn  Zn3  1  0.43150673  0.99801979  0.93425116  1.0
  Zn  Zn4  1  0.43978479  0.43660001  0.50459145  1.0
  Zn  Zn5  1  0.56382320  0.56548495  0.50500811  1.0
  H  H6  1  0.73322029  0.39725355  0.57684440  1.0
  H  H7  1  0.75639935  0.34270863  0.71587296  1.0
  H  H8  1  0.84286022  0.39966125  0.70010406  1.0
  H  H9  1  0.28196636  0.72021340  0.13219390  1.0
  H  H10  1  0.40572180  0.84016071  0.14811362  1.0
  H  H11  1  0.20551343  0.74929295  0.82034704  1.0
  H  H12  1  0.26453110  0.69281671  0.80104773  1.0
  H  H13  1  0.14921959  0.56220067  0.78653467  1.0
  H  H14  1  0.22689550  0.64618078  0.31875788  1.0
  H  H15  1  0.76811470  0.26831388  0.81618182  1.0
  H  H16  1  0.21008110  0.39845961  0.05441873  1.0
  H  H17  1  0.33008234  0.11613690  0.10877581  1.0
  H  H18  1  0.67257190  0.43211404  0.35914524  1.0
  H  H19  1  0.68413300  0.37365000  0.41646737  1.0
  H  H20  1  0.63846485  0.13969636  0.67994239  1.0
  H  H21  1  0.43614962  0.83521456  0.69128080  1.0
  H  H22  1  0.44460274  0.71559409  0.59228578  1.0
  H  H23  1  0.52061877  0.61339537  0.82379956  1.0
  H  H24  1  0.40985860  0.68220473  0.88478339  1.0
  H  H25  1  0.52623118  0.74325913  0.93061588  1.0
  H  H26  1  0.78496305  0.23521856  0.12342565  1.0
  H  H27  1  0.84306407  0.66585352  0.92853572  1.0
  H  H28  1  0.64693993  0.34247500  0.59428357  1.0
  C  C29  1  0.89629210  0.54201595  0.91753130  1.0
  C  C30  1  0.74206128  0.22007226  0.89977274  1.0
  C  C31  1  0.81792866  0.29253935  0.97843539  1.0
  C  C32  1  0.83147496  0.29389517  0.05549310  1.0
  C  C33  1  0.77250412  0.22881300  0.06037917  1.0
  C  C34  1  0.69765990  0.15883091  0.98589899  1.0
  C  C35  1  0.79426314  0.48135560  0.76209700  1.0
  C  C36  1  0.83495852  0.54674349  0.84786607  1.0
  C  C37  1  0.81316966  0.61369004  0.86240719  1.0
  C  C38  1  0.75384088  0.61371458  0.79351006  1.0
  C  C39  1  0.71243276  0.54702579  0.70677354  1.0
  C  C40  1  0.88390415  0.36467680  0.97858584  1.0
  C  C41  1  0.73454376  0.48142139  0.69442850  1.0
  C  C42  1  0.71480500  0.39505113  0.62627211  1.0
  C  C43  1  0.78343915  0.39562857  0.70329987  1.0
  C  C44  1  0.20805858  0.66511286  0.92259839  1.0
  C  C45  1  0.20697664  0.65783416  0.99329834  1.0
  C  C46  1  0.28033111  0.72296581  0.07487113  1.0
  C  C47  1  0.34968138  0.79124361  0.08399052  1.0
  C  C48  1  0.34668355  0.80137539  0.01257670  1.0
  C  C49  1  0.27403610  0.73654399  0.93198705  1.0
  C  C50  1  0.22923376  0.70738565  0.83613571  1.0
  C  C51  1  0.11810937  0.52748385  0.14274497  1.0
  C  C52  1  0.15702007  0.62523507  0.82610711  1.0
  C  C53  1  0.21840288  0.46790950  0.18187973  1.0
  C  C54  1  0.19316608  0.53056760  0.20710228  1.0
  C  C55  1  0.24339859  0.59565060  0.29441365  1.0
  C  C56  1  0.31506387  0.59640253  0.35108358  1.0
  C  C57  1  0.34068868  0.53362400  0.32736997  1.0
  C  C58  1  0.28825569  0.46902529  0.24055648  1.0
  C  C59  1  0.27616417  0.38765684  0.17331127  1.0
  C  C60  1  0.19878833  0.38857507  0.10490241  1.0
  C  C61  1  0.47275731  0.11383737  0.09024514  1.0
  C  C62  1  0.12997253  0.59092765  0.98591504  1.0
  C  C63  1  0.63091449  0.10102798  0.99854834  1.0
  C  C64  1  0.45653372  0.87212065  0.85279563  1.0
  C  C65  1  0.41283763  0.88012761  0.02237341  1.0
  C  C66  1  0.46030742  0.58478121  0.60892377  1.0
  C  C67  1  0.64358540  0.53873946  0.63053327  1.0
  C  C68  1  0.47883123  0.36541916  0.38452836  1.0
  C  C69  1  0.41164023  0.53024609  0.39084282  1.0
  C  C70  1  0.54916582  0.24934526  0.23480882  1.0
  C  C71  1  0.47158883  0.17847966  0.16206715  1.0
  C  C72  1  0.39368509  0.16929500  0.16330431  1.0
  C  C73  1  0.72391233  0.21539524  0.81857010  1.0
  C  C74  1  0.39628357  0.22694910  0.23582652  1.0
  C  C75  1  0.47414731  0.30015145  0.30861990  1.0
  C  C76  1  0.55008586  0.30944023  0.30356133  1.0
  C  C77  1  0.64924403  0.36770762  0.35346477  1.0
  C  C78  1  0.64842090  0.29861090  0.27694130  1.0
  C  C79  1  0.45164517  0.72821986  0.80254371  1.0
  C  C80  1  0.44727999  0.79403491  0.78626355  1.0
  C  C81  1  0.44022417  0.78538583  0.70679311  1.0
  C  C82  1  0.44407598  0.71740707  0.65050747  1.0
  C  C83  1  0.44881044  0.65110687  0.66739007  1.0
  C  C84  1  0.65277194  0.14404314  0.74256448  1.0
  C  C85  1  0.44926285  0.65703475  0.74329342  1.0
  C  C86  1  0.46167778  0.61991711  0.80276040  1.0
  C  C87  1  0.46360038  0.69963814  0.86977729  1.0
  C  C88  1  0.59892082  0.07372143  0.74537931  1.0
  C  C89  1  0.61396636  0.07627403  0.82306978  1.0
  C  C90  1  0.68270457  0.15070016  0.90332126  1.0
  I  I91  1  0.02441474  0.60655282  0.77485809  1.0
  I  I92  1  0.38786127  0.40172454  0.15131683  1.0
  I  I93  1  0.35468105  0.49386467  0.75828266  1.0
  I  I94  1  0.72097361  0.71371902  0.82244270  1.0
  O  O95  1  0.91665385  0.48322531  0.89213020  1.0
  O  O96  1  0.41410839  0.08232087  0.01197406  1.0
  O  O97  1  0.65950033  0.07656895  0.05261955  1.0
  O  O98  1  0.55247720  0.08489813  0.95915423  1.0
  O  O99  1  0.51431775  0.90264927  0.92999071  1.0
  O  O100  1  0.40644922  0.90315555  0.82892320  1.0
  O  O101  1  0.49439824  0.91372083  0.07750962  1.0
  O  O102  1  0.38346482  0.90884834  0.97442739  1.0
  O  O103  1  0.41541626  0.50466070  0.58700843  1.0
  O  O104  1  0.51430638  0.61229101  0.58418124  1.0
  O  O105  1  0.56643906  0.47780537  0.59777859  1.0
  O  O106  1  0.92441989  0.59464413  0.99762176  1.0
  O  O107  1  0.66746782  0.59015112  0.60190605  1.0
  O  O108  1  0.42622830  0.33852190  0.41207239  1.0
  O  O109  1  0.53684798  0.44374658  0.41759665  1.0
  O  O110  1  0.38516200  0.47328604  0.41118105  1.0
  O  O111  1  0.49173899  0.58361482  0.41815369  1.0
  O  O112  1  0.91275032  0.34148743  0.92579513  1.0
  O  O113  1  0.90671365  0.44193505  0.02989377  1.0
  O  O114  1  0.08775351  0.47241722  0.06446094  1.0
  O  O115  1  0.09031812  0.58014898  0.16959190  1.0
  O  O116  1  0.09570153  0.51135687  0.92669209  1.0
  O  O117  1  0.10300116  0.61696414  0.03811489  1.0
  O  O118  1  0.53301030  0.09496323  0.11367416  1.0
  F  F119  1  0.90462285  0.35976892  0.13084935  1.0
  F  F120  1  0.36118847  0.66131745  0.43508243  1.0
  F  F121  1  0.24876998  0.31613259  0.18325880  1.0
  F  F122  1  0.11760186  0.31533904  0.06527181  1.0
  F  F123  1  0.31857650  0.21144084  0.23348806  1.0
  F  F124  1  0.68225712  0.32962542  0.23158653  1.0
  F  F125  1  0.69178017  0.25629402  0.30069554  1.0
  F  F126  1  0.53180276  0.00088257  0.67053100  1.0
  F  F127  1  0.56318217  0.00329138  0.81991153  1.0
