# generated using pymatgen
data_Zn3H6C27(ClO6)2
_symmetry_space_group_name_H-M   'P 1'
_cell_length_a   21.68464663
_cell_length_b   23.10855240
_cell_length_c   23.10640199
_cell_angle_alpha   77.28099269
_cell_angle_beta   62.02179354
_cell_angle_gamma   62.01159816
_symmetry_Int_Tables_number   1
_chemical_formula_structural   Zn3H6C27(ClO6)2
_chemical_formula_sum   'Zn6 H12 C54 Cl4 O24'
_cell_volume   9029.46034003
_cell_formula_units_Z   2
loop_
 _symmetry_equiv_pos_site_id
 _symmetry_equiv_pos_as_xyz
  1  'x, y, z'
loop_
 _atom_site_type_symbol
 _atom_site_label
 _atom_site_symmetry_multiplicity
 _atom_site_fract_x
 _atom_site_fract_y
 _atom_site_fract_z
 _atom_site_occupancy
  Zn  Zn0  1  0.95477403  0.04522600  0.04522743  1.0
  Zn  Zn1  1  0.06031947  0.49988286  0.49981955  1.0
  Zn  Zn2  1  0.93997799  0.49981911  0.49988292  1.0
  Zn  Zn3  1  0.04463542  0.95536391  0.95536514  1.0
  Zn  Zn4  1  0.50002113  0.04502922  0.95489896  1.0
  Zn  Zn5  1  0.50005086  0.95490113  0.04502813  1.0
  H  H6  1  0.82636497  0.89171436  0.03024314  1.0
  H  H7  1  0.12904581  0.08146889  0.08136651  1.0
  H  H8  1  0.70811761  0.08140927  0.08142676  1.0
  H  H9  1  0.85574225  0.88357277  0.88358444  1.0
  H  H10  1  0.76978978  0.87269852  0.93442885  1.0
  H  H11  1  0.76979062  0.93442903  0.87269470  1.0
  H  H12  1  0.37710225  0.88351703  0.88363759  1.0
  H  H13  1  0.42309883  0.93435989  0.87273620  1.0
  H  H14  1  0.42307284  0.87266026  0.93450008  1.0
  H  H15  1  0.25171581  0.03018327  0.89169851  1.0
  H  H16  1  0.25164040  0.89176196  0.03028402  1.0
  H  H17  1  0.82635267  0.03022585  0.89174658  1.0
  C  C18  1  0.00011916  0.90952589  0.09024737  1.0
  C  C19  1  0.00003323  0.22898595  0.77089040  1.0
  C  C20  1  0.18584333  0.00139144  0.00135497  1.0
  C  C21  1  0.00033596  0.85953373  0.13980424  1.0
  C  C22  1  0.00032840  0.13980263  0.85953612  1.0
  C  C23  1  0.79262388  0.90945835  0.90946064  1.0
  C  C24  1  0.38845702  0.90941181  0.90950878  1.0
  C  C25  1  0.00008858  0.77088853  0.22898742  1.0
  C  C26  1  0.99996795  0.72815015  0.27184396  1.0
  C  C27  1  0.00003703  0.27184293  0.72815176  1.0
  C  C28  1  0.99984129  0.68182484  0.31824237  1.0
  C  C29  1  0.00008924  0.31824372  0.68182503  1.0
  C  C30  1  0.00010837  0.09024666  0.90952718  1.0
  C  C31  1  0.99988676  0.63930255  0.36080779  1.0
  C  C32  1  0.00000056  0.36080669  0.63930411  1.0
  C  C33  1  0.59049520  0.90950638  0.90950508  1.0
  C  C34  1  0.61729395  0.00111240  0.00114518  1.0
  C  C35  1  0.38044655  0.00115077  0.00110938  1.0
  C  C36  1  0.40979443  0.09020588  0.09020417  1.0
  C  C37  1  0.08965676  0.41034394  0.41034400  1.0
  C  C38  1  0.99995113  0.58960100  0.41048154  1.0
  C  C39  1  0.99996248  0.41048129  0.58960232  1.0
  C  C40  1  0.88065423  0.00056421  0.00060916  1.0
  C  C41  1  0.11817329  0.00060654  0.00056579  1.0
  C  C42  1  0.91058412  0.58941684  0.58941434  1.0
  C  C43  1  0.64029566  0.85970404  0.85970475  1.0
  C  C44  1  0.68284302  0.81715557  0.81715611  1.0
  C  C45  1  0.72919446  0.77080495  0.77080517  1.0
  C  C46  1  0.00022233  0.81710554  0.18248687  1.0
  C  C47  1  0.77198810  0.72801193  0.72801213  1.0
  C  C48  1  0.81834081  0.68165984  0.68165923  1.0
  C  C49  1  0.86088464  0.63911627  0.63911452  1.0
  C  C50  1  0.35997781  0.14002146  0.14002031  1.0
  C  C51  1  0.31742639  0.18257385  0.18257072  1.0
  C  C52  1  0.00018408  0.18248812  0.81710798  1.0
  C  C53  1  0.27106171  0.22893917  0.22893632  1.0
  C  C54  1  0.79144626  0.94055434  0.01747671  1.0
  C  C55  1  0.25054633  0.01744114  0.94054410  1.0
  C  C56  1  0.25048671  0.94059304  0.01750911  1.0
  C  C57  1  0.79143241  0.01747498  0.94058143  1.0
  C  C58  1  0.22825277  0.27174788  0.27174556  1.0
  C  C59  1  0.18188988  0.31811172  0.31810984  1.0
  C  C60  1  0.13932639  0.36067441  0.36067406  1.0
  C  C61  1  0.77083365  0.95741489  0.95741568  1.0
  C  C62  1  0.31433642  0.95738916  0.95743831  1.0
  C  C63  1  0.68358534  0.00311960  0.00311793  1.0
  C  C64  1  0.31017685  0.00312264  0.00311619  1.0
  C  C65  1  0.70620882  0.98574732  0.06232255  1.0
  C  C66  1  0.24574257  0.06231220  0.98571167  1.0
  C  C67  1  0.24570261  0.98579485  0.06232277  1.0
  C  C68  1  0.70620382  0.06231612  0.98575524  1.0
  C  C69  1  0.72624293  0.04590597  0.04592599  1.0
  C  C70  1  0.18192511  0.04595417  0.04587731  1.0
  C  C71  1  0.81141094  0.00135545  0.00139029  1.0
  Cl  Cl72  1  0.65263791  0.96592869  0.14132706  1.0
  Cl  Cl73  1  0.24014411  0.14131308  0.96585447  1.0
  Cl  Cl74  1  0.24007856  0.96598802  0.14133863  1.0
  Cl  Cl75  1  0.65265124  0.14132236  0.96590689  1.0
  O  O76  1  0.96038443  0.96872572  0.11056247  1.0
  O  O77  1  0.03971194  0.03074108  0.88976370  1.0
  O  O78  1  0.03978440  0.88976370  0.03074219  1.0
  O  O79  1  0.86856142  0.03991660  0.03993910  1.0
  O  O80  1  0.05158446  0.03993626  0.03991823  1.0
  O  O81  1  0.94647228  0.96081557  0.96086540  1.0
  O  O82  1  0.13184781  0.96086400  0.96081638  1.0
  O  O83  1  0.96032883  0.11056062  0.96872664  1.0
  O  O84  1  0.57093509  0.96875993  0.88933704  1.0
  O  O85  1  0.57096870  0.88933781  0.96876031  1.0
  O  O86  1  0.59220246  0.03926149  0.96019786  1.0
  O  O87  1  0.40833728  0.96020083  0.03925871  1.0
  O  O88  1  0.40832634  0.03927117  0.96013189  1.0
  O  O89  1  0.59227259  0.96013332  0.03926833  1.0
  O  O90  1  0.42938144  0.11024360  0.03088226  1.0
  O  O91  1  0.42949243  0.03088224  0.11024340  1.0
  O  O92  1  0.01705169  0.43013076  0.43013749  1.0
  O  O93  1  0.12268078  0.43013807  0.43013104  1.0
  O  O94  1  0.94714638  0.56986628  0.43022177  1.0
  O  O95  1  0.05276320  0.43022189  0.56986559  1.0
  O  O96  1  0.05281254  0.56992455  0.43015497  1.0
  O  O97  1  0.94710647  0.43015430  0.56992470  1.0
  O  O98  1  0.87746848  0.56970113  0.56970966  1.0
  O  O99  1  0.98312139  0.56971285  0.56969846  1.0
