# generated using pymatgen
data_Zn4H18C30S6O13
_symmetry_space_group_name_H-M   'P 1'
_cell_length_a   20.07379130
_cell_length_b   20.19703653
_cell_length_c   21.06896915
_cell_angle_alpha   62.10240020
_cell_angle_beta   62.34525709
_cell_angle_gamma   61.03405198
_symmetry_Int_Tables_number   1
_chemical_formula_structural   Zn4H18C30S6O13
_chemical_formula_sum   'Zn8 H36 C60 S12 O26'
_cell_volume   6285.53544650
_cell_formula_units_Z   2
loop_
 _symmetry_equiv_pos_site_id
 _symmetry_equiv_pos_as_xyz
  1  'x, y, z'
loop_
 _atom_site_type_symbol
 _atom_site_label
 _atom_site_symmetry_multiplicity
 _atom_site_fract_x
 _atom_site_fract_y
 _atom_site_fract_z
 _atom_site_occupancy
  Zn  Zn0  1  0.05254623  0.02166198  0.87950961  1.0
  Zn  Zn1  1  0.06443980  0.86883238  0.02024387  1.0
  Zn  Zn2  1  0.90232143  0.02238987  0.02555975  1.0
  Zn  Zn3  1  0.05969996  0.03008022  0.02409409  1.0
  Zn  Zn4  1  0.48283397  0.45134609  0.59727181  1.0
  Zn  Zn5  1  0.48088688  0.60276733  0.45241307  1.0
  Zn  Zn6  1  0.47860398  0.44478466  0.45033016  1.0
  Zn  Zn7  1  0.63746042  0.44334882  0.45274225  1.0
  H  H8  1  0.37069369  0.77849918  0.52467711  1.0
  H  H9  1  0.27880831  0.85078196  0.55827579  1.0
  H  H10  1  0.36721974  0.83716509  0.56904585  1.0
  H  H11  1  0.19925804  0.92925083  0.64179570  1.0
  H  H12  1  0.28670421  0.91732237  0.65302230  1.0
  H  H13  1  0.19126688  0.95824065  0.71382199  1.0
  H  H14  1  0.80113164  0.27080769  0.53470132  1.0
  H  H15  1  0.88335200  0.24203677  0.56519361  1.0
  H  H16  1  0.84168354  0.17067776  0.58942573  1.0
  H  H17  1  0.96040956  0.15349440  0.65221068  1.0
  H  H18  1  0.91723837  0.08325637  0.67659697  1.0
  H  H19  1  0.97153414  0.06727474  0.73268362  1.0
  H  H20  1  0.34064553  0.33083138  0.52354682  1.0
  H  H21  1  0.32505733  0.23776684  0.56394183  1.0
  H  H22  1  0.24205374  0.32727717  0.56172741  1.0
  H  H23  1  0.23668129  0.16210532  0.64852726  1.0
  H  H24  1  0.15371107  0.25163222  0.64740856  1.0
  H  H25  1  0.14101597  0.15992989  0.71499861  1.0
  H  H26  1  0.81212190  0.51516913  0.37374673  1.0
  H  H27  1  0.86309492  0.53026772  0.27622390  1.0
  H  H28  1  0.89016701  0.55668563  0.32781793  1.0
  H  H29  1  0.95860146  0.61486230  0.19087723  1.0
  H  H30  1  0.96874978  0.64209855  0.25363146  1.0
  H  H31  1  0.99923984  0.69151385  0.15514993  1.0
  H  H32  1  0.40851394  0.51996665  0.28400951  1.0
  H  H33  1  0.31873821  0.54661097  0.26651679  1.0
  H  H34  1  0.40214404  0.56766165  0.19011459  1.0
  H  H35  1  0.24717117  0.63114626  0.17319428  1.0
  H  H36  1  0.33088344  0.65468773  0.09959359  1.0
  H  H37  1  0.23387384  0.70992372  0.08819111  1.0
  H  H38  1  0.54882390  0.29739398  0.35395044  1.0
  H  H39  1  0.57494132  0.29231838  0.26269379  1.0
  H  H40  1  0.59469699  0.20344440  0.33773860  1.0
  H  H41  1  0.65652529  0.20969023  0.18210440  1.0
  H  H42  1  0.67846431  0.12085851  0.25669220  1.0
  H  H43  1  0.73340585  0.12149015  0.16150572  1.0
  C  C44  1  0.14544183  0.86282470  0.86458817  1.0
  C  C45  1  0.19399602  0.81243519  0.81554764  1.0
  C  C46  1  0.26487165  0.69215893  0.77709414  1.0
  C  C47  1  0.34413668  0.66281563  0.65746718  1.0
  C  C48  1  0.39356550  0.61532675  0.60569983  1.0
  C  C49  1  0.31765134  0.74408605  0.64511231  1.0
  C  C50  1  0.33484626  0.80564944  0.56980723  1.0
  C  C51  1  0.27129202  0.76148847  0.71512298  1.0
  C  C52  1  0.22988422  0.83173494  0.73781680  1.0
  C  C53  1  0.22617228  0.91397915  0.68407423  1.0
  C  C54  1  0.88839796  0.09381417  0.87360286  1.0
  C  C55  1  0.83774923  0.14488939  0.82418697  1.0
  C  C56  1  0.72253681  0.24598036  0.78054439  1.0
  C  C57  1  0.69300898  0.30955259  0.66050760  1.0
  C  C58  1  0.64717835  0.36183964  0.60678510  1.0
  C  C59  1  0.76981126  0.25371453  0.65245311  1.0
  C  C60  1  0.82673247  0.23367337  0.58125005  1.0
  C  C61  1  0.78721645  0.21623805  0.72273455  1.0
  C  C62  1  0.85430954  0.15661637  0.74859836  1.0
  C  C63  1  0.93028588  0.11240208  0.70030042  1.0
  C  C64  1  0.12441093  0.12526626  0.86659048  1.0
  C  C65  1  0.17304053  0.17685308  0.81696724  1.0
  C  C66  1  0.25928075  0.25188953  0.77752255  1.0
  C  C67  1  0.33748463  0.32171015  0.65660972  1.0
  C  C68  1  0.39243750  0.36638384  0.60401859  1.0
  C  C69  1  0.29703186  0.29100395  0.64471118  1.0
  C  C70  1  0.30177730  0.29740275  0.56906473  1.0
  C  C71  1  0.25108413  0.25014259  0.71539056  1.0
  C  C72  1  0.20030728  0.20646468  0.73867278  1.0
  C  C73  1  0.18153991  0.19400307  0.68485693  1.0
  C  C74  1  0.90588575  0.85499791  0.11327868  1.0
  C  C75  1  0.85430890  0.80749278  0.16915979  1.0
  C  C76  1  0.73060566  0.77706992  0.24898507  1.0
  C  C77  1  0.69666624  0.65615422  0.33238934  1.0
  C  C78  1  0.64747182  0.60493935  0.37998226  1.0
  C  C79  1  0.77921687  0.63763388  0.30430546  1.0
  C  C80  1  0.83924086  0.55547312  0.32203227  1.0
  C  C81  1  0.79941185  0.70826240  0.25485225  1.0
  C  C82  1  0.87179056  0.72639656  0.20788377  1.0
  C  C83  1  0.95431085  0.66565378  0.20096771  1.0
  C  C84  1  0.16074511  0.86802449  0.09266305  1.0
  C  C85  1  0.21181807  0.81966061  0.14201571  1.0
  C  C86  1  0.27435179  0.78413439  0.23494665  1.0
  C  C87  1  0.35623866  0.66049310  0.30657955  1.0
  C  C88  1  0.40105272  0.60725348  0.36114331  1.0
  C  C89  1  0.34028662  0.64533688  0.25809368  1.0
  C  C90  1  0.36941171  0.56529941  0.24946471  1.0
  C  C91  1  0.29220579  0.71760290  0.21614921  1.0
  C  C92  1  0.25612237  0.73872484  0.16122535  1.0
  C  C93  1  0.26711912  0.68085756  0.12855526  1.0
  C  C94  1  0.89504370  0.10797434  0.11167491  1.0
  C  C95  1  0.84680864  0.15625736  0.16288008  1.0
  C  C96  1  0.81394880  0.23873263  0.23633011  1.0
  C  C97  1  0.69168915  0.30742894  0.31976446  1.0
  C  C98  1  0.64007647  0.35705771  0.36958902  1.0
  C  C99  1  0.67462406  0.26736855  0.29369435  1.0
  C  C100  1  0.59347624  0.26533056  0.31353007  1.0
  C  C101  1  0.74599531  0.22733230  0.24465377  1.0
  C  C102  1  0.76545834  0.17899910  0.20155569  1.0
  C  C103  1  0.70556637  0.15628262  0.19990484  1.0
  S  S104  1  0.20951088  0.71036986  0.86143627  1.0
  S  S105  1  0.31377042  0.60707410  0.75264937  1.0
  S  S106  1  0.74141013  0.20375006  0.86471901  1.0
  S  S107  1  0.64133403  0.31686232  0.75203307  1.0
  S  S108  1  0.20777994  0.20155587  0.86269605  1.0
  S  S109  1  0.32088704  0.30155934  0.75226446  1.0
  S  S110  1  0.75151902  0.86224399  0.18877606  1.0
  S  S111  1  0.64307191  0.75804940  0.30102402  1.0
  S  S112  1  0.21508817  0.87084356  0.18804524  1.0
  S  S113  1  0.31528872  0.76129827  0.30092475  1.0
  S  S114  1  0.90019749  0.19209504  0.17836395  1.0
  S  S115  1  0.79319468  0.29680847  0.28595540  1.0
  O  O116  1  0.01955765  0.98543878  0.98952085  1.0
  O  O117  1  0.11579960  0.82721285  0.93456211  1.0
  O  O118  1  0.13590404  0.93725247  0.83558159  1.0
  O  O119  1  0.41836823  0.65012116  0.53490469  1.0
  O  O120  1  0.40799321  0.53995223  0.63765115  1.0
  O  O121  1  0.85459581  0.09178407  0.94304345  1.0
  O  O122  1  0.96196986  0.05601622  0.84491731  1.0
  O  O123  1  0.68130425  0.36574841  0.53714838  1.0
  O  O124  1  0.57390650  0.40100236  0.63561047  1.0
  O  O125  1  0.11700021  0.10035253  0.93702604  1.0
  O  O126  1  0.09376059  0.10860005  0.83680705  1.0
  O  O127  1  0.40404638  0.38965388  0.53294442  1.0
  O  O128  1  0.42511994  0.37855939  0.63561643  1.0
  O  O129  1  0.86819554  0.92892884  0.08496558  1.0
  O  O130  1  0.98201287  0.82124593  0.09660716  1.0
  O  O131  1  0.68234263  0.52940439  0.40259474  1.0
  O  O132  1  0.57160875  0.64175048  0.39414690  1.0
  O  O133  1  0.13052151  0.94306424  0.08388897  1.0
  O  O134  1  0.14917334  0.83294551  0.06340388  1.0
  O  O135  1  0.42479399  0.53183028  0.37553583  1.0
  O  O136  1  0.41183528  0.64251946  0.39112886  1.0
  O  O137  1  0.97057450  0.09479603  0.08790022  1.0
  O  O138  1  0.85962650  0.08338551  0.09442508  1.0
  O  O139  1  0.56508649  0.36801786  0.39709896  1.0
  O  O140  1  0.67610697  0.38627362  0.38143184  1.0
  O  O141  1  0.52022655  0.48580859  0.48667657  1.0
