# generated using pymatgen
data_AlH4C12SCl2O5
_symmetry_space_group_name_H-M   'P 1'
_cell_length_a   6.67895020
_cell_length_b   12.77651703
_cell_length_c   17.74492582
_cell_angle_alpha   89.68788778
_cell_angle_beta   79.22884646
_cell_angle_gamma   74.85780324
_symmetry_Int_Tables_number   1
_chemical_formula_structural   AlH4C12SCl2O5
_chemical_formula_sum   'Al2 H8 C24 S2 Cl4 O10'
_cell_volume   1434.41186476
_cell_formula_units_Z   2
loop_
 _symmetry_equiv_pos_site_id
 _symmetry_equiv_pos_as_xyz
  1  'x, y, z'
loop_
 _atom_site_type_symbol
 _atom_site_label
 _atom_site_symmetry_multiplicity
 _atom_site_fract_x
 _atom_site_fract_y
 _atom_site_fract_z
 _atom_site_occupancy
  Al  Al0  1  0.01247349  0.49824244  0.49875072  1.0
  Al  Al1  1  0.51154472  0.49822536  0.50136113  1.0
  H  H2  1  0.35133135  0.37972000  0.44048776  1.0
  H  H3  1  0.67769163  0.62090987  0.55424987  1.0
  H  H4  1  0.80417939  0.53921158  0.72674647  1.0
  H  H5  1  0.71435106  0.55165135  0.87035759  1.0
  H  H6  1  0.46519968  0.42420026  0.73548352  1.0
  H  H7  1  0.52504371  0.58331513  0.27816790  1.0
  H  H8  1  0.19667142  0.45546891  0.26004278  1.0
  H  H9  1  0.24223660  0.44672598  0.11672172  1.0
  C  C10  1  0.85666083  0.30300844  0.49746936  1.0
  C  C11  1  0.82787558  0.51293464  0.36240428  1.0
  C  C12  1  0.16761672  0.69402034  0.50250893  1.0
  C  C13  1  0.18931845  0.48444565  0.63752043  1.0
  C  C14  1  0.13950790  0.48279623  0.72292876  1.0
  C  C15  1  0.92748607  0.51642668  0.76079600  1.0
  C  C16  1  0.87769282  0.52269645  0.84031004  1.0
  C  C17  1  0.03721453  0.49072769  0.88442347  1.0
  C  C18  1  0.24952438  0.45181906  0.84487747  1.0
  C  C19  1  0.30100533  0.45072905  0.76516941  1.0
  C  C20  1  0.98633626  0.49877801  0.96526515  1.0
  C  C21  1  0.94387660  0.50804975  0.03525768  1.0
  C  C22  1  0.91173297  0.51428540  0.11609778  1.0
  C  C23  1  0.70939471  0.55594103  0.16289932  1.0
  C  C24  1  0.68199709  0.55510595  0.24249930  1.0
  C  C25  1  0.85813008  0.51831539  0.27723650  1.0
  C  C26  1  0.06114240  0.48207148  0.23205111  1.0
  C  C27  1  0.08653022  0.47774306  0.15269047  1.0
  C  C28  1  0.91004586  0.88524742  0.53218849  1.0
  C  C29  1  0.11510563  0.11191783  0.46736542  1.0
  C  C30  1  0.10408559  0.81316086  0.50224756  1.0
  C  C31  1  0.92096739  0.18392167  0.49743792  1.0
  C  C32  1  0.11120903  0.00289810  0.48006410  1.0
  C  C33  1  0.91395656  0.99427376  0.51958282  1.0
  S  S34  1  0.29186465  0.87861830  0.45939426  1.0
  S  S35  1  0.73345134  0.11848677  0.54049645  1.0
  Cl  Cl36  1  0.44720055  0.40573313  0.89690065  1.0
  Cl  Cl37  1  0.49403861  0.60794050  0.12032798  1.0
  Cl  Cl38  1  0.69082231  0.85287482  0.58201965  1.0
  Cl  Cl39  1  0.33437924  0.14414145  0.41750678  1.0
  O  O40  1  0.00259695  0.35142425  0.48513905  1.0
  O  O41  1  0.65366101  0.49643176  0.39633469  1.0
  O  O42  1  0.36562299  0.64885126  0.49289572  1.0
  O  O43  1  0.04486909  0.47365110  0.60282794  1.0
  O  O44  1  0.02136090  0.64574620  0.51202190  1.0
  O  O45  1  0.36740863  0.49960653  0.60646053  1.0
  O  O46  1  0.65817914  0.34813468  0.51020068  1.0
  O  O47  1  0.97948317  0.52201164  0.39392624  1.0
  O  O48  1  0.30392814  0.45207878  0.46468273  1.0
  O  O49  1  0.72118266  0.54576179  0.53523409  1.0
