# generated using pymatgen
data_Zn4H12C26S2O23
_symmetry_space_group_name_H-M   'P 1'
_cell_length_a   15.93131875
_cell_length_b   15.93789369
_cell_length_c   21.20989734
_cell_angle_alpha   112.00351206
_cell_angle_beta   111.64318904
_cell_angle_gamma   90.11219979
_symmetry_Int_Tables_number   1
_chemical_formula_structural   Zn4H12C26S2O23
_chemical_formula_sum   'Zn8 H24 C52 S4 O46'
_cell_volume   4579.36685044
_cell_formula_units_Z   2
loop_
 _symmetry_equiv_pos_site_id
 _symmetry_equiv_pos_as_xyz
  1  'x, y, z'
loop_
 _atom_site_type_symbol
 _atom_site_label
 _atom_site_symmetry_multiplicity
 _atom_site_fract_x
 _atom_site_fract_y
 _atom_site_fract_z
 _atom_site_occupancy
  Zn  Zn0  1  0.53018423  0.92919250  0.56550782  1.0
  Zn  Zn1  1  0.93227031  0.53341327  0.56724608  1.0
  Zn  Zn2  1  0.36673930  0.95738771  0.43315849  1.0
  Zn  Zn3  1  0.95984031  0.36445118  0.43618640  1.0
  Zn  Zn4  1  0.57037368  0.96961124  0.44064975  1.0
  Zn  Zn5  1  0.96803270  0.56639825  0.43867389  1.0
  Zn  Zn6  1  0.52181757  0.12878288  0.56422268  1.0
  Zn  Zn7  1  0.13026283  0.52132780  0.56210265  1.0
  H  H8  1  0.65885125  0.33778420  0.93002006  1.0
  H  H9  1  0.33368503  0.64883495  0.92738939  1.0
  H  H10  1  0.41768500  0.76057139  0.04909009  1.0
  H  H11  1  0.77117034  0.41331406  0.05138903  1.0
  H  H12  1  0.60991400  0.25860549  0.95228995  1.0
  H  H13  1  0.24894707  0.61287168  0.95114417  1.0
  H  H14  1  0.36417422  0.68648484  0.07252189  1.0
  H  H15  1  0.68983758  0.36883522  0.07430910  1.0
  H  H16  1  0.77333034  0.09886887  0.94975479  1.0
  H  H17  1  0.11814735  0.80335122  0.95712110  1.0
  H  H18  1  0.16449009  0.81035106  0.07618393  1.0
  H  H19  1  0.79638893  0.15444067  0.07296949  1.0
  H  H20  1  0.69080564  0.21834901  0.12871062  1.0
  H  H21  1  0.22650694  0.69290242  0.12211390  1.0
  H  H22  1  0.07916225  0.59825728  0.88046157  1.0
  H  H23  1  0.57397752  0.09154691  0.87930569  1.0
  H  H24  1  0.84077938  0.14989512  0.85464607  1.0
  H  H25  1  0.16678257  0.84551744  0.85888379  1.0
  H  H26  1  0.19346429  0.97787938  0.02025614  1.0
  H  H27  1  0.89843316  0.13423917  0.02232223  1.0
  H  H28  1  0.94980578  0.44168998  0.99262191  1.0
  H  H29  1  0.46999445  0.93344113  0.00173913  1.0
  H  H30  1  0.32983645  0.01642045  0.00794469  1.0
  H  H31  1  0.96099234  0.43234974  0.19761138  1.0
  C  C32  1  0.40812230  0.89593107  0.30025498  1.0
  C  C33  1  0.89728611  0.39948681  0.30119454  1.0
  C  C34  1  0.15884023  0.65499422  0.50380915  1.0
  C  C35  1  0.65639383  0.16325375  0.50858120  1.0
  C  C36  1  0.34072909  0.83730370  0.50361896  1.0
  C  C37  1  0.83794065  0.34410869  0.50676641  1.0
  C  C38  1  0.59615666  0.09763424  0.70109648  1.0
  C  C39  1  0.27721800  0.77383673  0.50505264  1.0
  C  C40  1  0.77418152  0.28236879  0.50942346  1.0
  C  C41  1  0.10234456  0.60053755  0.70135597  1.0
  C  C42  1  0.22362983  0.71985895  0.50524365  1.0
  C  C43  1  0.72046771  0.22934155  0.51037834  1.0
  C  C44  1  0.72310494  0.14403434  0.95963384  1.0
  C  C45  1  0.15069188  0.74346988  0.96149687  1.0
  C  C46  1  0.19765075  0.76151812  0.04429009  1.0
  C  C47  1  0.75010572  0.19181125  0.04418770  1.0
  C  C48  1  0.67474903  0.29361760  0.96028427  1.0
  C  C49  1  0.29137689  0.67317119  0.95896329  1.0
  C  C50  1  0.35099324  0.72990106  0.04119618  1.0
  C  C51  1  0.73316291  0.34980307  0.04274899  1.0
  C  C52  1  0.86072468  0.36116455  0.22107225  1.0
  C  C53  1  0.37224917  0.86172882  0.22071077  1.0
  C  C54  1  0.14442210  0.64669787  0.78105815  1.0
  C  C55  1  0.63992453  0.13885369  0.78091646  1.0
  C  C56  1  0.72658684  0.21771775  0.92820645  1.0
  C  C57  1  0.67056786  0.19733027  0.06812830  1.0
  C  C58  1  0.19229481  0.67879120  0.06212547  1.0
  C  C59  1  0.06924674  0.66398414  0.91843146  1.0
  C  C60  1  0.22500581  0.73304428  0.92822225  1.0
  C  C61  1  0.63260885  0.07635298  0.91988383  1.0
  C  C62  1  0.30041404  0.80663474  0.07420755  1.0
  C  C63  1  0.87931101  0.18501413  0.91535958  1.0
  C  C64  1  0.22474642  0.88585374  0.91197735  1.0
  C  C65  1  0.22482771  0.94361759  0.05806814  1.0
  C  C66  1  0.93227417  0.20540850  0.06135550  1.0
  C  C67  1  0.80243648  0.29223246  0.07383673  1.0
  C  C68  1  0.88062385  0.28286076  0.04282973  1.0
  C  C69  1  0.29827628  0.88265567  0.04244833  1.0
  C  C70  1  0.27767121  0.83328471  0.95684765  1.0
  C  C71  1  0.83233771  0.25660829  0.95633501  1.0
  C  C72  1  0.83737809  0.33110952  0.15425862  1.0
  C  C73  1  0.34078997  0.84147664  0.15444176  1.0
  C  C74  1  0.18147920  0.68839738  0.84782757  1.0
  C  C75  1  0.68156786  0.17515755  0.84771352  1.0
  C  C76  1  0.26229666  0.20719126  0.48843809  1.0
  C  C77  1  0.20867959  0.26114097  0.48836382  1.0
  C  C78  1  0.71855873  0.77137195  0.49837511  1.0
  C  C79  1  0.77212064  0.71738640  0.49681719  1.0
  C  C80  1  0.65593216  0.83697949  0.50029906  1.0
  C  C81  1  0.83718069  0.65439737  0.49746828  1.0
  C  C82  1  0.32896435  0.14561750  0.49136781  1.0
  C  C83  1  0.14739817  0.32792445  0.49116650  1.0
  S  S84  1  0.83274856  0.34484924  0.91153626  1.0
  S  S85  1  0.37414840  0.81887962  0.91695301  1.0
  S  S86  1  0.40366761  0.97411470  0.09889409  1.0
  S  S87  1  0.97285255  0.38776978  0.09291201  1.0
  O  O88  1  0.49699811  0.99651825  0.50089381  1.0
  O  O89  1  0.89157086  0.34534524  0.33125688  1.0
  O  O90  1  0.15667199  0.57960635  0.66838309  1.0
  O  O91  1  0.49505835  0.91353836  0.33410912  1.0
  O  O92  1  0.93257817  0.48420625  0.33290759  1.0
  O  O93  1  0.56275236  0.15103331  0.66946732  1.0
  O  O94  1  0.59022940  0.18049621  0.02584863  1.0
  O  O95  1  0.15195475  0.60236149  0.01625110  1.0
  O  O96  1  0.99601533  0.67567343  0.92326554  1.0
  O  O97  1  0.62841703  0.00628087  0.92982111  1.0
  O  O98  1  0.59585591  0.01167120  0.67031081  1.0
  O  O99  1  0.01504881  0.58590498  0.67232875  1.0
  O  O100  1  0.95424421  0.16865474  0.94711724  1.0
  O  O101  1  0.24624255  0.96877722  0.93153640  1.0
  O  O102  1  0.20526896  0.95514236  0.11046612  1.0
  O  O103  1  0.99729491  0.22130918  0.11902349  1.0
  O  O104  1  0.34891706  0.90548245  0.32873388  1.0
  O  O105  1  0.81190675  0.28650182  0.83545881  1.0
  O  O106  1  0.77766500  0.41271986  0.93178672  1.0
  O  O107  1  0.93566986  0.39110021  0.94328154  1.0
  O  O108  1  0.43463878  0.76012569  0.94056890  1.0
  O  O109  1  0.31980049  0.79639448  0.83991100  1.0
  O  O110  1  0.42796594  0.91849236  0.94853003  1.0
  O  O111  1  0.41348637  0.01648390  0.17413884  1.0
  O  O112  1  0.48060591  0.93534780  0.08418209  1.0
  O  O113  1  0.37401286  0.04531317  0.06331475  1.0
  O  O114  1  0.04827978  0.36252900  0.07293801  1.0
  O  O115  1  0.92852170  0.46241154  0.07889887  1.0
  O  O116  1  0.00913864  0.41261641  0.17894754  1.0
  O  O117  1  0.99761252  0.49601600  0.50073515  1.0
  O  O118  1  0.65447707  0.88486095  0.46362782  1.0
  O  O119  1  0.86417575  0.63053009  0.44450388  1.0
  O  O120  1  0.41087711  0.18345228  0.53614177  1.0
  O  O121  1  0.18177407  0.40713795  0.54339847  1.0
  O  O122  1  0.64624456  0.08155952  0.46169413  1.0
  O  O123  1  0.07468014  0.65525908  0.46775730  1.0
  O  O124  1  0.61738185  0.19362966  0.55348051  1.0
  O  O125  1  0.19246450  0.60455906  0.53825461  1.0
  O  O126  1  0.31035152  0.86188191  0.44975022  1.0
  O  O127  1  0.87700680  0.30693019  0.46274904  1.0
  O  O128  1  0.41995111  0.86138622  0.55615469  1.0
  O  O129  1  0.84809909  0.42860914  0.54835274  1.0
  O  O130  1  0.60944800  0.83984087  0.53851374  1.0
  O  O131  1  0.86104326  0.62973711  0.55131541  1.0
  O  O132  1  0.29877114  0.06108244  0.44949501  1.0
  O  O133  1  0.06593605  0.30077036  0.44164070  1.0
