# generated using pymatgen
data_AgH13C14(NO)2
_symmetry_space_group_name_H-M   'P 1'
_cell_length_a   6.70756428
_cell_length_b   22.81620929
_cell_length_c   23.28747075
_cell_angle_alpha   89.99779416
_cell_angle_beta   88.34225908
_cell_angle_gamma   89.99823627
_symmetry_Int_Tables_number   1
_chemical_formula_structural   AgH13C14(NO)2
_chemical_formula_sum   'Ag8 H104 C112 N16 O16'
_cell_volume   3562.45062075
_cell_formula_units_Z   8
loop_
 _symmetry_equiv_pos_site_id
 _symmetry_equiv_pos_as_xyz
  1  'x, y, z'
loop_
 _atom_site_type_symbol
 _atom_site_label
 _atom_site_symmetry_multiplicity
 _atom_site_fract_x
 _atom_site_fract_y
 _atom_site_fract_z
 _atom_site_occupancy
  Ag  Ag0  1  0.18666445  0.46496600  0.75885357  1.0
  Ag  Ag1  1  0.31336707  0.96496409  0.74115383  1.0
  Ag  Ag2  1  0.81337572  0.53504200  0.24115848  1.0
  Ag  Ag3  1  0.68661289  0.03503997  0.25884069  1.0
  Ag  Ag4  1  0.79608011  0.52322155  0.74877928  1.0
  Ag  Ag5  1  0.70391984  0.02322305  0.75122186  1.0
  Ag  Ag6  1  0.20391930  0.47677418  0.25123903  1.0
  Ag  Ag7  1  0.29604335  0.97677269  0.24876216  1.0
  H  H8  1  0.16716959  0.36655963  0.66642294  1.0
  H  H9  1  0.33293471  0.86654548  0.83356760  1.0
  H  H10  1  0.83288916  0.63344750  0.33356507  1.0
  H  H11  1  0.66705630  0.13346384  0.16643055  1.0
  H  H12  1  0.15285437  0.25730202  0.65883923  1.0
  H  H13  1  0.34724931  0.75728914  0.84115424  1.0
  H  H14  1  0.84718625  0.74270467  0.34114873  1.0
  H  H15  1  0.65274210  0.24271974  0.15885401  1.0
  H  H16  1  0.22167859  0.25077309  0.84284596  1.0
  H  H17  1  0.27827722  0.75076946  0.65715639  1.0
  H  H18  1  0.77832341  0.74923535  0.15714310  1.0
  H  H19  1  0.72171652  0.24922715  0.34285285  1.0
  H  H20  1  0.23925869  0.36035477  0.84135435  1.0
  H  H21  1  0.26074429  0.86035389  0.65864128  1.0
  H  H22  1  0.76078134  0.63965060  0.15863445  1.0
  H  H23  1  0.73925867  0.13964141  0.34135923  1.0
  H  H24  1  0.24873161  0.06360990  0.65661347  1.0
  H  H25  1  0.25125016  0.56361192  0.84340274  1.0
  H  H26  1  0.75121497  0.93638276  0.34338329  1.0
  H  H27  1  0.74873898  0.43639827  0.15661724  1.0
  H  H28  1  0.25057640  0.17202404  0.65656288  1.0
  H  H29  1  0.24944301  0.67202827  0.84344528  1.0
  H  H30  1  0.74943608  0.82796994  0.34342847  1.0
  H  H31  1  0.75053186  0.32798587  0.15657134  1.0
  H  H32  1  0.11674099  0.16479199  0.83944039  1.0
  H  H33  1  0.38323020  0.66478991  0.66056859  1.0
  H  H34  1  0.88321074  0.83521645  0.16054699  1.0
  H  H35  1  0.61677351  0.33521765  0.33945432  1.0
  H  H36  1  0.12741986  0.05643976  0.83156989  1.0
  H  H37  1  0.37252013  0.55643962  0.66844658  1.0
  H  H38  1  0.87247150  0.94357000  0.16842363  1.0
  H  H39  1  0.62752599  0.44357013  0.33157629  1.0
  H  H40  1  0.80647057  0.46135095  0.94682521  1.0
  H  H41  1  0.69347903  0.96135358  0.55318514  1.0
  H  H42  1  0.19354171  0.53865223  0.05317709  1.0
  H  H43  1  0.30645409  0.03865355  0.44681139  1.0
  H  H44  1  0.94366282  0.39802600  0.96479431  1.0
  H  H45  1  0.55628238  0.89803435  0.53521929  1.0
  H  H46  1  0.05631672  0.60197017  0.03520720  1.0
  H  H47  1  0.44364551  0.10197365  0.46477609  1.0
  H  H48  1  0.25068411  0.45798671  0.97441875  1.0
  H  H49  1  0.24929113  0.95799410  0.52558159  1.0
  H  H50  1  0.74931491  0.54201209  0.02560436  1.0
  H  H51  1  0.75065141  0.04201259  0.47441234  1.0
  H  H52  1  0.25422981  0.56324486  0.95005420  1.0
  H  H53  1  0.24567308  0.06325116  0.54992819  1.0
  H  H54  1  0.74575670  0.43675394  0.04995029  1.0
  H  H55  1  0.75425125  0.93675991  0.45007007  1.0
  H  H56  1  0.99417812  0.56132517  0.93751041  1.0
  H  H57  1  0.50572993  0.06133848  0.56248633  1.0
  H  H58  1  0.00581281  0.43866486  0.06249212  1.0
  H  H59  1  0.49420111  0.93866777  0.43751315  1.0
  H  H60  1  0.66953962  0.42983696  0.66479454  1.0
  H  H61  1  0.83046171  0.92980932  0.83519474  1.0
  H  H62  1  0.33038875  0.57017455  0.33520656  1.0
  H  H63  1  0.16957500  0.07019649  0.16479872  1.0
  H  H64  1  0.64804615  0.32181796  0.65854023  1.0
  H  H65  1  0.85202809  0.82179157  0.84143991  1.0
  H  H66  1  0.35194184  0.67819268  0.34144725  1.0
  H  H67  1  0.14800423  0.17821512  0.15857042  1.0
  H  H68  1  0.72324635  0.31675564  0.84253083  1.0
  H  H69  1  0.77691498  0.81676457  0.65744467  1.0
  H  H70  1  0.27687689  0.68322782  0.15744949  1.0
  H  H71  1  0.22312231  0.18321451  0.34256504  1.0
  H  H72  1  0.73069707  0.42502339  0.84118224  1.0
  H  H73  1  0.76939190  0.92502752  0.65880374  1.0
  H  H74  1  0.26938086  0.57496226  0.15881288  1.0
  H  H75  1  0.23061960  0.07494936  0.34119326  1.0
  H  H76  1  0.74328700  0.12632839  0.65796425  1.0
  H  H77  1  0.75678272  0.62631522  0.84202492  1.0
  H  H78  1  0.25676237  0.87367523  0.34200925  1.0
  H  H79  1  0.24320424  0.37368577  0.15800240  1.0
  H  H80  1  0.74527348  0.23472898  0.65657719  1.0
  H  H81  1  0.75482903  0.73471270  0.84339798  1.0
  H  H82  1  0.25479751  0.76527464  0.34339784  1.0
  H  H83  1  0.24516716  0.26528654  0.15662059  1.0
  H  H84  1  0.62711196  0.23028696  0.83995569  1.0
  H  H85  1  0.87293224  0.73026148  0.66001489  1.0
  H  H86  1  0.37284597  0.76971842  0.16001229  1.0
  H  H87  1  0.12713356  0.26971847  0.34000372  1.0
  H  H88  1  0.63343567  0.12123741  0.83347002  1.0
  H  H89  1  0.86657397  0.62121258  0.66651929  1.0
  H  H90  1  0.36647869  0.87876665  0.16649749  1.0
  H  H91  1  0.13350388  0.37876649  0.33351220  1.0
  H  H92  1  0.95847342  0.57670839  0.54186943  1.0
  H  H93  1  0.54157286  0.07671980  0.95812209  1.0
  H  H94  1  0.04159641  0.42327375  0.45815202  1.0
  H  H95  1  0.45838512  0.92328733  0.04185860  1.0
  H  H96  1  0.21951604  0.57099076  0.55001611  1.0
  H  H97  1  0.28052247  0.07102405  0.94998086  1.0
  H  H98  1  0.78054242  0.42899138  0.45000431  1.0
  H  H99  1  0.71943062  0.92899535  0.04999607  1.0
  H  H100  1  0.19265622  0.46241934  0.55286134  1.0
  H  H101  1  0.30729558  0.96244900  0.94715215  1.0
  H  H102  1  0.80740305  0.53756280  0.44716220  1.0
  H  H103  1  0.69262363  0.03756295  0.05283840  1.0
  H  H104  1  0.74329460  0.48185495  0.54375071  1.0
  H  H105  1  0.75666948  0.98185639  0.95624885  1.0
  H  H106  1  0.25676708  0.51812631  0.45626944  1.0
  H  H107  1  0.24325259  0.01816038  0.04372913  1.0
  H  H108  1  0.86273540  0.41345494  0.55359085  1.0
  H  H109  1  0.63719628  0.91346549  0.94641594  1.0
  H  H110  1  0.13731953  0.58652589  0.44643028  1.0
  H  H111  1  0.36274474  0.08654997  0.05356520  1.0
  C  C112  1  0.17947305  0.33835640  0.70408471  1.0
  C  C113  1  0.32060053  0.83834670  0.79591511  1.0
  C  C114  1  0.82056870  0.66165072  0.29590593  1.0
  C  C115  1  0.67939775  0.16166174  0.20408560  1.0
  C  C116  1  0.17190822  0.27765669  0.70063785  1.0
  C  C117  1  0.32815552  0.77765596  0.79936180  1.0
  C  C118  1  0.82812652  0.72234868  0.29935200  1.0
  C  C119  1  0.67183357  0.22235467  0.20064545  1.0
  C  C120  1  0.18618533  0.24350697  0.75057290  1.0
  C  C121  1  0.31383051  0.74350818  0.74942919  1.0
  C  C122  1  0.81382020  0.75649621  0.24941546  1.0
  C  C123  1  0.68615652  0.25650026  0.25057884  1.0
  C  C124  1  0.20614946  0.27408689  0.80240128  1.0
  C  C125  1  0.29384736  0.77408260  0.69759726  1.0
  C  C126  1  0.79385633  0.72591761  0.19758885  1.0
  C  C127  1  0.70614499  0.22591533  0.30240753  1.0
  C  C128  1  0.21533955  0.33488660  0.80241049  1.0
  C  C129  1  0.28467697  0.83488372  0.69759135  1.0
  C  C130  1  0.78468346  0.66511527  0.19758096  1.0
  C  C131  1  0.71532336  0.16511289  0.30240859  1.0
  C  C132  1  0.21833700  0.08804794  0.69603636  1.0
  C  C133  1  0.28164800  0.58804703  0.80397364  1.0
  C  C134  1  0.78161933  0.91195086  0.30395520  1.0
  C  C135  1  0.71834927  0.41196404  0.19604981  1.0
  C  C136  1  0.21900877  0.14875564  0.69663566  1.0
  C  C137  1  0.28099104  0.64875696  0.80337389  1.0
  C  C138  1  0.78097944  0.85124141  0.30335577  1.0
  C  C139  1  0.71898728  0.35125061  0.19664641  1.0
  C  C140  1  0.18432929  0.17912122  0.74845184  1.0
  C  C141  1  0.31568411  0.67911312  0.75154662  1.0
  C  C142  1  0.81565952  0.82088415  0.25153874  1.0
  C  C143  1  0.68431073  0.32089050  0.24846532  1.0
  C  C144  1  0.14998426  0.14471186  0.79783529  1.0
  C  C145  1  0.34999700  0.64470474  0.70216904  1.0
  C  C146  1  0.84997237  0.85529352  0.20215585  1.0
  C  C147  1  0.65001006  0.35529888  0.29784702  1.0
  C  C148  1  0.15311971  0.08403796  0.79383563  1.0
  C  C149  1  0.34684170  0.58403420  0.70617197  1.0
  C  C150  1  0.84680560  0.91596785  0.20615698  1.0
  C  C151  1  0.65318603  0.41597161  0.29384909  1.0
  C  C152  1  0.16561034  0.46553066  0.88721806  1.0
  C  C153  1  0.33434288  0.96554511  0.61278227  1.0
  C  C154  1  0.83444093  0.53445411  0.11279543  1.0
  C  C155  1  0.66559287  0.03445895  0.38721482  1.0
  C  C156  1  0.93122821  0.44564423  0.97249877  1.0
  C  C157  1  0.56872562  0.94564754  0.52751660  1.0
  C  C158  1  0.06877119  0.55435676  0.02750463  1.0
  C  C159  1  0.43119953  0.05436266  0.47248477  1.0
  C  C160  1  0.12348805  0.47620913  0.95135981  1.0
  C  C161  1  0.37646323  0.97621638  0.54863093  1.0
  C  C162  1  0.87652442  0.52378660  0.04864863  1.0
  C  C163  1  0.62349063  0.02379338  0.45135131  1.0
  C  C164  1  0.11239160  0.54233865  0.96379129  1.0
  C  C165  1  0.38754416  0.04234324  0.53620562  1.0
  C  C166  1  0.88759779  0.45765621  0.03621554  1.0
  C  C167  1  0.61240147  0.95765994  0.46379461  1.0
  C  C168  1  0.67970680  0.40279957  0.70318852  1.0
  C  C169  1  0.82034356  0.90278165  0.79679347  1.0
  C  C170  1  0.32028407  0.59720536  0.29680129  1.0
  C  C171  1  0.17968668  0.09722022  0.20320273  1.0
  C  C172  1  0.67050700  0.34213098  0.70014296  1.0
  C  C173  1  0.82956823  0.84210975  0.79982835  1.0
  C  C174  1  0.32950624  0.65787834  0.29983879  1.0
  C  C175  1  0.17046417  0.15789211  0.20017760  1.0
  C  C176  1  0.68814673  0.30829022  0.75019417  1.0
  C  C177  1  0.81196749  0.80827756  0.74977653  1.0
  C  C178  1  0.31190644  0.69171164  0.24978039  1.0
  C  C179  1  0.18806517  0.19171379  0.25023119  1.0
  C  C180  1  0.70807255  0.33933225  0.80172414  1.0
  C  C181  1  0.79205208  0.83933437  0.69824625  1.0
  C  C182  1  0.29201473  0.66065560  0.19825566  1.0
  C  C183  1  0.20797649  0.16065215  0.30176083  1.0
  C  C184  1  0.71341142  0.40026697  0.80175322  1.0
  C  C185  1  0.78668388  0.90026564  0.69822981  1.0
  C  C186  1  0.28665580  0.59972569  0.19823565  1.0
  C  C187  1  0.21332993  0.09972088  0.30176819  1.0
  C  C188  1  0.71773294  0.15113237  0.69752804  1.0
  C  C189  1  0.78233026  0.65111809  0.80245793  1.0
  C  C190  1  0.28227841  0.84887388  0.30244571  1.0
  C  C191  1  0.21767659  0.34888247  0.19756908  1.0
  C  C192  1  0.71687418  0.21208247  0.69716571  1.0
  C  C193  1  0.78320300  0.71206816  0.80281668  1.0
  C  C194  1  0.28315509  0.78791677  0.30280413  1.0
  C  C195  1  0.21680539  0.28792099  0.19720603  1.0
  C  C196  1  0.68641520  0.24349160  0.74858448  1.0
  C  C197  1  0.81367660  0.74347403  0.75138948  1.0
  C  C198  1  0.31361195  0.75651115  0.25138833  1.0
  C  C199  1  0.18634323  0.25651776  0.24863205  1.0
  C  C200  1  0.65594064  0.20958886  0.79842424  1.0
  C  C201  1  0.84410312  0.70957453  0.70155871  1.0
  C  C202  1  0.34404123  0.79040862  0.20154626  1.0
  C  C203  1  0.15593476  0.29040849  0.29846725  1.0
  C  C204  1  0.65794078  0.14877031  0.79553167  1.0
  C  C205  1  0.84209221  0.64874930  0.70445458  1.0
  C  C206  1  0.34201678  0.85123419  0.20444110  1.0
  C  C207  1  0.15794816  0.35123679  0.29557852  1.0
  C  C208  1  0.02411437  0.49405792  0.62549349  1.0
  C  C209  1  0.47584215  0.99406238  0.87450843  1.0
  C  C210  1  0.97596273  0.50593474  0.37453052  1.0
  C  C211  1  0.52405904  0.00594562  0.12547551  1.0
  C  C212  1  0.08951560  0.54904560  0.53159230  1.0
  C  C213  1  0.41051047  0.04907016  0.96840640  1.0
  C  C214  1  0.91054220  0.45093567  0.46843117  1.0
  C  C215  1  0.58943870  0.95094223  0.03157604  1.0
  C  C216  1  0.05739157  0.48913903  0.56020708  1.0
  C  C217  1  0.44257487  0.98915712  0.93978802  1.0
  C  C218  1  0.94266360  0.51084487  0.43980091  1.0
  C  C219  1  0.55734399  0.01085571  0.06019023  1.0
  C  C220  1  0.88099055  0.45702389  0.53356329  1.0
  C  C221  1  0.61898285  0.95702627  0.96644619  1.0
  C  C222  1  0.11907594  0.54296132  0.46646500  1.0
  C  C223  1  0.38096046  0.04298480  0.03353813  1.0
  N  N224  1  0.20297796  0.36684193  0.75404181  1.0
  N  N225  1  0.29706922  0.86682945  0.74595239  1.0
  N  N226  1  0.79706409  0.63316827  0.24594841  1.0
  N  N227  1  0.70292824  0.13316892  0.25404521  1.0
  N  N228  1  0.18693608  0.05554645  0.74379005  1.0
  N  N229  1  0.31302805  0.55555087  0.75622241  1.0
  N  N230  1  0.81299361  0.94445323  0.25620279  1.0
  N  N231  1  0.68699031  0.44445801  0.24379905  1.0
  N  N232  1  0.70331316  0.43180052  0.75298769  1.0
  N  N233  1  0.79672064  0.93178814  0.74699179  1.0
  N  N234  1  0.29670194  0.56819828  0.24700423  1.0
  N  N235  1  0.20329413  0.06820014  0.25300274  1.0
  N  N236  1  0.68951227  0.11929179  0.74580202  1.0
  N  N237  1  0.81052586  0.61927806  0.75419011  1.0
  N  N238  1  0.31047055  0.88071052  0.25416502  1.0
  N  N239  1  0.18950283  0.38071635  0.24584239  1.0
  O  O240  1  0.02696949  0.48078635  0.85321092  1.0
  O  O241  1  0.47297127  0.98079843  0.64678967  1.0
  O  O242  1  0.97313363  0.51920281  0.14679775  1.0
  O  O243  1  0.52695688  0.01920387  0.35320747  1.0
  O  O244  1  0.33170814  0.44379649  0.87156431  1.0
  O  O245  1  0.16821713  0.94381325  0.62843826  1.0
  O  O246  1  0.66833137  0.55617338  0.12846787  1.0
  O  O247  1  0.83168245  0.05618599  0.37155436  1.0
  O  O248  1  0.12996988  0.46055902  0.65592635  1.0
  O  O249  1  0.36999848  0.96055541  0.84408541  1.0
  O  O250  1  0.87014524  0.53944197  0.34409740  1.0
  O  O251  1  0.62986401  0.03944996  0.15590401  1.0
  O  O252  1  0.89202735  0.52996555  0.64405253  1.0
  O  O253  1  0.60792985  0.02996332  0.85593528  1.0
  O  O254  1  0.10802181  0.47003018  0.35596392  1.0
  O  O255  1  0.39198084  0.97003548  0.14404168  1.0
