# generated using pymatgen
data_Zn2H18C35SN2O11
_symmetry_space_group_name_H-M   'P 1'
_cell_length_a   11.81290799
_cell_length_b   12.97594454
_cell_length_c   13.62314954
_cell_angle_alpha   72.65465206
_cell_angle_beta   83.80489574
_cell_angle_gamma   73.26575807
_symmetry_Int_Tables_number   1
_chemical_formula_structural   Zn2H18C35SN2O11
_chemical_formula_sum   'Zn2 H18 C35 S1 N2 O11'
_cell_volume   1908.27571711
_cell_formula_units_Z   1
loop_
 _symmetry_equiv_pos_site_id
 _symmetry_equiv_pos_as_xyz
  1  'x, y, z'
loop_
 _atom_site_type_symbol
 _atom_site_label
 _atom_site_symmetry_multiplicity
 _atom_site_fract_x
 _atom_site_fract_y
 _atom_site_fract_z
 _atom_site_occupancy
  Zn  Zn0  1  0.46204626  0.62680899  0.49705720  1.0
  Zn  Zn1  1  0.52599321  0.38160735  0.51473460  1.0
  H  H2  1  0.68565515  0.25883603  0.80313102  1.0
  H  H3  1  0.27055499  0.09660467  0.66282833  1.0
  H  H4  1  0.24697636  0.91348596  0.66991435  1.0
  H  H5  1  0.73167119  0.26632647  0.43395630  1.0
  H  H6  1  0.73349388  0.92793091  0.46373932  1.0
  H  H7  1  0.37723656  0.24379384  0.59871701  1.0
  H  H8  1  0.72199152  0.25453135  0.14987096  1.0
  H  H9  1  0.74228143  0.20924743  0.98668808  1.0
  H  H10  1  0.47874547  0.58351787  0.81944286  1.0
  H  H11  1  0.35341029  0.74486947  0.20056692  1.0
  H  H12  1  0.42096530  0.68895975  0.90195294  1.0
  H  H13  1  0.32641595  0.81326002  0.01041119  1.0
  H  H14  1  0.62678119  0.37798770  0.25825309  1.0
  H  H15  1  0.31023235  0.74161340  0.60936899  1.0
  H  H16  1  0.62329552  0.68792128  0.36883845  1.0
  H  H17  1  0.89102722  0.14728688  0.34879507  1.0
  H  H18  1  0.93668199  0.03817924  0.46266654  1.0
  H  H19  1  0.89012691  0.00752168  0.35755554  1.0
  C  C20  1  0.47243750  0.55335244  0.31325514  1.0
  C  C21  1  0.57806694  0.42465822  0.80283605  1.0
  C  C22  1  0.39669411  0.69150813  0.15156947  1.0
  C  C23  1  0.38140879  0.72906692  0.04514514  1.0
  C  C24  1  0.43489602  0.65889155  0.98456150  1.0
  C  C25  1  0.50731362  0.54986284  0.02755517  1.0
  C  C26  1  0.52736662  0.51233243  0.13613653  1.0
  C  C27  1  0.55972524  0.47471033  0.96404628  1.0
  C  C28  1  0.63602029  0.36675090  0.00980711  1.0
  C  C29  1  0.66112432  0.33627523  0.11631455  1.0
  C  C30  1  0.60858970  0.40469293  0.17687424  1.0
  C  C31  1  0.72674447  0.49210621  0.47884080  1.0
  C  C32  1  0.53511937  0.50200989  0.85890815  1.0
  C  C33  1  0.65288990  0.31778447  0.84892922  1.0
  C  C34  1  0.46724415  0.58479173  0.19812384  1.0
  C  C35  1  0.32499319  0.89983116  0.61982671  1.0
  C  C36  1  0.68924926  0.19810670  0.45601844  1.0
  C  C37  1  0.74833771  0.09292732  0.44213067  1.0
  C  C38  1  0.68738008  0.01142484  0.46969763  1.0
  C  C39  1  0.56915913  0.03478142  0.50596858  1.0
  C  C40  1  0.52150992  0.14004507  0.52821320  1.0
  C  C41  1  0.49566042  0.95718668  0.52638266  1.0
  C  C42  1  0.54305025  0.45296254  0.69412386  1.0
  C  C43  1  0.39108641  0.97929031  0.58895553  1.0
  C  C44  1  0.35198715  0.08213104  0.61682302  1.0
  C  C45  1  0.41138524  0.16246805  0.58327924  1.0
  C  C46  1  0.51350748  0.86365346  0.48567135  1.0
  C  C47  1  0.35802697  0.80577659  0.58557537  1.0
  C  C48  1  0.26930313  0.52148070  0.53233690  1.0
  C  C49  1  0.84205900  0.50533486  0.48519520  1.0
  C  C50  1  0.93888369  0.51478706  0.49878924  1.0
  C  C51  1  0.04680313  0.52248315  0.51359517  1.0
  C  C52  1  0.14630490  0.52639349  0.52646532  1.0
  C  C53  1  0.68319157  0.29086557  0.95013371  1.0
  C  C54  1  0.87300961  0.07034175  0.40012939  1.0
  S  S55  1  0.62074306  0.84805199  0.37920083  1.0
  N  N56  1  0.44825731  0.79004269  0.51557155  1.0
  N  N57  1  0.58222481  0.21992247  0.50098476  1.0
  O  O58  1  0.42343061  0.63103136  0.35626261  1.0
  O  O59  1  0.52313075  0.45262449  0.36226975  1.0
  O  O60  1  0.64316561  0.58140757  0.44258912  1.0
  O  O61  1  0.71200267  0.39526617  0.51124402  1.0
  O  O62  1  0.52296959  0.55560377  0.64108674  1.0
  O  O63  1  0.53625285  0.37185926  0.66240657  1.0
  O  O64  1  0.29366919  0.60622278  0.54458117  1.0
  O  O65  1  0.34143856  0.43082570  0.52242309  1.0
  O  O66  1  0.60117578  0.95777070  0.30743954  1.0
  O  O67  1  0.73529044  0.78980336  0.42445952  1.0
  O  O68  1  0.58177613  0.77199165  0.32908408  1.0
