# generated using pymatgen
data_Zr3H2C30N9O16
_symmetry_space_group_name_H-M   'P 1'
_cell_length_a   16.56979659
_cell_length_b   16.56964206
_cell_length_c   16.57347463
_cell_angle_alpha   92.72852827
_cell_angle_beta   92.70383760
_cell_angle_gamma   92.71107965
_symmetry_Int_Tables_number   1
_chemical_formula_structural   Zr3H2C30N9O16
_chemical_formula_sum   'Zr6 H4 C60 N18 O32'
_cell_volume   4534.52048188
_cell_formula_units_Z   2
loop_
 _symmetry_equiv_pos_site_id
 _symmetry_equiv_pos_as_xyz
  1  'x, y, z'
loop_
 _atom_site_type_symbol
 _atom_site_label
 _atom_site_symmetry_multiplicity
 _atom_site_fract_x
 _atom_site_fract_y
 _atom_site_fract_z
 _atom_site_occupancy
  Zr  Zr0  1  0.04220825  0.19957748  0.15973637  1.0
  Zr  Zr1  1  0.15670156  0.25160343  0.99304944  1.0
  Zr  Zr2  1  0.00844575  0.00016689  0.07471459  1.0
  Zr  Zr3  1  0.20884435  0.08494561  0.10756129  1.0
  Zr  Zr4  1  0.95729602  0.16654881  0.95945739  1.0
  Zr  Zr5  1  0.12363057  0.05120454  0.90830448  1.0
  H  H6  1  0.20794296  0.25069289  0.15871291  1.0
  H  H7  1  0.89231979  0.11815782  0.10446931  1.0
  H  H8  1  0.15342537  0.93507454  0.02623765  1.0
  H  H9  1  0.07519485  0.19620897  0.84329773  1.0
  C  C10  1  0.80346238  0.05917374  0.44455121  1.0
  C  C11  1  0.81987488  0.06189261  0.58075559  1.0
  C  C12  1  0.69881922  0.08889665  0.52151388  1.0
  C  C13  1  0.36476161  0.18373401  0.62590266  1.0
  C  C14  1  0.46569512  0.15149225  0.54503202  1.0
  C  C15  1  0.34187222  0.17564126  0.49017035  1.0
  C  C16  1  0.49350929  0.84615685  0.96683185  1.0
  C  C17  1  0.57042765  0.74142678  0.99635831  1.0
  C  C18  1  0.62976034  0.86255185  0.96964890  1.0
  C  C19  1  0.67504837  0.40783487  0.09206976  1.0
  C  C20  1  0.59395782  0.50847279  0.05945051  1.0
  C  C21  1  0.53934041  0.38458488  0.08369543  1.0
  C  C22  1  0.01662758  0.53628904  0.75427182  1.0
  C  C23  1  0.04640979  0.61322000  0.64968173  1.0
  C  C24  1  0.01915898  0.67255029  0.77064164  1.0
  C  C25  1  0.14117670  0.71785303  0.31575342  1.0
  C  C26  1  0.13329113  0.58209351  0.29281857  1.0
  C  C27  1  0.10915373  0.63690549  0.41665843  1.0
  C  C28  1  0.93586720  0.06478602  0.24524715  1.0
  C  C29  1  0.12072803  0.37824595  0.14485745  1.0
  C  C30  1  0.19410981  0.16350685  0.28623792  1.0
  C  C31  1  0.87719554  0.28064914  0.09186922  1.0
  C  C32  1  0.23756538  0.18358103  0.82803486  1.0
  C  C33  1  0.03538899  0.87642429  0.91800369  1.0
  C  C34  1  0.33544362  0.23670871  0.07137739  1.0
  C  C35  1  0.02177943  0.33707470  0.88682106  1.0
  C  C36  1  0.83371333  0.00982712  0.98642607  1.0
  C  C37  1  0.14092429  0.91998674  0.18858554  1.0
  C  C38  1  0.29418890  0.97857078  0.97258330  1.0
  C  C39  1  0.96698958  0.07818175  0.78474187  1.0
  C  C40  1  0.15051852  0.79513942  0.28209130  1.0
  C  C41  1  0.15123236  0.85551978  0.24314217  1.0
  C  C42  1  0.13510368  0.51331048  0.23764292  1.0
  C  C43  1  0.13214305  0.45538366  0.18957668  1.0
  C  C44  1  0.01908769  0.80114639  0.87104138  1.0
  C  C45  1  0.01574958  0.74290633  0.82336459  1.0
  C  C46  1  0.00977715  0.46076697  0.79181961  1.0
  C  C47  1  0.01032479  0.40239907  0.83357306  1.0
  C  C48  1  0.06810634  0.62022537  0.56764324  1.0
  C  C49  1  0.08756434  0.62752136  0.49841343  1.0
  C  C50  1  0.75238154  0.37423274  0.10158697  1.0
  C  C51  1  0.81272653  0.33524433  0.10218293  1.0
  C  C52  1  0.47061258  0.32935398  0.08546429  1.0
  C  C53  1  0.41262890  0.28137302  0.08266402  1.0
  C  C54  1  0.75846542  0.96284577  0.97008021  1.0
  C  C55  1  0.70013469  0.91529457  0.96654588  1.0
  C  C56  1  0.35952362  0.92536037  0.96088077  1.0
  C  C57  1  0.41796541  0.88366787  0.96011569  1.0
  C  C58  1  0.58454281  0.59015259  0.03762802  1.0
  C  C59  1  0.57742045  0.65937566  0.01803318  1.0
  C  C60  1  0.33107356  0.19320574  0.70317529  1.0
  C  C61  1  0.29213272  0.19386730  0.76356203  1.0
  C  C62  1  0.23877117  0.17479561  0.36342193  1.0
  C  C63  1  0.28674812  0.17749742  0.42139645  1.0
  C  C64  1  0.87256684  0.05858650  0.65111855  1.0
  C  C65  1  0.92009843  0.06191427  0.70945207  1.0
  C  C66  1  0.84097815  0.05243269  0.36900921  1.0
  C  C67  1  0.88266786  0.05318262  0.31059030  1.0
  C  C68  1  0.54747892  0.12991022  0.53573217  1.0
  C  C69  1  0.61676843  0.11053007  0.52857245  1.0
  N  N70  1  0.85321054  0.04805987  0.50932616  1.0
  N  N71  1  0.74298823  0.08201954  0.59117259  1.0
  N  N72  1  0.72560650  0.07884382  0.44613594  1.0
  N  N73  1  0.44252497  0.16463561  0.62141718  1.0
  N  N74  1  0.41828947  0.15542115  0.47696909  1.0
  N  N75  1  0.31181997  0.19177413  0.56280666  1.0
  N  N76  1  0.49506433  0.76824692  0.98631960  1.0
  N  N77  1  0.64013128  0.78560090  0.98954217  1.0
  N  N78  1  0.55831849  0.89594713  0.95591640  1.0
  N  N79  1  0.67042615  0.48552905  0.07288427  1.0
  N  N80  1  0.52600665  0.46090445  0.06322707  1.0
  N  N81  1  0.61200562  0.35475629  0.10007559  1.0
  N  N82  1  0.03646740  0.53784104  0.67650182  1.0
  N  N83  1  0.03935485  0.68291454  0.69376397  1.0
  N  N84  1  0.00533762  0.60112226  0.80395728  1.0
  N  N85  1  0.14926987  0.65475604  0.26278305  1.0
  N  N86  1  0.11316638  0.56885989  0.36922111  1.0
  N  N87  1  0.12215481  0.71332298  0.39352721  1.0
  O  O88  1  0.94425944  0.00667941  0.19418103  1.0
  O  O89  1  0.15173946  0.36690299  0.07693798  1.0
  O  O90  1  0.12624021  0.19463158  0.27491358  1.0
  O  O91  1  0.92695505  0.27073890  0.15060139  1.0
  O  O92  1  0.87522370  0.24550147  0.02118798  1.0
  O  O93  1  0.23163098  0.12149358  0.23439415  1.0
  O  O94  1  0.07876648  0.32641020  0.18239419  1.0
  O  O95  1  0.96930449  0.13614757  0.24592011  1.0
  O  O96  1  0.04464723  0.22534938  0.03812704  1.0
  O  O97  1  0.08719641  0.08749425  0.13340803  1.0
  O  O98  1  0.17240576  0.21515745  0.12321291  1.0
  O  O99  1  0.94683538  0.12033909  0.08544999  1.0
  O  O100  1  0.22764818  0.24238004  0.87777113  1.0
  O  O101  1  0.00562690  0.88742236  0.98659619  1.0
  O  O102  1  0.32414295  0.16881046  0.10240268  1.0
  O  O103  1  0.96368352  0.28603887  0.89519318  1.0
  O  O104  1  0.84466276  0.07838683  0.95664384  1.0
  O  O105  1  0.19968072  0.96969006  0.17857803  1.0
  O  O106  1  0.24306090  0.98697440  0.91458364  1.0
  O  O107  1  0.03553175  0.04831899  0.79573176  1.0
  O  O108  1  0.29494853  0.01201001  0.04394926  1.0
  O  O109  1  0.93197463  0.12509277  0.83431294  1.0
  O  O110  1  0.28355655  0.27428223  0.02948360  1.0
  O  O111  1  0.07017547  0.91804780  0.15355465  1.0
  O  O112  1  0.88330849  0.97483824  0.03332025  1.0
  O  O113  1  0.09312697  0.33776331  0.92033088  1.0
  O  O114  1  0.20245582  0.11288956  0.82610290  1.0
  O  O115  1  0.08223249  0.92601741  0.88297581  1.0
  O  O116  1  0.01668648  0.05953657  0.96776083  1.0
  O  O117  1  0.18243755  0.12994952  0.99555993  1.0
  O  O118  1  0.13442087  0.98960103  0.02838753  1.0
  O  O119  1  0.07737325  0.17723885  0.89781678  1.0
