# generated using pymatgen
data_Zn2H41C42N8O11
_symmetry_space_group_name_H-M   'P 1'
_cell_length_a   19.12387497
_cell_length_b   19.17722506
_cell_length_c   19.41477917
_cell_angle_alpha   109.56950073
_cell_angle_beta   106.72735587
_cell_angle_gamma   108.80659203
_symmetry_Int_Tables_number   1
_chemical_formula_structural   Zn2H41C42N8O11
_chemical_formula_sum   'Zn4 H82 C84 N16 O22'
_cell_volume   5691.23097730
_cell_formula_units_Z   2
loop_
 _symmetry_equiv_pos_site_id
 _symmetry_equiv_pos_as_xyz
  1  'x, y, z'
loop_
 _atom_site_type_symbol
 _atom_site_label
 _atom_site_symmetry_multiplicity
 _atom_site_fract_x
 _atom_site_fract_y
 _atom_site_fract_z
 _atom_site_occupancy
  Zn  Zn0  1  0.38651120  0.90943252  0.02256985  1.0
  Zn  Zn1  1  0.60392185  0.12111660  0.00710246  1.0
  Zn  Zn2  1  0.49378357  0.12708406  0.12468253  1.0
  Zn  Zn3  1  0.49382763  0.89830210  0.89789978  1.0
  H  H4  1  0.13771435  0.86034087  0.91882873  1.0
  H  H5  1  0.13943625  0.29996958  0.41486034  1.0
  H  H6  1  0.07869811  0.21922960  0.42996842  1.0
  H  H7  1  0.26770823  0.30631166  0.50587803  1.0
  H  H8  1  0.20707733  0.22492437  0.51889437  1.0
  H  H9  1  0.14160443  0.12763972  0.36632590  1.0
  H  H10  1  0.25025318  0.16794153  0.41066453  1.0
  H  H11  1  0.20325341  0.20966886  0.35384311  1.0
  H  H12  1  0.02538986  0.22524677  0.53414053  1.0
  H  H13  1  0.14829634  0.57916181  0.59102815  1.0
  H  H14  1  0.62492692  0.14356073  0.79453384  1.0
  H  H15  1  0.84902564  0.13719816  0.06209102  1.0
  H  H16  1  0.45376279  0.87791219  0.23543346  1.0
  H  H17  1  0.56099083  0.43313085  0.26203878  1.0
  H  H18  1  0.60855734  0.42807030  0.19499618  1.0
  H  H19  1  0.60059968  0.33047229  0.29256612  1.0
  H  H20  1  0.64713527  0.32429753  0.22560192  1.0
  H  H21  1  0.74899968  0.47791771  0.31412669  1.0
  H  H22  1  0.75492120  0.42132303  0.36963740  1.0
  H  H23  1  0.70389795  0.48401593  0.38274578  1.0
  H  H24  1  0.62772263  0.75502963  0.88564484  1.0
  H  H25  1  0.53589910  0.68672334  0.88128225  1.0
  H  H26  1  0.99651750  0.56574139  0.60146051  1.0
  H  H27  1  0.71204580  0.76267045  0.01497246  1.0
  H  H28  1  0.62193805  0.69669052  0.01426492  1.0
  H  H29  1  0.58947810  0.58054725  0.88138870  1.0
  H  H30  1  0.68850403  0.61345050  0.95684546  1.0
  H  H31  1  0.67927565  0.64567805  0.88033597  1.0
  H  H32  1  0.42461721  0.69470418  0.64831772  1.0
  H  H33  1  0.32165552  0.65399607  0.63662153  1.0
  H  H34  1  0.44210182  0.58347726  0.67772350  1.0
  H  H35  1  0.34318808  0.54578093  0.67488407  1.0
  H  H36  1  0.27573556  0.50698341  0.52721711  1.0
  H  H37  1  0.94829935  0.50670161  0.64403861  1.0
  H  H38  1  0.33949360  0.45860886  0.54172773  1.0
  H  H39  1  0.37344018  0.54812209  0.52733185  1.0
  H  H40  1  0.63232736  0.17080858  0.38458957  1.0
  H  H41  1  0.71857031  0.23911712  0.38098650  1.0
  H  H42  1  0.69254581  0.07445310  0.38589866  1.0
  H  H43  1  0.77819081  0.13892623  0.37925484  1.0
  H  H44  1  0.81563595  0.25879502  0.51329166  1.0
  H  H45  1  0.81592795  0.17090029  0.52475562  1.0
  H  H46  1  0.73190277  0.19293780  0.52143862  1.0
  H  H47  1  0.48267288  0.23137124  0.87755425  1.0
  H  H48  1  0.86085454  0.54934600  0.51667891  1.0
  H  H49  1  0.33270671  0.66157039  0.98293241  1.0
  H  H50  1  0.15351562  0.64852308  0.78467003  1.0
  H  H51  1  0.84772259  0.29958649  0.21867300  1.0
  H  H52  1  0.28107626  0.80247358  0.61647939  1.0
  H  H53  1  0.33726672  0.90412936  0.62938660  1.0
  H  H54  1  0.25046857  0.86462212  0.73268061  1.0
  H  H55  1  0.30701919  0.96582458  0.74737094  1.0
  H  H56  1  0.20759220  0.92744291  0.60614009  1.0
  H  H57  1  0.15499919  0.91264370  0.66590925  1.0
  H  H58  1  0.15016315  0.82526925  0.59017130  1.0
  H  H59  1  0.81239006  0.49167404  0.55856886  1.0
  H  H60  1  0.52056449  0.25848482  0.42202940  1.0
  H  H61  1  0.53337469  0.17038823  0.42193806  1.0
  H  H62  1  0.36908985  0.17595927  0.36153981  1.0
  H  H63  1  0.37721960  0.08353187  0.34905498  1.0
  H  H64  1  0.45377651  0.14320387  0.50072317  1.0
  H  H65  1  0.35655892  0.14189853  0.47391051  1.0
  H  H66  1  0.44700611  0.23720686  0.51603342  1.0
  H  H67  1  0.37829920  0.22937087  0.17888048  1.0
  H  H68  1  0.27349591  0.14883146  0.12244945  1.0
  H  H69  1  0.33861137  0.31050963  0.11029281  1.0
  H  H70  1  0.90000515  0.61769136  0.69933949  1.0
  H  H71  1  0.23453747  0.23198306  0.05968164  1.0
  H  H72  1  0.23423868  0.25912202  0.19723549  1.0
  H  H73  1  0.25766151  0.35050389  0.18548377  1.0
  H  H74  1  0.33774632  0.33924634  0.24692925  1.0
  H  H75  1  0.62696949  0.77895422  0.73616820  1.0
  H  H76  1  0.71400049  0.88035363  0.79375523  1.0
  H  H77  1  0.53592228  0.84440627  0.70000165  1.0
  H  H78  1  0.62390473  0.94284026  0.75200628  1.0
  H  H79  1  0.68131579  0.88794819  0.65501744  1.0
  H  H80  1  0.58358714  0.87913040  0.60204903  1.0
  H  H81  1  0.84302952  0.64251478  0.62992279  1.0
  H  H82  1  0.59186448  0.78953088  0.60218139  1.0
  H  H83  1  0.98778813  0.33895425  0.65205967  1.0
  H  H84  1  0.08442314  0.44406185  0.40243737  1.0
  H  H85  1  0.94944555  0.67533826  0.65744021  1.0
  C  C86  1  0.24775267  0.94533988  0.96797503  1.0
  C  C87  1  0.09342061  0.36345019  0.52671091  1.0
  C  C88  1  0.01859853  0.39405119  0.59126665  1.0
  C  C89  1  0.05093150  0.38719142  0.46061209  1.0
  C  C90  1  0.22707313  0.58967612  0.70857544  1.0
  C  C91  1  0.82124531  0.25183605  0.32274813  1.0
  C  C92  1  0.06256062  0.46678550  0.52958914  1.0
  C  C93  1  0.00613838  0.31369831  0.52099180  1.0
  C  C94  1  0.10625158  0.44500761  0.59695195  1.0
  C  C95  1  0.96239911  0.33554266  0.45450030  1.0
  C  C96  1  0.17691730  0.51495065  0.66548703  1.0
  C  C97  1  0.73637445  0.05771273  0.00642191  1.0
  C  C98  1  0.88840854  0.28555626  0.38158027  1.0
  C  C99  1  0.49635133  0.00061040  0.67566918  1.0
  C  C100  1  0.48106254  0.01551651  0.34998333  1.0
  C  C101  1  0.56255139  0.07496393  0.82798881  1.0
  C  C102  1  0.45358167  0.96132474  0.20418807  1.0
  C  C103  1  0.49749473  0.99809845  0.61153758  1.0
  C  C104  1  0.48842514  0.00532895  0.41079128  1.0
  C  C105  1  0.49616702  0.99730525  0.54218570  1.0
  C  C106  1  0.49388196  0.99889155  0.47827727  1.0
  C  C107  1  0.46086962  0.65317764  0.96530345  1.0
  C  C108  1  0.50055022  0.00825551  0.75041891  1.0
  C  C109  1  0.47705415  0.33977777  0.99661702  1.0
  C  C110  1  0.45409185  0.58453884  0.95835797  1.0
  C  C111  1  0.46557328  0.39243932  0.97855992  1.0
  C  C112  1  0.45350076  0.51484940  0.95872718  1.0
  C  C113  1  0.45715152  0.45349285  0.96443061  1.0
  C  C114  1  0.15995847  0.01824991  0.96876905  1.0
  C  C115  1  0.81440955  0.00048075  0.94114667  1.0
  C  C116  1  0.09308371  0.01817508  0.95798317  1.0
  C  C117  1  0.88170453  0.00897833  0.94238920  1.0
  C  C118  1  0.02104401  0.01751222  0.95000783  1.0
  C  C119  1  0.47033863  0.02430135  0.28017364  1.0
  C  C120  1  0.95387389  0.01406668  0.94511366  1.0
  C  C121  1  0.50461820  0.27575739  0.09099484  1.0
  C  C122  1  0.52772552  0.80160376  0.98139557  1.0
  C  C123  1  0.36101655  0.72783123  0.78103171  1.0
  C  C124  1  0.66493852  0.15763316  0.23235620  1.0
  C  C125  1  0.50088725  0.21409792  0.96986025  1.0
  C  C126  1  0.41125933  0.75960544  0.99353670  1.0
  C  C127  1  0.25909514  0.72986665  0.81281163  1.0
  C  C128  1  0.73670700  0.22659352  0.18412329  1.0
  C  C129  1  0.45133400  0.95272207  0.77104549  1.0
  C  C130  1  0.49217737  0.28217412  0.01807780  1.0
  C  C131  1  0.47091144  0.09093527  0.26246837  1.0
  C  C132  1  0.31634263  0.08333447  0.02386836  1.0
  C  C133  1  0.65920620  0.93160785  0.89929413  1.0
  C  C134  1  0.23469783  0.01635971  0.98395210  1.0
  C  C135  1  0.74228580  0.99585062  0.94597328  1.0
  C  C136  1  0.93810290  0.51696517  0.59009610  1.0
  C  C137  1  0.87045130  0.54249318  0.57224282  1.0
  C  C138  1  0.89186348  0.62390493  0.64362736  1.0
  C  C139  1  0.13962520  0.27399000  0.45759864  1.0
  C  C140  1  0.20816863  0.24955396  0.47526815  1.0
  C  C141  1  0.46698643  0.73066925  0.97671933  1.0
  C  C142  1  0.20037777  0.18519036  0.39728257  1.0
  C  C143  1  0.57830666  0.39332927  0.22208349  1.0
  C  C144  1  0.63402938  0.36659648  0.26837192  1.0
  C  C145  1  0.71481667  0.44159299  0.33757623  1.0
  C  C146  1  0.59917003  0.73711670  0.92271636  1.0
  C  C147  1  0.64934640  0.71055730  0.97486503  1.0
  C  C148  1  0.65189733  0.63334743  0.92036774  1.0
  C  C149  1  0.38309265  0.66028694  0.66787195  1.0
  C  C150  1  0.37933892  0.57514884  0.64837225  1.0
  C  C151  1  0.34006270  0.51930668  0.55614858  1.0
  C  C152  1  0.27972303  0.67420706  0.76253160  1.0
  C  C153  1  0.68067075  0.17369058  0.36419145  1.0
  C  C154  1  0.73257360  0.13945743  0.40297676  1.0
  C  C155  1  0.77634830  0.19344332  0.49580855  1.0
  C  C156  1  0.31693901  0.86926543  0.66091612  1.0
  C  C157  1  0.26742116  0.89993058  0.70052314  1.0
  C  C158  1  0.19089991  0.89081131  0.63724985  1.0
  C  C159  1  0.49179924  0.18994399  0.39045908  1.0
  C  C160  1  0.40780431  0.15146790  0.38869139  1.0
  C  C161  1  0.41689794  0.16965923  0.47461741  1.0
  C  C162  1  0.32088676  0.20017073  0.12262743  1.0
  C  C163  1  0.74631728  0.21439834  0.25346246  1.0
  C  C164  1  0.29236145  0.26368002  0.11590047  1.0
  C  C165  1  0.27983106  0.30542023  0.19044552  1.0
  C  C166  1  0.64659983  0.84606413  0.76993270  1.0
  C  C167  1  0.60211925  0.87538331  0.71644466  1.0
  C  C168  1  0.61550644  0.85701564  0.63971767  1.0
  C  C169  1  0.97649193  0.41848079  0.52614872  1.0
  N  N170  1  0.32832709  0.96802291  0.99371938  1.0
  N  N171  1  0.43713257  0.83827271  0.00792640  1.0
  N  N172  1  0.32017981  0.80747059  0.85681133  1.0
  N  N173  1  0.65883480  0.18093784  0.12712829  1.0
  N  N174  1  0.48127831  0.98395556  0.85245658  1.0
  N  N175  1  0.45525454  0.06822167  0.18458947  1.0
  N  N176  1  0.37177350  0.05450827  0.02966646  1.0
  N  N177  1  0.61193176  0.95502128  0.92999810  1.0
  N  N178  1  0.65912350  0.03416364  0.99724844  1.0
  N  N179  1  0.55065666  0.06065617  0.88686600  1.0
  N  N180  1  0.44384426  0.98635694  0.14752294  1.0
  N  N181  1  0.51971213  0.21142491  0.08543562  1.0
  N  N182  1  0.50908562  0.86561934  0.99822977  1.0
  N  N183  1  0.38328314  0.80511097  0.83565440  1.0
  N  N184  1  0.61215391  0.13770895  0.15711313  1.0
  N  N185  1  0.51857985  0.17260289  0.00993987  1.0
  O  O186  1  0.19285156  0.86463651  0.93477167  1.0
  O  O187  1  0.59600883  0.81167593  0.97119088  1.0
  O  O188  1  0.41567863  0.71309337  0.75492055  1.0
  O  O189  1  0.63642620  0.12464333  0.27560951  1.0
  O  O190  1  0.49452413  0.19175830  0.89366528  1.0
  O  O191  1  0.34160045  0.71871625  0.99723532  1.0
  O  O192  1  0.18620152  0.70917019  0.81741652  1.0
  O  O193  1  0.79444987  0.27781628  0.17296257  1.0
  O  O194  1  0.38843779  0.87516595  0.72038830  1.0
  O  O195  1  0.48772790  0.16960088  0.30985016  1.0
  O  O196  1  0.33867756  0.16551788  0.05414143  1.0
  O  O197  1  0.79846909  0.13280151  0.06684985  1.0
  O  O198  1  0.62554837  0.85379786  0.83740180  1.0
  O  O199  1  0.00169420  0.39429000  0.65594393  1.0
  O  O200  1  0.06678495  0.38725908  0.39539506  1.0
  O  O201  1  0.91399250  0.43992705  0.51979350  1.0
  O  O202  1  0.15301697  0.33714523  0.53405134  1.0
  O  O203  1  0.97836878  0.23640127  0.51945632  1.0
  O  O204  1  0.09962017  0.54542428  0.53684048  1.0
  O  O205  1  0.62677369  0.14526372  0.84590325  1.0
  O  O206  1  0.44423782  0.88364060  0.18583902  1.0
  O  O207  1  0.49963230  0.32278527  0.15739710  1.0
