# generated using pymatgen
data_Al2H15C24NO12
_symmetry_space_group_name_H-M   'P 1'
_cell_length_a   6.63629679
_cell_length_b   16.92809591
_cell_length_c   19.69954172
_cell_angle_alpha   71.13388295
_cell_angle_beta   89.85065484
_cell_angle_gamma   89.92414484
_symmetry_Int_Tables_number   1
_chemical_formula_structural   Al2H15C24NO12
_chemical_formula_sum   'Al4 H30 C48 N2 O24'
_cell_volume   2094.14462632
_cell_formula_units_Z   2
loop_
 _symmetry_equiv_pos_site_id
 _symmetry_equiv_pos_as_xyz
  1  'x, y, z'
loop_
 _atom_site_type_symbol
 _atom_site_label
 _atom_site_symmetry_multiplicity
 _atom_site_fract_x
 _atom_site_fract_y
 _atom_site_fract_z
 _atom_site_occupancy
  Al  Al0  1  0.01438926  0.50273420  0.50167381  1.0
  Al  Al1  1  0.98546656  0.00395536  0.00039029  1.0
  Al  Al2  1  0.51553518  0.49972454  0.50100481  1.0
  Al  Al3  1  0.48499386  0.99816894  0.00222375  1.0
  H  H4  1  0.93753000  0.25091287  0.30971745  1.0
  H  H5  1  0.05238440  0.82602936  0.74997363  1.0
  H  H6  1  0.94221859  0.33630233  0.39150093  1.0
  H  H7  1  0.05064242  0.90373826  0.83785656  1.0
  H  H8  1  0.56933249  0.39006164  0.34502576  1.0
  H  H9  1  0.43469415  0.83270448  0.89136523  1.0
  H  H10  1  0.56252777  0.31130726  0.25795319  1.0
  H  H11  1  0.43767861  0.75044413  0.80692943  1.0
  H  H12  1  0.55099115  0.18022626  0.24925893  1.0
  H  H13  1  0.44009618  0.76005214  0.68771544  1.0
  H  H14  1  0.54434341  0.10216997  0.16220440  1.0
  H  H15  1  0.44920304  0.67576911  0.60540678  1.0
  H  H16  1  0.92866273  0.17611331  0.11089624  1.0
  H  H17  1  0.06746647  0.61202619  0.66104889  1.0
  H  H18  1  0.72799401  0.26789774  0.66906214  1.0
  H  H19  1  0.27673515  0.76768760  0.17063993  1.0
  H  H20  1  0.57510821  0.20843551  0.62830316  1.0
  H  H21  1  0.42896308  0.70828789  0.12931195  1.0
  H  H22  1  0.72326599  0.14978320  0.78533229  1.0
  H  H23  1  0.28371689  0.64942482  0.28700134  1.0
  H  H24  1  0.57592177  0.08914975  0.74487396  1.0
  H  H25  1  0.43045923  0.58895054  0.24591332  1.0
  H  H26  1  0.93799519  0.25969747  0.19357268  1.0
  H  H27  1  0.05820932  0.69279676  0.74604946  1.0
  H  H28  1  0.98273497  0.23997537  0.84076356  1.0
  H  H29  1  0.02341329  0.74103439  0.33984308  1.0
  H  H30  1  0.76863518  0.39673817  0.55323208  1.0
  H  H31  1  0.22613583  0.89589356  0.05178819  1.0
  H  H32  1  0.27057190  0.59731980  0.51373805  1.0
  H  H33  1  0.72649801  0.09614856  0.01567841  1.0
  C  C34  1  0.75841977  0.61129022  0.38783896  1.0
  C  C35  1  0.24669169  0.11113500  0.88809153  1.0
  C  C36  1  0.76656077  0.59035499  0.57703052  1.0
  C  C37  1  0.23155670  0.08777844  0.07881679  1.0
  C  C38  1  0.26865811  0.38937157  0.61667805  1.0
  C  C39  1  0.73284685  0.88912881  0.11639570  1.0
  C  C40  1  0.25812012  0.41650495  0.42417435  1.0
  C  C41  1  0.74353283  0.91878844  0.92263025  1.0
  C  C42  1  0.07518622  0.28318683  0.31561909  1.0
  C  C43  1  0.91773451  0.82587699  0.78188114  1.0
  C  C44  1  0.07733270  0.32982121  0.36214860  1.0
  C  C45  1  0.91716124  0.87013689  0.83025084  1.0
  C  C46  1  0.25604715  0.36785584  0.37336949  1.0
  C  C47  1  0.74295891  0.87252025  0.87001671  1.0
  C  C48  1  0.43146790  0.35969404  0.33637452  1.0
  C  C49  1  0.56918572  0.83045935  0.86013602  1.0
  C  C50  1  0.42734664  0.31466932  0.28852156  1.0
  C  C51  1  0.57119890  0.78545218  0.81227924  1.0
  C  C52  1  0.24972024  0.27503234  0.27758967  1.0
  C  C53  1  0.74559150  0.78203250  0.77246384  1.0
  C  C54  1  0.41583851  0.18168085  0.21747418  1.0
  C  C55  1  0.57755538  0.72686940  0.68281816  1.0
  C  C56  1  0.41252567  0.13733230  0.16911533  1.0
  C  C57  1  0.58243886  0.68048914  0.63605860  1.0
  C  C58  1  0.23678704  0.13521940  0.13044044  1.0
  C  C59  1  0.75997796  0.63992103  0.62711035  1.0
  C  C60  1  0.06506828  0.17812232  0.14095194  1.0
  C  C61  1  0.93179136  0.64565239  0.66654912  1.0
  C  C62  1  0.07029100  0.22391926  0.18806973  1.0
  C  C63  1  0.92583147  0.69130912  0.71377008  1.0
  C  C64  1  0.24564528  0.22652889  0.22735875  1.0
  C  C65  1  0.74930351  0.73321621  0.72251268  1.0
  C  C66  1  0.40607057  0.19049899  0.76825970  1.0
  C  C67  1  0.60035890  0.69050566  0.26857775  1.0
  C  C68  1  0.25355427  0.18083674  0.81893066  1.0
  C  C69  1  0.75343031  0.68115169  0.31875161  1.0
  C  C70  1  0.10479534  0.24340010  0.80283100  1.0
  C  C71  1  0.90128693  0.74405112  0.30221896  1.0
  C  C72  1  0.11632935  0.31169436  0.74034681  1.0
  C  C73  1  0.88836133  0.81243569  0.23973607  1.0
  C  C74  1  0.26748370  0.32149850  0.68751760  1.0
  C  C75  1  0.73683527  0.82164103  0.18738549  1.0
  C  C76  1  0.40971924  0.25777290  0.70418145  1.0
  C  C77  1  0.59540937  0.75769042  0.20454555  1.0
  C  C78  1  0.59701943  0.22642743  0.67659340  1.0
  C  C79  1  0.40778069  0.72624883  0.17768456  1.0
  C  C80  1  0.59510981  0.15154521  0.74973821  1.0
  C  C81  1  0.41116314  0.65134417  0.25084973  1.0
  N  N82  1  0.97054035  0.37927752  0.73456333  1.0
  N  N83  1  0.03228759  0.88075036  0.23347949  1.0
  O  O84  1  0.59967141  0.57626019  0.55078958  1.0
  O  O85  1  0.40005863  0.07207866  0.05434959  1.0
  O  O86  1  0.92685209  0.59309620  0.41971246  1.0
  O  O87  1  0.07710835  0.09450914  0.91967154  1.0
  O  O88  1  0.08900672  0.44272737  0.43895374  1.0
  O  O89  1  0.91131210  0.94837898  0.93436935  1.0
  O  O90  1  0.93944086  0.56610551  0.56311154  1.0
  O  O91  1  0.05873538  0.06721354  0.06181855  1.0
  O  O92  1  0.09900903  0.41043291  0.58613915  1.0
  O  O93  1  0.90063371  0.91007893  0.08416814  1.0
  O  O94  1  0.59047892  0.57626056  0.40985880  1.0
  O  O95  1  0.41280833  0.07481642  0.91058973  1.0
  O  O96  1  0.76636930  0.44920162  0.51409229  1.0
  O  O97  1  0.23260887  0.94895869  0.01343016  1.0
  O  O98  1  0.44089343  0.41667880  0.59167096  1.0
  O  O99  1  0.55936608  0.91609592  0.09285820  1.0
  O  O100  1  0.42767326  0.42786097  0.44971802  1.0
  O  O101  1  0.57705486  0.92487118  0.95298376  1.0
  O  O102  1  0.26635743  0.55170403  0.49406745  1.0
  O  O103  1  0.73253919  0.05188378  0.99442354  1.0
  O  O104  1  0.03784091  0.45125649  0.71694312  1.0
  O  O105  1  0.79219617  0.35935902  0.75016913  1.0
  O  O106  1  0.21029072  0.86147723  0.25024302  1.0
  O  O107  1  0.96403057  0.95268732  0.21419186  1.0
