# generated using pymatgen
data_ZnH24C29(NO2)2
_symmetry_space_group_name_H-M   'P 1'
_cell_length_a   15.53257934
_cell_length_b   16.65201332
_cell_length_c   17.75541548
_cell_angle_alpha   87.50214700
_cell_angle_beta   86.55505726
_cell_angle_gamma   69.32990630
_symmetry_Int_Tables_number   1
_chemical_formula_structural   ZnH24C29(NO2)2
_chemical_formula_sum   'Zn2 H48 C58 N4 O8'
_cell_volume   4287.79938869
_cell_formula_units_Z   2
loop_
 _symmetry_equiv_pos_site_id
 _symmetry_equiv_pos_as_xyz
  1  'x, y, z'
loop_
 _atom_site_type_symbol
 _atom_site_label
 _atom_site_symmetry_multiplicity
 _atom_site_fract_x
 _atom_site_fract_y
 _atom_site_fract_z
 _atom_site_occupancy
  Zn  Zn0  1  0.50434214  0.58566934  0.49389204  1.0
  Zn  Zn1  1  0.50859524  0.40954163  0.50585393  1.0
  H  H2  1  0.89909869  0.73090814  0.45823723  1.0
  H  H3  1  0.12099764  0.27370887  0.41841607  1.0
  H  H4  1  0.40486907  0.88480424  0.58976464  1.0
  H  H5  1  0.58658708  0.11307325  0.40834914  1.0
  H  H6  1  0.41439210  0.73230178  0.57570876  1.0
  H  H7  1  0.57954243  0.26543752  0.41740698  1.0
  H  H8  1  0.77834657  0.53233876  0.46799119  1.0
  H  H9  1  0.23986798  0.46705844  0.45797472  1.0
  H  H10  1  0.80958814  0.26838952  0.45844725  1.0
  H  H11  1  0.20391360  0.73026067  0.48602583  1.0
  H  H12  1  0.83057516  0.62037575  0.45225878  1.0
  H  H13  1  0.18765937  0.38378923  0.42150962  1.0
  H  H14  1  0.36700716  0.64052522  0.13428588  1.0
  H  H15  1  0.47822781  0.37948432  0.88073598  1.0
  H  H16  1  0.39315040  0.63056395  0.27249904  1.0
  H  H17  1  0.50759717  0.37738691  0.74069380  1.0
  H  H18  1  0.54400312  0.36049853  0.25608097  1.0
  H  H19  1  0.46248460  0.64677760  0.73642114  1.0
  H  H20  1  0.52203457  0.36966967  0.11708537  1.0
  H  H21  1  0.43190794  0.65060368  0.87647702  1.0
  H  H22  1  0.51460162  0.67885582  0.31123306  1.0
  H  H23  1  0.56594265  0.75624675  0.28168965  1.0
  H  H24  1  0.62434012  0.64538509  0.26331023  1.0
  H  H25  1  0.69301647  0.68484828  0.37349854  1.0
  H  H26  1  0.63899064  0.61048052  0.40123212  1.0
  H  H27  1  0.25992475  0.30457745  0.60295049  1.0
  H  H28  1  0.24651235  0.39972024  0.65162643  1.0
  H  H29  1  0.27991050  0.39259812  0.55439029  1.0
  H  H30  1  0.39780605  0.28939292  0.68317428  1.0
  H  H31  1  0.41521712  0.37479496  0.63008377  1.0
  H  H32  1  0.69627815  0.89257189  0.48277448  1.0
  H  H33  1  0.75274653  0.78531230  0.45377661  1.0
  H  H34  1  0.76195579  0.87183504  0.39557271  1.0
  H  H35  1  0.64976482  0.81742372  0.34133077  1.0
  H  H36  1  0.59080908  0.92133012  0.37574214  1.0
  H  H37  1  0.53507608  0.04276925  0.67340773  1.0
  H  H38  1  0.50099737  0.14238131  0.71967197  1.0
  H  H39  1  0.44227376  0.06947360  0.74263081  1.0
  H  H40  1  0.34636945  0.18777025  0.65885672  1.0
  H  H41  1  0.38254302  0.08906800  0.61227860  1.0
  H  H42  1  0.05726713  0.83097990  0.48083700  1.0
  H  H43  1  0.93628505  0.89835127  0.39631570  1.0
  H  H44  1  0.94643472  0.79511450  0.36574191  1.0
  H  H45  1  0.03787447  0.83420248  0.34385071  1.0
  H  H46  1  0.05282528  0.19943460  0.39870768  1.0
  H  H47  1  0.01103843  0.08078955  0.41385922  1.0
  H  H48  1  0.90515342  0.15398063  0.37945101  1.0
  H  H49  1  0.91863059  0.13462386  0.47835397  1.0
  C  C50  1  0.50304356  0.50943694  0.64611488  1.0
  C  C51  1  0.49019591  0.49085175  0.35435188  1.0
  C  C52  1  0.90527841  0.60164942  0.44880101  1.0
  C  C53  1  0.11307086  0.40232306  0.42796747  1.0
  C  C54  1  0.94329108  0.66415293  0.45145579  1.0
  C  C55  1  0.07460336  0.33991030  0.42558877  1.0
  C  C56  1  0.40644807  0.57939692  0.16096460  1.0
  C  C57  1  0.47441847  0.43801238  0.84888824  1.0
  C  C58  1  0.42088870  0.57392544  0.23776390  1.0
  C  C59  1  0.49074377  0.43676749  0.77118200  1.0
  C  C60  1  0.47164024  0.49532842  0.27217165  1.0
  C  C61  1  0.48675299  0.51186809  0.73018388  1.0
  C  C62  1  0.50579053  0.42148212  0.22859724  1.0
  C  C63  1  0.46525546  0.58880264  0.76869277  1.0
  C  C64  1  0.49311359  0.42650687  0.15152600  1.0
  C  C65  1  0.44824140  0.59089288  0.84646433  1.0
  C  C66  1  0.44437921  0.50601766  0.11611623  1.0
  C  C67  1  0.45332520  0.51519269  0.88806835  1.0
  C  C68  1  0.43866774  0.51178351  0.03668176  1.0
  C  C69  1  0.44194507  0.51493015  0.96774581  1.0
  C  C70  1  0.45102885  0.84420369  0.54698704  1.0
  C  C71  1  0.54790975  0.15302618  0.45464624  1.0
  C  C72  1  0.32782285  0.56813832  0.49622603  1.0
  C  C73  1  0.68499050  0.42747492  0.48206838  1.0
  C  C74  1  0.45587861  0.76043634  0.53938557  1.0
  C  C75  1  0.54393982  0.23689774  0.45918209  1.0
  C  C76  1  0.56691195  0.73718651  0.43940528  1.0
  C  C77  1  0.44855469  0.25928405  0.56941891  1.0
  C  C78  1  0.56642813  0.82173483  0.44328070  1.0
  C  C79  1  0.45138287  0.17363449  0.57053204  1.0
  C  C80  1  0.50721209  0.87593436  0.49842646  1.0
  C  C81  1  0.50115271  0.12010814  0.51123324  1.0
  C  C82  1  0.50439267  0.96130753  0.50432759  1.0
  C  C83  1  0.50344915  0.03462230  0.50791155  1.0
  C  C84  1  0.22874796  0.59515586  0.47713925  1.0
  C  C85  1  0.78664677  0.40288221  0.46464941  1.0
  C  C86  1  0.08007118  0.70767591  0.46090768  1.0
  C  C87  1  0.93702190  0.29373102  0.43858017  1.0
  C  C88  1  0.17268493  0.68268323  0.47568063  1.0
  C  C89  1  0.84246001  0.31639658  0.45401838  1.0
  C  C90  1  0.19299416  0.53326322  0.45941369  1.0
  C  C91  1  0.82445277  0.46692445  0.45875045  1.0
  C  C92  1  0.09851439  0.55516741  0.44739888  1.0
  C  C93  1  0.91989024  0.44702937  0.44451002  1.0
  C  C94  1  0.04033055  0.64332160  0.45141268  1.0
  C  C95  1  0.97779033  0.35935220  0.43538750  1.0
  C  C96  1  0.05786351  0.49017928  0.43835222  1.0
  C  C97  1  0.96076733  0.51306975  0.44283322  1.0
  C  C98  1  0.62573961  0.67667137  0.38074725  1.0
  C  C99  1  0.57973893  0.69072442  0.30460327  1.0
  C  C100  1  0.39005241  0.32132440  0.62714782  1.0
  C  C101  1  0.28801156  0.35606103  0.60790164  1.0
  C  C102  1  0.62912272  0.85450181  0.39305597  1.0
  C  C103  1  0.71507999  0.85096858  0.43362874  1.0
  C  C104  1  0.40697680  0.13744106  0.63446469  1.0
  C  C105  1  0.47534216  0.09553333  0.69622392  1.0
  C  C106  1  0.98464238  0.83257380  0.38758254  1.0
  C  C107  1  0.95467562  0.14177578  0.42459085  1.0
  N  N108  1  0.51219488  0.70826916  0.48703862  1.0
  N  N109  1  0.49515918  0.28899522  0.51479002  1.0
  N  N110  1  0.02326030  0.79524300  0.45985283  1.0
  N  N111  1  0.99309901  0.20880526  0.42922332  1.0
  O  O112  1  0.50253594  0.57792153  0.61124861  1.0
  O  O113  1  0.50907563  0.41816788  0.38826644  1.0
  O  O114  1  0.51515570  0.43790132  0.61575371  1.0
  O  O115  1  0.48551096  0.56088156  0.38363940  1.0
  O  O116  1  0.36138727  0.62676958  0.50396562  1.0
  O  O117  1  0.65126570  0.36814956  0.49178269  1.0
  O  O118  1  0.37148503  0.48751110  0.50303853  1.0
  O  O119  1  0.63913921  0.50796210  0.48559805  1.0
