# generated using pymatgen
data_Al3H32C42(BrO7)2
_symmetry_space_group_name_H-M   'P 1'
_cell_length_a   12.95186660
_cell_length_b   13.11554901
_cell_length_c   28.33553473
_cell_angle_alpha   89.82831330
_cell_angle_beta   89.95393888
_cell_angle_gamma   119.19109874
_symmetry_Int_Tables_number   1
_chemical_formula_structural   Al3H32C42(BrO7)2
_chemical_formula_sum   'Al6 H64 C84 Br4 O28'
_cell_volume   4202.03839884
_cell_formula_units_Z   2
loop_
 _symmetry_equiv_pos_site_id
 _symmetry_equiv_pos_as_xyz
  1  'x, y, z'
loop_
 _atom_site_type_symbol
 _atom_site_label
 _atom_site_symmetry_multiplicity
 _atom_site_fract_x
 _atom_site_fract_y
 _atom_site_fract_z
 _atom_site_occupancy
  Al  Al0  1  0.40800824  0.58611590  0.50313413  1.0
  Al  Al1  1  0.65348099  0.58048287  0.50071163  1.0
  Al  Al2  1  0.42782521  0.35172993  0.49987605  1.0
  Al  Al3  1  0.91971306  0.07525824  0.00227769  1.0
  Al  Al4  1  0.91267805  0.31664612  0.99984973  1.0
  Al  Al5  1  0.68070266  0.09322737  0.00048085  1.0
  H  H6  1  0.80973931  0.51841013  0.77667523  1.0
  H  H7  1  0.88930475  0.41324846  0.70884633  1.0
  H  H8  1  0.49124426  0.23171823  0.77840373  1.0
  H  H9  1  0.57024780  0.12590963  0.71059543  1.0
  H  H10  1  0.78295262  0.20337374  0.76211083  1.0
  H  H11  1  0.22337941  0.21367233  0.80364824  1.0
  H  H12  1  0.20018544  0.17649034  0.72152503  1.0
  H  H13  1  0.98821757  0.28366826  0.70015377  1.0
  H  H14  1  0.00521023  0.15829559  0.69525445  1.0
  H  H15  1  0.00734100  0.13529631  0.77784828  1.0
  H  H16  1  0.94512264  0.22880401  0.78029843  1.0
  H  H17  1  0.30658046  0.49632424  0.72053438  1.0
  H  H18  1  0.17556970  0.48905955  0.69855926  1.0
  H  H19  1  0.23187112  0.50594480  0.79488176  1.0
  H  H20  1  0.33180090  0.31196032  0.71696476  1.0
  H  H21  1  0.31984720  0.36490530  0.79503932  1.0
  H  H22  1  0.08494414  0.44642248  0.77423638  1.0
  H  H23  1  0.48418227  0.80697598  0.78789327  1.0
  H  H24  1  0.47391921  0.75225133  0.70871184  1.0
  H  H25  1  0.77706738  0.01467086  0.69684940  1.0
  H  H26  1  0.62409140  0.96792272  0.69888403  1.0
  H  H27  1  0.64377324  0.00794227  0.78019423  1.0
  H  H28  1  0.79244869  0.03880576  0.77893603  1.0
  H  H29  1  0.75092584  0.72248213  0.71803589  1.0
  H  H30  1  0.84902017  0.87429620  0.71442414  1.0
  H  H31  1  0.72769194  0.73112828  0.79948262  1.0
  H  H32  1  0.52492200  0.65358124  0.72283430  1.0
  H  H33  1  0.84386153  0.87695107  0.79746240  1.0
  H  H34  1  0.48938403  0.23283624  0.20125522  1.0
  H  H35  1  0.47454078  0.24272780  0.28316044  1.0
  H  H36  1  0.77446298  0.27403053  0.30133960  1.0
  H  H37  1  0.62176921  0.17257965  0.30091977  1.0
  H  H38  1  0.62443822  0.15011247  0.21964614  1.0
  H  H39  1  0.77949357  0.24179607  0.22043550  1.0
  H  H40  1  0.74335540  0.53924796  0.27936884  1.0
  H  H41  1  0.84576352  0.49124884  0.29230361  1.0
  H  H42  1  0.77182766  0.52093222  0.19891860  1.0
  H  H43  1  0.52276609  0.39366461  0.27754005  1.0
  H  H44  1  0.54811310  0.38554292  0.19608932  1.0
  H  H45  1  0.86505585  0.46195499  0.21196954  1.0
  H  H46  1  0.22177336  0.51162088  0.20539994  1.0
  H  H47  1  0.24649948  0.52224811  0.28767767  1.0
  H  H48  1  0.00081877  0.21489864  0.30252230  1.0
  H  H49  1  0.03557992  0.36298312  0.30428226  1.0
  H  H50  1  0.00946214  0.36390427  0.22235079  1.0
  H  H51  1  0.96279491  0.21291506  0.22183542  1.0
  H  H52  1  0.30737055  0.26950790  0.28024495  1.0
  H  H53  1  0.15964945  0.16096720  0.29034949  1.0
  H  H54  1  0.27180933  0.25862782  0.19933443  1.0
  H  H55  1  0.36029134  0.48609802  0.28090425  1.0
  H  H56  1  0.32901282  0.46667628  0.19907878  1.0
  H  H57  1  0.78864702  0.79254319  0.20752835  1.0
  H  H58  1  0.75049606  0.72397164  0.28601616  1.0
  H  H59  1  0.74916610  0.00488960  0.30796983  1.0
  H  H60  1  0.83912125  0.94252231  0.29314833  1.0
  H  H61  1  0.83462820  0.00396694  0.21575915  1.0
  H  H62  1  0.71597219  0.03030642  0.22863535  1.0
  H  H63  1  0.46234949  0.71678740  0.29245293  1.0
  H  H64  1  0.47259591  0.72603516  0.21027301  1.0
  H  H65  1  0.59722289  0.63880190  0.27552916  1.0
  H  H66  1  0.64336077  0.68157004  0.19498849  1.0
  H  H67  1  0.50353799  0.87230540  0.21465263  1.0
  H  H68  1  0.32152425  0.69597220  0.47627167  1.0
  H  H69  1  0.00026837  0.96051535  0.97510604  1.0
  C  C70  1  0.61422950  0.70995315  0.56911598  1.0
  C  C71  1  0.62020493  0.39463268  0.56204859  1.0
  C  C72  1  0.28594948  0.37483955  0.56671032  1.0
  C  C73  1  0.61655202  0.71642754  0.43592936  1.0
  C  C74  1  0.61035741  0.40041507  0.43312095  1.0
  C  C75  1  0.29038288  0.38742858  0.43384388  1.0
  C  C76  1  0.80104309  0.37250528  0.72461513  1.0
  C  C77  1  0.75759794  0.43116012  0.76179567  1.0
  C  C78  1  0.71419241  0.29578388  0.88417806  1.0
  C  C79  1  0.65229620  0.36240007  0.60592967  1.0
  C  C80  1  0.74171891  0.25622048  0.75349466  1.0
  C  C81  1  0.69764715  0.31444465  0.79210836  1.0
  C  C82  1  0.62382326  0.21287740  0.72560046  1.0
  C  C83  1  0.68332055  0.32892347  0.69505111  1.0
  C  C84  1  0.57950773  0.27088415  0.76274372  1.0
  C  C85  1  0.63994097  0.38700811  0.73407533  1.0
  C  C86  1  0.70593679  0.30501534  0.84165937  1.0
  C  C87  1  0.67009286  0.34324240  0.64639513  1.0
  C  C88  1  0.24022226  0.27004005  0.72975336  1.0
  C  C89  1  0.03788398  0.24177391  0.71384235  1.0
  C  C90  1  0.02195979  0.22240285  0.76777189  1.0
  C  C91  1  0.08886303  0.30062855  0.88577520  1.0
  C  C92  1  0.17101142  0.32083306  0.70282503  1.0
  C  C93  1  0.23649523  0.29030071  0.78312791  1.0
  C  C94  1  0.13372090  0.31579448  0.79363111  1.0
  C  C95  1  0.16464561  0.43670230  0.77289573  1.0
  C  C96  1  0.20950651  0.44518583  0.72190283  1.0
  C  C97  1  0.11063914  0.30953999  0.84378241  1.0
  C  C98  1  0.19691742  0.32749585  0.65286218  1.0
  C  C99  1  0.22806145  0.34135261  0.61180403  1.0
  C  C100  1  0.54351223  0.74380928  0.72751091  1.0
  C  C101  1  0.69380850  0.95387662  0.71450637  1.0
  C  C102  1  0.70238822  0.97441992  0.76844339  1.0
  C  C103  1  0.68531250  0.90916745  0.88781811  1.0
  C  C104  1  0.66580479  0.82710072  0.70481027  1.0
  C  C105  1  0.54339504  0.77155914  0.78014622  1.0
  C  C106  1  0.66946273  0.85974866  0.79618067  1.0
  C  C107  1  0.75705148  0.81639880  0.78255865  1.0
  C  C108  1  0.76293299  0.80803596  0.72845190  1.0
  C  C109  1  0.67489268  0.88376046  0.84628115  1.0
  C  C110  1  0.65883051  0.80068492  0.65484638  1.0
  C  C111  1  0.64653490  0.76777394  0.61416934  1.0
  C  C112  1  0.54545372  0.32530846  0.26887152  1.0
  C  C113  1  0.69014619  0.25329080  0.28441807  1.0
  C  C114  1  0.69516156  0.23650695  0.23055747  1.0
  C  C115  1  0.70231636  0.30366268  0.11077145  1.0
  C  C116  1  0.66276552  0.35385539  0.29419497  1.0
  C  C117  1  0.55799269  0.31728462  0.21482970  1.0
  C  C118  1  0.68114530  0.33149114  0.20294479  1.0
  C  C119  1  0.77795323  0.45327542  0.21971610  1.0
  C  C120  1  0.76369285  0.46832159  0.27309252  1.0
  C  C121  1  0.69188842  0.31701280  0.15265920  1.0
  C  C122  1  0.65019991  0.36624222  0.34451353  1.0
  C  C123  1  0.63717366  0.37803204  0.38631141  1.0
  C  C124  1  0.26751427  0.45783864  0.27219856  1.0
  C  C125  1  0.05669814  0.30113279  0.28647592  1.0
  C  C126  1  0.03472309  0.29834453  0.23278379  1.0
  C  C127  1  0.09857904  0.30990508  0.11320254  1.0
  C  C128  1  0.18797378  0.33763251  0.29588076  1.0
  C  C129  1  0.24793173  0.44847934  0.21826909  1.0
  C  C130  1  0.14804975  0.32422279  0.20485692  1.0
  C  C131  1  0.19231150  0.23868654  0.21981548  1.0
  C  C132  1  0.21494672  0.24576623  0.27331036  1.0
  C  C133  1  0.12384391  0.31776863  0.15475841  1.0
  C  C134  1  0.21235829  0.34592522  0.34601709  1.0
  C  C135  1  0.23883507  0.35762794  0.38752320  1.0
  C  C136  1  0.67425055  0.72594902  0.27009954  1.0
  C  C137  1  0.75501243  0.94033598  0.28522281  1.0
  C  C138  1  0.74742222  0.96677144  0.23270795  1.0
  C  C139  1  0.68027754  0.90689792  0.11505792  1.0
  C  C140  1  0.65330951  0.81706304  0.29771247  1.0
  C  C141  1  0.69537787  0.75836123  0.21722125  1.0
  C  C142  1  0.66022910  0.85316687  0.20644345  1.0
  C  C143  1  0.53404448  0.81132140  0.22573862  1.0
  C  C144  1  0.53339807  0.80096833  0.27987129  1.0
  C  C145  1  0.66755575  0.87868105  0.15641599  1.0
  C  C146  1  0.64873410  0.79283292  0.34782788  1.0
  C  C147  1  0.64181691  0.76681669  0.38932928  1.0
  C  C148  1  0.04253200  0.27373115  0.93293868  1.0
  C  C149  1  0.73453836  0.27544781  0.93237810  1.0
  C  C150  1  0.71101818  0.95572201  0.93484378  1.0
  C  C151  1  0.04655062  0.28246564  0.06693591  1.0
  C  C152  1  0.72547948  0.27673224  0.06414846  1.0
  C  C153  1  0.71330621  0.95954007  0.06897379  1.0
  Br  Br154  1  0.47636259  0.62819644  0.81956639  1.0
  Br  Br155  1  0.56907569  0.48053356  0.71834486  1.0
  Br  Br156  1  0.08117946  0.07648912  0.20028701  1.0
  Br  Br157  1  0.49353643  0.91330268  0.31059200  1.0
  O  O158  1  0.30601243  0.47215976  0.55004416  1.0
  O  O159  1  0.51070715  0.67859550  0.55503009  1.0
  O  O160  1  0.69193945  0.69135464  0.54808785  1.0
  O  O161  1  0.69084243  0.49656705  0.54582039  1.0
  O  O162  1  0.52119213  0.32160236  0.54391652  1.0
  O  O163  1  0.31707373  0.30411769  0.54801746  1.0
  O  O164  1  0.31659916  0.48740674  0.44907633  1.0
  O  O165  1  0.51850477  0.69344054  0.45401778  1.0
  O  O166  1  0.69466030  0.69424456  0.45437133  1.0
  O  O167  1  0.68402450  0.49649572  0.45257558  1.0
  O  O168  1  0.51146782  0.32448487  0.45098441  1.0
  O  O169  1  0.30980402  0.31100733  0.45486494  1.0
  O  O170  1  0.49781443  0.50537346  0.50095228  1.0
  O  O171  1  0.80673580  0.97234414  0.95313460  1.0
  O  O172  1  0.01333803  0.17286249  0.94841332  1.0
  O  O173  1  0.03004162  0.35323811  0.95491683  1.0
  O  O174  1  0.83314436  0.34954348  0.95068797  1.0
  O  O175  1  0.65583792  0.18246764  0.95245091  1.0
  O  O176  1  0.63555336  0.98132657  0.95351251  1.0
  O  O177  1  0.81545097  0.98556679  0.05461904  1.0
  O  O178  1  0.02455405  0.18554924  0.04966765  1.0
  O  O179  1  0.02212743  0.35809944  0.04824827  1.0
  O  O180  1  0.82300771  0.34952730  0.04452380  1.0
  O  O181  1  0.64934432  0.17867371  0.04659647  1.0
  O  O182  1  0.63742569  0.97960594  0.04718880  1.0
  O  O183  1  0.83637629  0.16270639  0.00068752  1.0
  O  O184  1  0.32585502  0.65959110  0.50536350  1.0
  O  O185  1  0.99558005  0.99561046  0.00439907  1.0
