# generated using pymatgen
data_Zn4H18C30O13
_symmetry_space_group_name_H-M   'P 1'
_cell_length_a   18.18059487
_cell_length_b   18.22596740
_cell_length_c   18.23120042
_cell_angle_alpha   60.50442933
_cell_angle_beta   60.17076352
_cell_angle_gamma   60.37554710
_symmetry_Int_Tables_number   1
_chemical_formula_structural   Zn4H18C30O13
_chemical_formula_sum   'Zn8 H36 C60 O26'
_cell_volume   4305.45444049
_cell_formula_units_Z   2
loop_
 _symmetry_equiv_pos_site_id
 _symmetry_equiv_pos_as_xyz
  1  'x, y, z'
loop_
 _atom_site_type_symbol
 _atom_site_label
 _atom_site_symmetry_multiplicity
 _atom_site_fract_x
 _atom_site_fract_y
 _atom_site_fract_z
 _atom_site_occupancy
  Zn  Zn0  1  0.03889150  0.04874491  0.05944046  1.0
  Zn  Zn1  1  0.86160590  0.05062027  0.05710580  1.0
  Zn  Zn2  1  0.03796788  0.87579295  0.05612037  1.0
  Zn  Zn3  1  0.03637431  0.05183331  0.88254127  1.0
  Zn  Zn4  1  0.44945805  0.46206010  0.47023128  1.0
  Zn  Zn5  1  0.62588845  0.46333957  0.47087343  1.0
  Zn  Zn6  1  0.45003527  0.46417600  0.64524268  1.0
  Zn  Zn7  1  0.44978950  0.63794482  0.46884241  1.0
  H  H8  1  0.88422466  0.29015286  0.16911518  1.0
  H  H9  1  0.70702948  0.41338003  0.17869852  1.0
  H  H10  1  0.66417625  0.28523712  0.17345085  1.0
  H  H11  1  0.60496899  0.21856435  0.36352964  1.0
  H  H12  1  0.78216854  0.09526233  0.35398964  1.0
  H  H13  1  0.82511828  0.22340769  0.35921259  1.0
  H  H14  1  0.15040011  0.89444471  0.29841567  1.0
  H  H15  1  0.15404892  0.72020478  0.42439302  1.0
  H  H16  1  0.14446253  0.67673787  0.29965763  1.0
  H  H17  1  0.33512251  0.61298693  0.23116195  1.0
  H  H18  1  0.33148393  0.78721287  0.10518236  1.0
  H  H19  1  0.34107325  0.83058503  0.23004496  1.0
  H  H20  1  0.28083626  0.16256723  0.90471665  1.0
  H  H21  1  0.40524233  0.16934458  0.72767655  1.0
  H  H22  1  0.27800019  0.15916822  0.68800845  1.0
  H  H23  1  0.20853918  0.34882695  0.62710361  1.0
  H  H24  1  0.08420214  0.34194215  0.80422775  1.0
  H  H25  1  0.21137811  0.35219291  0.84384830  1.0
  H  H26  1  0.66409091  0.89461490  0.16267753  1.0
  H  H27  1  0.70833558  0.71726533  0.17163186  1.0
  H  H28  1  0.88466859  0.67752367  0.16240643  1.0
  H  H29  1  0.82436872  0.61884138  0.35245648  1.0
  H  H30  1  0.78012643  0.79627318  0.34352698  1.0
  H  H31  1  0.60365740  0.83607910  0.35277303  1.0
  H  H32  1  0.66306353  0.29463900  0.90588855  1.0
  H  H33  1  0.70699347  0.42080706  0.73147965  1.0
  H  H34  1  0.88349653  0.29627865  0.68685762  1.0
  H  H35  1  0.82284769  0.22891635  0.62333465  1.0
  H  H36  1  0.77895732  0.10260327  0.79776356  1.0
  H  H37  1  0.60247732  0.22727010  0.84235578  1.0
  H  H38  1  0.14729048  0.68018708  0.90251836  1.0
  H  H39  1  0.15345407  0.71945453  0.72805104  1.0
  H  H40  1  0.14422356  0.89695840  0.68330102  1.0
  H  H41  1  0.33514254  0.83868692  0.62019025  1.0
  H  H42  1  0.32894547  0.79921606  0.79482503  1.0
  H  H43  1  0.33820170  0.62163463  0.83936644  1.0
  C  C44  1  0.85428145  0.14709556  0.15330277  1.0
  C  C45  1  0.79694039  0.20555381  0.20990785  1.0
  C  C46  1  0.82184934  0.27475035  0.21282006  1.0
  C  C47  1  0.72451450  0.34194370  0.21669827  1.0
  C  C48  1  0.69917200  0.27220805  0.21520795  1.0
  C  C49  1  0.66739182  0.23388193  0.31984350  1.0
  C  C50  1  0.76471358  0.16668842  0.31598569  1.0
  C  C51  1  0.79004105  0.23646948  0.31750113  1.0
  C  C52  1  0.69228574  0.30307202  0.32277320  1.0
  C  C53  1  0.63466358  0.36172707  0.37913926  1.0
  C  C54  1  0.12988962  0.86453193  0.15823995  1.0
  C  C55  1  0.18628289  0.80665571  0.21643059  1.0
  C  C56  1  0.19185569  0.83157032  0.28397085  1.0
  C  C57  1  0.19266909  0.73584997  0.35277564  1.0
  C  C58  1  0.18857732  0.71037113  0.28467015  1.0
  C  C59  1  0.29368062  0.67584203  0.24564211  1.0
  C  C60  1  0.29287164  0.77157731  0.17681140  1.0
  C  C61  1  0.29691796  0.79706264  0.24491970  1.0
  C  C62  1  0.29924016  0.70080171  0.31318700  1.0
  C  C63  1  0.35603487  0.64399191  0.37104604  1.0
  C  C64  1  0.13896041  0.14134843  0.87677816  1.0
  C  C65  1  0.19665428  0.19868841  0.81926908  1.0
  C  C66  1  0.26543365  0.20435719  0.84261070  1.0
  C  C67  1  0.33318179  0.20674020  0.74562063  1.0
  C  C68  1  0.26377899  0.20258081  0.72191219  1.0
  C  C69  1  0.22397833  0.30698851  0.68919261  1.0
  C  C70  1  0.15626009  0.30457502  0.78620262  1.0
  C  C71  1  0.22568172  0.30881386  0.80985158  1.0
  C  C72  1  0.29281012  0.31262186  0.71245102  1.0
  C  C73  1  0.35066098  0.36975754  0.65429604  1.0
  C  C74  1  0.85342129  0.86741781  0.14451867  1.0
  C  C75  1  0.79625864  0.80964352  0.20040055  1.0
  C  C76  1  0.69895677  0.83296296  0.20537418  1.0
  C  C77  1  0.72499085  0.73572401  0.20893078  1.0
  C  C78  1  0.82192582  0.71209680  0.20523086  1.0
  C  C79  1  0.78942937  0.68056115  0.30987495  1.0
  C  C80  1  0.76331639  0.77772711  0.30643467  1.0
  C  C81  1  0.66645344  0.80152241  0.30999218  1.0
  C  C82  1  0.69203170  0.70394116  0.31498069  1.0
  C  C83  1  0.63457350  0.64641594  0.37322343  1.0
  C  C84  1  0.85275310  0.15422265  0.87427328  1.0
  C  C85  1  0.79538185  0.21304728  0.81713325  1.0
  C  C86  1  0.69800008  0.28050121  0.84278225  1.0
  C  C87  1  0.72374684  0.34940034  0.74695181  1.0
  C  C88  1  0.82071458  0.28141885  0.72085775  1.0
  C  C89  1  0.78801926  0.24291402  0.68650953  1.0
  C  C90  1  0.76220584  0.17400940  0.78232529  1.0
  C  C91  1  0.66530579  0.24199647  0.80846803  1.0
  C  C92  1  0.69062215  0.31032212  0.71214237  1.0
  C  C93  1  0.63339880  0.36807907  0.65473882  1.0
  C  C94  1  0.12854650  0.86943650  0.87134855  1.0
  C  C95  1  0.18454665  0.81225368  0.81355186  1.0
  C  C96  1  0.18961028  0.71460664  0.83941734  1.0
  C  C97  1  0.19150847  0.73813747  0.74359280  1.0
  C  C98  1  0.18780684  0.83542987  0.71731519  1.0
  C  C99  1  0.29292211  0.80412939  0.68327655  1.0
  C  C100  1  0.29101338  0.78054188  0.77913713  1.0
  C  C101  1  0.29466162  0.68328693  0.80543183  1.0
  C  C102  1  0.29800729  0.70654928  0.70907790  1.0
  C  C103  1  0.35540379  0.64843007  0.65216553  1.0
  O  O104  1  0.99363331  0.00696565  0.01400315  1.0
  O  O105  1  0.81364067  0.12207827  0.13385750  1.0
  O  O106  1  0.93918303  0.12535705  0.13082589  1.0
  O  O107  1  0.67498815  0.38547545  0.40027487  1.0
  O  O108  1  0.54985673  0.38501625  0.39959155  1.0
  O  O109  1  0.10868004  0.82489715  0.13375280  1.0
  O  O110  1  0.10933703  0.94880011  0.13595403  1.0
  O  O111  1  0.37580682  0.68503339  0.39531550  1.0
  O  O112  1  0.37854348  0.55948157  0.39307196  1.0
  O  O113  1  0.11521907  0.12048739  0.83624927  1.0
  O  O114  1  0.11652078  0.11964583  0.96133953  1.0
  O  O115  1  0.37553018  0.39040784  0.69398655  1.0
  O  O116  1  0.37219993  0.39142728  0.56985821  1.0
  O  O117  1  0.93819763  0.82757731  0.12440905  1.0
  O  O118  1  0.81274248  0.95173274  0.12398904  1.0
  O  O119  1  0.54974942  0.68625348  0.39382821  1.0
  O  O120  1  0.67507802  0.56209691  0.39609069  1.0
  O  O121  1  0.93761305  0.13151796  0.83376996  1.0
  O  O122  1  0.81229968  0.12959713  0.95872904  1.0
  O  O123  1  0.54848100  0.39077661  0.69492098  1.0
  O  O124  1  0.67409879  0.39153443  0.57025790  1.0
  O  O125  1  0.10386087  0.95383575  0.83206719  1.0
  O  O126  1  0.11215952  0.82896075  0.95543439  1.0
  O  O127  1  0.37570493  0.56427477  0.69291328  1.0
  O  O128  1  0.37786901  0.68767629  0.56755655  1.0
  O  O129  1  0.49385652  0.50670184  0.51375686  1.0
