# generated using pymatgen
data_ZnH9C15NO8F
_symmetry_space_group_name_H-M   'P 1'
_cell_length_a   11.18088053
_cell_length_b   14.07443505
_cell_length_c   15.28580262
_cell_angle_alpha   89.99916089
_cell_angle_beta   93.85361929
_cell_angle_gamma   89.99533587
_symmetry_Int_Tables_number   1
_chemical_formula_structural   ZnH9C15NO8F
_chemical_formula_sum   'Zn2 H18 C30 N2 O16 F2'
_cell_volume   2400.00516786
_cell_formula_units_Z   2
loop_
 _symmetry_equiv_pos_site_id
 _symmetry_equiv_pos_as_xyz
  1  'x, y, z'
loop_
 _atom_site_type_symbol
 _atom_site_label
 _atom_site_symmetry_multiplicity
 _atom_site_fract_x
 _atom_site_fract_y
 _atom_site_fract_z
 _atom_site_occupancy
  Zn  Zn0  1  0.49999959  0.59792369  0.50000904  1.0
  Zn  Zn1  1  0.50001401  0.39978643  0.50000411  1.0
  H  H2  1  0.88876974  0.36830096  0.48456104  1.0
  H  H3  1  0.11128603  0.36830668  0.51546460  1.0
  H  H4  1  0.32759581  0.56605812  0.93657115  1.0
  H  H5  1  0.33333333  0.41801414  0.05464152  1.0
  H  H6  1  0.66666667  0.41795095  0.94535409  1.0
  H  H7  1  0.67248391  0.56597711  0.06344531  1.0
  H  H8  1  0.53256565  0.07089346  0.64111301  1.0
  H  H9  1  0.46738351  0.07090310  0.35888908  1.0
  H  H10  1  0.53127399  0.24883039  0.63496612  1.0
  H  H11  1  0.46873049  0.24883551  0.36503367  1.0
  H  H12  1  0.83075421  0.62937189  0.55915557  1.0
  H  H13  1  0.16923372  0.62936755  0.44083436  1.0
  H  H14  1  0.24413574  0.59565373  0.80166259  1.0
  H  H15  1  0.35218550  0.39893322  0.28543994  1.0
  H  H16  1  0.64780736  0.39886907  0.71456223  1.0
  H  H17  1  0.75592235  0.59556398  0.19836935  1.0
  H  H18  1  0.69094578  0.89784897  0.36086484  1.0
  H  H19  1  0.30900394  0.89785057  0.63915215  1.0
  C  C20  1  0.49578304  0.49909715  0.66989405  1.0
  C  C21  1  0.50422070  0.49911459  0.33011887  1.0
  C  C22  1  0.49848871  0.49379698  0.95146318  1.0
  C  C23  1  0.50154643  0.49378130  0.04854792  1.0
  C  C24  1  0.51787405  0.10726929  0.57846472  1.0
  C  C25  1  0.48208412  0.10727833  0.42154300  1.0
  C  C26  1  0.51755555  0.20594327  0.57571706  1.0
  C  C27  1  0.48242906  0.20594228  0.42427037  1.0
  C  C28  1  0.49996511  0.05616199  0.49999469  1.0
  C  C29  1  0.57320309  0.89926153  0.44577732  1.0
  C  C30  1  0.42672847  0.89926440  0.55421631  1.0
  C  C31  1  0.57053582  0.80012942  0.45019262  1.0
  C  C32  1  0.42941235  0.80013350  0.54980464  1.0
  C  C33  1  0.49994620  0.95113788  0.49999700  1.0
  C  C34  1  0.26945536  0.50204778  0.48866691  1.0
  C  C35  1  0.73056304  0.50203419  0.51135482  1.0
  C  C36  1  0.93592584  0.43479041  0.49938610  1.0
  C  C37  1  0.06411245  0.43480445  0.50061602  1.0
  C  C38  1  0.86369780  0.50863165  0.51934825  1.0
  C  C39  1  0.13631182  0.50863877  0.48066272  1.0
  C  C40  1  0.40085132  0.53450426  0.90268725  1.0
  C  C41  1  0.40809047  0.45246578  0.09141808  1.0
  C  C42  1  0.39915771  0.53771239  0.81128029  1.0
  C  C43  1  0.41353587  0.44966953  0.18306136  1.0
  C  C44  1  0.49232360  0.49592692  0.76664557  1.0
  C  C45  1  0.50769788  0.49594354  0.23336192  1.0
  C  C46  1  0.58647227  0.44962173  0.81693724  1.0
  C  C47  1  0.60088156  0.53767119  0.18873297  1.0
  C  C48  1  0.59193594  0.45242784  0.90859008  1.0
  C  C49  1  0.59921134  0.53446912  0.09732660  1.0
  N  N50  1  0.50000703  0.25436248  0.49999899  1.0
  N  N51  1  0.49999232  0.75096003  0.49999938  1.0
  O  O52  1  0.46250850  0.57326219  0.62855633  1.0
  O  O53  1  0.53747044  0.57328447  0.37145309  1.0
  O  O54  1  0.53858288  0.42427079  0.63350590  1.0
  O  O55  1  0.46142334  0.42429374  0.36651131  1.0
  O  O56  1  0.32218621  0.57900019  0.46619099  1.0
  O  O57  1  0.67780755  0.57898919  0.53383244  1.0
  O  O58  1  0.32152183  0.42626827  0.51556425  1.0
  O  O59  1  0.67850013  0.42625948  0.48446509  1.0
  O  O60  1  0.90511435  0.59337920  0.55112250  1.0
  O  O61  1  0.09488996  0.59337937  0.44886892  1.0
  O  O62  1  0.30604868  0.57903045  0.76243886  1.0
  O  O63  1  0.32550471  0.40256168  0.22197854  1.0
  O  O64  1  0.67449718  0.40248636  0.77802772  1.0
  O  O65  1  0.69401279  0.57894188  0.23757832  1.0
  O  O66  1  0.64633423  0.94523494  0.39223222  1.0
  O  O67  1  0.35357916  0.94523287  0.60776628  1.0
  F  F68  1  0.64517812  0.75183676  0.40066176  1.0
  F  F69  1  0.35481822  0.75183400  0.59935755  1.0
