# generated using pymatgen
data_Dy3H31C45O23
_symmetry_space_group_name_H-M   'P 1'
_cell_length_a   14.29252278
_cell_length_b   14.29261459
_cell_length_c   33.04658015
_cell_angle_alpha   102.44833153
_cell_angle_beta   102.44839284
_cell_angle_gamma   90.01007402
_symmetry_Int_Tables_number   1
_chemical_formula_structural   Dy3H31C45O23
_chemical_formula_sum   'Dy12 H124 C180 O92'
_cell_volume   6429.29158707
_cell_formula_units_Z   4
loop_
 _symmetry_equiv_pos_site_id
 _symmetry_equiv_pos_as_xyz
  1  'x, y, z'
loop_
 _atom_site_type_symbol
 _atom_site_label
 _atom_site_symmetry_multiplicity
 _atom_site_fract_x
 _atom_site_fract_y
 _atom_site_fract_z
 _atom_site_occupancy
  Dy  Dy0  1  0.45592456  0.95780531  0.91792412  1.0
  Dy  Dy1  1  0.03997799  0.54376098  0.08209594  1.0
  Dy  Dy2  1  0.79375210  0.78997940  0.58209324  1.0
  Dy  Dy3  1  0.20780202  0.20591940  0.41792380  1.0
  Dy  Dy4  1  0.71097298  0.95144227  0.87619943  1.0
  Dy  Dy5  1  0.16582078  0.92396378  0.87664644  1.0
  Dy  Dy6  1  0.07491246  0.28866318  0.12373475  1.0
  Dy  Dy7  1  0.04743446  0.83395041  0.12340730  1.0
  Dy  Dy8  1  0.53866299  0.82491805  0.62373552  1.0
  Dy  Dy9  1  0.08395196  0.79742740  0.62341065  1.0
  Dy  Dy10  1  0.17395888  0.91581586  0.37664532  1.0
  Dy  Dy11  1  0.20143066  0.46096694  0.37620233  1.0
  H  H12  1  0.85058361  0.11199208  0.87222510  1.0
  H  H13  1  0.02323033  0.75837423  0.87294481  1.0
  H  H14  1  0.24144984  0.15026139  0.12696682  1.0
  H  H15  1  0.88760975  0.97792601  0.12747740  1.0
  H  H16  1  0.40025649  0.99145423  0.62696126  1.0
  H  H17  1  0.22792149  0.63761249  0.62747649  1.0
  H  H18  1  0.00836319  0.77321497  0.37293747  1.0
  H  H19  1  0.36199550  0.60057602  0.37223163  1.0
  H  H20  1  0.81211138  0.04986102  0.82637798  1.0
  H  H21  1  0.01264917  0.77626763  0.82704912  1.0
  H  H22  1  0.22460222  0.18602594  0.17294493  1.0
  H  H23  1  0.95065164  0.98689146  0.17335073  1.0
  H  H24  1  0.43601290  0.97461628  0.67294104  1.0
  H  H25  1  0.23688761  0.70065260  0.67335043  1.0
  H  H26  1  0.02627099  0.76266128  0.32704484  1.0
  H  H27  1  0.29987279  0.56211560  0.32638163  1.0
  H  H28  1  0.63493160  0.11468829  0.84218340  1.0
  H  H29  1  0.20551700  0.72646768  0.84131728  1.0
  H  H30  1  0.27202073  0.36470197  0.15759508  1.0
  H  H31  1  0.88513037  0.79428205  0.15873252  1.0
  H  H32  1  0.61471486  0.02203018  0.65759174  1.0
  H  H33  1  0.04426833  0.63512121  0.65872951  1.0
  H  H34  1  0.97646660  0.95550752  0.34131489  1.0
  H  H35  1  0.36466974  0.38494044  0.34218373  1.0
  H  H36  1  0.53907942  0.05883774  0.84463245  1.0
  H  H37  1  0.30468546  0.78391063  0.84449398  1.0
  H  H38  1  0.21385242  0.46060713  0.15515270  1.0
  H  H39  1  0.93964131  0.69530400  0.15561878  1.0
  H  H40  1  0.71061608  0.96385142  0.65514989  1.0
  H  H41  1  0.94529810  0.68964031  0.65561890  1.0
  H  H42  1  0.03390415  0.05467851  0.34449120  1.0
  H  H43  1  0.30882624  0.28908017  0.34463383  1.0
  H  H44  1  0.54539774  0.95921192  0.00601612  1.0
  H  H45  1  0.51258936  0.06400390  0.00725303  1.0
  H  H46  1  0.95363572  0.45622274  0.99294572  1.0
  H  H47  1  0.05667308  0.49245414  0.99236901  1.0
  H  H48  1  0.70624119  0.70363597  0.49292982  1.0
  H  H49  1  0.74250754  0.80666747  0.49235871  1.0
  H  H50  1  0.31400617  0.26261299  0.50724314  1.0
  H  H51  1  0.20921275  0.29540412  0.50601051  1.0
  H  H52  1  0.80282786  0.83675164  0.00433802  1.0
  H  H53  1  0.20086044  0.16905977  0.00407422  1.0
  H  H54  1  0.83034405  0.19671464  0.99561608  1.0
  H  H55  1  0.16312337  0.79778558  0.99586457  1.0
  H  H56  1  0.44671259  0.58035313  0.49561977  1.0
  H  H57  1  0.04778189  0.91312089  0.49586286  1.0
  H  H58  1  0.41905320  0.95088022  0.50407816  1.0
  H  H59  1  0.08674827  0.55281820  0.50433992  1.0
  H  H60  1  0.79040130  0.54923073  0.02327148  1.0
  H  H61  1  0.23259303  0.47548448  0.02177148  1.0
  H  H62  1  0.52411291  0.21149824  0.97798477  1.0
  H  H63  1  0.45072151  0.76723817  0.97683480  1.0
  H  H64  1  0.46148686  0.27411928  0.47799676  1.0
  H  H65  1  0.01724543  0.20072631  0.47683795  1.0
  H  H66  1  0.72548298  0.98259598  0.52177413  1.0
  H  H67  1  0.79922348  0.54040258  0.52326924  1.0
  H  H68  1  0.64450774  0.51127247  0.96440167  1.0
  H  H69  1  0.32009260  0.45306670  0.96294049  1.0
  H  H70  1  0.54688654  0.35780980  0.03679800  1.0
  H  H71  1  0.48915480  0.68049844  0.03580506  1.0
  H  H72  1  0.60779778  0.29688409  0.53681373  1.0
  H  H73  1  0.93050503  0.23915118  0.53580866  1.0
  H  H74  1  0.70306315  0.07009390  0.46294040  1.0
  H  H75  1  0.76126645  0.39451396  0.46439980  1.0
  H  H76  1  0.46877814  0.56430460  0.95051624  1.0
  H  H77  1  0.48090934  0.38652799  0.94955189  1.0
  H  H78  1  0.61395772  0.53204437  0.05009367  1.0
  H  H79  1  0.43658677  0.51908300  0.05001967  1.0
  H  H80  1  0.78202872  0.36396816  0.55009842  1.0
  H  H81  1  0.76908281  0.18658636  0.55001953  1.0
  H  H82  1  0.63652508  0.23090615  0.44955339  1.0
  H  H83  1  0.81429958  0.21877249  0.45052074  1.0
  H  H84  1  0.33293499  0.51108979  0.88874371  1.0
  H  H85  1  0.55531254  0.37774950  0.88776788  1.0
  H  H86  1  0.62231596  0.66762311  0.11196582  1.0
  H  H87  1  0.48918191  0.44457217  0.11179250  1.0
  H  H88  1  0.91763080  0.37232618  0.61196297  1.0
  H  H89  1  0.69458258  0.23919152  0.61179510  1.0
  H  H90  1  0.62775290  0.30531416  0.38776916  1.0
  H  H91  1  0.76107876  0.08292476  0.38874776  1.0
  H  H92  1  0.33837659  0.54548234  0.81853926  1.0
  H  H93  1  0.48040997  0.27202236  0.81774045  1.0
  H  H94  1  0.72720806  0.66199721  0.18208366  1.0
  H  H95  1  0.45378565  0.51963071  0.18184768  1.0
  H  H96  1  0.91201456  0.47721742  0.68208250  1.0
  H  H97  1  0.76964610  0.20379317  0.68184804  1.0
  H  H98  1  0.52202380  0.23040980  0.31774230  1.0
  H  H99  1  0.79547234  0.08836968  0.31854264  1.0
  H  H100  1  0.61980128  0.68181273  0.87169705  1.0
  H  H101  1  0.25248855  0.18861864  0.87111610  1.0
  H  H102  1  0.81100136  0.38111900  0.12857190  1.0
  H  H103  1  0.31818217  0.74822965  0.12861412  1.0
  H  H104  1  0.63112275  0.56101376  0.62858186  1.0
  H  H105  1  0.99823054  0.06817437  0.62861311  1.0
  H  H106  1  0.43862404  0.00248021  0.37111363  1.0
  H  H107  1  0.93180351  0.36979313  0.37169806  1.0
  H  H108  1  0.46828006  0.50589941  0.76070316  1.0
  H  H109  1  0.29224086  0.25350515  0.76022488  1.0
  H  H110  1  0.74576761  0.53222075  0.23967590  1.0
  H  H111  1  0.49334248  0.70816817  0.23953574  1.0
  H  H112  1  0.78223643  0.49578096  0.73968019  1.0
  H  H113  1  0.95817062  0.24335029  0.73953393  1.0
  H  H114  1  0.50351328  0.04224684  0.26022450  1.0
  H  H115  1  0.75588941  0.21827399  0.26070498  1.0
  H  H116  1  0.48045013  0.56462837  0.69565466  1.0
  H  H117  1  0.21421899  0.13002924  0.69531241  1.0
  H  H118  1  0.86943709  0.51972272  0.30467911  1.0
  H  H119  1  0.43460683  0.78592360  0.30447173  1.0
  H  H120  1  0.76972946  0.61944573  0.80468444  1.0
  H  H121  1  0.03594424  0.18461898  0.80446900  1.0
  H  H122  1  0.38003778  0.96421991  0.19531276  1.0
  H  H123  1  0.81461822  0.23044680  0.19565706  1.0
  H  H124  1  0.51193040  0.85506711  0.76800225  1.0
  H  H125  1  0.25600659  0.91175405  0.76764417  1.0
  H  H126  1  0.08746651  0.48800250  0.23215874  1.0
  H  H127  1  0.14410403  0.74349545  0.23229017  1.0
  H  H128  1  0.73801672  0.83748055  0.73216312  1.0
  H  H129  1  0.99352571  0.89410907  0.73229169  1.0
  H  H130  1  0.16176197  0.00598518  0.26764599  1.0
  H  H131  1  0.10506494  0.26193456  0.26800125  1.0
  H  H132  1  0.92361560  0.92057592  0.84712974  1.0
  H  H133  1  0.07753230  0.07630569  0.15280936  1.0
  H  H134  1  0.32629881  0.82754838  0.65280957  1.0
  H  H135  1  0.17061495  0.67361892  0.34713404  1.0
  C  C136  1  0.64707275  0.82821086  0.94367513  1.0
  C  C137  1  0.29597592  0.11591402  0.94303212  1.0
  C  C138  1  0.88414919  0.35300498  0.05626335  1.0
  C  C139  1  0.17287762  0.70362763  0.05705386  1.0
  C  C140  1  0.60301163  0.63415002  0.55626575  1.0
  C  C141  1  0.95363187  0.92287416  0.55705412  1.0
  C  C142  1  0.36590683  0.04597858  0.44303245  1.0
  C  C143  1  0.07820739  0.39705417  0.44367894  1.0
  C  C144  1  0.68470647  0.74567849  0.96306093  1.0
  C  C145  1  0.27772951  0.21781374  0.96248853  1.0
  C  C146  1  0.78197473  0.31571998  0.03707583  1.0
  C  C147  1  0.25480424  0.72189429  0.03734741  1.0
  C  C148  1  0.56571550  0.53197475  0.53707826  1.0
  C  C149  1  0.97190389  0.00480638  0.53735044  1.0
  C  C150  1  0.46781130  0.02773785  0.46248968  1.0
  C  C151  1  0.99568349  0.43469793  0.46306372  1.0
  C  C152  1  0.76701685  0.76567948  0.99561910  1.0
  C  C153  1  0.22766218  0.23112635  0.99501439  1.0
  C  C154  1  0.76848512  0.23302357  0.00466155  1.0
  C  C155  1  0.23438619  0.77117211  0.00461016  1.0
  C  C156  1  0.48301420  0.51848989  0.50466656  1.0
  C  C157  1  0.02117268  0.98438660  0.50461083  1.0
  C  C158  1  0.48112132  0.97767479  0.49501755  1.0
  C  C159  1  0.01567572  0.51701991  0.49561808  1.0
  C  C160  1  0.80445540  0.69614268  0.01776778  1.0
  C  C161  1  0.21169590  0.32321760  0.01649746  1.0
  C  C162  1  0.67634855  0.19567426  0.98324127  1.0
  C  C163  1  0.30381585  0.78657436  0.98240389  1.0
  C  C164  1  0.44566398  0.42635125  0.48324907  1.0
  C  C165  1  0.03656777  0.05381568  0.48240322  1.0
  C  C166  1  0.57321034  0.96170162  0.51649588  1.0
  C  C167  1  0.94613166  0.55446266  0.51776538  1.0
  C  C168  1  0.76028994  0.60390752  0.00641719  1.0
  C  C169  1  0.24499598  0.40363719  0.00486684  1.0
  C  C170  1  0.59601400  0.24075586  0.99485283  1.0
  C  C171  1  0.39616657  0.75397662  0.99376431  1.0
  C  C172  1  0.49074848  0.34601780  0.49486576  1.0
  C  C173  1  0.00398130  0.14616765  0.49376246  1.0
  C  C174  1  0.65363626  0.99499716  0.50486675  1.0
  C  C175  1  0.85390305  0.51028876  0.50641139  1.0
  C  C176  1  0.67817719  0.58359195  0.97379191  1.0
  C  C177  1  0.29519645  0.39056145  0.97245242  1.0
  C  C178  1  0.60928050  0.32328748  0.02724659  1.0
  C  C179  1  0.41679018  0.70467239  0.02647431  1.0
  C  C180  1  0.57327835  0.35928453  0.52725759  1.0
  C  C181  1  0.95467927  0.16678022  0.52647579  1.0
  C  C182  1  0.64055801  0.04519783  0.47245412  1.0
  C  C183  1  0.83358177  0.42817805  0.47378920  1.0
  C  C184  1  0.63861721  0.65313797  0.95156922  1.0
  C  C185  1  0.31253647  0.29842049  0.95067716  1.0
  C  C186  1  0.70149275  0.36232715  0.04894912  1.0
  C  C187  1  0.34742398  0.68747207  0.04882834  1.0
  C  C188  1  0.61232518  0.45149679  0.54895667  1.0
  C  C189  1  0.93747554  0.09742054  0.54882882  1.0
  C  C190  1  0.54841849  0.06254140  0.45067837  1.0
  C  C191  1  0.90313334  0.38860813  0.45156988  1.0
  C  C192  1  0.88934993  0.72434485  0.05367552  1.0
  C  C193  1  0.16102053  0.33342381  0.05205129  1.0
  C  C194  1  0.66603813  0.10939374  0.94776156  1.0
  C  C195  1  0.27554049  0.83581232  0.94655956  1.0
  C  C196  1  0.35938472  0.41603557  0.44776851  1.0
  C  C197  1  0.08580896  0.02553204  0.44655774  1.0
  C  C198  1  0.58342829  0.91102740  0.55204764  1.0
  C  C199  1  0.97432969  0.63935111  0.55367703  1.0
  C  C200  1  0.55453771  0.62582290  0.91549952  1.0
  C  C201  1  0.36098452  0.28908238  0.91469979  1.0
  C  C202  1  0.71094280  0.44651239  0.08497306  1.0
  C  C203  1  0.37469395  0.63948005  0.08494563  1.0
  C  C204  1  0.69651216  0.46095988  0.58498115  1.0
  C  C205  1  0.88948481  0.12468775  0.58494689  1.0
  C  C206  1  0.53908155  0.11098809  0.41469923  1.0
  C  C207  1  0.87581585  0.30453079  0.41550015  1.0
  C  C208  1  0.47265671  0.57789902  0.91969503  1.0
  C  C209  1  0.44676224  0.34151941  0.91881718  1.0
  C  C210  1  0.65859889  0.52824276  0.08086045  1.0
  C  C211  1  0.42262944  0.55347626  0.08080280  1.0
  C  C212  1  0.77824053  0.40861647  0.58086455  1.0
  C  C213  1  0.80348413  0.17263080  0.58080119  1.0
  C  C214  1  0.59152394  0.19676126  0.41881735  1.0
  C  C215  1  0.82789073  0.22264980  0.41969683  1.0
  C  C216  1  0.39581437  0.54873582  0.88497997  1.0
  C  C217  1  0.48904301  0.33584130  0.88410818  1.0
  C  C218  1  0.66402922  0.60490427  0.11562884  1.0
  C  C219  1  0.45138351  0.51112487  0.11550522  1.0
  C  C220  1  0.85491151  0.41403796  0.61563108  1.0
  C  C221  1  0.76113757  0.20139037  0.61550534  1.0
  C  C222  1  0.58584491  0.23904547  0.38410829  1.0
  C  C223  1  0.79872477  0.14580323  0.38498259  1.0
  C  C224  1  0.39902707  0.56711287  0.84553814  1.0
  C  C225  1  0.44679005  0.27745884  0.84477879  1.0
  C  C226  1  0.72201544  0.60158638  0.15500190  1.0
  C  C227  1  0.43245103  0.55346206  0.15486646  1.0
  C  C228  1  0.85159925  0.47203145  0.65500425  1.0
  C  C229  1  0.80347063  0.18245560  0.65486551  1.0
  C  C230  1  0.52746255  0.19679291  0.34478167  1.0
  C  C231  1  0.81710140  0.14901700  0.34554161  1.0
  C  C232  1  0.47908350  0.61715050  0.84093758  1.0
  C  C233  1  0.36238904  0.22251845  0.84029921  1.0
  C  C234  1  0.77688352  0.52163659  0.15948173  1.0
  C  C235  1  0.38234711  0.63808490  0.15940940  1.0
  C  C236  1  0.77164282  0.52689617  0.65948486  1.0
  C  C237  1  0.88809173  0.13234711  0.65941032  1.0
  C  C238  1  0.47252375  0.11239291  0.34030139  1.0
  C  C239  1  0.86714013  0.22907069  0.34093731  1.0
  C  C240  1  0.55653772  0.64520370  0.87584263  1.0
  C  C241  1  0.31969960  0.22959197  0.87518035  1.0
  C  C242  1  0.77018147  0.44436836  0.12452112  1.0
  C  C243  1  0.35483620  0.68087302  0.12453097  1.0
  C  C244  1  0.69437622  0.52020109  0.62452764  1.0
  C  C245  1  0.93087056  0.10482453  0.62453136  1.0
  C  C246  1  0.47959749  0.06969277  0.37518047  1.0
  C  C247  1  0.89519493  0.30653040  0.37584311  1.0
  C  C248  1  0.48126215  0.64770104  0.80103622  1.0
  C  C249  1  0.32026353  0.15193293  0.80050203  1.0
  C  C250  1  0.84728372  0.51918837  0.19932178  1.0
  C  C251  1  0.35157406  0.68007765  0.19927859  1.0
  C  C252  1  0.76920663  0.59729854  0.69932485  1.0
  C  C253  1  0.93009250  0.10157462  0.69927768  1.0
  C  C254  1  0.40193940  0.07027097  0.30050341  1.0
  C  C255  1  0.89768956  0.23125730  0.30103656  1.0
  C  C256  1  0.47592365  0.58262382  0.76212730  1.0
  C  C257  1  0.28616687  0.17820697  0.76163674  1.0
  C  C258  1  0.82104740  0.52449567  0.23824215  1.0
  C  C259  1  0.41663848  0.71411497  0.23814672  1.0
  C  C260  1  0.77451207  0.57106527  0.73824633  1.0
  C  C261  1  0.96413195  0.16664623  0.73814289  1.0
  C  C262  1  0.42821370  0.03617085  0.26163875  1.0
  C  C263  1  0.83261275  0.22591606  0.26212658  1.0
  C  C264  1  0.48312037  0.61482918  0.72589825  1.0
  C  C265  1  0.24226411  0.10994445  0.72549958  1.0
  C  C266  1  0.88939464  0.51713862  0.27442655  1.0
  C  C267  1  0.38440501  0.75779296  0.27430398  1.0
  C  C268  1  0.76714749  0.63940718  0.77442933  1.0
  C  C269  1  0.00782136  0.13442393  0.77429896  1.0
  C  C270  1  0.35995752  0.99226165  0.22550121  1.0
  C  C271  1  0.86482001  0.23311911  0.22589873  1.0
  C  C272  1  0.49577596  0.71312540  0.72796226  1.0
  C  C273  1  0.23174275  0.01375833  0.72762777  1.0
  C  C274  1  0.98555212  0.50436826  0.27225236  1.0
  C  C275  1  0.28609965  0.76810748  0.27225411  1.0
  C  C276  1  0.75437271  0.73556347  0.77225581  1.0
  C  C277  1  0.01814124  0.03611155  0.77225238  1.0
  C  C278  1  0.26377456  0.98173020  0.22763043  1.0
  C  C279  1  0.96311395  0.24577785  0.22796150  1.0
  C  C280  1  0.50144744  0.77880296  0.76656173  1.0
  C  C281  1  0.26516826  0.98655585  0.76618691  1.0
  C  C282  1  0.01267907  0.49861690  0.23363775  1.0
  C  C283  1  0.22038992  0.73456866  0.23373013  1.0
  C  C284  1  0.74862904  0.76268979  0.73363765  1.0
  C  C285  1  0.98459356  0.97040025  0.73373046  1.0
  C  C286  1  0.23656386  0.01515591  0.26618749  1.0
  C  C287  1  0.02879283  0.25144774  0.26656044  1.0
  C  C288  1  0.49323450  0.74656752  0.80261438  1.0
  C  C289  1  0.30988744  0.05468582  0.80217267  1.0
  C  C290  1  0.94446698  0.50697284  0.19762878  1.0
  C  C291  1  0.25266770  0.69008070  0.19770061  1.0
  C  C292  1  0.75699385  0.69447933  0.69763183  1.0
  C  C293  1  0.94009611  0.00266895  0.69769981  1.0
  C  C294  1  0.30469311  0.05987964  0.30217315  1.0
  C  C295  1  0.99655352  0.24322569  0.30261279  1.0
  C  C296  1  0.50479958  0.74870345  0.68966431  1.0
  C  C297  1  0.18384441  0.93995444  0.68942442  1.0
  C  C298  1  0.05946830  0.49516711  0.31044000  1.0
  C  C299  1  0.25061107  0.81601266  0.31050761  1.0
  C  C300  1  0.74516697  0.80947997  0.81044108  1.0
  C  C301  1  0.06603789  0.00062354  0.81050670  1.0
  C  C302  1  0.18996838  0.93383712  0.18942846  1.0
  C  C303  1  0.99869459  0.25479690  0.18966250  1.0
  C  C304  1  0.49124938  0.81876554  0.84229660  1.0
  C  C305  1  0.35134535  0.02208631  0.84189153  1.0
  C  C306  1  0.97676311  0.50876771  0.15784618  1.0
  C  C307  1  0.18031341  0.64851076  0.15804398  1.0
  C  C308  1  0.75877471  0.72676994  0.65784613  1.0
  C  C309  1  0.89852016  0.93031638  0.65804364  1.0
  C  C310  1  0.27207895  0.10134417  0.34189023  1.0
  C  C311  1  0.06875673  0.24123722  0.34229560  1.0
  C  C312  1  0.94138002  0.94112436  0.88261036  1.0
  C  C313  1  0.05930093  0.05844838  0.11730888  1.0
  C  C314  1  0.30843842  0.80930456  0.61730907  1.0
  C  C315  1  0.19112759  0.69139658  0.38261376  1.0
  O  O316  1  0.70475761  0.87354059  0.92981545  1.0
  O  O317  1  0.22470157  0.05622852  0.93010570  1.0
  O  O318  1  0.94287212  0.29506245  0.07015687  1.0
  O  O319  1  0.12587912  0.77471573  0.07000581  1.0
  O  O320  1  0.54505842  0.69287658  0.57015915  1.0
  O  O321  1  0.02472061  0.87587642  0.57001062  1.0
  O  O322  1  0.30622813  0.97470585  0.43010575  1.0
  O  O323  1  0.12354785  0.45474839  0.42981822  1.0
  O  O324  1  0.56054589  0.84970001  0.94452390  1.0
  O  O325  1  0.38278325  0.09644481  0.94234168  1.0
  O  O326  1  0.90501054  0.43934898  0.05531468  1.0
  O  O327  1  0.15410200  0.61680173  0.05781402  1.0
  O  O328  1  0.68935126  0.65500207  0.55531459  1.0
  O  O329  1  0.86680853  0.90409801  0.55781500  1.0
  O  O330  1  0.34643947  0.13278855  0.44233796  1.0
  O  O331  1  0.09969535  0.31053742  0.44452776  1.0
  O  O332  1  0.90798207  0.81319000  0.06981283  1.0
  O  O333  1  0.15985327  0.26328824  0.06990782  1.0
  O  O334  1  0.73601558  0.09051595  0.92980715  1.0
  O  O335  1  0.18672776  0.83851645  0.93042281  1.0
  O  O336  1  0.34050844  0.48600984  0.42981044  1.0
  O  O337  1  0.08851315  0.93672800  0.43041965  1.0
  O  O338  1  0.51329982  0.90985820  0.56991029  1.0
  O  O339  1  0.06317758  0.65797737  0.56981874  1.0
  O  O340  1  0.94074916  0.66033415  0.06807113  1.0
  O  O341  1  0.12101980  0.41173389  0.06361910  1.0
  O  O342  1  0.58781367  0.05777520  0.93640269  1.0
  O  O343  1  0.33958073  0.87310169  0.93222029  1.0
  O  O344  1  0.30777294  0.33781354  0.43641222  1.0
  O  O345  1  0.12309262  0.08957908  0.43221766  1.0
  O  O346  1  0.66174259  0.87103434  0.56361454  1.0
  O  O347  1  0.91031696  0.69074153  0.56807145  1.0
  O  O348  1  0.51198732  0.68994441  0.65569553  1.0
  O  O349  1  0.14229339  0.96481721  0.65555084  1.0
  O  O350  1  0.03481657  0.48810222  0.34446293  1.0
  O  O351  1  0.30939170  0.85767509  0.34432184  1.0
  O  O352  1  0.73810439  0.78483095  0.84446434  1.0
  O  O353  1  0.10769405  0.05940831  0.84432400  1.0
  O  O354  1  0.21483168  0.89228794  0.15555386  1.0
  O  O355  1  0.93994239  0.26199161  0.15569584  1.0
  O  O356  1  0.50577227  0.83992368  0.69181362  1.0
  O  O357  1  0.18496345  0.85090717  0.69159543  1.0
  O  O358  1  0.14847667  0.49382005  0.30814661  1.0
  O  O359  1  0.15946521  0.81484962  0.30845730  1.0
  O  O360  1  0.74382054  0.89848438  0.80814476  1.0
  O  O361  1  0.06486471  0.90947611  0.80845535  1.0
  O  O362  1  0.10092304  0.93495798  0.19159905  1.0
  O  O363  1  0.08991692  0.25577176  0.19181518  1.0
  O  O364  1  0.55745895  0.88441038  0.85765339  1.0
  O  O365  1  0.30025105  0.97185997  0.85724354  1.0
  O  O366  1  0.02667790  0.44232259  0.14235608  1.0
  O  O367  1  0.11460338  0.69952017  0.14279375  1.0
  O  O368  1  0.69232232  0.77667533  0.64235498  1.0
  O  O369  1  0.94952950  0.86459937  0.64279893  1.0
  O  O370  1  0.22186005  0.05024729  0.35724129  1.0
  O  O371  1  0.13440146  0.30745435  0.35765566  1.0
  O  O372  1  0.42089385  0.81734229  0.86015404  1.0
  O  O373  1  0.43940054  0.04108257  0.85998813  1.0
  O  O374  1  0.95750159  0.57910385  0.13999193  1.0
  O  O375  1  0.18119646  0.56043528  0.13995665  1.0
  O  O376  1  0.82910475  0.70750460  0.63998985  1.0
  O  O377  1  0.81044484  0.93120202  0.63995762  1.0
  O  O378  1  0.29107076  0.18940339  0.35998472  1.0
  O  O379  1  0.06732679  0.17088437  0.36015051  1.0
  O  O380  1  0.87213632  0.95299406  0.90104522  1.0
  O  O381  1  0.02888543  0.95095051  0.90105432  1.0
  O  O382  1  0.05042513  0.12762096  0.09879214  1.0
  O  O383  1  0.04910042  0.97091655  0.09891867  1.0
  O  O384  1  0.37762627  0.80043141  0.59879428  1.0
  O  O385  1  0.22092032  0.79907777  0.59891658  1.0
  O  O386  1  0.20095407  0.77888271  0.40105425  1.0
  O  O387  1  0.20298835  0.62213117  0.40105193  1.0
  O  O388  1  0.79222591  0.08951129  0.85078689  1.0
  O  O389  1  0.05849753  0.76154651  0.85110813  1.0
  O  O390  1  0.23823787  0.20762851  0.14862796  1.0
  O  O391  1  0.91067146  0.94205811  0.14928334  1.0
  O  O392  1  0.45762252  0.98825717  0.64862683  1.0
  O  O393  1  0.19205402  0.66066453  0.64928341  1.0
  O  O394  1  0.01154522  0.80849650  0.35110725  1.0
  O  O395  1  0.33951359  0.54222494  0.35078950  1.0
  O  O396  1  0.60517514  0.05176931  0.83925800  1.0
  O  O397  1  0.23336789  0.78635858  0.83877400  1.0
  O  O398  1  0.21203601  0.39449495  0.16050831  1.0
  O  O399  1  0.94765073  0.76662973  0.16137374  1.0
  O  O400  1  0.64450242  0.96204316  0.66050461  1.0
  O  O401  1  0.01662614  0.69764256  0.66137534  1.0
  O  O402  1  0.03635760  0.98336237  0.33877524  1.0
  O  O403  1  0.30175145  0.35517706  0.33925643  1.0
  O  O404  1  0.49052738  0.99672059  0.99754613  1.0
  O  O405  1  0.99893245  0.51164113  0.00256918  1.0
  O  O406  1  0.76166594  0.74892909  0.50256469  1.0
  O  O407  1  0.24672728  0.24053435  0.49754517  1.0
