# generated using pymatgen
data_Al3H40C45Cl3O17
_symmetry_space_group_name_H-M   'P 1'
_cell_length_a   13.84310940
_cell_length_b   13.91092112
_cell_length_c   28.06224795
_cell_angle_alpha   90.33026362
_cell_angle_beta   90.17813990
_cell_angle_gamma   60.17866266
_symmetry_Int_Tables_number   1
_chemical_formula_structural   Al3H40C45Cl3O17
_chemical_formula_sum   'Al6 H80 C90 Cl6 O34'
_cell_volume   4688.28986472
_cell_formula_units_Z   2
loop_
 _symmetry_equiv_pos_site_id
 _symmetry_equiv_pos_as_xyz
  1  'x, y, z'
loop_
 _atom_site_type_symbol
 _atom_site_label
 _atom_site_symmetry_multiplicity
 _atom_site_fract_x
 _atom_site_fract_y
 _atom_site_fract_z
 _atom_site_occupancy
  Al  Al0  1  0.23823421  0.25347324  0.24862898  1.0
  Al  Al1  1  0.47236699  0.24866229  0.24808639  1.0
  Al  Al2  1  0.26429331  0.46998366  0.25073499  1.0
  Al  Al3  1  0.48999857  0.73919174  0.75099711  1.0
  Al  Al4  1  0.71816203  0.74665355  0.75053377  1.0
  Al  Al5  1  0.73402241  0.52428650  0.75019758  1.0
  H  H6  1  0.62135439  0.32672320  0.95668290  1.0
  H  H7  1  0.04719883  0.61916205  0.94825278  1.0
  H  H8  1  0.33977839  0.05310502  0.95211350  1.0
  H  H9  1  0.89408917  0.66280036  0.05147974  1.0
  H  H10  1  0.65794084  0.44783266  0.05779359  1.0
  H  H11  1  0.46160771  0.88764971  0.05077561  1.0
  H  H12  1  0.66146178  0.53519543  0.49902626  1.0
  H  H13  1  0.81854464  0.63384511  0.50398453  1.0
  H  H14  1  0.56109642  0.79876351  0.49779942  1.0
  H  H15  1  0.20598332  0.45440911  0.50657627  1.0
  H  H16  1  0.45773706  0.35165399  0.49357316  1.0
  H  H17  1  0.36805866  0.18547558  0.49811784  1.0
  H  H18  1  0.71138318  0.34592691  0.44982793  1.0
  H  H19  1  0.95396530  0.69371377  0.45760210  1.0
  H  H20  1  0.36745629  0.94021698  0.44842360  1.0
  H  H21  1  0.06091223  0.64414313  0.55316113  1.0
  H  H22  1  0.64988897  0.29225188  0.54328174  1.0
  H  H23  1  0.31112325  0.04322421  0.54450287  1.0
  H  H24  1  0.59223001  0.31023205  0.03767729  1.0
  H  H25  1  0.09555088  0.60018966  0.02906242  1.0
  H  H26  1  0.32229143  0.09100483  0.03418092  1.0
  H  H27  1  0.84698008  0.68142918  0.97057318  1.0
  H  H28  1  0.68553436  0.46493990  0.97674315  1.0
  H  H29  1  0.47862417  0.85116312  0.96864794  1.0
  H  H30  1  0.56035146  0.59100473  0.06069551  1.0
  H  H31  1  0.85084762  0.56354070  0.05753916  1.0
  H  H32  1  0.60525908  0.84307355  0.05407451  1.0
  H  H33  1  0.14282330  0.47719415  0.93904866  1.0
  H  H34  1  0.47921209  0.37422665  0.94528010  1.0
  H  H35  1  0.38656197  0.14906981  0.94403304  1.0
  H  H36  1  0.58723003  0.60798559  0.97963324  1.0
  H  H37  1  0.80293993  0.58276410  0.97679124  1.0
  H  H38  1  0.62223521  0.80642429  0.97208230  1.0
  H  H39  1  0.19046326  0.45792365  0.01986007  1.0
  H  H40  1  0.44983802  0.35905236  0.02631295  1.0
  H  H41  1  0.37038756  0.18584351  0.02608525  1.0
  H  H42  1  0.31042104  0.56514449  0.03085291  1.0
  H  H43  1  0.12754450  0.31632650  0.02901321  1.0
  H  H44  1  0.57664128  0.12101044  0.03134680  1.0
  H  H45  1  0.94010659  0.37842247  0.96365812  1.0
  H  H46  1  0.38348524  0.67582712  0.96325291  1.0
  H  H47  1  0.68987897  0.94428715  0.96035698  1.0
  H  H48  1  0.35609732  0.65995316  0.04457863  1.0
  H  H49  1  0.98862607  0.35936570  0.04452689  1.0
  H  H50  1  0.67291180  0.98049072  0.04254050  1.0
  H  H51  1  0.07934365  0.33452704  0.94817668  1.0
  H  H52  1  0.33845573  0.58059108  0.94962885  1.0
  H  H53  1  0.59349008  0.08479124  0.94922767  1.0
  H  H54  1  0.39432076  0.57796521  0.53486406  1.0
  H  H55  1  0.04958661  0.37841060  0.54435704  1.0
  H  H56  1  0.59376371  0.02540746  0.54039770  1.0
  H  H57  1  0.98737713  0.40697736  0.46532953  1.0
  H  H58  1  0.43208714  0.61026944  0.45730141  1.0
  H  H59  1  0.63114631  0.95967461  0.46068183  1.0
  H  H60  1  0.35776395  0.48542218  0.47333485  1.0
  H  H61  1  0.18208722  0.34734283  0.48555571  1.0
  H  H62  1  0.50291555  0.15458221  0.47960418  1.0
  H  H63  1  0.85227694  0.50021974  0.52438405  1.0
  H  H64  1  0.52886432  0.64055590  0.51892991  1.0
  H  H65  1  0.66344920  0.82879090  0.51993057  1.0
  H  H66  1  0.67662930  0.43544943  0.38366310  1.0
  H  H67  1  0.73382513  0.48958971  0.42734689  1.0
  H  H68  1  0.68430125  0.55671902  0.37175414  1.0
  H  H69  1  0.90754106  0.65130091  0.39097648  1.0
  H  H70  1  0.79254652  0.70232999  0.43242400  1.0
  H  H71  1  0.78514876  0.64650969  0.37639841  1.0
  H  H72  1  0.46339463  0.88519382  0.38318064  1.0
  H  H73  1  0.51969162  0.77388764  0.42613901  1.0
  H  H74  1  0.58858803  0.75942041  0.37114928  1.0
  H  H75  1  0.10755715  0.55817175  0.62073510  1.0
  H  H76  1  0.22462524  0.50354223  0.58009785  1.0
  H  H77  1  0.23529753  0.43844297  0.63566898  1.0
  H  H78  1  0.55520044  0.33227780  0.60927621  1.0
  H  H79  1  0.49779472  0.28101167  0.56447978  1.0
  H  H80  1  0.42805096  0.33324022  0.61949699  1.0
  H  H81  1  0.34158473  0.10074177  0.61127980  1.0
  H  H82  1  0.29262889  0.20787174  0.56654409  1.0
  H  H83  1  0.33688288  0.22891906  0.62299020  1.0
  H  H84  1  0.15905974  0.14942048  0.27552681  1.0
  H  H85  1  0.30596947  0.84479542  0.72478749  1.0
  C  C86  1  0.43244645  0.12519111  0.18239121  1.0
  C  C87  1  0.43768509  0.42237157  0.18436069  1.0
  C  C88  1  0.13152610  0.44841638  0.18258901  1.0
  C  C89  1  0.55544220  0.87164211  0.81560463  1.0
  C  C90  1  0.85765862  0.57674425  0.81599671  1.0
  C  C91  1  0.57983402  0.54681469  0.81826965  1.0
  C  C92  1  0.52181993  0.54988604  0.45678974  1.0
  C  C93  1  0.95281268  0.49730130  0.46429877  1.0
  C  C94  1  0.57231841  0.92824234  0.45867559  1.0
  C  C95  1  0.07787763  0.43961233  0.54587759  1.0
  C  C96  1  0.45084192  0.48775486  0.53554466  1.0
  C  C97  1  0.50357183  0.05615575  0.53976230  1.0
  C  C98  1  0.58582385  0.51771953  0.63099970  1.0
  C  C99  1  0.89612196  0.57295673  0.63714248  1.0
  C  C100  1  0.53761529  0.88494928  0.63109887  1.0
  C  C101  1  0.12110577  0.46807709  0.37176398  1.0
  C  C102  1  0.47929898  0.41898022  0.36243632  1.0
  C  C103  1  0.43879007  0.10082770  0.36592005  1.0
  C  C104  1  0.52939355  0.43277852  0.45265886  1.0
  C  C105  1  0.05822643  0.51353434  0.46221594  1.0
  C  C106  1  0.45340262  0.03570199  0.45548444  1.0
  C  C107  1  0.96714531  0.55606928  0.54800668  1.0
  C  C108  1  0.57158821  0.47281898  0.54004627  1.0
  C  C109  1  0.49287395  0.94798430  0.54106983  1.0
  C  C110  1  0.65921217  0.35437342  0.52336069  1.0
  C  C111  1  0.99290784  0.64767368  0.53198626  1.0
  C  C112  1  0.37554512  0.97572975  0.52340442  1.0
  C  C113  1  0.02406602  0.63304439  0.47872395  1.0
  C  C114  1  0.64601244  0.34125678  0.46957394  1.0
  C  C115  1  0.36223944  0.00771854  0.47037730  1.0
  C  C116  1  0.58679233  0.49577475  0.58899122  1.0
  C  C117  1  0.92360751  0.57185089  0.59597013  1.0
  C  C118  1  0.51572668  0.90728571  0.58931355  1.0
  C  C119  1  0.09995053  0.48966979  0.41378682  1.0
  C  C120  1  0.50451138  0.41853215  0.40395937  1.0
  C  C121  1  0.43904963  0.07685911  0.40742772  1.0
  C  C122  1  0.42725539  0.13578800  0.31724921  1.0
  C  C123  1  0.44563530  0.41135723  0.31494397  1.0
  C  C124  1  0.14823463  0.44019445  0.32222712  1.0
  C  C125  1  0.56008635  0.85336042  0.68021994  1.0
  C  C126  1  0.85462718  0.58195126  0.68463591  1.0
  C  C127  1  0.58662063  0.54800994  0.68003007  1.0
  C  C128  1  0.51741593  0.37784588  0.02108626  1.0
  C  C129  1  0.10346892  0.52309331  0.01449498  1.0
  C  C130  1  0.38989899  0.10033376  0.01862697  1.0
  C  C131  1  0.87302724  0.59732975  0.98318540  1.0
  C  C132  1  0.60008208  0.52514325  0.98764405  1.0
  C  C133  1  0.53904226  0.87521238  0.98106681  1.0
  C  C134  1  0.58198054  0.51403466  0.04129434  1.0
  C  C135  1  0.90454525  0.58489012  0.03667160  1.0
  C  C136  1  0.52778041  0.89936748  0.03523364  1.0
  C  C137  1  0.07192005  0.53552103  0.96102584  1.0
  C  C138  1  0.53643244  0.38841546  0.96755583  1.0
  C  C139  1  0.40106104  0.07594892  0.96452736  1.0
  C  C140  1  0.55735567  0.52240250  0.86538568  1.0
  C  C141  1  0.91145928  0.54712041  0.86164011  1.0
  C  C142  1  0.53656432  0.92563084  0.86113308  1.0
  C  C143  1  0.08467554  0.47351982  0.13530421  1.0
  C  C144  1  0.46062214  0.45453466  0.13920287  1.0
  C  C145  1  0.46619082  0.07233781  0.13661260  1.0
  C  C146  1  0.48638289  0.48759191  0.04777585  1.0
  C  C147  1  0.02736077  0.49255198  0.04349303  1.0
  C  C148  1  0.50028465  0.02028678  0.04449856  1.0
  C  C149  1  0.97395970  0.51313523  0.95285108  1.0
  C  C150  1  0.51761455  0.50575379  0.95701060  1.0
  C  C151  1  0.51944102  0.97949790  0.95305787  1.0
  C  C152  1  0.39729538  0.59284744  0.97163482  1.0
  C  C153  1  0.00918127  0.39452462  0.97003549  1.0
  C  C154  1  0.60624802  0.01200564  0.96951276  1.0
  C  C155  1  0.04097003  0.38227629  0.02356928  1.0
  C  C156  1  0.37887916  0.58246146  0.02539090  1.0
  C  C157  1  0.59511734  0.03592553  0.02375697  1.0
  C  C158  1  0.53768003  0.51498271  0.90696785  1.0
  C  C159  1  0.94192978  0.52859396  0.90295842  1.0
  C  C160  1  0.52931730  0.95336093  0.90268394  1.0
  C  C161  1  0.05746276  0.48222830  0.09360986  1.0
  C  C162  1  0.47117706  0.47342834  0.09785505  1.0
  C  C163  1  0.48580796  0.04541240  0.09497618  1.0
  C  C164  1  0.44195834  0.43642932  0.48805936  1.0
  C  C165  1  0.14117810  0.43244064  0.49952109  1.0
  C  C166  1  0.45392736  0.11789344  0.49272634  1.0
  C  C167  1  0.88774906  0.54976238  0.51068455  1.0
  C  C168  1  0.57454142  0.55605705  0.50441408  1.0
  C  C169  1  0.57922596  0.86598874  0.50492521  1.0
  C  C170  1  0.66968254  0.51099253  0.39980114  1.0
  C  C171  1  0.84126622  0.63831953  0.40565378  1.0
  C  C172  1  0.53994193  0.81853681  0.39933495  1.0
  C  C173  1  0.17877328  0.48258601  0.60610222  1.0
  C  C174  1  0.47826789  0.34411197  0.59227955  1.0
  C  C175  1  0.35309873  0.16662938  0.59544622  1.0
  Cl  Cl176  1  0.66855883  0.20475458  0.45677983  1.0
  Cl  Cl177  1  0.13302421  0.66527200  0.46840652  1.0
  Cl  Cl178  1  0.22463263  0.12206867  0.45939750  1.0
  Cl  Cl179  1  0.87742861  0.78424818  0.54290913  1.0
  Cl  Cl180  1  0.79892424  0.32435517  0.53607052  1.0
  Cl  Cl181  1  0.35081376  0.86167560  0.53230305  1.0
  O  O182  1  0.14204580  0.36209946  0.20198554  1.0
  O  O183  1  0.50804218  0.13360053  0.20646849  1.0
  O  O184  1  0.35426564  0.49557917  0.20812319  1.0
  O  O185  1  0.50360302  0.63210879  0.79832535  1.0
  O  O186  1  0.63843774  0.86373455  0.79111397  1.0
  O  O187  1  0.84940226  0.50170460  0.79259742  1.0
  O  O188  1  0.33238365  0.16273133  0.19453705  1.0
  O  O189  1  0.49944325  0.32104443  0.19644977  1.0
  O  O190  1  0.16264294  0.51446382  0.20050673  1.0
  O  O191  1  0.49366845  0.83261788  0.80405038  1.0
  O  O192  1  0.81752506  0.67746735  0.80293483  1.0
  O  O193  1  0.67771590  0.48147567  0.80114072  1.0
  O  O194  1  0.16619061  0.34670329  0.30802215  1.0
  O  O195  1  0.50170722  0.15689186  0.30116140  1.0
  O  O196  1  0.34810677  0.48521198  0.30202594  1.0
  O  O197  1  0.51060043  0.64171347  0.69369716  1.0
  O  O198  1  0.65471835  0.83508831  0.69655444  1.0
  O  O199  1  0.83151667  0.50822313  0.69822096  1.0
  O  O200  1  0.34378678  0.14555582  0.29462062  1.0
  O  O201  1  0.51420824  0.32868761  0.28948881  1.0
  O  O202  1  0.15366789  0.51409826  0.29618450  1.0
  O  O203  1  0.48674461  0.84374497  0.70299290  1.0
  O  O204  1  0.84022089  0.66560678  0.70955648  1.0
  O  O205  1  0.66797596  0.47632320  0.70599892  1.0
  O  O206  1  0.32577552  0.32459899  0.24916705  1.0
  O  O207  1  0.64879123  0.66947356  0.75052053  1.0
  O  O208  1  0.55950430  0.58362660  0.41690981  1.0
  O  O209  1  0.88476098  0.52819036  0.42323027  1.0
  O  O210  1  0.60895197  0.85967929  0.41769166  1.0
  O  O211  1  0.14495646  0.40807955  0.58725958  1.0
  O  O212  1  0.41171995  0.45467364  0.57515274  1.0
  O  O213  1  0.46557058  0.12529561  0.58055980  1.0
  O  O214  1  0.15186010  0.19507934  0.24840459  1.0
  O  O215  1  0.34512903  0.79832270  0.75165264  1.0
