# generated using pymatgen
data_CuH13C13N2O5
_symmetry_space_group_name_H-M   'P 1'
_cell_length_a   8.42004722
_cell_length_b   12.81767201
_cell_length_c   17.86181512
_cell_angle_alpha   110.99456314
_cell_angle_beta   94.22847825
_cell_angle_gamma   90.00254319
_symmetry_Int_Tables_number   1
_chemical_formula_structural   CuH13C13N2O5
_chemical_formula_sum   'Cu4 H52 C52 N8 O20'
_cell_volume   1794.14514966
_cell_formula_units_Z   4
loop_
 _symmetry_equiv_pos_site_id
 _symmetry_equiv_pos_as_xyz
  1  'x, y, z'
loop_
 _atom_site_type_symbol
 _atom_site_label
 _atom_site_symmetry_multiplicity
 _atom_site_fract_x
 _atom_site_fract_y
 _atom_site_fract_z
 _atom_site_occupancy
  Cu  Cu0  1  0.58306181  0.06470224  0.56334862  1.0
  Cu  Cu1  1  0.91708578  0.50161617  0.43672740  1.0
  Cu  Cu2  1  0.41694143  0.93529673  0.43666697  1.0
  Cu  Cu3  1  0.08290329  0.49839077  0.56326678  1.0
  H  H4  1  0.41257449  0.69428058  0.57137412  1.0
  H  H5  1  0.08597656  0.12277500  0.42852136  1.0
  H  H6  1  0.58747567  0.30569757  0.42862543  1.0
  H  H7  1  0.91400250  0.87723039  0.57149233  1.0
  H  H8  1  0.62331007  0.70452548  0.57338060  1.0
  H  H9  1  0.87526750  0.13099971  0.42660082  1.0
  H  H10  1  0.37673650  0.29547855  0.42661898  1.0
  H  H11  1  0.12472074  0.86901492  0.57341545  1.0
  H  H12  1  0.52616450  0.78625049  0.65980003  1.0
  H  H13  1  0.97228705  0.12662112  0.34018637  1.0
  H  H14  1  0.47388015  0.21372099  0.34020376  1.0
  H  H15  1  0.02769256  0.87336950  0.65982337  1.0
  H  H16  1  0.99708327  0.06136353  0.58237026  1.0
  H  H17  1  0.50288292  0.47860288  0.41753881  1.0
  H  H18  1  0.00292013  0.93863399  0.41764808  1.0
  H  H19  1  0.49708529  0.52134958  0.58243158  1.0
  H  H20  1  0.11254293  0.14863417  0.67288236  1.0
  H  H21  1  0.38749602  0.47524860  0.32694327  1.0
  H  H22  1  0.88745952  0.85138226  0.32713402  1.0
  H  H23  1  0.61246020  0.52470895  0.67303227  1.0
  H  H24  1  0.06522071  0.19555464  0.59149424  1.0
  H  H25  1  0.43452423  0.60353800  0.40824199  1.0
  H  H26  1  0.93476808  0.80443772  0.40850712  1.0
  H  H27  1  0.56546170  0.39641494  0.59172464  1.0
  H  H28  1  0.74197556  0.05961379  0.72715260  1.0
  H  H29  1  0.75831845  0.33322567  0.27308600  1.0
  H  H30  1  0.25802834  0.94039778  0.27286475  1.0
  H  H31  1  0.24167665  0.66677220  0.72689733  1.0
  H  H32  1  0.94296145  0.17445501  0.83856829  1.0
  H  H33  1  0.55729577  0.33713757  0.16176746  1.0
  H  H34  1  0.05705501  0.82556856  0.16144938  1.0
  H  H35  1  0.44271819  0.66286526  0.83821664  1.0
  H  H36  1  0.92353800  0.42445409  0.72718083  1.0
  H  H37  1  0.57776608  0.69832424  0.27316783  1.0
  H  H38  1  0.07645018  0.57554887  0.27281692  1.0
  H  H39  1  0.42220219  0.30167336  0.72683296  1.0
  H  H40  1  0.73936160  0.29525489  0.61897944  1.0
  H  H41  1  0.76170740  0.67688166  0.38136047  1.0
  H  H42  1  0.26064626  0.70474085  0.38102699  1.0
  H  H43  1  0.23825879  0.32310976  0.61864082  1.0
  H  H44  1  0.93201416  0.51109803  0.87513558  1.0
  H  H45  1  0.56877102  0.63668720  0.12466678  1.0
  H  H46  1  0.06797961  0.48891354  0.12486327  1.0
  H  H47  1  0.43122786  0.36331513  0.87532947  1.0
  H  H48  1  0.25071879  0.45740672  0.00018316  1.0
  H  H49  1  0.74926828  0.54259278  0.99981195  1.0
  H  H50  1  0.24961732  0.84436727  0.99945179  1.0
  H  H51  1  0.75040664  0.15563749  0.00054940  1.0
  H  H52  1  0.06019528  0.69955890  0.90425123  1.0
  H  H53  1  0.43943104  0.79584623  0.09508871  1.0
  H  H54  1  0.93981266  0.30045780  0.09575109  1.0
  H  H55  1  0.56059075  0.20415095  0.90490820  1.0
  C  C56  1  0.50706971  0.84466678  0.56054035  1.0
  C  C57  1  0.99172775  0.28407366  0.43951678  1.0
  C  C58  1  0.49296235  0.15532789  0.43947592  1.0
  C  C59  1  0.00826280  0.71592994  0.56048161  1.0
  C  C60  1  0.51589757  0.75179890  0.59392307  1.0
  C  C61  1  0.98262634  0.15786218  0.40605728  1.0
  C  C62  1  0.48414174  0.24818508  0.40608070  1.0
  C  C63  1  0.01735852  0.84214378  0.59395277  1.0
  C  C64  1  0.24763158  0.07700981  0.57021765  1.0
  C  C65  1  0.25227451  0.50625424  0.42956259  1.0
  C  C66  1  0.75236549  0.92299052  0.42979342  1.0
  C  C67  1  0.74769908  0.49374404  0.57041951  1.0
  C  C68  1  0.09579982  0.12224260  0.60732470  1.0
  C  C69  1  0.40414597  0.51441647  0.39249369  1.0
  C  C70  1  0.90420077  0.87776230  0.39269100  1.0
  C  C71  1  0.59582666  0.48554450  0.60747853  1.0
  C  C72  1  0.78670888  0.14116232  0.73035145  1.0
  C  C73  1  0.71369780  0.41165622  0.26991074  1.0
  C  C74  1  0.21329575  0.85885364  0.26965771  1.0
  C  C75  1  0.28629651  0.58833578  0.73007679  1.0
  C  C76  1  0.89652208  0.20492085  0.79185129  1.0
  C  C77  1  0.60390459  0.41419501  0.20846274  1.0
  C  C78  1  0.10349406  0.79510457  0.20815898  1.0
  C  C79  1  0.39610412  0.58579569  0.79152596  1.0
  C  C80  1  0.94706230  0.30941497  0.79268544  1.0
  C  C81  1  0.55356018  0.51790926  0.20768647  1.0
  C  C82  1  0.05294035  0.69060659  0.20730747  1.0
  C  C83  1  0.44644401  0.48207745  0.79230410  1.0
  C  C84  1  0.88677178  0.34520727  0.73118434  1.0
  C  C85  1  0.61419931  0.61504549  0.26914943  1.0
  C  C86  1  0.11322189  0.65480130  0.26880728  1.0
  C  C87  1  0.38578216  0.38494596  0.73084513  1.0
  C  C88  1  0.78227928  0.27370791  0.67041704  1.0
  C  C89  1  0.71856498  0.60407311  0.32990541  1.0
  C  C90  1  0.21772317  0.72629886  0.32958537  1.0
  C  C91  1  0.28141047  0.39592199  0.67009285  1.0
  C  C92  1  0.07416134  0.37616092  0.85447572  1.0
  C  C93  1  0.42630583  0.52304532  0.14602122  1.0
  C  C94  1  0.92584363  0.62384616  0.14553121  1.0
  C  C95  1  0.57369082  0.47695442  0.85397579  1.0
  C  C96  1  0.14634476  0.56913552  0.94560390  1.0
  C  C97  1  0.35415898  0.62396661  0.05430434  1.0
  C  C98  1  0.85366410  0.43088350  0.05439319  1.0
  C  C99  1  0.64585257  0.37604530  0.94569230  1.0
  C  C100  1  0.25043265  0.54183259  0.00004956  1.0
  C  C101  1  0.74957073  0.45817970  0.99995253  1.0
  C  C102  1  0.14306380  0.67891284  0.94640621  1.0
  C  C103  1  0.35681846  0.73273999  0.05310639  1.0
  C  C104  1  0.85694516  0.32110647  0.05359453  1.0
  C  C105  1  0.64319313  0.26727129  0.94689046  1.0
  C  C106  1  0.24982225  0.75939012  0.99963037  1.0
  C  C107  1  0.75019400  0.24062322  0.00036602  1.0
  N  N108  1  0.73172963  0.17414522  0.66992878  1.0
  N  N109  1  0.76882502  0.50493158  0.33033370  1.0
  N  N110  1  0.26828349  0.82586585  0.33007797  1.0
  N  N111  1  0.23115511  0.49505856  0.66965448  1.0
  N  N112  1  0.04337339  0.48684930  0.88895887  1.0
  N  N113  1  0.45725233  0.59885799  0.11117689  1.0
  N  N114  1  0.95663563  0.51316716  0.11103984  1.0
  N  N115  1  0.54275258  0.40114332  0.88882001  1.0
  O  O116  1  0.57758172  0.93719140  0.60317323  1.0
  O  O117  1  0.92146556  0.33419489  0.39692325  1.0
  O  O118  1  0.42249343  0.06278939  0.39682894  1.0
  O  O119  1  0.07855951  0.66580581  0.60306963  1.0
  O  O120  1  0.43240300  0.82255216  0.49149246  1.0
  O  O121  1  0.06617057  0.33078418  0.50862625  1.0
  O  O122  1  0.56754264  0.17747090  0.50854502  1.0
  O  O123  1  0.93381033  0.66922578  0.49137774  1.0
  O  O124  1  0.37830649  0.11699658  0.61143867  1.0
  O  O125  1  0.12164856  0.50518826  0.38835083  1.0
  O  O126  1  0.62168731  0.88296061  0.38859287  1.0
  O  O127  1  0.87832368  0.49482538  0.61164847  1.0
  O  O128  1  0.23335083  0.00334961  0.49932318  1.0
  O  O129  1  0.26644546  0.50314275  0.50040183  1.0
  O  O130  1  0.76664871  0.99668967  0.50067331  1.0
  O  O131  1  0.73353612  0.49683661  0.49957885  1.0
  O  O132  1  0.19739318  0.33052802  0.86876699  1.0
  O  O133  1  0.30277231  0.46353948  0.13213681  1.0
  O  O134  1  0.80262093  0.66948302  0.13123382  1.0
  O  O135  1  0.69721836  0.53645579  0.86785317  1.0
