# generated using pymatgen
data_ZnH3C8NO4
_symmetry_space_group_name_H-M   'P 1'
_cell_length_a   8.15769672
_cell_length_b   9.32616535
_cell_length_c   13.16182403
_cell_angle_alpha   89.99887554
_cell_angle_beta   77.02526069
_cell_angle_gamma   89.99719582
_symmetry_Int_Tables_number   1
_chemical_formula_structural   ZnH3C8NO4
_chemical_formula_sum   'Zn2 H6 C16 N2 O8'
_cell_volume   975.78657656
_cell_formula_units_Z   2
loop_
 _symmetry_equiv_pos_site_id
 _symmetry_equiv_pos_as_xyz
  1  'x, y, z'
loop_
 _atom_site_type_symbol
 _atom_site_label
 _atom_site_symmetry_multiplicity
 _atom_site_fract_x
 _atom_site_fract_y
 _atom_site_fract_z
 _atom_site_occupancy
  Zn  Zn0  1  0.33632890  0.50000691  0.51533276  1.0
  Zn  Zn1  1  0.66364580  0.49999379  0.48467128  1.0
  H  H2  1  0.71651672  0.49999917  0.80306874  1.0
  H  H3  1  0.28349487  0.50000154  0.19692600  1.0
  H  H4  1  0.17782444  0.50000161  0.85173195  1.0
  H  H5  1  0.82218260  0.50000124  0.14827240  1.0
  H  H6  1  0.85082103  0.49999424  0.95554946  1.0
  H  H7  1  0.14919242  0.49999788  0.04445268  1.0
  C  C8  1  0.50000222  0.22028839  0.49999537  1.0
  C  C9  1  0.28823243  0.50000199  0.88537449  1.0
  C  C10  1  0.40669118  0.50000172  0.14340730  1.0
  C  C11  1  0.59330363  0.49999684  0.85659457  1.0
  C  C12  1  0.41822398  0.49999862  0.03459861  1.0
  C  C13  1  0.58179131  0.49999672  0.96539648  1.0
  C  C14  1  0.50000028  0.06507776  0.49999354  1.0
  C  C15  1  0.50000178  0.93491758  0.49999614  1.0
  C  C16  1  0.49999582  0.77971446  0.49999778  1.0
  C  C17  1  0.53515014  0.49999904  0.29838498  1.0
  C  C18  1  0.46484731  0.49999845  0.70161508  1.0
  C  C19  1  0.44986040  0.49999940  0.81675803  1.0
  C  C20  1  0.55015054  0.50000023  0.18324438  1.0
  C  C21  1  0.72683878  0.49999871  0.00845437  1.0
  C  C22  1  0.27316972  0.49999984  0.99154754  1.0
  C  C23  1  0.71177368  0.50000085  0.11462616  1.0
  N  N24  1  0.93838538  0.49999851  0.48889442  1.0
  N  N25  1  0.06160554  0.50000648  0.51112385  1.0
  O  O26  1  0.35692003  0.28117380  0.51244965  1.0
  O  O27  1  0.64306672  0.71882155  0.48755918  1.0
  O  O28  1  0.64307842  0.28116471  0.48754401  1.0
  O  O29  1  0.35691682  0.71884350  0.51243804  1.0
  O  O30  1  0.38705448  0.49999932  0.35695801  1.0
  O  O31  1  0.61294065  0.49998529  0.64304002  1.0
  O  O32  1  0.67171586  0.50000101  0.33076764  1.0
  O  O33  1  0.32828139  0.50001149  0.66923473  1.0
