# generated using pymatgen
data_ZnH6C13NClO4
_symmetry_space_group_name_H-M   'P 1'
_cell_length_a   9.63844146
_cell_length_b   11.06887457
_cell_length_c   16.13349523
_cell_angle_alpha   89.74476027
_cell_angle_beta   90.19143994
_cell_angle_gamma   89.95670005
_symmetry_Int_Tables_number   1
_chemical_formula_structural   ZnH6C13NClO4
_chemical_formula_sum   'Zn2 H12 C26 N2 Cl2 O8'
_cell_volume   1721.20216088
_cell_formula_units_Z   2
loop_
 _symmetry_equiv_pos_site_id
 _symmetry_equiv_pos_as_xyz
  1  'x, y, z'
loop_
 _atom_site_type_symbol
 _atom_site_label
 _atom_site_symmetry_multiplicity
 _atom_site_fract_x
 _atom_site_fract_y
 _atom_site_fract_z
 _atom_site_occupancy
  Zn  Zn0  1  0.64331496  0.50158358  0.49998823  1.0
  Zn  Zn1  1  0.35668588  0.49841596  0.50001112  1.0
  H  H2  1  0.36499010  0.67208661  0.05081792  1.0
  H  H3  1  0.63501074  0.32791474  0.94918267  1.0
  H  H4  1  0.60212304  0.68806789  0.94754265  1.0
  H  H5  1  0.39787780  0.31193617  0.05245856  1.0
  H  H6  1  0.26023508  0.48361138  0.94948060  1.0
  H  H7  1  0.73976265  0.51639087  0.05051998  1.0
  H  H8  1  0.34804918  0.11740048  0.59325359  1.0
  H  H9  1  0.65195477  0.88259816  0.40674392  1.0
  H  H10  1  0.13299854  0.35687049  0.58372126  1.0
  H  H11  1  0.86700230  0.64312996  0.41627934  1.0
  H  H12  1  0.86682336  0.35669472  0.58297072  1.0
  H  H13  1  0.13317748  0.64330392  0.41702864  1.0
  C  C14  1  0.49983153  0.73674460  0.50031818  1.0
  C  C15  1  0.50017139  0.26325404  0.49968180  1.0
  C  C16  1  0.41464562  0.06559637  0.55216122  1.0
  C  C17  1  0.58535937  0.93440227  0.44783814  1.0
  C  C18  1  0.50214815  0.12758870  0.49759440  1.0
  C  C19  1  0.49785581  0.87240994  0.50240497  1.0
  C  C20  1  0.07215904  0.42025481  0.54666402  1.0
  C  C21  1  0.92784077  0.57974564  0.45333534  1.0
  C  C22  1  0.92771711  0.42024486  0.54636250  1.0
  C  C23  1  0.07228373  0.57975288  0.45363748  1.0
  C  C24  1  0.49939161  0.50094941  0.33785827  1.0
  C  C25  1  0.50060093  0.49905283  0.66214355  1.0
  C  C26  1  0.55700599  0.60454679  0.97182578  1.0
  C  C27  1  0.44299381  0.39545546  0.02817357  1.0
  C  C28  1  0.42477083  0.59563720  0.02729919  1.0
  C  C29  1  0.57522794  0.40436415  0.97270078  1.0
  C  C30  1  0.49944641  0.50073038  0.24847082  1.0
  C  C31  1  0.50055026  0.49927278  0.75152108  1.0
  C  C32  1  0.63339551  0.50914644  0.02727929  1.0
  C  C33  1  0.36660430  0.49085491  0.97272068  1.0
  C  C34  1  0.50147277  0.50033164  0.08523613  1.0
  C  C35  1  0.49852807  0.49966971  0.91476322  1.0
  C  C36  1  0.50043116  0.50042389  0.17291067  1.0
  C  C37  1  0.49956555  0.49957835  0.82709983  1.0
  C  C38  1  0.41216372  0.93980595  0.55523131  1.0
  C  C39  1  0.58784335  0.06019360  0.44476805  1.0
  N  N40  1  0.85717920  0.50010218  0.49971450  1.0
  N  N41  1  0.14282165  0.49989646  0.50028548  1.0
  Cl  Cl42  1  0.30607931  0.87097870  0.62771225  1.0
  Cl  Cl43  1  0.69392257  0.12901904  0.37228587  1.0
  O  O44  1  0.61896668  0.68719066  0.49904222  1.0
  O  O45  1  0.38103832  0.31280888  0.50096024  1.0
  O  O46  1  0.38336734  0.68332386  0.49818504  1.0
  O  O47  1  0.61663869  0.31667388  0.50181495  1.0
  O  O48  1  0.61784640  0.50321445  0.37343864  1.0
  O  O49  1  0.38214925  0.49678780  0.62656318  1.0
  O  O50  1  0.38135021  0.49882364  0.37339357  1.0
  O  O51  1  0.61864232  0.50117681  0.62660329  1.0
