# generated using pymatgen
data_CuH10(C9O2)2
_symmetry_space_group_name_H-M   'P 1'
_cell_length_a   23.42986533
_cell_length_b   23.42982195
_cell_length_c   23.42998217
_cell_angle_alpha   109.47112495
_cell_angle_beta   109.47111069
_cell_angle_gamma   109.47117525
_symmetry_Int_Tables_number   1
_chemical_formula_structural   CuH10(C9O2)2
_chemical_formula_sum   'Cu12 H120 C216 O48'
_cell_volume   9901.25380728
_cell_formula_units_Z   12
loop_
 _symmetry_equiv_pos_site_id
 _symmetry_equiv_pos_as_xyz
  1  'x, y, z'
loop_
 _atom_site_type_symbol
 _atom_site_label
 _atom_site_symmetry_multiplicity
 _atom_site_fract_x
 _atom_site_fract_y
 _atom_site_fract_z
 _atom_site_occupancy
  Cu  Cu0  1  0.50000074  0.14612479  0.64612597  1.0
  Cu  Cu1  1  0.49999994  0.23626797  0.73626775  1.0
  Cu  Cu2  1  0.49999960  0.85387506  0.35387452  1.0
  Cu  Cu3  1  0.50000010  0.76373169  0.26373202  1.0
  Cu  Cu4  1  0.35387437  0.49999976  0.85387446  1.0
  Cu  Cu5  1  0.26373194  0.50000029  0.76373200  1.0
  Cu  Cu6  1  0.64612513  0.50000037  0.14612578  1.0
  Cu  Cu7  1  0.73626841  0.50000035  0.23626772  1.0
  Cu  Cu8  1  0.85387471  0.35387477  0.50000054  1.0
  Cu  Cu9  1  0.76373118  0.26373166  0.50000004  1.0
  Cu  Cu10  1  0.14612520  0.64612534  0.49999968  1.0
  Cu  Cu11  1  0.23626843  0.73626826  0.49999947  1.0
  H  H12  1  0.52455991  0.01538935  0.73768546  1.0
  H  H13  1  0.55571398  0.97229342  0.82084717  1.0
  H  H14  1  0.55629694  0.13800624  0.97407221  1.0
  H  H15  1  0.52574019  0.18048021  0.89094666  1.0
  H  H16  1  0.50822684  0.91721898  0.87210447  1.0
  H  H17  1  0.27770363  0.78687440  0.26231484  1.0
  H  H18  1  0.15144668  0.73486734  0.17915392  1.0
  H  H19  1  0.16393452  0.58222524  0.02592832  1.0
  H  H20  1  0.28953334  0.63479424  0.10905368  1.0
  H  H21  1  0.04511472  0.63612258  0.12789647  1.0
  H  H22  1  0.72229335  0.98460993  0.50916838  1.0
  H  H23  1  0.84855002  0.02770712  0.58341881  1.0
  H  H24  1  0.83606803  0.86199621  0.41829262  1.0
  H  H25  1  0.71046874  0.81952079  0.34526197  1.0
  H  H26  1  0.95488483  0.08278277  0.59100733  1.0
  H  H27  1  0.47544077  0.21312416  0.49083148  1.0
  H  H28  1  0.44428800  0.26513112  0.41658089  1.0
  H  H29  1  0.44370266  0.41777477  0.58170692  1.0
  H  H30  1  0.47425830  0.36520624  0.65473783  1.0
  H  H31  1  0.49177563  0.36387754  0.40899329  1.0
  H  H32  1  0.50916837  0.72229269  0.98460962  1.0
  H  H33  1  0.58341964  0.84855103  0.02770777  1.0
  H  H34  1  0.41829336  0.83606836  0.86199651  1.0
  H  H35  1  0.34526212  0.71046860  0.81952088  1.0
  H  H36  1  0.59100692  0.95488531  0.08278243  1.0
  H  H37  1  0.49083043  0.47544094  0.21312513  1.0
  H  H38  1  0.41658031  0.44428703  0.26513280  1.0
  H  H39  1  0.58170882  0.44370391  0.41777543  1.0
  H  H40  1  0.65473951  0.47425935  0.36520600  1.0
  H  H41  1  0.40899154  0.49177406  0.36387698  1.0
  H  H42  1  0.73768322  0.52455876  0.01538961  1.0
  H  H43  1  0.82084382  0.55571178  0.97229212  1.0
  H  H44  1  0.97407153  0.55629630  0.13800353  1.0
  H  H45  1  0.89094719  0.52574137  0.18047854  1.0
  H  H46  1  0.87210320  0.50822457  0.91721756  1.0
  H  H47  1  0.26231545  0.27770454  0.78687489  1.0
  H  H48  1  0.17915370  0.15144630  0.73486734  1.0
  H  H49  1  0.02592844  0.16393362  0.58222486  1.0
  H  H50  1  0.10905419  0.28953366  0.63479413  1.0
  H  H51  1  0.12789683  0.04511441  0.63612265  1.0
  H  H52  1  0.78687605  0.26231712  0.27770553  1.0
  H  H53  1  0.73486853  0.17915729  0.15144870  1.0
  H  H54  1  0.58222518  0.02592838  0.16393356  1.0
  H  H55  1  0.63479351  0.10905185  0.28953145  1.0
  H  H56  1  0.63612370  0.12789887  0.04511578  1.0
  H  H57  1  0.01539029  0.73768372  0.52455917  1.0
  H  H58  1  0.97229257  0.82084416  0.55571269  1.0
  H  H59  1  0.13800419  0.97407250  0.55629675  1.0
  H  H60  1  0.18047944  0.89094722  0.52574063  1.0
  H  H61  1  0.91721726  0.87210252  0.50822478  1.0
  H  H62  1  0.21312495  0.49083069  0.47544100  1.0
  H  H63  1  0.26513195  0.41657977  0.44428691  1.0
  H  H64  1  0.41777613  0.58170870  0.44370374  1.0
  H  H65  1  0.36520665  0.65473957  0.47425982  1.0
  H  H66  1  0.36387802  0.40899280  0.49177503  1.0
  H  H67  1  0.98461056  0.50916995  0.72229443  1.0
  H  H68  1  0.02770776  0.58341909  0.84855118  1.0
  H  H69  1  0.86199538  0.41829158  0.83606734  1.0
  H  H70  1  0.81952024  0.34526161  0.71046857  1.0
  H  H71  1  0.08278317  0.59100775  0.95488500  1.0
  H  H72  1  0.47544074  0.98461123  0.26231523  1.0
  H  H73  1  0.44428637  0.02770670  0.17915307  1.0
  H  H74  1  0.44370340  0.86199388  0.02592802  1.0
  H  H75  1  0.47426003  0.81952036  0.10905402  1.0
  H  H76  1  0.49177351  0.08278114  0.12789577  1.0
  H  H77  1  0.72229672  0.21312572  0.73768540  1.0
  H  H78  1  0.84855324  0.26513278  0.82084631  1.0
  H  H79  1  0.83606540  0.41777515  0.97407166  1.0
  H  H80  1  0.71046700  0.36520587  0.89094655  1.0
  H  H81  1  0.95488550  0.36387800  0.87210422  1.0
  H  H82  1  0.27770700  0.01539020  0.49083185  1.0
  H  H83  1  0.15144960  0.97229255  0.41658097  1.0
  H  H84  1  0.16393189  0.13800417  0.58170735  1.0
  H  H85  1  0.28953161  0.18047934  0.65473827  1.0
  H  H86  1  0.04511594  0.91721735  0.40899290  1.0
  H  H87  1  0.52455885  0.78687551  0.50916831  1.0
  H  H88  1  0.55571192  0.73486900  0.58341934  1.0
  H  H89  1  0.55629696  0.58222464  0.41829312  1.0
  H  H90  1  0.52574162  0.63479389  0.34526241  1.0
  H  H91  1  0.50822399  0.63612188  0.59100675  1.0
  H  H92  1  0.49083168  0.27770699  0.01539017  1.0
  H  H93  1  0.41658040  0.15144863  0.97229201  1.0
  H  H94  1  0.58170669  0.16393105  0.13800354  1.0
  H  H95  1  0.65473707  0.28953107  0.18047890  1.0
  H  H96  1  0.40899312  0.04511435  0.91721735  1.0
  H  H97  1  0.50916991  0.52455943  0.78687484  1.0
  H  H98  1  0.58341973  0.55571263  0.73486698  1.0
  H  H99  1  0.41829152  0.55629621  0.58222480  1.0
  H  H100  1  0.34526084  0.52574077  0.63479424  1.0
  H  H101  1  0.59100765  0.50822535  0.63612306  1.0
  H  H102  1  0.26231670  0.47544162  0.98461036  1.0
  H  H103  1  0.17915610  0.44428834  0.02770811  1.0
  H  H104  1  0.02592808  0.44370310  0.86199650  1.0
  H  H105  1  0.10905273  0.47425901  0.81952143  1.0
  H  H106  1  0.12789714  0.49177555  0.08278267  1.0
  H  H107  1  0.73768447  0.72229559  0.21312535  1.0
  H  H108  1  0.82084664  0.84855381  0.26513289  1.0
  H  H109  1  0.97407148  0.83606650  0.41777538  1.0
  H  H110  1  0.89094585  0.71046627  0.36520538  1.0
  H  H111  1  0.87210278  0.95488526  0.36387712  1.0
  H  H112  1  0.21312344  0.73768326  0.72229444  1.0
  H  H113  1  0.26513182  0.82084310  0.84855128  1.0
  H  H114  1  0.41777517  0.97407148  0.83606694  1.0
  H  H115  1  0.36520654  0.89094783  0.71046834  1.0
  H  H116  1  0.36387665  0.87210126  0.95488446  1.0
  H  H117  1  0.98461006  0.26231614  0.47544133  1.0
  H  H118  1  0.02770649  0.17915596  0.44428754  1.0
  H  H119  1  0.86199573  0.02592737  0.44370375  1.0
  H  H120  1  0.81952017  0.10905244  0.47425915  1.0
  H  H121  1  0.08278236  0.12789716  0.49177500  1.0
  H  H122  1  0.78687540  0.50916944  0.52455924  1.0
  H  H123  1  0.73486797  0.58342035  0.55571332  1.0
  H  H124  1  0.58222379  0.41829142  0.55629650  1.0
  H  H125  1  0.63479357  0.34526126  0.52574060  1.0
  H  H126  1  0.63612190  0.59100732  0.50822520  1.0
  H  H127  1  0.01538936  0.49083017  0.27770580  1.0
  H  H128  1  0.97229185  0.41658057  0.15144859  1.0
  H  H129  1  0.13800497  0.58170828  0.16393316  1.0
  H  H130  1  0.18047981  0.65473780  0.28953148  1.0
  H  H131  1  0.91721717  0.40899237  0.04511523  1.0
  C  C132  1  0.50690984  0.12870651  0.76137161  1.0
  C  C133  1  0.52276903  0.10024178  0.80907669  1.0
  C  C134  1  0.53125821  0.04149152  0.78953278  1.0
  C  C135  1  0.54873891  0.01772460  0.83631114  1.0
  C  C136  1  0.55854665  0.05213559  0.90370819  1.0
  C  C137  1  0.55047210  0.11139039  0.92278019  1.0
  C  C138  1  0.53252875  0.13497095  0.87615106  1.0
  C  C139  1  0.57269231  0.02559207  0.95288548  1.0
  C  C140  1  0.54084307  0.95352925  0.92820655  1.0
  C  C141  1  0.36733463  0.74553828  0.23862873  1.0
  C  C142  1  0.29116538  0.71369254  0.19092378  1.0
  C  C143  1  0.25195832  0.74172556  0.21046796  1.0
  C  C144  1  0.18141244  0.71242713  0.16368882  1.0
  C  C145  1  0.14842755  0.65483841  0.09629277  1.0
  C  C146  1  0.18860942  0.62769150  0.07721967  1.0
  C  C147  1  0.25881954  0.65637791  0.12384939  1.0
  C  C148  1  0.07270613  0.61980662  0.04711473  1.0
  C  C149  1  0.02532267  0.61263653  0.07179351  1.0
  C  C150  1  0.63266484  0.87129348  0.37820281  1.0
  C  C151  1  0.70883450  0.89975787  0.42252587  1.0
  C  C152  1  0.74803894  0.95850970  0.48976565  1.0
  C  C153  1  0.81858626  0.98227761  0.53101422  1.0
  C  C154  1  0.85157173  0.94786674  0.50641100  1.0
  C  C155  1  0.81139056  0.88861157  0.43908241  1.0
  C  C156  1  0.74118145  0.86503055  0.39755915  1.0
  C  C157  1  0.92729323  0.97441012  0.54710057  1.0
  C  C158  1  0.97467713  0.04647239  0.58731341  1.0
  C  C159  1  0.49309065  0.25446152  0.62179687  1.0
  C  C160  1  0.47723135  0.28630805  0.57747413  1.0
  C  C161  1  0.46874363  0.25827247  0.51023415  1.0
  C  C162  1  0.45126266  0.28757169  0.46898551  1.0
  C  C163  1  0.44145506  0.34516047  0.49358843  1.0
  C  C164  1  0.44952818  0.37230782  0.56091715  1.0
  C  C165  1  0.46747082  0.34362154  0.60244104  1.0
  C  C166  1  0.42730890  0.38019242  0.45289963  1.0
  C  C167  1  0.45915855  0.38736383  0.41268615  1.0
  C  C168  1  0.37820305  0.63266542  0.87129387  1.0
  C  C169  1  0.42252574  0.70883415  0.89975829  1.0
  C  C170  1  0.48976546  0.74803937  0.95851012  1.0
  C  C171  1  0.53101393  0.81858613  0.98227777  1.0
  C  C172  1  0.50641113  0.85157304  0.94786735  1.0
  C  C173  1  0.43908332  0.81139159  0.88861234  1.0
  C  C174  1  0.39755912  0.74118181  0.86503010  1.0
  C  C175  1  0.54710095  0.92729431  0.97441075  1.0
  C  C176  1  0.58731417  0.97467991  0.04647314  1.0
  C  C177  1  0.62179682  0.49309011  0.25446170  1.0
  C  C178  1  0.57747328  0.47723162  0.28630799  1.0
  C  C179  1  0.51023365  0.46874298  0.25827454  1.0
  C  C180  1  0.46898615  0.45126281  0.28757233  1.0
  C  C181  1  0.49358933  0.44145513  0.34516110  1.0
  C  C182  1  0.56091843  0.44952921  0.37230901  1.0
  C  C183  1  0.60244203  0.46747158  0.34362188  1.0
  C  C184  1  0.45289936  0.42730865  0.38019351  1.0
  C  C185  1  0.41268576  0.45915725  0.38736344  1.0
  C  C186  1  0.76137130  0.50690933  0.12870624  1.0
  C  C187  1  0.80907599  0.52276783  0.10024150  1.0
  C  C188  1  0.78952966  0.53125636  0.04148932  1.0
  C  C189  1  0.83630894  0.54873627  0.01772175  1.0
  C  C190  1  0.90370490  0.55854378  0.05213201  1.0
  C  C191  1  0.92277862  0.55047082  0.11138757  1.0
  C  C192  1  0.87615074  0.53252851  0.13496927  1.0
  C  C193  1  0.95288292  0.57269052  0.02558898  1.0
  C  C194  1  0.92820619  0.54084177  0.95352748  1.0
  C  C195  1  0.23862836  0.36733492  0.74553820  1.0
  C  C196  1  0.19092307  0.29116502  0.71369160  1.0
  C  C197  1  0.21046785  0.25195823  0.74172527  1.0
  C  C198  1  0.16368917  0.18141294  0.71242706  1.0
  C  C199  1  0.09629344  0.14842791  0.65483857  1.0
  C  C200  1  0.07722020  0.18860988  0.62769122  1.0
  C  C201  1  0.12385008  0.25881939  0.65637817  1.0
  C  C202  1  0.04711546  0.07270631  0.61980679  1.0
  C  C203  1  0.07179390  0.02532300  0.61263653  1.0
  C  C204  1  0.74553824  0.23862747  0.36733518  1.0
  C  C205  1  0.71369348  0.19092471  0.29116634  1.0
  C  C206  1  0.74172615  0.21046967  0.25195973  1.0
  C  C207  1  0.71242831  0.16369204  0.18141433  1.0
  C  C208  1  0.65483892  0.09629513  0.14842827  1.0
  C  C209  1  0.62769240  0.07722116  0.18860979  1.0
  C  C210  1  0.65637747  0.12384873  0.25881905  1.0
  C  C211  1  0.61980695  0.04711672  0.07270742  1.0
  C  C212  1  0.61263705  0.07179570  0.02532311  1.0
  C  C213  1  0.12870726  0.76137177  0.50690871  1.0
  C  C214  1  0.10024243  0.80907581  0.52276795  1.0
  C  C215  1  0.04148978  0.78952985  0.53125646  1.0
  C  C216  1  0.01772270  0.83630864  0.54873718  1.0
  C  C217  1  0.05213305  0.90370582  0.55854466  1.0
  C  C218  1  0.11138897  0.92278043  0.55047135  1.0
  C  C219  1  0.13497042  0.87615153  0.53252841  1.0
  C  C220  1  0.02559000  0.95288323  0.57269072  1.0
  C  C221  1  0.95352755  0.92820661  0.54084196  1.0
  C  C222  1  0.25446347  0.62179787  0.49309128  1.0
  C  C223  1  0.28630790  0.57747420  0.47723246  1.0
  C  C224  1  0.25827396  0.51023370  0.46874315  1.0
  C  C225  1  0.28757192  0.46898597  0.45126253  1.0
  C  C226  1  0.34516183  0.49358955  0.44145491  1.0
  C  C227  1  0.37230845  0.56091787  0.44952864  1.0
  C  C228  1  0.34362295  0.60244220  0.46747144  1.0
  C  C229  1  0.38019298  0.45289956  0.42730875  1.0
  C  C230  1  0.38736437  0.41268558  0.45915795  1.0
  C  C231  1  0.87129185  0.37820243  0.63266512  1.0
  C  C232  1  0.89975761  0.42252624  0.70883391  1.0
  C  C233  1  0.95850946  0.48976592  0.74803950  1.0
  C  C234  1  0.98227777  0.53101385  0.81858618  1.0
  C  C235  1  0.94786689  0.50641053  0.85157185  1.0
  C  C236  1  0.88861191  0.43908222  0.81139108  1.0
  C  C237  1  0.86502955  0.39755785  0.74118059  1.0
  C  C238  1  0.97440931  0.54709984  0.92729267  1.0
  C  C239  1  0.04647276  0.58731405  0.97467758  1.0
  C  C240  1  0.49309020  0.87129342  0.23862791  1.0
  C  C241  1  0.47723101  0.89975763  0.19092335  1.0
  C  C242  1  0.46874140  0.95850840  0.21046673  1.0
  C  C243  1  0.45126131  0.98227597  0.16368954  1.0
  C  C244  1  0.44145339  0.94786407  0.09629158  1.0
  C  C245  1  0.44952824  0.88860973  0.07722004  1.0
  C  C246  1  0.46747159  0.86502916  0.12384917  1.0
  C  C247  1  0.42730731  0.97440761  0.04711431  1.0
  C  C248  1  0.45915697  0.04647041  0.07179323  1.0
  C  C249  1  0.63266572  0.25446158  0.76137177  1.0
  C  C250  1  0.70883411  0.28630758  0.80907646  1.0
  C  C251  1  0.74804172  0.25827410  0.78953182  1.0
  C  C252  1  0.81858760  0.28757253  0.83631096  1.0
  C  C253  1  0.85157249  0.34516126  0.90370701  1.0
  C  C254  1  0.81139007  0.37230862  0.92278056  1.0
  C  C255  1  0.74117995  0.34362221  0.87615084  1.0
  C  C256  1  0.92729391  0.38019331  0.95288479  1.0
  C  C257  1  0.97467738  0.38736341  0.92820602  1.0
  C  C258  1  0.36733533  0.12870574  0.62179652  1.0
  C  C259  1  0.29116615  0.10024270  0.57747482  1.0
  C  C260  1  0.25196183  0.04149042  0.51023459  1.0
  C  C261  1  0.18141366  0.01772252  0.46898602  1.0
  C  C262  1  0.14842819  0.05213339  0.49358923  1.0
  C  C263  1  0.18860936  0.11138881  0.56091756  1.0
  C  C264  1  0.25881889  0.13496956  0.60244108  1.0
  C  C265  1  0.07270639  0.02558981  0.45289895  1.0
  C  C266  1  0.02532322  0.95352799  0.41268657  1.0
  C  C267  1  0.50690939  0.74553814  0.37820291  1.0
  C  C268  1  0.52276857  0.71369233  0.42252585  1.0
  C  C269  1  0.53125641  0.74172693  0.48976589  1.0
  C  C270  1  0.54873696  0.71242850  0.53101375  1.0
  C  C271  1  0.55854456  0.65483946  0.50641109  1.0
  C  C272  1  0.55047174  0.62769231  0.43908309  1.0
  C  C273  1  0.53252910  0.65637832  0.39755945  1.0
  C  C274  1  0.57269115  0.61980699  0.54710042  1.0
  C  C275  1  0.54084137  0.61263629  0.58731409  1.0
  C  C276  1  0.62179687  0.36733470  0.12870636  1.0
  C  C277  1  0.57747376  0.29116624  0.10024169  1.0
  C  C278  1  0.51023386  0.25195933  0.04148973  1.0
  C  C279  1  0.46898641  0.18141398  0.01772246  1.0
  C  C280  1  0.49358878  0.14842708  0.05213287  1.0
  C  C281  1  0.56091733  0.18860951  0.11138782  1.0
  C  C282  1  0.60243976  0.25881740  0.13496922  1.0
  C  C283  1  0.45289867  0.07270562  0.02558878  1.0
  C  C284  1  0.41268575  0.02532021  0.95352709  1.0
  C  C285  1  0.37820425  0.50691046  0.74553898  1.0
  C  C286  1  0.42252621  0.52276824  0.71369250  1.0
  C  C287  1  0.48976669  0.53125688  0.74172595  1.0
  C  C288  1  0.53101389  0.54873685  0.71242745  1.0
  C  C289  1  0.50641041  0.55854435  0.65483797  1.0
  C  C290  1  0.43908162  0.55047073  0.62769052  1.0
  C  C291  1  0.39755759  0.53252809  0.65637791  1.0
  C  C292  1  0.54710069  0.57269050  0.61980680  1.0
  C  C293  1  0.58731343  0.54084242  0.61263634  1.0
  C  C294  1  0.23862831  0.49309033  0.87129353  1.0
  C  C295  1  0.19092363  0.47723184  0.89975829  1.0
  C  C296  1  0.21046983  0.46874403  0.95851065  1.0
  C  C297  1  0.16369110  0.45126365  0.98227777  1.0
  C  C298  1  0.09629472  0.44145615  0.94786751  1.0
  C  C299  1  0.07722057  0.44952859  0.88861248  1.0
  C  C300  1  0.12384876  0.46747162  0.86503097  1.0
  C  C301  1  0.04711670  0.42730941  0.97441054  1.0
  C  C302  1  0.07179373  0.45915835  0.04647275  1.0
  C  C303  1  0.76137156  0.63266572  0.25446152  1.0
  C  C304  1  0.80907654  0.70883490  0.28630792  1.0
  C  C305  1  0.78953177  0.74804170  0.25827426  1.0
  C  C306  1  0.83631075  0.81858771  0.28757266  1.0
  C  C307  1  0.90370691  0.85157222  0.34516166  1.0
  C  C308  1  0.92277972  0.81139077  0.37230849  1.0
  C  C309  1  0.87614996  0.74117975  0.34362213  1.0
  C  C310  1  0.95288458  0.92729335  0.38019299  1.0
  C  C311  1  0.92820632  0.97467783  0.38736389  1.0
  C  C312  1  0.25446211  0.76137266  0.63266506  1.0
  C  C313  1  0.28630687  0.80907542  0.70883390  1.0
  C  C314  1  0.25827304  0.78953000  0.74804005  1.0
  C  C315  1  0.28757161  0.83630782  0.81858617  1.0
  C  C316  1  0.34516143  0.90370526  0.85157170  1.0
  C  C317  1  0.37230825  0.92277942  0.81139090  1.0
  C  C318  1  0.34362215  0.87615094  0.74118073  1.0
  C  C319  1  0.38019309  0.95288321  0.92729209  1.0
  C  C320  1  0.38736287  0.92820416  0.97467739  1.0
  C  C321  1  0.87129279  0.23862791  0.49309108  1.0
  C  C322  1  0.89975749  0.19092432  0.47723228  1.0
  C  C323  1  0.95850898  0.21047008  0.46874306  1.0
  C  C324  1  0.98227662  0.16369058  0.45126216  1.0
  C  C325  1  0.94786626  0.09629313  0.44145493  1.0
  C  C326  1  0.88861095  0.07721969  0.44952888  1.0
  C  C327  1  0.86502950  0.12384885  0.46747157  1.0
  C  C328  1  0.97440975  0.04711626  0.42730836  1.0
  C  C329  1  0.04647280  0.07179430  0.45915749  1.0
  C  C330  1  0.74553645  0.37820199  0.50690921  1.0
  C  C331  1  0.71369202  0.42252592  0.52276778  1.0
  C  C332  1  0.74172566  0.48976624  0.53125637  1.0
  C  C333  1  0.71242787  0.53101486  0.54873789  1.0
  C  C334  1  0.65483925  0.50641156  0.55854526  1.0
  C  C335  1  0.62769147  0.43908225  0.55047159  1.0
  C  C336  1  0.65637752  0.39755747  0.53252834  1.0
  C  C337  1  0.61980724  0.54710128  0.57269167  1.0
  C  C338  1  0.61263555  0.58731454  0.54084228  1.0
  C  C339  1  0.12870807  0.62179769  0.36733512  1.0
  C  C340  1  0.10024201  0.57747317  0.29116614  1.0
  C  C341  1  0.04149015  0.51023400  0.25196002  1.0
  C  C342  1  0.01772258  0.46898627  0.18141406  1.0
  C  C343  1  0.05213315  0.49358913  0.14842793  1.0
  C  C344  1  0.11138887  0.56091764  0.18860943  1.0
  C  C345  1  0.13497092  0.60244182  0.25881919  1.0
  C  C346  1  0.02559091  0.45290047  0.07270828  1.0
  C  C347  1  0.95352716  0.41268607  0.02532266  1.0
  O  O348  1  0.50197390  0.09852998  0.70179341  1.0
  O  O349  1  0.50112368  0.18304901  0.78494825  1.0
  O  O350  1  0.39673603  0.80017975  0.29820618  1.0
  O  O351  1  0.39809985  0.71617549  0.21505176  1.0
  O  O352  1  0.60326232  0.90146882  0.40344073  1.0
  O  O353  1  0.60189980  0.81694945  0.31807441  1.0
  O  O354  1  0.49802741  0.19982105  0.59655898  1.0
  O  O355  1  0.49887608  0.28382628  0.68192605  1.0
  O  O356  1  0.40344180  0.60326269  0.90146845  1.0
  O  O357  1  0.31807298  0.60189986  0.81694993  1.0
  O  O358  1  0.59655698  0.49802678  0.19981982  1.0
  O  O359  1  0.68192440  0.49887535  0.28382408  1.0
  O  O360  1  0.70179432  0.50197330  0.09853184  1.0
  O  O361  1  0.78495049  0.50112388  0.18304977  1.0
  O  O362  1  0.29820645  0.39673677  0.80018017  1.0
  O  O363  1  0.21505137  0.39810025  0.71617579  1.0
  O  O364  1  0.80018114  0.29820653  0.39673743  1.0
  O  O365  1  0.71617592  0.21504998  0.39810000  1.0
  O  O366  1  0.09853114  0.70179390  0.50197188  1.0
  O  O367  1  0.18304935  0.78494942  0.50112368  1.0
  O  O368  1  0.19982099  0.59655794  0.49802791  1.0
  O  O369  1  0.28382642  0.68192545  0.49887631  1.0
  O  O370  1  0.90146754  0.40344193  0.60326227  1.0
  O  O371  1  0.81694956  0.31807469  0.60190029  1.0
  O  O372  1  0.49802572  0.90147021  0.29820585  1.0
  O  O373  1  0.49887667  0.81695164  0.21505147  1.0
  O  O374  1  0.60326359  0.19981940  0.70179413  1.0
  O  O375  1  0.60189977  0.28382392  0.78494829  1.0
  O  O376  1  0.39673742  0.09853066  0.59655834  1.0
  O  O377  1  0.39810037  0.18305003  0.68192465  1.0
  O  O378  1  0.50197294  0.80017934  0.40344100  1.0
  O  O379  1  0.50112414  0.71617429  0.31807464  1.0
  O  O380  1  0.59655898  0.39673744  0.09853179  1.0
  O  O381  1  0.68192548  0.39809936  0.18304940  1.0
  O  O382  1  0.40344307  0.50197342  0.80017944  1.0
  O  O383  1  0.31807655  0.50112594  0.71617680  1.0
  O  O384  1  0.29820530  0.49802637  0.90146794  1.0
  O  O385  1  0.21504925  0.49887533  0.81694955  1.0
  O  O386  1  0.70179262  0.60326335  0.19982007  1.0
  O  O387  1  0.78494953  0.60189942  0.28382399  1.0
  O  O388  1  0.19981847  0.70179287  0.60326260  1.0
  O  O389  1  0.28382443  0.78494962  0.60190076  1.0
  O  O390  1  0.90146891  0.29820630  0.49802739  1.0
  O  O391  1  0.81695027  0.21505025  0.49887610  1.0
  O  O392  1  0.80017978  0.40344191  0.50197258  1.0
  O  O393  1  0.71617465  0.31807512  0.50112438  1.0
  O  O394  1  0.09853177  0.59655754  0.39673679  1.0
  O  O395  1  0.18304933  0.68192479  0.39809878  1.0
