# generated using pymatgen
data_Zn4H38C45N17Cl
_symmetry_space_group_name_H-M   'P 1'
_cell_length_a   14.91938541
_cell_length_b   14.95729321
_cell_length_c   14.96932658
_cell_angle_alpha   105.05274228
_cell_angle_beta   111.38229716
_cell_angle_gamma   111.66519090
_symmetry_Int_Tables_number   1
_chemical_formula_structural   Zn4H38C45N17Cl
_chemical_formula_sum   'Zn4 H38 C45 N17 Cl1'
_cell_volume   2573.27642716
_cell_formula_units_Z   1
loop_
 _symmetry_equiv_pos_site_id
 _symmetry_equiv_pos_as_xyz
  1  'x, y, z'
loop_
 _atom_site_type_symbol
 _atom_site_label
 _atom_site_symmetry_multiplicity
 _atom_site_fract_x
 _atom_site_fract_y
 _atom_site_fract_z
 _atom_site_occupancy
  Zn  Zn0  1  0.13537744  0.63824854  0.99851316  1.0
  Zn  Zn1  1  0.85577666  0.36366573  0.00121601  1.0
  Zn  Zn2  1  0.86192418  0.50097564  0.86387125  1.0
  Zn  Zn3  1  0.12872932  0.49686179  0.13215477  1.0
  H  H4  1  0.17935170  0.85292101  0.17933248  1.0
  H  H5  1  0.80304468  0.14271920  0.83079817  1.0
  H  H6  1  0.81733720  0.53781017  0.64223514  1.0
  H  H7  1  0.17420813  0.32600718  0.22210848  1.0
  H  H8  1  0.81088442  0.15132887  0.05622306  1.0
  H  H9  1  0.18067589  0.72870565  0.82615567  1.0
  H  H10  1  0.15510825  0.31332432  0.99372178  1.0
  H  H11  1  0.80376463  0.32273952  0.64592847  1.0
  H  H12  1  0.41552334  0.96911784  0.40827674  1.0
  H  H13  1  0.57159317  0.13785218  0.54143620  1.0
  H  H14  1  0.81439309  0.50729529  0.16847424  1.0
  H  H15  1  0.56591429  0.08693125  0.63395725  1.0
  H  H16  1  0.54362424  0.81919967  0.50758175  1.0
  H  H17  1  0.66346232  0.97579949  0.66379524  1.0
  H  H18  1  0.62081179  0.94560847  0.33602752  1.0
  H  H19  1  0.55046410  0.01696998  0.34477157  1.0
  H  H20  1  0.72460789  0.15968379  0.49161972  1.0
  H  H21  1  0.78026458  0.07544322  0.50686172  1.0
  H  H22  1  0.77064351  0.99430251  0.63231012  1.0
  H  H23  1  0.16755270  0.76462202  0.67008233  1.0
  H  H24  1  0.60205384  0.46538965  0.77916943  1.0
  H  H25  1  0.91339446  0.60152685  0.52638290  1.0
  H  H26  1  0.17024631  0.73791895  0.50659429  1.0
  H  H27  1  0.91278110  0.62883010  0.38690627  1.0
  H  H28  1  0.39162920  0.22386530  0.88430882  1.0
  H  H29  1  0.42082171  0.40187067  0.81173456  1.0
  H  H30  1  0.25441164  0.24873748  0.91572636  1.0
  H  H31  1  0.25579747  0.37771003  0.78577420  1.0
  H  H32  1  0.82635615  0.00747819  0.10846625  1.0
  H  H33  1  0.08008257  0.11801796  0.19380874  1.0
  H  H34  1  0.82507605  0.84245223  0.08153356  1.0
  H  H35  1  0.37788258  0.66891822  0.35504719  1.0
  H  H36  1  0.08300842  0.97579087  0.20085877  1.0
  H  H37  1  0.59018759  0.27028385  0.94812450  1.0
  H  H38  1  0.38808396  0.85893663  0.18100089  1.0
  H  H39  1  0.17886108  0.68246511  0.34153380  1.0
  H  H40  1  0.81487720  0.66784492  0.99751029  1.0
  H  H41  1  0.15750280  0.49754805  0.81254930  1.0
  C  C42  1  0.09041808  0.79268654  0.12634722  1.0
  C  C43  1  0.99759402  0.61861273  0.29833374  1.0
  C  C44  1  0.54588647  0.35680437  0.85154470  1.0
  C  C45  1  0.42766801  0.80485894  0.31043927  1.0
  C  C46  1  0.15034402  0.46102298  0.86545892  1.0
  C  C47  1  0.81194361  0.20206698  0.80038774  1.0
  C  C48  1  0.90637341  0.58157144  0.70210815  1.0
  C  C49  1  0.08508116  0.29766620  0.17807773  1.0
  C  C50  1  0.89998073  0.20870161  0.09428147  1.0
  C  C51  1  0.09148338  0.67984063  0.79579573  1.0
  C  C52  1  0.14933850  0.36680109  0.95769649  1.0
  C  C53  1  0.90309345  0.54120019  0.19533463  1.0
  C  C54  1  0.81225709  0.29373627  0.70625119  1.0
  C  C55  1  0.17450437  0.38095256  0.87830358  1.0
  C  C56  1  0.77562143  0.18812186  0.69445365  1.0
  C  C57  1  0.99863275  0.64310155  0.69467286  1.0
  C  C58  1  0.99300982  0.20002844  0.15061656  1.0
  C  C59  1  0.47848428  0.96271543  0.46870629  1.0
  C  C60  1  0.57467749  0.07353913  0.56278556  1.0
  C  C61  1  0.59883460  0.87988466  0.49395520  1.0
  C  C62  1  0.59965485  0.98767979  0.38955180  1.0
  C  C63  1  0.52384256  0.90446032  0.41211911  1.0
  C  C64  1  0.61689308  0.42034634  0.82364753  1.0
  C  C65  1  0.69052507  0.08468973  0.59146917  1.0
  C  C66  1  0.68699435  0.98447012  0.60369148  1.0
  C  C67  1  0.70672585  0.08299573  0.49522589  1.0
  C  C68  1  0.08565648  0.71385752  0.59535424  1.0
  C  C69  1  0.99550588  0.65371283  0.60064908  1.0
  C  C70  1  0.08698612  0.70697312  0.49771681  1.0
  C  C71  1  0.99616683  0.65570284  0.39673201  1.0
  C  C72  1  0.37084909  0.27958863  0.85938140  1.0
  C  C73  1  0.44016216  0.34528505  0.83610146  1.0
  C  C74  1  0.28003100  0.28616660  0.86870732  1.0
  C  C75  1  0.36483407  0.70092889  0.29718014  1.0
  C  C76  1  0.23479239  0.34419724  0.83706413  1.0
  C  C77  1  0.90853024  0.01443675  0.13645612  1.0
  C  C78  1  0.99737857  0.10985080  0.16529201  1.0
  C  C79  1  0.90838066  0.91532399  0.12554922  1.0
  C  C80  1  0.99906780  0.90316850  0.15293134  1.0
  C  C81  1  0.60998507  0.31993570  0.90870625  1.0
  C  C82  1  0.36965319  0.79772116  0.20867453  1.0
  C  C83  1  0.08917081  0.63035659  0.28427344  1.0
  C  C84  1  0.90441553  0.69860808  0.03378425  1.0
  C  C85  1  0.99661253  0.80311516  0.11217434  1.0
  C  C86  1  0.65048270  0.83143690  0.44819281  1.0
  N  N87  1  0.05606411  0.69156954  0.06012345  1.0
  N  N88  1  0.86440650  0.30790572  0.86911134  1.0
  N  N89  1  0.94129246  0.58191539  0.79888746  1.0
  N  N90  1  0.04985191  0.35847630  0.14127198  1.0
  N  N91  1  0.93439633  0.30280188  0.08872392  1.0
  N  N92  1  0.05677527  0.64304497  0.85701081  1.0
  N  N93  1  0.11647752  0.43511976  0.99021048  1.0
  N  N94  1  0.86442670  0.36419558  0.81114567  1.0
  N  N95  1  0.93650769  0.50790194  0.12750646  1.0
  N  N96  1  0.71397033  0.42064324  0.86044137  1.0
  N  N97  1  0.27650006  0.63716840  0.19569900  1.0
  N  N98  1  0.70961436  0.35837789  0.91392305  1.0
  N  N99  1  0.27926110  0.69742566  0.14041774  1.0
  N  N100  1  0.05085832  0.56312516  0.18232699  1.0
  N  N101  1  0.94180086  0.63394798  0.00340231  1.0
  N  N102  1  0.11722512  0.49333377  0.93389310  1.0
  N  N103  1  0.69212939  0.79314232  0.41166954  1.0
  Cl  Cl104  1  0.39925322  0.88135584  0.51457805  1.0
