# generated using pymatgen
data_Zn4H6C18O13
_symmetry_space_group_name_H-M   'P 1'
_cell_length_a   17.19154922
_cell_length_b   17.20836069
_cell_length_c   22.63016471
_cell_angle_alpha   89.95045521
_cell_angle_beta   89.94887539
_cell_angle_gamma   82.27460669
_symmetry_Int_Tables_number   1
_chemical_formula_structural   Zn4H6C18O13
_chemical_formula_sum   'Zn16 H24 C72 O52'
_cell_volume   6634.10222233
_cell_formula_units_Z   4
loop_
 _symmetry_equiv_pos_site_id
 _symmetry_equiv_pos_as_xyz
  1  'x, y, z'
loop_
 _atom_site_type_symbol
 _atom_site_label
 _atom_site_symmetry_multiplicity
 _atom_site_fract_x
 _atom_site_fract_y
 _atom_site_fract_z
 _atom_site_occupancy
  Zn  Zn0  1  0.90588022  0.50534196  0.79986975  1.0
  Zn  Zn1  1  0.00417398  0.40501391  0.29976734  1.0
  Zn  Zn2  1  0.00441563  0.40489693  0.70039186  1.0
  Zn  Zn3  1  0.99575331  0.59495084  0.29971935  1.0
  Zn  Zn4  1  0.49582517  0.09498551  0.20023237  1.0
  Zn  Zn5  1  0.50534727  0.90599090  0.79993957  1.0
  Zn  Zn6  1  0.50424507  0.90504860  0.20028084  1.0
  Zn  Zn7  1  0.49558414  0.09510308  0.79960812  1.0
  Zn  Zn8  1  0.09426518  0.49449473  0.20023794  1.0
  Zn  Zn9  1  0.09520333  0.49559165  0.79954007  1.0
  Zn  Zn10  1  0.90577616  0.50557755  0.20028720  1.0
  Zn  Zn11  1  0.40573441  0.00550587  0.29976221  1.0
  Zn  Zn12  1  0.59411985  0.99465865  0.70013026  1.0
  Zn  Zn13  1  0.59422338  0.99442188  0.29971255  1.0
  Zn  Zn14  1  0.40479594  0.00440778  0.70046034  1.0
  Zn  Zn15  1  0.99465180  0.59400854  0.70006043  1.0
  H  H16  1  0.24342214  0.69095833  0.34817383  1.0
  H  H17  1  0.88091889  0.18456715  0.77630383  1.0
  H  H18  1  0.88095192  0.18455723  0.22369713  1.0
  H  H19  1  0.14599299  0.79101926  0.67755638  1.0
  H  H20  1  0.61908136  0.31543251  0.72369796  1.0
  H  H21  1  0.38091665  0.68456868  0.27630411  1.0
  H  H22  1  0.35400683  0.70897995  0.82244402  1.0
  H  H23  1  0.61904772  0.31544184  0.27630263  1.0
  H  H24  1  0.70887500  0.35386620  0.82246884  1.0
  H  H25  1  0.29112580  0.64613147  0.17753367  1.0
  H  H26  1  0.19098209  0.74347643  0.84820870  1.0
  H  H27  1  0.75657544  0.30904169  0.65182868  1.0
  H  H28  1  0.70904558  0.35401540  0.17754405  1.0
  H  H29  1  0.20887252  0.85386949  0.32246779  1.0
  H  H30  1  0.79112533  0.14613287  0.67753207  1.0
  H  H31  1  0.79095414  0.14598309  0.32245571  1.0
  H  H32  1  0.30901715  0.75652278  0.65179170  1.0
  H  H33  1  0.75643017  0.30884507  0.34817352  1.0
  H  H34  1  0.31549108  0.61919272  0.72372833  1.0
  H  H35  1  0.74342489  0.19095738  0.84817312  1.0
  H  H36  1  0.25657684  0.80904204  0.15182718  1.0
  H  H37  1  0.18450816  0.88080649  0.77627206  1.0
  H  H38  1  0.74357014  0.19115341  0.15182624  1.0
  H  H39  1  0.11908225  0.81543228  0.22369691  1.0
  C  C40  1  0.13996011  0.64090861  0.74958547  1.0
  C  C41  1  0.77687003  0.72323589  0.25007776  1.0
  C  C42  1  0.77680148  0.72316981  0.75003046  1.0
  C  C43  1  0.22312420  0.27676235  0.25007199  1.0
  C  C44  1  0.72312877  0.77676472  0.24992154  1.0
  C  C45  1  0.27680921  0.22316276  0.74997145  1.0
  C  C46  1  0.27687220  0.22323591  0.24992595  1.0
  C  C47  1  0.72319860  0.77683080  0.74996955  1.0
  C  C48  1  0.00006035  0.49982109  0.52676027  1.0
  C  C49  1  0.00002647  0.49992350  0.47310927  1.0
  C  C50  1  0.49997385  0.00007592  0.02689044  1.0
  C  C51  1  0.85913849  0.35999176  0.24954962  1.0
  C  C52  1  0.49993934  0.00017951  0.97323971  1.0
  C  C53  1  0.84080164  0.65916088  0.75002452  1.0
  C  C54  1  0.15902122  0.34071758  0.25001704  1.0
  C  C55  1  0.15914384  0.34089025  0.75002431  1.0
  C  C56  1  0.84097191  0.65928479  0.25001649  1.0
  C  C57  1  0.34097669  0.15928243  0.24998179  1.0
  C  C58  1  0.65919851  0.84083914  0.74997505  1.0
  C  C59  1  0.65902697  0.84071523  0.24998281  1.0
  C  C60  1  0.34085550  0.15910859  0.74997478  1.0
  C  C61  1  0.99990499  0.49985323  0.59081516  1.0
  C  C62  1  0.85910781  0.36001568  0.75045717  1.0
  C  C63  1  0.99999091  0.49996495  0.40904925  1.0
  C  C64  1  0.50000924  0.00003470  0.09095051  1.0
  C  C65  1  0.50009461  0.00014701  0.90918487  1.0
  C  C66  1  0.00014077  0.50009101  0.90907680  1.0
  C  C67  1  0.00003719  0.50001100  0.09078985  1.0
  C  C68  1  0.49996362  0.99998879  0.40921072  1.0
  C  C69  1  0.49986014  0.99990878  0.59092316  1.0
  C  C70  1  0.00018409  0.49994602  0.97311306  1.0
  C  C71  1  0.00008690  0.49998049  0.02675716  1.0
  C  C72  1  0.49991335  0.00001952  0.47324299  1.0
  C  C73  1  0.14088396  0.63999315  0.24952501  1.0
  C  C74  1  0.49981576  0.00005341  0.52688691  1.0
  C  C75  1  0.72651497  0.30736676  0.79039473  1.0
  C  C76  1  0.27348428  0.69263384  0.20960601  1.0
  C  C77  1  0.21788407  0.74709435  0.80463953  1.0
  C  C78  1  0.72662271  0.30745208  0.20961581  1.0
  C  C79  1  0.22651405  0.80736712  0.29039545  1.0
  C  C80  1  0.77348412  0.19263290  0.70960662  1.0
  C  C81  1  0.77337643  0.19254640  0.29038439  1.0
  C  C82  1  0.28211575  0.75290486  0.69536131  1.0
  C  C83  1  0.24705733  0.71787480  0.30462079  1.0
  C  C84  1  0.64086298  0.14000672  0.25045058  1.0
  C  C85  1  0.75293874  0.28212346  0.69538084  1.0
  C  C86  1  0.75284910  0.28200946  0.30462505  1.0
  C  C87  1  0.28715674  0.67795436  0.73536927  1.0
  C  C88  1  0.74706093  0.21787620  0.80462051  1.0
  C  C89  1  0.25294223  0.78212557  0.19538067  1.0
  C  C90  1  0.21284250  0.82204485  0.76463113  1.0
  C  C91  1  0.74715055  0.21798961  0.19537515  1.0
  C  C92  1  0.19858046  0.69665960  0.24902315  1.0
  C  C93  1  0.80141864  0.30334218  0.75097450  1.0
  C  C94  1  0.80145552  0.30330849  0.24903205  1.0
  C  C95  1  0.36003971  0.85909060  0.75041625  1.0
  C  C96  1  0.19662543  0.69860684  0.74908009  1.0
  C  C97  1  0.69858111  0.19665689  0.74902685  1.0
  C  C98  1  0.30141794  0.80334078  0.25097831  1.0
  C  C99  1  0.30337381  0.80139237  0.75092075  1.0
  C  C100  1  0.69854470  0.19669058  0.25096727  1.0
  C  C101  1  0.17788660  0.78711712  0.23535328  1.0
  C  C102  1  0.82211540  0.21288465  0.76464657  1.0
  C  C103  1  0.82213066  0.21288587  0.23534373  1.0
  C  C104  1  0.19254671  0.77341437  0.70962317  1.0
  C  C105  1  0.67788435  0.28711443  0.73535433  1.0
  C  C106  1  0.35911502  0.86000722  0.25047601  1.0
  C  C107  1  0.32211121  0.71288326  0.26464862  1.0
  C  C108  1  0.30745261  0.72658425  0.79037767  1.0
  C  C109  1  0.67786899  0.28711320  0.26465559  1.0
  C  C110  1  0.64089245  0.13998398  0.74954374  1.0
  C  C111  1  0.22319114  0.27683725  0.75002808  1.0
  O  O112  1  0.00038843  0.49961034  0.74997290  1.0
  O  O113  1  0.34573140  0.91672534  0.71448280  1.0
  O  O114  1  0.34651107  0.91817065  0.28589172  1.0
  O  O115  1  0.65352375  0.08180290  0.71413244  1.0
  O  O116  1  0.89684027  0.66576453  0.71432727  1.0
  O  O117  1  0.10280071  0.33409972  0.28552747  1.0
  O  O118  1  0.10298829  0.33410901  0.71455386  1.0
  O  O119  1  0.89714675  0.66586314  0.28548748  1.0
  O  O120  1  0.39719786  0.16589971  0.21447312  1.0
  O  O121  1  0.60315930  0.83423549  0.78567274  1.0
  O  O122  1  0.60285264  0.83413746  0.21451227  1.0
  O  O123  1  0.99998510  0.50001415  0.25037251  1.0
  O  O124  1  0.39701213  0.16589042  0.78544655  1.0
  O  O125  1  0.99562833  0.56688497  0.61536637  1.0
  O  O126  1  0.00394448  0.43305508  0.38440485  1.0
  O  O127  1  0.00398347  0.43301806  0.61563826  1.0
  O  O128  1  0.99600278  0.56692688  0.38438284  1.0
  O  O129  1  0.49605519  0.06694493  0.11559486  1.0
  O  O130  1  0.50437167  0.93311623  0.88463364  1.0
  O  O131  1  0.50399668  0.93307315  0.11561734  1.0
  O  O132  1  0.49601564  0.06698254  0.88436171  1.0
  O  O133  1  0.06705017  0.49602276  0.88427541  1.0
  O  O134  1  0.50001387  0.99998528  0.24962723  1.0
  O  O135  1  0.93300687  0.50439869  0.11549618  1.0
  O  O136  1  0.93303836  0.50435167  0.88454761  1.0
  O  O137  1  0.06701201  0.49565819  0.11548049  1.0
  O  O138  1  0.56699318  0.99560133  0.38450401  1.0
  O  O139  1  0.43295049  0.00397490  0.61572500  1.0
  O  O140  1  0.43298824  0.00434181  0.38451966  1.0
  O  O141  1  0.56696179  0.99564835  0.61545239  1.0
  O  O142  1  0.83415665  0.60315666  0.78570447  1.0
  O  O143  1  0.16587278  0.39670375  0.21434228  1.0
  O  O144  1  0.16596279  0.39701039  0.78547713  1.0
  O  O145  1  0.49961142  0.00038909  0.75002707  1.0
  O  O146  1  0.83415928  0.60333704  0.21437489  1.0
  O  O147  1  0.33412580  0.10329568  0.28565787  1.0
  O  O148  1  0.66584300  0.89684277  0.71429553  1.0
  O  O149  1  0.66584019  0.89666298  0.28562485  1.0
  O  O150  1  0.33403705  0.10298904  0.71452240  1.0
  O  O151  1  0.08175256  0.65348616  0.71415328  1.0
  O  O152  1  0.91674179  0.34569829  0.28550490  1.0
  O  O153  1  0.91677165  0.34575660  0.71450440  1.0
  O  O154  1  0.08320813  0.65427688  0.28547866  1.0
  O  O155  1  0.58325829  0.15430195  0.21449486  1.0
  O  O156  1  0.15426893  0.58327445  0.78551936  1.0
  O  O157  1  0.41824676  0.84651246  0.78584800  1.0
  O  O158  1  0.41679019  0.84572408  0.21452324  1.0
  O  O159  1  0.58322794  0.15424365  0.78549651  1.0
  O  O160  1  0.84654084  0.41822816  0.21414389  1.0
  O  O161  1  0.84647585  0.41819735  0.78586803  1.0
  O  O162  1  0.15348725  0.58183031  0.21410930  1.0
  O  O163  1  0.65345815  0.08177150  0.28585632  1.0
