# generated using pymatgen
data_AlH4C9NO5F2
_symmetry_space_group_name_H-M   'P 1'
_cell_length_a   6.70550139
_cell_length_b   8.85965324
_cell_length_c   16.88562287
_cell_angle_alpha   96.46420246
_cell_angle_beta   95.66649808
_cell_angle_gamma   104.71753117
_symmetry_Int_Tables_number   1
_chemical_formula_structural   AlH4C9NO5F2
_chemical_formula_sum   'Al2 H8 C18 N2 O10 F4'
_cell_volume   955.56609116
_cell_formula_units_Z   2
loop_
 _symmetry_equiv_pos_site_id
 _symmetry_equiv_pos_as_xyz
  1  'x, y, z'
loop_
 _atom_site_type_symbol
 _atom_site_label
 _atom_site_symmetry_multiplicity
 _atom_site_fract_x
 _atom_site_fract_y
 _atom_site_fract_z
 _atom_site_occupancy
  Al  Al0  1  0.99999821  0.50000202  0.50000095  1.0
  Al  Al1  1  0.50000376  0.50000837  0.50000017  1.0
  H  H2  1  0.17340503  0.31971233  0.43603809  1.0
  H  H3  1  0.82661712  0.68029189  0.56397449  1.0
  H  H4  1  0.63027385  0.48132058  0.73175442  1.0
  H  H5  1  0.69931703  0.48248604  0.88024940  1.0
  H  H6  1  0.07013697  0.50170382  0.90054473  1.0
  H  H7  1  0.92981753  0.49824090  0.09944130  1.0
  H  H8  1  0.30066420  0.51750402  0.11976213  1.0
  H  H9  1  0.36975603  0.51873154  0.26825732  1.0
  C  C10  1  0.66000456  0.21957270  0.49734804  1.0
  C  C11  1  0.70915569  0.50271510  0.35663290  1.0
  C  C12  1  0.34000514  0.78044088  0.50264580  1.0
  C  C13  1  0.29085784  0.49730174  0.64336831  1.0
  C  C14  1  0.31552912  0.49235284  0.73193143  1.0
  C  C15  1  0.50970692  0.48589952  0.76980479  1.0
  C  C16  1  0.54833078  0.48663282  0.85184640  1.0
  C  C17  1  0.38937090  0.49370092  0.89961113  1.0
  C  C18  1  0.19347537  0.49739693  0.86365554  1.0
  C  C19  1  0.15984726  0.49692149  0.78117742  1.0
  C  C20  1  0.80650599  0.50256945  0.13633524  1.0
  C  C21  1  0.61059520  0.50625732  0.10038943  1.0
  C  C22  1  0.45165113  0.51335408  0.14815855  1.0
  C  C23  1  0.49030593  0.51412004  0.23019943  1.0
  C  C24  1  0.68448236  0.50765797  0.26806836  1.0
  C  C25  1  0.84016179  0.50306926  0.21882116  1.0
  C  C26  1  0.59825344  0.04638711  0.50084485  1.0
  C  C27  1  0.40173649  0.95360307  0.49913978  1.0
  N  N28  1  0.40935950  0.49721948  0.98394002  1.0
  N  N29  1  0.59059147  0.50272077  0.01605702  1.0
  O  O30  1  0.85413148  0.28381341  0.50515142  1.0
  O  O31  1  0.55425129  0.51806729  0.39176273  1.0
  O  O32  1  0.48572927  0.71451068  0.51335970  1.0
  O  O33  1  0.12381895  0.51963211  0.61022984  1.0
  O  O34  1  0.14587293  0.71618577  0.49484894  1.0
  O  O35  1  0.44576646  0.48195295  0.60823758  1.0
  O  O36  1  0.51428413  0.28550064  0.48663484  1.0
  O  O37  1  0.87619664  0.48037770  0.38977130  1.0
  O  O38  1  0.21604086  0.42795526  0.46249770  1.0
  O  O39  1  0.78396791  0.57205232  0.53750426  1.0
  F  F40  1  0.96736301  0.50059203  0.74957453  1.0
  F  F41  1  0.03263048  0.49939164  0.25041427  1.0
  F  F42  1  0.76030318  0.98278410  0.50696554  1.0
  F  F43  1  0.23967638  0.01721035  0.49301576  1.0
