# generated using pymatgen
data_AlH5C14Cl2O5F
_symmetry_space_group_name_H-M   'P 1'
_cell_length_a   6.60654526
_cell_length_b   11.05283983
_cell_length_c   17.73517000
_cell_angle_alpha   88.92175605
_cell_angle_beta   79.76880277
_cell_angle_gamma   73.53939405
_symmetry_Int_Tables_number   1
_chemical_formula_structural   AlH5C14Cl2O5F
_chemical_formula_sum   'Al2 H10 C28 Cl4 O10 F2'
_cell_volume   1221.53391980
_cell_formula_units_Z   2
loop_
 _symmetry_equiv_pos_site_id
 _symmetry_equiv_pos_as_xyz
  1  'x, y, z'
loop_
 _atom_site_type_symbol
 _atom_site_label
 _atom_site_symmetry_multiplicity
 _atom_site_fract_x
 _atom_site_fract_y
 _atom_site_fract_z
 _atom_site_occupancy
  Al  Al0  1  0.99863718  0.49933914  0.49920506  1.0
  Al  Al1  1  0.50019624  0.49562141  0.49876753  1.0
  H  H2  1  0.33967625  0.34925702  0.44920092  1.0
  H  H3  1  0.64770351  0.64961480  0.54064780  1.0
  H  H4  1  0.80548327  0.54772609  0.72843710  1.0
  H  H5  1  0.72654647  0.55212819  0.87197930  1.0
  H  H6  1  0.48229048  0.45494359  0.73277433  1.0
  H  H7  1  0.51596788  0.55466439  0.26556534  1.0
  H  H8  1  0.19271365  0.45810537  0.27035499  1.0
  H  H9  1  0.27187836  0.46176842  0.12687222  1.0
  H  H10  1  0.56907110  0.22943277  0.61071950  1.0
  H  H11  1  0.81529474  0.75974909  0.60202167  1.0
  C  C12  1  0.86519399  0.27277426  0.50765199  1.0
  C  C13  1  0.80497261  0.50005990  0.36139106  1.0
  C  C14  1  0.13741326  0.72343723  0.49306381  1.0
  C  C15  1  0.19420632  0.49877128  0.63697838  1.0
  C  C16  1  0.14724402  0.50117768  0.72214851  1.0
  C  C17  1  0.93460861  0.52864846  0.76144542  1.0
  C  C18  1  0.89081820  0.53165111  0.84093395  1.0
  C  C19  1  0.05883121  0.50688838  0.88364001  1.0
  C  C20  1  0.27035242  0.47954030  0.84212407  1.0
  C  C21  1  0.31708123  0.47644611  0.76302405  1.0
  C  C22  1  0.01787898  0.50864342  0.96440677  1.0
  C  C23  1  0.98060631  0.50958516  0.03430733  1.0
  C  C24  1  0.93957067  0.50896363  0.11503259  1.0
  C  C25  1  0.72799774  0.53555334  0.15640451  1.0
  C  C26  1  0.68122442  0.53396791  0.23542351  1.0
  C  C27  1  0.85124727  0.50516795  0.27633214  1.0
  C  C28  1  0.06379808  0.47962135  0.23718202  1.0
  C  C29  1  0.10762074  0.48120593  0.15779853  1.0
  C  C30  1  0.93671956  0.13133286  0.50600231  1.0
  C  C31  1  0.81298361  0.06396236  0.55469501  1.0
  C  C32  1  0.11968025  0.06682178  0.45539654  1.0
  C  C33  1  0.62469816  0.12675117  0.60696748  1.0
  C  C34  1  0.50600562  0.05980423  0.65293002  1.0
  C  C35  1  0.06933968  0.86486082  0.49792736  1.0
  C  C36  1  0.18617863  0.93241451  0.45094068  1.0
  C  C37  1  0.88170503  0.92871511  0.55110124  1.0
  C  C38  1  0.76141661  0.86231178  0.60111594  1.0
  C  C39  1  0.57586576  0.92539291  0.65003787  1.0
  Cl  Cl40  1  0.40578349  0.85551797  0.38425292  1.0
  Cl  Cl41  1  0.26290647  0.14686472  0.39276583  1.0
  Cl  Cl42  1  0.27493939  0.13989984  0.71365168  1.0
  Cl  Cl43  1  0.43081645  0.83978380  0.70698981  1.0
  O  O44  1  0.99387194  0.32982819  0.52406620  1.0
  O  O45  1  0.60943017  0.51911446  0.39349202  1.0
  O  O46  1  0.32126563  0.66776769  0.50803632  1.0
  O  O47  1  0.03384519  0.52795135  0.60240743  1.0
  O  O48  1  0.00268986  0.67025883  0.47697147  1.0
  O  O49  1  0.39087749  0.47007294  0.60438936  1.0
  O  O50  1  0.68059245  0.32437263  0.49161803  1.0
  O  O51  1  0.96512617  0.47462963  0.39589018  1.0
  O  O52  1  0.29230935  0.43726643  0.46648625  1.0
  O  O53  1  0.70377130  0.55887663  0.53183935  1.0
  F  F54  1  0.43440460  0.45516855  0.88217964  1.0
  F  F55  1  0.56389453  0.56325015  0.11628777  1.0
