# generated using pymatgen
data_AlH7C14(NO3)2
_symmetry_space_group_name_H-M   'P 1'
_cell_length_a   6.66867299
_cell_length_b   23.20170715
_cell_length_c   26.12271384
_cell_angle_alpha   100.54989175
_cell_angle_beta   89.99971825
_cell_angle_gamma   89.99948773
_symmetry_Int_Tables_number   1
_chemical_formula_structural   AlH7C14(NO3)2
_chemical_formula_sum   'Al4 H28 C56 N8 O24'
_cell_volume   3973.50274669
_cell_formula_units_Z   4
loop_
 _symmetry_equiv_pos_site_id
 _symmetry_equiv_pos_as_xyz
  1  'x, y, z'
loop_
 _atom_site_type_symbol
 _atom_site_label
 _atom_site_symmetry_multiplicity
 _atom_site_fract_x
 _atom_site_fract_y
 _atom_site_fract_z
 _atom_site_occupancy
  Al  Al0  1  0.78911986  0.25120466  0.74867745  1.0
  Al  Al1  1  0.21087435  0.74880048  0.25132520  1.0
  Al  Al2  1  0.28912234  0.24879915  0.75132371  1.0
  Al  Al3  1  0.71087786  0.75120370  0.24867621  1.0
  H  H4  1  0.69353768  0.04588961  0.54416494  1.0
  H  H5  1  0.30646103  0.95410778  0.45583773  1.0
  H  H6  1  0.19353755  0.45411457  0.95583679  1.0
  H  H7  1  0.80645665  0.54588909  0.04416704  1.0
  H  H8  1  0.66291548  0.96545743  0.46666897  1.0
  H  H9  1  0.33708922  0.03453903  0.53333136  1.0
  H  H10  1  0.16291060  0.53454282  0.03333370  1.0
  H  H11  1  0.83709110  0.46546205  0.96666973  1.0
  H  H12  1  0.28812761  0.89797285  0.05711455  1.0
  H  H13  1  0.71188009  0.10202151  0.94288189  1.0
  H  H14  1  0.78812760  0.60202217  0.44288324  1.0
  H  H15  1  0.21187710  0.39797561  0.55711514  1.0
  H  H16  1  0.67501009  0.94637691  0.09426219  1.0
  H  H17  1  0.32499611  0.05362170  0.90573190  1.0
  H  H18  1  0.17501871  0.55362278  0.40573384  1.0
  H  H19  1  0.82499200  0.44637449  0.59426415  1.0
  H  H20  1  0.67371791  0.87900290  0.15938009  1.0
  H  H21  1  0.32628829  0.12100194  0.84061905  1.0
  H  H22  1  0.17372567  0.62099807  0.34061789  1.0
  H  H23  1  0.82627304  0.37899995  0.65938166  1.0
  H  H24  1  0.42291516  0.83273752  0.09893426  1.0
  H  H25  1  0.57708804  0.16725970  0.90106763  1.0
  H  H26  1  0.92291693  0.66726091  0.40106913  1.0
  H  H27  1  0.07707878  0.33273787  0.59893198  1.0
  H  H28  1  0.54644309  0.17367905  0.74739796  1.0
  H  H29  1  0.45356311  0.82632477  0.25260041  1.0
  H  H30  1  0.04644167  0.32632319  0.75260091  1.0
  H  H31  1  0.95356303  0.67367933  0.24739746  1.0
  C  C32  1  0.53373432  0.31440522  0.68674573  1.0
  C  C33  1  0.46626589  0.68559631  0.31325615  1.0
  C  C34  1  0.03372410  0.18559565  0.81325473  1.0
  C  C35  1  0.96625961  0.81440743  0.18674637  1.0
  C  C36  1  0.53966805  0.32568751  0.82746817  1.0
  C  C37  1  0.46033515  0.67431744  0.17253565  1.0
  C  C38  1  0.03965180  0.17431919  0.67253344  1.0
  C  C39  1  0.96033641  0.82568363  0.32746844  1.0
  C  C40  1  0.80979290  0.98079956  0.48152568  1.0
  C  C41  1  0.19019980  0.01919548  0.51847815  1.0
  C  C42  1  0.30979327  0.51919972  0.01847829  1.0
  C  C43  1  0.69020243  0.48080550  0.98152475  1.0
  C  C44  1  0.98294343  0.95455632  0.45625121  1.0
  C  C45  1  0.01705227  0.04543847  0.54375146  1.0
  C  C46  1  0.48294402  0.54544147  0.04375401  1.0
  C  C47  1  0.51705318  0.45456348  0.95624981  1.0
  C  C48  1  0.17335309  0.97450002  0.47551632  1.0
  C  C49  1  0.82664411  0.02549779  0.52448634  1.0
  C  C50  1  0.67334821  0.52550096  0.02448789  1.0
  C  C51  1  0.32664300  0.47450313  0.97551593  1.0
  C  C52  1  0.96808251  0.90919667  0.41210377  1.0
  C  C53  1  0.03190720  0.09080629  0.58790083  1.0
  C  C54  1  0.46808239  0.59079888  0.08789875  1.0
  C  C55  1  0.53191332  0.40920332  0.91210429  1.0
  C  C56  1  0.03928102  0.12971758  0.62611884  1.0
  C  C57  1  0.96070719  0.87027921  0.37388305  1.0
  C  C58  1  0.53928005  0.37028737  0.87387849  1.0
  C  C59  1  0.46071265  0.62971866  0.12612845  1.0
  C  C60  1  0.15281892  0.85648192  0.11630913  1.0
  C  C61  1  0.84718128  0.14351688  0.88369002  1.0
  C  C62  1  0.65282623  0.64351701  0.38369123  1.0
  C  C63  1  0.34717847  0.35648169  0.61630949  1.0
  C  C64  1  0.15307211  0.89365206  0.07975265  1.0
  C  C65  1  0.84693109  0.10634351  0.92024339  1.0
  C  C66  1  0.65307989  0.60634391  0.42024382  1.0
  C  C67  1  0.34692781  0.39365148  0.57975340  1.0
  C  C68  1  0.98284997  0.92601876  0.07163700  1.0
  C  C69  1  0.01715323  0.07397676  0.92835670  1.0
  C  C70  1  0.48285754  0.57397736  0.42835810  1.0
  C  C71  1  0.51715016  0.42601751  0.57163873  1.0
  C  C72  1  0.80696772  0.92077941  0.10026332  1.0
  C  C73  1  0.19303998  0.07921858  0.89973194  1.0
  C  C74  1  0.30697116  0.57921971  0.39973364  1.0
  C  C75  1  0.69303505  0.42077772  0.60026513  1.0
  C  C76  1  0.80698445  0.88363314  0.13631961  1.0
  C  C77  1  0.19301726  0.11636828  0.86367759  1.0
  C  C78  1  0.30699192  0.61636846  0.36367891  1.0
  C  C79  1  0.69301129  0.38363121  0.63632025  1.0
  C  C80  1  0.97713565  0.85131917  0.14564493  1.0
  C  C81  1  0.02286905  0.14868179  0.85435423  1.0
  C  C82  1  0.47714380  0.64868190  0.35435524  1.0
  C  C83  1  0.52286090  0.35131664  0.64564470  1.0
  C  C84  1  0.00869153  0.03466504  0.96650957  1.0
  C  C85  1  0.99131467  0.96532842  0.03348259  1.0
  C  C86  1  0.50869096  0.46532909  0.53348510  1.0
  C  C87  1  0.49131674  0.53466664  0.46651172  1.0
  N  N88  1  0.82654682  0.99759868  0.02748312  1.0
  N  N89  1  0.17345788  0.00239624  0.97250981  1.0
  N  N90  1  0.32654977  0.50239782  0.47251187  1.0
  N  N91  1  0.67345793  0.49759843  0.52748534  1.0
  N  N92  1  0.83560245  0.03283686  0.99341456  1.0
  N  N93  1  0.16440225  0.96715814  0.00657876  1.0
  N  N94  1  0.33560277  0.46715921  0.50658108  1.0
  N  N95  1  0.66440493  0.53283747  0.49341613  1.0
  O  O96  1  0.36807364  0.30671350  0.81086082  1.0
  O  O97  1  0.63191157  0.69329145  0.18914300  1.0
  O  O98  1  0.86807854  0.19328981  0.68914098  1.0
  O  O99  1  0.13191567  0.80671016  0.31086168  1.0
  O  O100  1  0.70828336  0.30117005  0.70101243  1.0
  O  O101  1  0.29171385  0.69883056  0.29898711  1.0
  O  O102  1  0.20829399  0.19883120  0.79898577  1.0
  O  O103  1  0.79171221  0.80116876  0.20101066  1.0
  O  O104  1  0.70967831  0.31045218  0.80724098  1.0
  O  O105  1  0.29031440  0.68955776  0.19276400  1.0
  O  O106  1  0.20968670  0.18955478  0.69276188  1.0
  O  O107  1  0.79031500  0.81044877  0.30723727  1.0
  O  O108  1  0.86926960  0.19978714  0.79452661  1.0
  O  O109  1  0.13073960  0.80021994  0.20547916  1.0
  O  O110  1  0.36925186  0.30021562  0.70547675  1.0
  O  O111  1  0.63074534  0.69978480  0.29452396  1.0
  O  O112  1  0.54059573  0.21509218  0.74626219  1.0
  O  O113  1  0.45939848  0.78491272  0.25373930  1.0
  O  O114  1  0.04059856  0.28491126  0.75373826  1.0
  O  O115  1  0.95940315  0.71509252  0.24626206  1.0
  O  O116  1  0.31945069  0.82499804  0.12324331  1.0
  O  O117  1  0.68055101  0.17500031  0.87675780  1.0
  O  O118  1  0.81945867  0.67500029  0.37675831  1.0
  O  O119  1  0.18054004  0.32499970  0.62324240  1.0
