# generated using pymatgen
data_Hf3H32(C21O8)2
_symmetry_space_group_name_H-M   'P 1'
_cell_length_a   18.13149360
_cell_length_b   20.38335361
_cell_length_c   20.38857843
_cell_angle_alpha   66.97290489
_cell_angle_beta   87.38245663
_cell_angle_gamma   87.40582705
_symmetry_Int_Tables_number   1
_chemical_formula_structural   Hf3H32(C21O8)2
_chemical_formula_sum   'Hf6 H64 C84 O32'
_cell_volume   6924.50483327
_cell_formula_units_Z   2
loop_
 _symmetry_equiv_pos_site_id
 _symmetry_equiv_pos_as_xyz
  1  'x, y, z'
loop_
 _atom_site_type_symbol
 _atom_site_label
 _atom_site_symmetry_multiplicity
 _atom_site_fract_x
 _atom_site_fract_y
 _atom_site_fract_z
 _atom_site_occupancy
  Hf  Hf0  1  0.09172661  0.90727861  0.09653905  1.0
  Hf  Hf1  1  0.89783572  0.91967413  0.09541446  1.0
  Hf  Hf2  1  0.10053564  0.06404015  0.94221072  1.0
  Hf  Hf3  1  0.90668177  0.07361718  0.93826340  1.0
  Hf  Hf4  1  0.00102290  0.91774139  0.94474108  1.0
  Hf  Hf5  1  0.99735434  0.06455174  0.09150579  1.0
  H  H6  1  0.99948182  0.91383342  0.20150564  1.0
  H  H7  1  0.83824312  0.94091754  0.96989818  1.0
  H  H8  1  0.99661272  0.17469628  0.94088436  1.0
  H  H9  1  0.16252435  0.93561387  0.96072348  1.0
  H  H10  1  0.75689292  0.93993332  0.11615658  1.0
  H  H11  1  0.77269401  0.11819390  0.95456041  1.0
  H  H12  1  0.90302274  0.16971555  0.80809167  1.0
  H  H13  1  0.14041193  0.19560000  0.84753214  1.0
  H  H14  1  0.24080521  0.07759071  0.95692174  1.0
  H  H15  1  0.23500727  0.85584815  0.10773216  1.0
  H  H16  1  0.09660700  0.77722874  0.19320078  1.0
  H  H17  1  0.85870202  0.82390115  0.22892846  1.0
  H  H18  1  0.12178102  0.14563010  0.80749935  1.0
  H  H19  1  0.22419173  0.91931704  0.13423824  1.0
  H  H20  1  0.87922042  0.78543611  0.17584209  1.0
  H  H21  1  0.76485456  0.09043227  0.89253499  1.0
  H  H22  1  0.17859142  0.99301246  0.51094127  1.0
  H  H23  1  0.38385499  0.99188479  0.60893090  1.0
  H  H24  1  0.38414923  0.99374584  0.39680566  1.0
  H  H25  1  0.81869775  0.99514469  0.52057601  1.0
  H  H26  1  0.61619226  0.99404058  0.63939206  1.0
  H  H27  1  0.61065947  0.99302658  0.42868661  1.0
  H  H28  1  0.17984762  0.48493687  0.01703767  1.0
  H  H29  1  0.38501997  0.58034353  0.02182090  1.0
  H  H30  1  0.38515890  0.36948640  0.02031021  1.0
  H  H31  1  0.81933883  0.49265012  0.02471976  1.0
  H  H32  1  0.61718716  0.61317963  0.02004080  1.0
  H  H33  1  0.61118971  0.40079412  0.02324436  1.0
  H  H34  1  0.50222371  0.56838670  0.01757888  1.0
  H  H35  1  0.49736189  0.41504999  0.02465453  1.0
  H  H36  1  0.49607926  0.99526786  0.44309100  1.0
  H  H37  1  0.50166544  0.99059733  0.59543855  1.0
  H  H38  1  0.76208462  0.07889999  0.76405309  1.0
  H  H39  1  0.91425968  0.91823731  0.74744525  1.0
  H  H40  1  0.84626524  0.91727610  0.64396228  1.0
  H  H41  1  0.69204473  0.07647894  0.66285226  1.0
  H  H42  1  0.75028183  0.92088027  0.27749592  1.0
  H  H43  1  0.90342661  0.07018388  0.28915874  1.0
  H  H44  1  0.83862289  0.06933831  0.40011089  1.0
  H  H45  1  0.68478723  0.91970716  0.38799827  1.0
  H  H46  1  0.08683218  0.91784339  0.73971792  1.0
  H  H47  1  0.23673977  0.06803772  0.75475277  1.0
  H  H48  1  0.30724840  0.06724905  0.64697868  1.0
  H  H49  1  0.15592479  0.91742118  0.63112791  1.0
  H  H50  1  0.08966386  0.07309988  0.28107581  1.0
  H  H51  1  0.24450880  0.91439997  0.26438621  1.0
  H  H52  1  0.31029578  0.91366203  0.36927919  1.0
  H  H53  1  0.15415307  0.07183810  0.38734103  1.0
  H  H54  1  0.75096520  0.25016193  0.95027294  1.0
  H  H55  1  0.90187250  0.25945072  0.10230165  1.0
  H  H56  1  0.83791727  0.37103331  0.10088803  1.0
  H  H57  1  0.68597360  0.36083535  0.94893840  1.0
  H  H58  1  0.91884533  0.71619983  0.94721577  1.0
  H  H59  1  0.76303452  0.74137328  0.10124691  1.0
  H  H60  1  0.69146231  0.64005643  0.09994513  1.0
  H  H61  1  0.84900284  0.61347099  0.94687377  1.0
  H  H62  1  0.08710894  0.25816177  0.09348216  1.0
  H  H63  1  0.24693938  0.23630081  0.94088048  1.0
  H  H64  1  0.31355923  0.34055864  0.94098730  1.0
  H  H65  1  0.15261369  0.36346641  0.09329667  1.0
  H  H66  1  0.09308175  0.71723771  0.94099842  1.0
  H  H67  1  0.23572943  0.72256698  0.10099776  1.0
  H  H68  1  0.30512374  0.61487107  0.09960494  1.0
  H  H69  1  0.16071760  0.60793262  0.94055170  1.0
  C  C70  1  0.11979714  0.79183055  0.02127890  1.0
  C  C71  1  0.87105402  0.99482591  0.21144828  1.0
  C  C72  1  0.88658039  0.79585522  0.02514473  1.0
  C  C73  1  0.12422744  0.99443256  0.20315925  1.0
  C  C74  1  0.12321882  0.17854894  0.01702119  1.0
  C  C75  1  0.88251094  0.99859889  0.82438911  1.0
  C  C76  1  0.86983836  0.18227220  0.02624207  1.0
  C  C77  1  0.11584194  0.99440929  0.81758098  1.0
  C  C78  1  0.27676529  0.99255421  0.44713649  1.0
  C  C79  1  0.23880426  0.99275126  0.50844222  1.0
  C  C80  1  0.27717660  0.99273114  0.56682197  1.0
  C  C81  1  0.35443546  0.99289478  0.56305910  1.0
  C  C82  1  0.39412853  0.99281940  0.50215350  1.0
  C  C83  1  0.35409191  0.99245004  0.44491359  1.0
  C  C84  1  0.71847274  0.99376042  0.46760112  1.0
  C  C85  1  0.75853402  0.99477774  0.52459624  1.0
  C  C86  1  0.72225204  0.99543151  0.58647604  1.0
  C  C87  1  0.64489761  0.99482631  0.59084325  1.0
  C  C88  1  0.60323821  0.99324393  0.53506275  1.0
  C  C89  1  0.64133204  0.99276118  0.47355529  1.0
  C  C90  1  0.27786198  0.42045604  0.01782073  1.0
  C  C91  1  0.24000872  0.48184079  0.01800694  1.0
  C  C92  1  0.27843663  0.53944357  0.01975952  1.0
  C  C93  1  0.35559124  0.53502979  0.02139933  1.0
  C  C94  1  0.39522295  0.47426843  0.02088629  1.0
  C  C95  1  0.35515103  0.41758237  0.01912469  1.0
  C  C96  1  0.71900897  0.43975536  0.02356094  1.0
  C  C97  1  0.75919936  0.49698425  0.02384564  1.0
  C  C98  1  0.72312022  0.55950558  0.02311716  1.0
  C  C99  1  0.64576741  0.56417915  0.02195199  1.0
  C  C100  1  0.60400949  0.50795521  0.02147216  1.0
  C  C101  1  0.64193924  0.44592804  0.02226779  1.0
  C  C102  1  0.52366825  0.51635874  0.02030125  1.0
  C  C103  1  0.47557336  0.46688508  0.02216377  1.0
  C  C104  1  0.47450781  0.99342638  0.49477260  1.0
  C  C105  1  0.52288248  0.99228435  0.54370393  1.0
  C  C106  1  0.77957675  0.04295830  0.73799003  1.0
  C  C107  1  0.84221110  0.99842674  0.76215421  1.0
  C  C108  1  0.86594893  0.95321740  0.72779252  1.0
  C  C109  1  0.82790594  0.95300926  0.67010949  1.0
  C  C110  1  0.76423557  0.99659773  0.64645392  1.0
  C  C111  1  0.74061373  0.04147054  0.68146888  1.0
  C  C112  1  0.76904278  0.95339416  0.30473662  1.0
  C  C113  1  0.83097932  0.99536903  0.27685163  1.0
  C  C114  1  0.85565569  0.03716517  0.31165993  1.0
  C  C115  1  0.81952709  0.03614962  0.37369442  1.0
  C  C116  1  0.75723270  0.99431556  0.40200406  1.0
  C  C117  1  0.73240385  0.95323702  0.36620809  1.0
  C  C118  1  0.13459402  0.95113392  0.71814007  1.0
  C  C119  1  0.15687586  0.99405634  0.75266266  1.0
  C  C120  1  0.21938602  0.03566275  0.72677283  1.0
  C  C121  1  0.25889904  0.03439608  0.66716417  1.0
  C  C122  1  0.23612932  0.99268630  0.63119977  1.0
  C  C123  1  0.17329483  0.95117230  0.65764449  1.0
  C  C124  1  0.13801093  0.03832014  0.30113656  1.0
  C  C125  1  0.16379464  0.99464202  0.26571197  1.0
  C  C126  1  0.22597778  0.94972113  0.29083610  1.0
  C  C127  1  0.26241833  0.94935059  0.34948381  1.0
  C  C128  1  0.23700106  0.99299716  0.38530049  1.0
  C  C129  1  0.17389031  0.03708626  0.36052030  1.0
  C  C130  1  0.76871939  0.27630672  0.98412138  1.0
  C  C131  1  0.82977702  0.24757297  0.02708349  1.0
  C  C132  1  0.85444546  0.28231956  0.06895821  1.0
  C  C133  1  0.81887630  0.34474334  0.06756508  1.0
  C  C134  1  0.75726722  0.37363591  0.02498066  1.0
  C  C135  1  0.73266904  0.33819288  0.98348256  1.0
  C  C136  1  0.86964660  0.69811533  0.98137212  1.0
  C  C137  1  0.84579178  0.73386965  0.02526925  1.0
  C  C138  1  0.78147540  0.71254254  0.06800880  1.0
  C  C139  1  0.74145587  0.65655130  0.06652678  1.0
  C  C140  1  0.76556890  0.61951658  0.02364125  1.0
  C  C141  1  0.83050032  0.64094932  0.98138337  1.0
  C  C142  1  0.13643090  0.27726422  0.05984485  1.0
  C  C143  1  0.16291941  0.24111693  0.01706478  1.0
  C  C144  1  0.22686673  0.26445896  0.97425728  1.0
  C  C145  1  0.26407967  0.32239161  0.97476809  1.0
  C  C146  1  0.23766697  0.35927321  0.01714373  1.0
  C  C147  1  0.17300868  0.33603299  0.05930077  1.0
  C  C148  1  0.13922280  0.69380966  0.97597314  1.0
  C  C149  1  0.16030598  0.72653618  0.02095697  1.0
  C  C150  1  0.22023782  0.69750644  0.06541112  1.0
  C  C151  1  0.25889210  0.63742258  0.06442545  1.0
  C  C152  1  0.23771576  0.60385008  0.01998226  1.0
  C  C153  1  0.17704815  0.63283895  0.97607643  1.0
  O  O154  1  0.13544372  0.81361695  0.06978036  1.0
  O  O155  1  0.07289636  0.82134751  0.97289266  1.0
  O  O156  1  0.85413340  0.94710223  0.18903635  1.0
  O  O157  1  0.91987564  0.04157338  0.18316672  1.0
  O  O158  1  0.87602728  0.81365327  0.07824803  1.0
  O  O159  1  0.92789574  0.82816652  0.97037008  1.0
  O  O160  1  0.14780801  0.95172150  0.17456313  1.0
  O  O161  1  0.06756630  0.03635749  0.18348410  1.0
  O  O162  1  0.09272673  0.82527392  0.19196172  1.0
  O  O163  1  0.22105227  0.90624995  0.09259197  1.0
  O  O164  1  0.89820473  0.81577887  0.19862527  1.0
  O  O165  1  0.78736416  0.91621516  0.09123369  1.0
  O  O166  1  0.99842620  0.89354826  0.05207462  1.0
  O  O167  1  0.99642424  0.93867418  0.15013622  1.0
  O  O168  1  0.14193853  0.15542820  0.96848448  1.0
  O  O169  1  0.07311494  0.15299180  0.06524940  1.0
  O  O170  1  0.86517521  0.04813478  0.84653862  1.0
  O  O171  1  0.93084455  0.94890543  0.85133608  1.0
  O  O172  1  0.84791190  0.15460735  0.98462084  1.0
  O  O173  1  0.92544064  0.15955620  0.06635838  1.0
  O  O174  1  0.12468044  0.04684600  0.83533074  1.0
  O  O175  1  0.07592113  0.94081249  0.85195149  1.0
  O  O176  1  0.10144367  0.16838849  0.83941849  1.0
  O  O177  1  0.21131940  0.05473744  0.93390666  1.0
  O  O178  1  0.90592497  0.16870151  0.85583137  1.0
  O  O179  1  0.77745740  0.07577389  0.94235421  1.0
  O  O180  1  0.00013246  0.12315846  0.96554392  1.0
  O  O181  1  0.00145291  0.02496610  0.92063900  1.0
  O  O182  1  0.08005058  0.02009240  0.04935285  1.0
  O  O183  1  0.88568283  0.95519917  0.97944181  1.0
  O  O184  1  0.11454735  0.94743654  0.97715455  1.0
  O  O185  1  0.91676151  0.02596386  0.05062655  1.0
