# generated using pymatgen
data_ZnH6C19Br4N2(ClO2)2
_symmetry_space_group_name_H-M   'P 1'
_cell_length_a   21.47641313
_cell_length_b   21.55049204
_cell_length_c   22.10442987
_cell_angle_alpha   118.80267193
_cell_angle_beta   116.63868561
_cell_angle_gamma   90.03274872
_symmetry_Int_Tables_number   1
_chemical_formula_structural   ZnH6C19Br4N2(ClO2)2
_chemical_formula_sum   'Zn4 H24 C76 Br16 N8 Cl8 O16'
_cell_volume   7700.79630659
_cell_formula_units_Z   4
loop_
 _symmetry_equiv_pos_site_id
 _symmetry_equiv_pos_as_xyz
  1  'x, y, z'
loop_
 _atom_site_type_symbol
 _atom_site_label
 _atom_site_symmetry_multiplicity
 _atom_site_fract_x
 _atom_site_fract_y
 _atom_site_fract_z
 _atom_site_occupancy
  Zn  Zn0  1  0.54315977  0.04661859  0.08896726  1.0
  Zn  Zn1  1  0.45931754  0.94801665  0.91036668  1.0
  Zn  Zn2  1  0.96218104  0.45968794  0.91181292  1.0
  Zn  Zn3  1  0.04307695  0.53476548  0.08707484  1.0
  H  H4  1  0.71423771  0.94528555  0.10888316  1.0
  H  H5  1  0.85930046  0.62518110  0.89795034  1.0
  H  H6  1  0.87733591  0.65402494  0.11203101  1.0
  H  H7  1  0.79194154  0.73270863  0.10768632  1.0
  H  H8  1  0.55544458  0.76322301  0.87402091  1.0
  H  H9  1  0.64205611  0.68642483  0.88366459  1.0
  H  H10  1  0.43314534  0.20364166  0.08814432  1.0
  H  H11  1  0.10763243  0.32573661  0.85677610  1.0
  H  H12  1  0.14758778  0.36601328  0.08311068  1.0
  H  H13  1  0.22835275  0.28299061  0.07882412  1.0
  H  H14  1  0.26619081  0.03478153  0.84930765  1.0
  H  H15  1  0.18780657  0.12018978  0.85120087  1.0
  H  H16  1  0.40092277  0.96849660  0.14660900  1.0
  H  H17  1  0.06564827  0.62186292  0.90297134  1.0
  H  H18  1  0.22582158  0.68492577  0.14279722  1.0
  H  H19  1  0.30905274  0.76855790  0.14608959  1.0
  H  H20  1  0.36331494  0.78398070  0.92201847  1.0
  H  H21  1  0.27651584  0.70727263  0.92206367  1.0
  H  H22  1  0.63204440  0.24306230  0.10222103  1.0
  H  H23  1  0.77649041  0.36201250  0.90454128  1.0
  H  H24  1  0.95223961  0.35950814  0.09960672  1.0
  H  H25  1  0.86395871  0.28105202  0.09710046  1.0
  H  H26  1  0.63547051  0.05172354  0.90962541  1.0
  H  H27  1  0.71840257  0.13260220  0.90886595  1.0
  C  C28  1  0.40180034  0.06337236  0.97053113  1.0
  C  C29  1  0.43842365  0.92749657  0.03360639  1.0
  C  C30  1  0.57902534  0.90632448  0.98523795  1.0
  C  C31  1  0.58310144  0.09389540  0.01009166  1.0
  C  C32  1  0.09272172  0.59271777  0.01716039  1.0
  C  C33  1  0.07350681  0.40023424  0.97226659  1.0
  C  C34  1  0.92235315  0.41290550  0.00428853  1.0
  C  C35  1  0.92173838  0.58489738  0.00385980  1.0
  C  C36  1  0.81229109  0.37731518  0.74328714  1.0
  C  C37  1  0.76522370  0.32331658  0.66142696  1.0
  C  C38  1  0.79401809  0.29098723  0.61098707  1.0
  C  C39  1  0.87007484  0.30900862  0.64683328  1.0
  C  C40  1  0.91250366  0.36557923  0.72856106  1.0
  C  C41  1  0.62801757  0.18646058  0.35847814  1.0
  C  C42  1  0.70442899  0.20393949  0.39708537  1.0
  C  C43  1  0.73552909  0.18292494  0.34829415  1.0
  C  C44  1  0.69030592  0.13987316  0.26436292  1.0
  C  C45  1  0.58761261  0.14961473  0.27405133  1.0
  C  C46  1  0.18278955  0.62652711  0.25871219  1.0
  C  C47  1  0.22583327  0.68445876  0.33954094  1.0
  C  C48  1  0.19557831  0.70678674  0.38896797  1.0
  C  C49  1  0.12024782  0.67885696  0.35200378  1.0
  C  C50  1  0.08011981  0.62545168  0.26879305  1.0
  C  C51  1  0.36738037  0.81467892  0.63832991  1.0
  C  C52  1  0.29182810  0.78852032  0.60225773  1.0
  C  C53  1  0.26428662  0.80136919  0.65313695  1.0
  C  C54  1  0.31168399  0.84176969  0.73671229  1.0
  C  C55  1  0.41005891  0.85658456  0.72285806  1.0
  C  C56  1  0.62975649  0.85899220  0.99073289  1.0
  C  C57  1  0.87306959  0.63465837  0.00498269  1.0
  C  C58  1  0.69866829  0.88859094  0.05938848  1.0
  C  C59  1  0.74739988  0.84600301  0.06355504  1.0
  C  C60  1  0.84472929  0.64928365  0.94411105  1.0
  C  C61  1  0.79903367  0.69501687  0.94346620  1.0
  C  C62  1  0.85473347  0.66557591  0.06471078  1.0
  C  C63  1  0.80756785  0.70970870  0.06227163  1.0
  C  C64  1  0.60934830  0.78584755  0.92721500  1.0
  C  C65  1  0.65788184  0.74349415  0.93280490  1.0
  C  C66  1  0.72822701  0.77247057  0.00035406  1.0
  C  C67  1  0.77879265  0.72581700  0.00211053  1.0
  C  C68  1  0.35426468  0.11393539  0.96872883  1.0
  C  C69  1  0.12215470  0.35045089  0.96986794  1.0
  C  C70  1  0.37953957  0.18571513  0.03585095  1.0
  C  C71  1  0.33675832  0.23421481  0.03501961  1.0
  C  C72  1  0.13467467  0.31696121  0.90592729  1.0
  C  C73  1  0.18326071  0.27399017  0.90626059  1.0
  C  C74  1  0.15720292  0.33923905  0.03312127  1.0
  C  C75  1  0.20285355  0.29362442  0.03091120  1.0
  C  C76  1  0.28542474  0.09076036  0.90144972  1.0
  C  C77  1  0.24223939  0.13884497  0.90258213  1.0
  C  C78  1  0.26652334  0.21176781  0.96875345  1.0
  C  C79  1  0.21781042  0.26035195  0.96817890  1.0
  C  C80  1  0.38793702  0.88072176  0.03472840  1.0
  C  C81  1  0.14101562  0.64758639  0.02241125  1.0
  C  C82  1  0.37328016  0.91126702  0.09713601  1.0
  C  C83  1  0.32174227  0.86905560  0.09453841  1.0
  C  C84  1  0.11864517  0.65488512  0.95680314  1.0
  C  C85  1  0.16387742  0.70502379  0.96093143  1.0
  C  C86  1  0.20900033  0.69040059  0.09161910  1.0
  C  C87  1  0.25491071  0.73764022  0.09353306  1.0
  C  C88  1  0.35204744  0.80721274  0.97082812  1.0
  C  C89  1  0.30308687  0.76497338  0.97067414  1.0
  C  C90  1  0.28594867  0.79461531  0.03176847  1.0
  C  C91  1  0.23386962  0.74644688  0.02864872  1.0
  C  C92  1  0.62893461  0.14245491  0.00597836  1.0
  C  C93  1  0.86969102  0.36511312  0.00209777  1.0
  C  C94  1  0.65007322  0.21890538  0.05900898  1.0
  C  C95  1  0.69394658  0.26361291  0.05586913  1.0
  C  C96  1  0.79555461  0.34476816  0.94716714  1.0
  C  C97  1  0.74657474  0.30361814  0.94841984  1.0
  C  C98  1  0.89438266  0.34283639  0.05684659  1.0
  C  C99  1  0.84511209  0.29971339  0.05560347  1.0
  C  C100  1  0.65240268  0.11132965  0.95070984  1.0
  C  C101  1  0.69817528  0.15646152  0.95013726  1.0
  C  C102  1  0.71964869  0.23329542  0.00230807  1.0
  C  C103  1  0.77038066  0.27968893  0.00193098  1.0
  Br  Br104  1  0.01174521  0.40434997  0.77309157  1.0
  Br  Br105  1  0.91517697  0.25494002  0.59060712  1.0
  Br  Br106  1  0.77284339  0.42628120  0.80831396  1.0
  Br  Br107  1  0.66509364  0.29455401  0.62025337  1.0
  Br  Br108  1  0.58013451  0.21611684  0.41660007  1.0
  Br  Br109  1  0.48711819  0.13776181  0.22063007  1.0
  Br  Br110  1  0.83658669  0.21296328  0.39594604  1.0
  Br  Br111  1  0.73198153  0.10469638  0.19952768  1.0
  Br  Br112  1  0.98025247  0.58487699  0.21874216  1.0
  Br  Br113  1  0.07251892  0.71647866  0.40996181  1.0
  Br  Br114  1  0.22719470  0.58055229  0.19860725  1.0
  Br  Br115  1  0.32160036  0.73146436  0.37970580  1.0
  Br  Br116  1  0.41230412  0.78982036  0.57721097  1.0
  Br  Br117  1  0.50999620  0.89813700  0.77361447  1.0
  Br  Br118  1  0.16475807  0.76352344  0.60809786  1.0
  Br  Br119  1  0.27601066  0.85525565  0.80455967  1.0
  N  N120  1  0.88449834  0.39751885  0.77599006  1.0
  N  N121  1  0.74446650  0.23830063  0.52718400  1.0
  N  N122  1  0.75282437  0.25157965  0.48143207  1.0
  N  N123  1  0.61784747  0.12391627  0.22839828  1.0
  N  N124  1  0.11106952  0.59944967  0.22362900  1.0
  N  N125  1  0.24295139  0.76017738  0.47314763  1.0
  N  N126  1  0.24297726  0.74021460  0.51796417  1.0
  N  N127  1  0.38284799  0.86975552  0.77044379  1.0
  Cl  Cl128  1  0.83396940  0.88747352  0.14809935  1.0
  Cl  Cl129  1  0.76938543  0.71472727  0.86909056  1.0
  Cl  Cl130  1  0.37434266  0.32441612  0.11793988  1.0
  Cl  Cl131  1  0.20161220  0.23978484  0.82870175  1.0
  Cl  Cl132  1  0.30108439  0.91246998  0.17012553  1.0
  Cl  Cl133  1  0.13016578  0.71608823  0.88002302  1.0
  Cl  Cl134  1  0.71731606  0.35854615  0.12016597  1.0
  Cl  Cl135  1  0.65450604  0.28223859  0.88266387  1.0
  O  O136  1  0.44860204  0.07642224  0.03894789  1.0
  O  O137  1  0.39135578  0.01078383  0.90267060  1.0
  O  O138  1  0.42548828  0.91013023  0.96474810  1.0
  O  O139  1  0.48923014  0.98155547  0.10118476  1.0
  O  O140  1  0.52512369  0.88284623  0.91497400  1.0
  O  O141  1  0.59381854  0.96589717  0.04985172  1.0
  O  O142  1  0.59064253  0.11838409  0.07919949  1.0
  O  O143  1  0.54207491  0.03244645  0.94603850  1.0
  O  O144  1  0.05241657  0.53490163  0.94818644  1.0
  O  O145  1  0.09692348  0.60855608  0.08280107  1.0
  O  O146  1  0.09240007  0.45597014  0.04115400  1.0
  O  O147  1  0.01806366  0.38330203  0.90550632  1.0
  O  O148  1  0.98174664  0.45127090  0.07132292  1.0
  O  O149  1  0.90357336  0.41281960  0.94088499  1.0
  O  O150  1  0.92152217  0.54695240  0.93812367  1.0
  O  O151  1  0.95833971  0.58345825  0.06683213  1.0
