# generated using pymatgen
data_Zr3H28C44S5O31
_symmetry_space_group_name_H-M   'P 1'
_cell_length_a   19.02149179
_cell_length_b   19.02145143
_cell_length_c   19.02815869
_cell_angle_alpha   60.25322149
_cell_angle_beta   60.25472348
_cell_angle_gamma   90.56828394
_symmetry_Int_Tables_number   1
_chemical_formula_structural   Zr3H28C44S5O31
_chemical_formula_sum   'Zr6 H56 C88 S10 O62'
_cell_volume   4881.22908156
_cell_formula_units_Z   2
loop_
 _symmetry_equiv_pos_site_id
 _symmetry_equiv_pos_as_xyz
  1  'x, y, z'
loop_
 _atom_site_type_symbol
 _atom_site_label
 _atom_site_symmetry_multiplicity
 _atom_site_fract_x
 _atom_site_fract_y
 _atom_site_fract_z
 _atom_site_occupancy
  Zr  Zr0  1  0.58912716  0.58994089  0.50593969  1.0
  Zr  Zr1  1  0.40949094  0.41038784  0.49453214  1.0
  Zr  Zr2  1  0.59568239  0.59687225  0.31418668  1.0
  Zr  Zr3  1  0.40261016  0.40378536  0.68634639  1.0
  Zr  Zr4  1  0.40729901  0.59220083  0.50025678  1.0
  Zr  Zr5  1  0.59120559  0.40828511  0.50020376  1.0
  H  H6  1  0.57330994  0.71875192  0.35941826  1.0
  H  H7  1  0.28069887  0.42618006  0.64113113  1.0
  H  H8  1  0.57558452  0.43141647  0.35124861  1.0
  H  H9  1  0.56809850  0.42384318  0.64922647  1.0
  H  H10  1  0.39474675  0.04636250  0.48921446  1.0
  H  H11  1  0.60787481  0.95753876  0.50302130  1.0
  H  H12  1  0.36053755  0.78039124  0.57071281  1.0
  H  H13  1  0.34710012  0.90143177  0.58642046  1.0
  H  H14  1  0.56735591  0.15225017  0.56607348  1.0
  H  H15  1  0.55863100  0.01164913  0.59095610  1.0
  H  H16  1  0.04196346  0.39163699  0.49735144  1.0
  H  H17  1  0.95307062  0.60463359  0.51130427  1.0
  H  H18  1  0.84732858  0.43237379  0.43403452  1.0
  H  H19  1  0.98793292  0.44104309  0.40916872  1.0
  H  H20  1  0.21905160  0.63895241  0.42974515  1.0
  H  H21  1  0.09803767  0.65239133  0.41398270  1.0
  H  H22  1  0.94798461  0.38116618  0.15552769  1.0
  H  H23  1  0.03471153  0.59991890  0.84783549  1.0
  H  H24  1  0.20781801  0.41953596  0.91930729  1.0
  H  H25  1  0.08867135  0.42327950  0.05356221  1.0
  H  H26  1  0.85046355  0.63281587  0.07864973  1.0
  H  H27  1  0.98515470  0.64293145  0.94560586  1.0
  H  H28  1  0.39979813  0.96495762  0.15260167  1.0
  H  H29  1  0.61843792  0.05155903  0.84486727  1.0
  H  H30  1  0.36671175  0.14896723  0.92191359  1.0
  H  H31  1  0.35675016  0.01438739  0.05493397  1.0
  H  H32  1  0.58009281  0.79176178  0.08126484  1.0
  H  H33  1  0.57639744  0.91090850  0.94696653  1.0
  H  H34  1  0.17583725  0.18804890  0.92349247  1.0
  H  H35  1  0.19334713  0.15252511  0.70899234  1.0
  H  H36  1  0.81142322  0.82379241  0.07705442  1.0
  H  H37  1  0.84683407  0.80603771  0.29172892  1.0
  H  H38  1  0.97788333  0.07052127  0.10896125  1.0
  H  H39  1  0.07417946  0.07137452  0.10158573  1.0
  H  H40  1  0.07799116  0.95021648  0.85153117  1.0
  H  H41  1  0.07495370  0.04322369  0.76243345  1.0
  H  H42  1  0.92903503  0.02172956  0.89164865  1.0
  H  H43  1  0.92799094  0.92536875  0.89914388  1.0
  H  H44  1  0.04911111  0.92135799  0.14931039  1.0
  H  H45  1  0.95616112  0.92453766  0.23830606  1.0
  H  H46  1  0.61145918  0.61159231  0.92856661  1.0
  H  H47  1  0.38805294  0.38809270  0.07188162  1.0
  H  H48  1  0.56172862  0.63252016  0.71725317  1.0
  H  H49  1  0.55830485  0.65169097  0.83746009  1.0
  H  H50  1  0.36693244  0.43790573  0.28315320  1.0
  H  H51  1  0.34786115  0.44132670  0.16288905  1.0
  H  H52  1  0.42198128  0.33347819  0.37276597  1.0
  H  H53  1  0.69958740  0.78481538  0.39232141  1.0
  H  H54  1  0.21461839  0.29992780  0.60817463  1.0
  H  H55  1  0.66603937  0.57749228  0.62769822  1.0
  H  H56  1  0.66746100  0.29625056  0.41699235  1.0
  H  H57  1  0.21193943  0.58450279  0.58243831  1.0
  H  H58  1  0.41503219  0.78755869  0.41810902  1.0
  H  H59  1  0.70331011  0.33200147  0.58338692  1.0
  H  H60  1  0.69705840  0.58237161  0.12752638  1.0
  H  H61  1  0.41716599  0.30238329  0.87302349  1.0
  C  C62  1  0.49377512  0.72846335  0.51604114  1.0
  C  C63  1  0.27096759  0.50570591  0.48447882  1.0
  C  C64  1  0.49588143  0.26286187  0.50191026  1.0
  C  C65  1  0.73663101  0.50361869  0.49849189  1.0
  C  C66  1  0.73995770  0.73391786  0.27094700  1.0
  C  C67  1  0.48792149  0.49565140  0.74482199  1.0
  C  C68  1  0.26557165  0.25948498  0.72963624  1.0
  C  C69  1  0.50376757  0.51164378  0.25569673  1.0
  C  C70  1  0.49664869  0.73441347  0.26808123  1.0
  C  C71  1  0.74164301  0.50375986  0.26547390  1.0
  C  C72  1  0.49569029  0.25777379  0.73502104  1.0
  C  C73  1  0.26510917  0.50288663  0.73247952  1.0
  C  C74  1  0.48527677  0.17878094  0.51550989  1.0
  C  C75  1  0.49066623  0.79934612  0.52905834  1.0
  C  C76  1  0.43377572  0.14632622  0.49700093  1.0
  C  C77  1  0.43085237  0.06768406  0.50912795  1.0
  C  C78  1  0.55974980  0.84856245  0.51366632  1.0
  C  C79  1  0.55217349  0.91780198  0.52075846  1.0
  C  C80  1  0.41454755  0.81951036  0.55636082  1.0
  C  C81  1  0.40721346  0.88785741  0.56496078  1.0
  C  C82  1  0.52917897  0.12840778  0.54971434  1.0
  C  C83  1  0.52429051  0.04924791  0.56351388  1.0
  C  C84  1  0.47628445  0.01848431  0.54141708  1.0
  C  C85  1  0.47703657  0.93946577  0.54473408  1.0
  C  C86  1  0.20008924  0.50881298  0.47145746  1.0
  C  C87  1  0.82076795  0.51431826  0.48475504  1.0
  C  C88  1  0.15089357  0.43973690  0.48681531  1.0
  C  C89  1  0.08168601  0.44732726  0.47965669  1.0
  C  C90  1  0.85318498  0.56577028  0.50333081  1.0
  C  C91  1  0.93176703  0.56859041  0.49132199  1.0
  C  C92  1  0.87116409  0.47047950  0.45046899  1.0
  C  C93  1  0.95031376  0.47532454  0.43669617  1.0
  C  C94  1  0.17994002  0.58493513  0.44411522  1.0
  C  C95  1  0.11161448  0.59227399  0.43546757  1.0
  C  C96  1  0.06000265  0.52245699  0.45568834  1.0
  C  C97  1  0.98099984  0.52320676  0.45896486  1.0
  C  C98  1  0.82331091  0.50322510  0.19236328  1.0
  C  C99  1  0.19144029  0.50960063  0.80742734  1.0
  C  C100  1  0.85387624  0.43264372  0.21370565  1.0
  C  C101  1  0.92871564  0.43795478  0.13766195  1.0
  C  C102  1  0.14257952  0.56250136  0.78753326  1.0
  C  C103  1  0.07370925  0.56206478  0.86429089  1.0
  C  C104  1  0.16971529  0.45971064  0.90443635  1.0
  C  C105  1  0.10224119  0.46156099  0.97983108  1.0
  C  C106  1  0.87287847  0.57797032  0.09481169  1.0
  C  C107  1  0.94842186  0.58328886  0.01996648  1.0
  C  C108  1  0.97674292  0.51220933  0.03990337  1.0
  C  C109  1  0.05238985  0.51234333  0.96101398  1.0
  C  C110  1  0.49002356  0.80817943  0.19310583  1.0
  C  C111  1  0.49627285  0.17614085  0.80810663  1.0
  C  C112  1  0.43713969  0.85706024  0.21296612  1.0
  C  C113  1  0.43763025  0.92594341  0.13618205  1.0
  C  C114  1  0.56687079  0.14559729  0.78673490  1.0
  C  C115  1  0.56164184  0.07081447  0.86277251  1.0
  C  C116  1  0.42158281  0.12659394  0.90570037  1.0
  C  C117  1  0.41635397  0.05112073  0.98054542  1.0
  C  C118  1  0.53996063  0.82991345  0.09609313  1.0
  C  C119  1  0.53812660  0.89737894  0.02067498  1.0
  C  C120  1  0.48735662  0.94724363  0.03946773  1.0
  C  C121  1  0.48746096  0.02283446  0.96057251  1.0
  C  C122  1  0.03161927  0.04520461  0.09068114  1.0
  C  C123  1  0.05274108  0.00411306  0.84031999  1.0
  C  C124  1  0.95424140  0.96792275  0.91000606  1.0
  C  C125  1  0.99527316  0.94668770  0.16044372  1.0
  C  C126  1  0.15082782  0.15027690  0.90750507  1.0
  C  C127  1  0.07891346  0.07605163  0.98392151  1.0
  C  C128  1  0.16045884  0.13135405  0.78568542  1.0
  C  C129  1  0.08840750  0.05685115  0.86116277  1.0
  C  C130  1  0.84915370  0.84876014  0.09311191  1.0
  C  C131  1  0.92339104  0.92064657  0.01676323  1.0
  C  C132  1  0.86802835  0.83896849  0.21503070  1.0
  C  C133  1  0.94251809  0.91103910  0.13960501  1.0
  C  C134  1  0.19133701  0.17868646  0.80844250  1.0
  C  C135  1  0.04721911  0.02930151  0.96051662  1.0
  C  C136  1  0.82072009  0.80817653  0.19218878  1.0
  C  C137  1  0.97011947  0.95226279  0.04022666  1.0
  C  C138  1  0.49879155  0.52276386  0.17552180  1.0
  C  C139  1  0.47685011  0.50066891  0.82495171  1.0
  C  C140  1  0.56702764  0.57497375  0.07324254  1.0
  C  C141  1  0.55641158  0.57507939  0.00583220  1.0
  C  C142  1  0.42466164  0.43246406  0.92723087  1.0
  C  C143  1  0.42455708  0.44312696  0.99460753  1.0
  C  C144  1  0.52331955  0.57913256  0.79548593  1.0
  C  C145  1  0.52144866  0.58968903  0.86344336  1.0
  C  C146  1  0.42034424  0.47631652  0.20493103  1.0
  C  C147  1  0.40983855  0.47818719  0.13694930  1.0
  C  C148  1  0.47873404  0.52582851  0.03641477  1.0
  C  C149  1  0.47380372  0.52083791  0.96398638  1.0
  S  S150  1  0.36541870  0.19401427  0.46049125  1.0
  S  S151  1  0.66201850  0.83297549  0.48502738  1.0
  S  S152  1  0.16643130  0.33744991  0.51550552  1.0
  S  S153  1  0.80550648  0.63413778  0.53985275  1.0
  S  S154  1  0.80794151  0.33103817  0.33290896  1.0
  S  S155  1  0.15920762  0.63725654  0.66927541  1.0
  S  S156  1  0.36233011  0.84038756  0.33121162  1.0
  S  S157  1  0.66842159  0.19151747  0.66748014  1.0
  S  S158  1  0.67218748  0.64492734  0.01512630  1.0
  S  S159  1  0.35467534  0.32729836  0.98537426  1.0
  O  O160  1  0.55112311  0.69463895  0.51639374  1.0
  O  O161  1  0.30479842  0.44835553  0.48413427  1.0
  O  O162  1  0.44037087  0.29833450  0.49803975  1.0
  O  O163  1  0.70112191  0.55908212  0.50246572  1.0
  O  O164  1  0.70854723  0.70021812  0.24419905  1.0
  O  O165  1  0.43220706  0.43585350  0.76802196  1.0
  O  O166  1  0.29926579  0.29093749  0.75634812  1.0
  O  O167  1  0.56356088  0.56735118  0.23251270  1.0
  O  O168  1  0.43906890  0.70246635  0.35936358  1.0
  O  O169  1  0.70637882  0.44572369  0.35704551  1.0
  O  O170  1  0.55371190  0.29304778  0.64343916  1.0
  O  O171  1  0.29699987  0.56040556  0.64118931  1.0
  O  O172  1  0.71082640  0.56224611  0.23237356  1.0
  O  O173  1  0.43721403  0.28859725  0.76812129  1.0
  O  O174  1  0.29242533  0.44084525  0.76296156  1.0
  O  O175  1  0.55868853  0.70710345  0.23758165  1.0
  O  O176  1  0.70362997  0.70692194  0.36226086  1.0
  O  O177  1  0.44705225  0.44568120  0.34475712  1.0
  O  O178  1  0.29252780  0.29580516  0.63833365  1.0
  O  O179  1  0.55387895  0.55235532  0.65574685  1.0
  O  O180  1  0.70379551  0.43895542  0.50527100  1.0
  O  O181  1  0.43873470  0.70519636  0.50439608  1.0
  O  O182  1  0.29425553  0.56075426  0.49609815  1.0
  O  O183  1  0.56051948  0.29569194  0.49517929  1.0
  O  O184  1  0.54772982  0.44498284  0.60731204  1.0
  O  O185  1  0.55441796  0.45174885  0.39319924  1.0
  O  O186  1  0.34310544  0.44741767  0.60106084  1.0
  O  O187  1  0.55206240  0.65634826  0.39947857  1.0
  O  O188  1  0.46338410  0.54116677  0.42010569  1.0
  O  O189  1  0.45832071  0.53605791  0.58042554  1.0
  O  O190  1  0.46007682  0.38354912  0.57560165  1.0
  O  O191  1  0.61592092  0.53936428  0.42491315  1.0
  O  O192  1  0.42883291  0.28768247  0.36142899  1.0
  O  O193  1  0.34312742  0.14802142  0.42925226  1.0
  O  O194  1  0.29884973  0.19925129  0.53766765  1.0
  O  O195  1  0.70233537  0.84086352  0.38448588  1.0
  O  O196  1  0.71523439  0.90772510  0.45871402  1.0
  O  O197  1  0.64688978  0.74877905  0.56378055  1.0
  O  O198  1  0.15856102  0.29715285  0.61603790  1.0
  O  O199  1  0.09164755  0.28425799  0.54184091  1.0
  O  O200  1  0.25061388  0.35251342  0.43678439  1.0
  O  O201  1  0.71187684  0.57071783  0.63897510  1.0
  O  O202  1  0.85154760  0.65646814  0.57102591  1.0
  O  O203  1  0.80020871  0.70067914  0.46271778  1.0
  O  O204  1  0.71445938  0.29103519  0.36579475  1.0
  O  O205  1  0.85428958  0.27684911  0.31289712  1.0
  O  O206  1  0.80408801  0.34752490  0.40065191  1.0
  O  O207  1  0.15436858  0.57943043  0.63241779  1.0
  O  O208  1  0.08363791  0.66137018  0.69131362  1.0
  O  O209  1  0.24268974  0.70264420  0.60252138  1.0
  O  O210  1  0.42013193  0.84515003  0.36812586  1.0
  O  O211  1  0.33823345  0.91597029  0.30917456  1.0
  O  O212  1  0.29692886  0.75692433  0.39790069  1.0
  O  O213  1  0.70848976  0.28498017  0.63460710  1.0
  O  O214  1  0.72260089  0.14510274  0.68741995  1.0
  O  O215  1  0.65188217  0.19545585  0.59974086  1.0
  O  O216  1  0.71042613  0.58273091  0.06994222  1.0
  O  O217  1  0.72471298  0.66810893  0.91579054  1.0
  O  O218  1  0.66309058  0.71101179  0.03243262  1.0
  O  O219  1  0.41680671  0.28899122  0.93061390  1.0
  O  O220  1  0.33151347  0.27479988  0.08470915  1.0
  O  O221  1  0.28857570  0.33640953  0.96809172  1.0
