# generated using pymatgen
data_ZnH6C20Br3NO4
_symmetry_space_group_name_H-M   'P 1'
_cell_length_a   14.83739050
_cell_length_b   15.84111512
_cell_length_c   16.21488813
_cell_angle_alpha   89.81127705
_cell_angle_beta   89.58232937
_cell_angle_gamma   65.66730339
_symmetry_Int_Tables_number   1
_chemical_formula_structural   ZnH6C20Br3NO4
_chemical_formula_sum   'Zn2 H12 C40 Br6 N2 O8'
_cell_volume   3472.51612030
_cell_formula_units_Z   2
loop_
 _symmetry_equiv_pos_site_id
 _symmetry_equiv_pos_as_xyz
  1  'x, y, z'
loop_
 _atom_site_type_symbol
 _atom_site_label
 _atom_site_symmetry_multiplicity
 _atom_site_fract_x
 _atom_site_fract_y
 _atom_site_fract_z
 _atom_site_occupancy
  Zn  Zn0  1  0.59836472  0.49059673  0.49902745  1.0
  Zn  Zn1  1  0.40163366  0.50940446  0.50097526  1.0
  H  H2  1  0.76715946  0.88608475  0.51397753  1.0
  H  H3  1  0.23283193  0.11391730  0.48599683  1.0
  H  H4  1  0.53909530  0.76639478  0.48892136  1.0
  H  H5  1  0.46089741  0.23360724  0.51106410  1.0
  H  H6  1  0.23623870  0.81507819  0.51962678  1.0
  H  H7  1  0.76375831  0.18492304  0.48037717  1.0
  H  H8  1  0.15076715  0.35075031  0.50784507  1.0
  H  H9  1  0.84923636  0.64924185  0.49215394  1.0
  H  H10  1  0.81187219  0.01312459  0.48114277  1.0
  H  H11  1  0.18812254  0.98687738  0.51884699  1.0
  H  H12  1  0.63572346  0.51608241  0.92015641  1.0
  H  H13  1  0.36429306  0.48391080  0.07984872  1.0
  C  C14  1  0.50058238  0.49677611  0.33909042  1.0
  C  C15  1  0.49940629  0.50322739  0.66091170  1.0
  C  C16  1  0.61898394  0.89688562  0.51977307  1.0
  C  C17  1  0.38101104  0.10311429  0.48020129  1.0
  C  C18  1  0.68897223  0.93082949  0.50601156  1.0
  C  C19  1  0.31101757  0.06917466  0.49397267  1.0
  C  C20  1  0.57648074  0.50911297  0.95543257  1.0
  C  C21  1  0.42353627  0.49087749  0.04457010  1.0
  C  C22  1  0.49813289  0.50076426  0.91233580  1.0
  C  C23  1  0.50188498  0.49922412  0.08766748  1.0
  C  C24  1  0.42171972  0.49151684  0.95910393  1.0
  C  C25  1  0.57830145  0.50847009  0.04089996  1.0
  C  C26  1  0.49809333  0.50188463  0.82528052  1.0
  C  C27  1  0.50192106  0.49810727  0.17472092  1.0
  C  C28  1  0.50044116  0.49711184  0.24983284  1.0
  C  C29  1  0.49956432  0.50289330  0.75017477  1.0
  C  C30  1  0.99103840  0.41500298  0.50469370  1.0
  C  C31  1  0.00896249  0.58499061  0.49530593  1.0
  C  C32  1  0.90640533  0.49977282  0.49981913  1.0
  C  C33  1  0.09359681  0.50021937  0.50017927  1.0
  C  C34  1  0.91553142  0.58454846  0.49510773  1.0
  C  C35  1  0.08446936  0.41544376  0.50489067  1.0
  C  C36  1  0.57709531  0.31982757  0.50087485  1.0
  C  C37  1  0.42287993  0.68017420  0.49912177  1.0
  C  C38  1  0.81064423  0.50001775  0.49924299  1.0
  C  C39  1  0.18935900  0.49997510  0.50075417  1.0
  C  C40  1  0.60822996  0.21717224  0.49568494  1.0
  C  C41  1  0.39176552  0.78282628  0.50430792  1.0
  C  C42  1  0.73435223  0.06212248  0.48460400  1.0
  C  C43  1  0.26564114  0.93787952  0.51538516  1.0
  C  C44  1  0.70863905  0.15618694  0.48529841  1.0
  C  C45  1  0.29135574  0.84381161  0.51469754  1.0
  C  C46  1  0.53588360  0.18306633  0.50032556  1.0
  C  C47  1  0.46410657  0.81693370  0.49966053  1.0
  C  C48  1  0.55850800  0.08767205  0.49349749  1.0
  C  C49  1  0.44148939  0.91232848  0.50648302  1.0
  C  C50  1  0.66114995  0.02643911  0.49114086  1.0
  C  C51  1  0.33884461  0.97356012  0.50884090  1.0
  C  C52  1  0.48513233  0.04890557  0.49328596  1.0
  C  C53  1  0.51486546  0.95110044  0.50669947  1.0
  Br  Br54  1  0.67199530  0.77618349  0.57074941  1.0
  Br  Br55  1  0.32800222  0.22382321  0.42923108  1.0
  Br  Br56  1  0.68511157  0.52035293  0.09523033  1.0
  Br  Br57  1  0.31491154  0.47963257  0.90477232  1.0
  Br  Br58  1  0.97759980  0.30205992  0.51124618  1.0
  Br  Br59  1  0.02240215  0.69793434  0.48875530  1.0
  N  N60  1  0.26741338  0.50018607  0.50145638  1.0
  N  N61  1  0.73258724  0.49981302  0.49854201  1.0
  O  O62  1  0.58129624  0.48721711  0.37304792  1.0
  O  O63  1  0.41872062  0.51276718  0.62695969  1.0
  O  O64  1  0.42009942  0.50610543  0.37455192  1.0
  O  O65  1  0.57989905  0.49392798  0.62544579  1.0
  O  O66  1  0.64473620  0.34978348  0.50038122  1.0
  O  O67  1  0.35526272  0.65022113  0.49963628  1.0
  O  O68  1  0.48436857  0.36944064  0.50454512  1.0
  O  O69  1  0.51563310  0.63055774  0.49543477  1.0
