# generated using pymatgen
data_TbH15C24(NO)6
_symmetry_space_group_name_H-M   'P 1'
_cell_length_a   15.05065117
_cell_length_b   22.80947441
_cell_length_c   28.68337685
_cell_angle_alpha   89.99994611
_cell_angle_beta   76.55326201
_cell_angle_gamma   89.99997087
_symmetry_Int_Tables_number   1
_chemical_formula_structural   TbH15C24(NO)6
_chemical_formula_sum   'Tb8 H120 C192 N48 O48'
_cell_volume   9576.99121049
_cell_formula_units_Z   8
loop_
 _symmetry_equiv_pos_site_id
 _symmetry_equiv_pos_as_xyz
  1  'x, y, z'
loop_
 _atom_site_type_symbol
 _atom_site_label
 _atom_site_symmetry_multiplicity
 _atom_site_fract_x
 _atom_site_fract_y
 _atom_site_fract_z
 _atom_site_occupancy
  Tb  Tb0  1  0.67761715  0.24889798  0.23474506  1.0
  Tb  Tb1  1  0.82238268  0.74889777  0.76525558  1.0
  Tb  Tb2  1  0.32238290  0.75110132  0.76525542  1.0
  Tb  Tb3  1  0.17761668  0.25110154  0.23474463  1.0
  Tb  Tb4  1  0.40879481  0.26302810  0.26697347  1.0
  Tb  Tb5  1  0.09120613  0.76302932  0.73302606  1.0
  Tb  Tb6  1  0.59120660  0.73697164  0.73302580  1.0
  Tb  Tb7  1  0.90879528  0.23697130  0.26697390  1.0
  H  H8  1  0.66424680  0.09623121  0.14185736  1.0
  H  H9  1  0.83575583  0.59623132  0.85814166  1.0
  H  H10  1  0.33575256  0.90376809  0.85814320  1.0
  H  H11  1  0.16424490  0.40376798  0.14185839  1.0
  H  H12  1  0.64105643  0.02123084  0.08262970  1.0
  H  H13  1  0.85894554  0.52123043  0.91736911  1.0
  H  H14  1  0.35894293  0.97876846  0.91737121  1.0
  H  H15  1  0.14105450  0.47876887  0.08263068  1.0
  H  H16  1  0.34993662  0.02982202  0.14065733  1.0
  H  H17  1  0.15006579  0.52982219  0.85934185  1.0
  H  H18  1  0.65006274  0.97017816  0.85934254  1.0
  H  H19  1  0.84993426  0.47017623  0.14065724  1.0
  H  H20  1  0.37455231  0.10385219  0.19949996  1.0
  H  H21  1  0.12545143  0.60385287  0.80049865  1.0
  H  H22  1  0.62544705  0.89614887  0.80049991  1.0
  H  H23  1  0.87454930  0.39614643  0.19950071  1.0
  H  H24  1  0.54713838  0.86342334  0.97988174  1.0
  H  H25  1  0.95286072  0.36342284  0.02011891  1.0
  H  H26  1  0.45286098  0.13657684  0.02011743  1.0
  H  H27  1  0.04713934  0.63657734  0.97988227  1.0
  H  H28  1  0.67616966  0.82108349  0.91850087  1.0
  H  H29  1  0.82383082  0.32108121  0.08149999  1.0
  H  H30  1  0.32382902  0.17891669  0.08149839  1.0
  H  H31  1  0.17616991  0.67891721  0.91850145  1.0
  H  H32  1  0.48413681  0.73357344  0.85209546  1.0
  H  H33  1  0.01586415  0.23357337  0.14790514  1.0
  H  H34  1  0.51586119  0.26642586  0.14790458  1.0
  H  H35  1  0.98413727  0.76642637  0.85209552  1.0
  H  H36  1  0.35699018  0.77363353  0.91282092  1.0
  H  H37  1  0.14300940  0.27363262  0.08718052  1.0
  H  H38  1  0.64300713  0.22636621  0.08717955  1.0
  H  H39  1  0.85699203  0.72636668  0.91282084  1.0
  H  H40  1  0.24706985  0.07079233  0.08835067  1.0
  H  H41  1  0.25292981  0.57079152  0.91164916  1.0
  H  H42  1  0.75292951  0.92920917  0.91164955  1.0
  H  H43  1  0.74706955  0.42920778  0.08835036  1.0
  H  H44  1  0.17973812  0.15241935  0.14244673  1.0
  H  H45  1  0.32026082  0.65241990  0.85755278  1.0
  H  H46  1  0.82026056  0.84758039  0.85755323  1.0
  H  H47  1  0.67973786  0.34758071  0.14244682  1.0
  H  H48  1  0.96028800  0.04010664  0.21307734  1.0
  H  H49  1  0.53971056  0.54010561  0.78692222  1.0
  H  H50  1  0.03971068  0.95989442  0.78692192  1.0
  H  H51  1  0.46028812  0.45989369  0.21307808  1.0
  H  H52  1  0.02739912  0.95751727  0.15897648  1.0
  H  H53  1  0.47259969  0.45751623  0.84102421  1.0
  H  H54  1  0.97259956  0.04248422  0.84102382  1.0
  H  H55  1  0.52739968  0.54248351  0.15897670  1.0
  H  H56  1  0.83364090  0.35213130  0.34894308  1.0
  H  H57  1  0.66635888  0.85213172  0.65105680  1.0
  H  H58  1  0.16635914  0.64786931  0.65105740  1.0
  H  H59  1  0.33364117  0.14786890  0.34894299  1.0
  H  H60  1  0.84524653  0.43849012  0.39964891  1.0
  H  H61  1  0.65475457  0.93849016  0.60035039  1.0
  H  H62  1  0.15475420  0.56151093  0.60035114  1.0
  H  H63  1  0.34524547  0.06151002  0.39964904  1.0
  H  H64  1  0.69255437  0.54134746  0.31899859  1.0
  H  H65  1  0.80744555  0.04134798  0.68100081  1.0
  H  H66  1  0.30744567  0.45865228  0.68100085  1.0
  H  H67  1  0.19255449  0.95865264  0.31899863  1.0
  H  H68  1  0.68196634  0.45413373  0.26798035  1.0
  H  H69  1  0.81803339  0.95413443  0.73201946  1.0
  H  H70  1  0.31803234  0.54586513  0.73202065  1.0
  H  H71  1  0.18196665  0.04586619  0.26798033  1.0
  H  H72  1  0.76534058  0.73523032  0.57581558  1.0
  H  H73  1  0.73465857  0.23523161  0.42418446  1.0
  H  H74  1  0.23465946  0.26476942  0.42418420  1.0
  H  H75  1  0.26534148  0.76476901  0.57581568  1.0
  H  H76  1  0.82845092  0.76976373  0.64248702  1.0
  H  H77  1  0.67154958  0.26976468  0.35751248  1.0
  H  H78  1  0.17154980  0.23023601  0.35751268  1.0
  H  H79  1  0.32845183  0.73023594  0.64248679  1.0
  H  H80  1  0.07672407  0.67441316  0.58579776  1.0
  H  H81  1  0.42327691  0.17441308  0.41420079  1.0
  H  H82  1  0.92327598  0.32558658  0.41420203  1.0
  H  H83  1  0.57672450  0.82558754  0.58579778  1.0
  H  H84  1  0.01325500  0.63877013  0.51837046  1.0
  H  H85  1  0.48674530  0.13876907  0.48162820  1.0
  H  H86  1  0.98674572  0.36122961  0.48162889  1.0
  H  H87  1  0.51325474  0.86123023  0.51837054  1.0
  H  H88  1  0.20797620  0.48276523  0.43597868  1.0
  H  H89  1  0.29202463  0.98276570  0.56402070  1.0
  H  H90  1  0.79202452  0.51723538  0.56402103  1.0
  H  H91  1  0.70797541  0.01723491  0.43597908  1.0
  H  H92  1  0.29567755  0.40409881  0.38465030  1.0
  H  H93  1  0.20432264  0.90409925  0.61534887  1.0
  H  H94  1  0.70432318  0.59590136  0.61534940  1.0
  H  H95  1  0.79567740  0.09590092  0.38465057  1.0
  H  H96  1  0.09025176  0.39643585  0.30327812  1.0
  H  H97  1  0.40974843  0.89643613  0.69672175  1.0
  H  H98  1  0.90974828  0.60356476  0.69672167  1.0
  H  H99  1  0.59025229  0.10356405  0.30327795  1.0
  H  H100  1  0.00055829  0.47396415  0.35457581  1.0
  H  H101  1  0.49944188  0.97396445  0.64542436  1.0
  H  H102  1  0.99944244  0.52603559  0.64542390  1.0
  H  H103  1  0.50055817  0.02603572  0.35457577  1.0
  H  H104  1  0.54643155  0.96344592  0.05263619  1.0
  H  H105  1  0.95356818  0.46344608  0.94736292  1.0
  H  H106  1  0.45356782  0.03655469  0.94736403  1.0
  H  H107  1  0.04643118  0.53655279  0.05263660  1.0
  H  H108  1  0.30568073  0.83234814  0.97656095  1.0
  H  H109  1  0.19431950  0.33234772  0.02344001  1.0
  H  H110  1  0.69431864  0.16765204  0.02343997  1.0
  H  H111  1  0.80568123  0.66765202  0.97656073  1.0
  H  H112  1  0.12532718  0.93337426  0.08225174  1.0
  H  H113  1  0.37467300  0.43337448  0.91774845  1.0
  H  H114  1  0.87467218  0.06662592  0.91774848  1.0
  H  H115  1  0.62532636  0.56662570  0.08225177  1.0
  H  H116  1  0.71518100  0.57322846  0.39558150  1.0
  H  H117  1  0.78481959  0.07322820  0.60441779  1.0
  H  H118  1  0.28481973  0.42677216  0.60441785  1.0
  H  H119  1  0.21518114  0.92677198  0.39558191  1.0
  H  H120  1  0.08730781  0.54306606  0.45326330  1.0
  H  H121  1  0.41269255  0.04306671  0.54673681  1.0
  H  H122  1  0.91269223  0.45693412  0.54673683  1.0
  H  H123  1  0.58730750  0.95693391  0.45326332  1.0
  H  H124  1  0.77820814  0.67729961  0.50899180  1.0
  H  H125  1  0.72179103  0.17730038  0.49100793  1.0
  H  H126  1  0.22179258  0.32270057  0.49100790  1.0
  H  H127  1  0.27820901  0.82270024  0.50899150  1.0
  C  C128  1  0.53426883  0.15327986  0.20679466  1.0
  C  C129  1  0.96573309  0.65328044  0.79320475  1.0
  C  C130  1  0.46573122  0.84672032  0.79320513  1.0
  C  C131  1  0.03426764  0.34671930  0.20679565  1.0
  C  C132  1  0.52078892  0.10512182  0.17434659  1.0
  C  C133  1  0.97921370  0.60512192  0.82565277  1.0
  C  C134  1  0.47920976  0.89487835  0.82565371  1.0
  C  C135  1  0.02078634  0.39487738  0.17434736  1.0
  C  C136  1  0.59578605  0.08102526  0.14143372  1.0
  C  C137  1  0.90421522  0.58102403  0.85856478  1.0
  C  C138  1  0.40421263  0.91897491  0.85856589  1.0
  C  C139  1  0.09578483  0.41897527  0.14143535  1.0
  C  C140  1  0.58252492  0.03941670  0.10846673  1.0
  C  C141  1  0.91747705  0.53941718  0.89153241  1.0
  C  C142  1  0.41747376  0.96058216  0.89153357  1.0
  C  C143  1  0.08252368  0.46058212  0.10846729  1.0
  C  C144  1  0.49363781  0.02101033  0.10737108  1.0
  C  C145  1  0.00636529  0.52101138  0.89262836  1.0
  C  C146  1  0.50636156  0.97898853  0.89262948  1.0
  C  C147  1  0.99363544  0.47898792  0.10737134  1.0
  C  C148  1  0.41852329  0.04388634  0.14110553  1.0
  C  C149  1  0.08147980  0.54388653  0.85889425  1.0
  C  C150  1  0.58147540  0.95611384  0.85889512  1.0
  C  C151  1  0.91852024  0.45611189  0.14110554  1.0
  C  C152  1  0.43288933  0.08541029  0.17398815  1.0
  C  C153  1  0.06711305  0.58541053  0.82601134  1.0
  C  C154  1  0.56710935  0.91458988  0.82601216  1.0
  C  C155  1  0.93288699  0.41458833  0.17398845  1.0
  C  C156  1  0.41205544  0.95625595  0.05960642  1.0
  C  C157  1  0.08794405  0.45625579  0.94039454  1.0
  C  C158  1  0.58794461  0.04374379  0.94039406  1.0
  C  C159  1  0.91205600  0.54374307  0.05960594  1.0
  C  C160  1  0.26059458  0.94712950  0.06712992  1.0
  C  C161  1  0.23940560  0.44713018  0.93287166  1.0
  C  C162  1  0.73940478  0.05286980  0.93287099  1.0
  C  C163  1  0.76059445  0.55287000  0.06712917  1.0
  C  C164  1  0.35806866  0.88903304  0.01544127  1.0
  C  C165  1  0.14193154  0.38903282  0.98455931  1.0
  C  C166  1  0.64193207  0.11096670  0.98455948  1.0
  C  C167  1  0.85806850  0.61096605  0.01544048  1.0
  C  C168  1  0.44367364  0.82176349  0.95042732  1.0
  C  C169  1  0.05632523  0.32176397  0.04957382  1.0
  C  C170  1  0.55632504  0.17823581  0.04957264  1.0
  C  C171  1  0.94367482  0.67823665  0.95042771  1.0
  C  C172  1  0.53440426  0.83426092  0.95228565  1.0
  C  C173  1  0.96559554  0.33426082  0.04771529  1.0
  C  C174  1  0.46559442  0.16573882  0.04771361  1.0
  C  C175  1  0.03440589  0.66573936  0.95228642  1.0
  C  C176  1  0.60578580  0.81062119  0.91791286  1.0
  C  C177  1  0.89421400  0.31062019  0.08208774  1.0
  C  C178  1  0.39421356  0.18937899  0.08208666  1.0
  C  C179  1  0.10578605  0.68937911  0.91791378  1.0
  C  C180  1  0.58948224  0.77493823  0.88092006  1.0
  C  C181  1  0.91051759  0.27493719  0.11908092  1.0
  C  C182  1  0.41051576  0.22506151  0.11907998  1.0
  C  C183  1  0.08948315  0.72506255  0.88092018  1.0
  C  C184  1  0.49896599  0.76101245  0.88032209  1.0
  C  C185  1  0.00103427  0.26101111  0.11967927  1.0
  C  C186  1  0.50103132  0.23898728  0.11967838  1.0
  C  C187  1  0.99896715  0.73898819  0.88032174  1.0
  C  C188  1  0.42704399  0.78365172  0.91474448  1.0
  C  C189  1  0.07295558  0.28365084  0.08525660  1.0
  C  C190  1  0.57295401  0.21634802  0.08525591  1.0
  C  C191  1  0.92704516  0.71634890  0.91474484  1.0
  C  C192  1  0.66720260  0.75683041  0.84220251  1.0
  C  C193  1  0.83279723  0.25682979  0.15779813  1.0
  C  C194  1  0.33279608  0.24317020  0.15779744  1.0
  C  C195  1  0.16720350  0.74316995  0.84220262  1.0
  C  C196  1  0.02127538  0.14928248  0.21269103  1.0
  C  C197  1  0.47872424  0.64928175  0.78730874  1.0
  C  C198  1  0.97872398  0.85071901  0.78730919  1.0
  C  C199  1  0.52127512  0.35071799  0.21269078  1.0
  C  C200  1  0.14096659  0.00905658  0.11978425  1.0
  C  C201  1  0.35903378  0.50905753  0.88021624  1.0
  C  C202  1  0.85903345  0.99094272  0.88021623  1.0
  C  C203  1  0.64096969  0.49094353  0.11978452  1.0
  C  C204  1  0.18432297  0.06408327  0.11555810  1.0
  C  C205  1  0.31567670  0.56408335  0.88444243  1.0
  C  C206  1  0.81567708  0.93591647  0.88444203  1.0
  C  C207  1  0.68432472  0.43591683  0.11555823  1.0
  C  C208  1  0.14655657  0.10964722  0.14594469  1.0
  C  C209  1  0.35344240  0.60964645  0.85405554  1.0
  C  C210  1  0.85344280  0.89035384  0.85405553  1.0
  C  C211  1  0.64655628  0.39035285  0.14594476  1.0
  C  C212  1  0.06551015  0.10127920  0.18104238  1.0
  C  C213  1  0.43448881  0.60127888  0.81895717  1.0
  C  C214  1  0.93448921  0.89872186  0.81895715  1.0
  C  C215  1  0.56550986  0.39871998  0.18104278  1.0
  C  C216  1  0.02288978  0.04616000  0.18548975  1.0
  C  C217  1  0.47710783  0.54615967  0.81450966  1.0
  C  C218  1  0.97710821  0.95384018  0.81450959  1.0
  C  C219  1  0.52288948  0.45384007  0.18549012  1.0
  C  C220  1  0.06016139  0.00051144  0.15525694  1.0
  C  C221  1  0.43983694  0.50051109  0.84474276  1.0
  C  C222  1  0.93983729  0.99948918  0.84474232  1.0
  C  C223  1  0.56016242  0.49948865  0.15525711  1.0
  C  C224  1  0.74662017  0.34609440  0.27600121  1.0
  C  C225  1  0.75337962  0.84609425  0.72399902  1.0
  C  C226  1  0.25337988  0.65390622  0.72399927  1.0
  C  C227  1  0.24662111  0.15390592  0.27599999  1.0
  C  C228  1  0.75680333  0.39769311  0.30533968  1.0
  C  C229  1  0.74319643  0.89769345  0.69466051  1.0
  C  C230  1  0.24319672  0.60230707  0.69466150  1.0
  C  C231  1  0.25680224  0.10230673  0.30533909  1.0
  C  C232  1  0.80283900  0.39369255  0.34249058  1.0
  C  C233  1  0.69716145  0.89369338  0.65750919  1.0
  C  C234  1  0.19716174  0.60630675  0.65750982  1.0
  C  C235  1  0.30283791  0.10630723  0.34249068  1.0
  C  C236  1  0.80924401  0.44194134  0.37104880  1.0
  C  C237  1  0.69075641  0.94194133  0.62895058  1.0
  C  C238  1  0.19075536  0.55805840  0.62895107  1.0
  C  C239  1  0.30924363  0.05805884  0.37104886  1.0
  C  C240  1  0.76871369  0.49546911  0.36310054  1.0
  C  C241  1  0.73128671  0.99546908  0.63689915  1.0
  C  C242  1  0.23128704  0.50453194  0.63689951  1.0
  C  C243  1  0.26871265  0.00453154  0.36310002  1.0
  C  C244  1  0.72298605  0.49962049  0.32563518  1.0
  C  C245  1  0.77701503  0.99962083  0.67436443  1.0
  C  C246  1  0.27701400  0.50037925  0.67436461  1.0
  C  C247  1  0.22298501  0.00037978  0.32563536  1.0
  C  C248  1  0.71727813  0.45129453  0.29704568  1.0
  C  C249  1  0.78272160  0.95129484  0.70295413  1.0
  C  C250  1  0.28272123  0.54870477  0.70295454  1.0
  C  C251  1  0.21727707  0.04870533  0.29704548  1.0
  C  C252  1  0.83033895  0.56063015  0.41829753  1.0
  C  C253  1  0.66966233  0.06062996  0.58170134  1.0
  C  C254  1  0.16966178  0.43937003  0.58170183  1.0
  C  C255  1  0.33033976  0.93936978  0.41829785  1.0
  C  C256  1  0.86864516  0.61911633  0.47405237  1.0
  C  C257  1  0.63135473  0.11911666  0.52594801  1.0
  C  C258  1  0.13135557  0.38088297  0.52594698  1.0
  C  C259  1  0.36864532  0.88088308  0.47405247  1.0
  C  C260  1  0.88511179  0.68408140  0.54246741  1.0
  C  C261  1  0.61488943  0.18408137  0.45753172  1.0
  C  C262  1  0.11488894  0.31591834  0.45753229  1.0
  C  C263  1  0.38511198  0.81591837  0.54246720  1.0
  C  C264  1  0.83467929  0.72258907  0.57719984  1.0
  C  C265  1  0.66532123  0.22258994  0.42279970  1.0
  C  C266  1  0.16532144  0.27741023  0.42279987  1.0
  C  C267  1  0.33467949  0.77741023  0.57720000  1.0
  C  C268  1  0.87016648  0.74204981  0.61500054  1.0
  C  C269  1  0.62983472  0.24205075  0.38499890  1.0
  C  C270  1  0.12983425  0.25794992  0.38499916  1.0
  C  C271  1  0.37016738  0.75794987  0.61500064  1.0
  C  C272  1  0.95732064  0.72398932  0.61883865  1.0
  C  C273  1  0.54267988  0.22398941  0.38116053  1.0
  C  C274  1  0.04268008  0.27601086  0.38116105  1.0
  C  C275  1  0.45732153  0.77601077  0.61883874  1.0
  C  C276  1  0.00881913  0.68796368  0.58289402  1.0
  C  C277  1  0.49118253  0.18796270  0.41710513  1.0
  C  C278  1  0.99118228  0.31203650  0.41710525  1.0
  C  C279  1  0.50881888  0.81203704  0.58289449  1.0
  C  C280  1  0.97411325  0.66800473  0.54517291  1.0
  C  C281  1  0.52588798  0.16800474  0.45482658  1.0
  C  C282  1  0.02588747  0.33199501  0.45482680  1.0
  C  C283  1  0.47411344  0.83199588  0.54517304  1.0
  C  C284  1  0.99621490  0.73813473  0.66006097  1.0
  C  C285  1  0.50378562  0.23813488  0.33993785  1.0
  C  C286  1  0.00378583  0.26186633  0.33993803  1.0
  C  C287  1  0.49621511  0.76186618  0.66006150  1.0
  C  C288  1  0.96762035  0.55061936  0.43573416  1.0
  C  C289  1  0.53238025  0.05061968  0.56426514  1.0
  C  C290  1  0.03237970  0.44938038  0.56426563  1.0
  C  C291  1  0.46762048  0.94938006  0.43573421  1.0
  C  C292  1  0.09783376  0.48286260  0.39896830  1.0
  C  C293  1  0.40216708  0.98286299  0.60103142  1.0
  C  C294  1  0.90216561  0.51713714  0.60103157  1.0
  C  C295  1  0.59783433  0.01713675  0.39896819  1.0
  C  C296  1  0.18211451  0.46357630  0.40681741  1.0
  C  C297  1  0.31788633  0.96357673  0.59318198  1.0
  C  C298  1  0.81788621  0.53642388  0.59318194  1.0
  C  C299  1  0.68211439  0.03642389  0.40681772  1.0
  C  C300  1  0.23117428  0.41997425  0.37836383  1.0
  C  C301  1  0.26882590  0.91997466  0.62163568  1.0
  C  C302  1  0.76882645  0.58002549  0.62163587  1.0
  C  C303  1  0.73117414  0.08002508  0.37836376  1.0
  C  C304  1  0.19775188  0.39494477  0.34115522  1.0
  C  C305  1  0.30224832  0.89494468  0.65884465  1.0
  C  C306  1  0.80224817  0.60505629  0.65884456  1.0
  C  C307  1  0.69775241  0.10505549  0.34115470  1.0
  C  C308  1  0.11532887  0.41553053  0.33260486  1.0
  C  C309  1  0.38467132  0.91553085  0.66739534  1.0
  C  C310  1  0.88467117  0.58446965  0.66739527  1.0
  C  C311  1  0.61532941  0.08446889  0.33260436  1.0
  C  C312  1  0.06504940  0.45893617  0.36102380  1.0
  C  C313  1  0.43495145  0.95893606  0.63897595  1.0
  C  C314  1  0.93495064  0.54106445  0.63897599  1.0
  C  C315  1  0.56504928  0.04106368  0.36102375  1.0
  C  C316  1  0.24730121  0.34592041  0.31246205  1.0
  C  C317  1  0.25269969  0.84592075  0.68753708  1.0
  C  C318  1  0.75269814  0.65407977  0.68753713  1.0
  C  C319  1  0.74730104  0.15407987  0.31246193  1.0
  N  N320  1  0.48660215  0.97985796  0.07222543  1.0
  N  N321  1  0.01339937  0.47985829  0.92777422  1.0
  N  N322  1  0.51339722  0.02014178  0.92777549  1.0
  N  N323  1  0.98660067  0.52014101  0.07222592  1.0
  N  N324  1  0.32853291  0.97603632  0.08037841  1.0
  N  N325  1  0.17146862  0.47603617  0.91962228  1.0
  N  N326  1  0.67146781  0.02396342  0.91962164  1.0
  N  N327  1  0.82853143  0.52396313  0.08037820  1.0
  N  N328  1  0.27002021  0.90308334  0.03531470  1.0
  N  N329  1  0.22997863  0.40308531  0.96468743  1.0
  N  N330  1  0.72997848  0.09691464  0.96468665  1.0
  N  N331  1  0.77002142  0.59691531  0.03531410  1.0
  N  N332  1  0.43190351  0.91351144  0.02604548  1.0
  N  N333  1  0.06809873  0.41351170  0.97395517  1.0
  N  N334  1  0.56809722  0.08648830  0.97395527  1.0
  N  N335  1  0.93190268  0.58648716  0.02604445  1.0
  N  N336  1  0.36724206  0.84549661  0.98171123  1.0
  N  N337  1  0.13275748  0.34549710  0.01828945  1.0
  N  N338  1  0.63275731  0.15450269  0.01828933  1.0
  N  N339  1  0.86724257  0.65450308  0.98171138  1.0
  N  N340  1  0.17247064  0.96239202  0.08839047  1.0
  N  N341  1  0.32752953  0.46239313  0.91161005  1.0
  N  N342  1  0.82752940  0.03760729  0.91161001  1.0
  N  N343  1  0.67247052  0.53760792  0.08839008  1.0
  N  N344  1  0.76796904  0.54466795  0.39257293  1.0
  N  N345  1  0.73203157  0.04466771  0.60742638  1.0
  N  N346  1  0.23203169  0.45533267  0.60742677  1.0
  N  N347  1  0.26796848  0.95533291  0.39257271  1.0
  N  N348  1  0.80536149  0.60531815  0.44915208  1.0
  N  N349  1  0.69463977  0.10531754  0.55084745  1.0
  N  N350  1  0.19463924  0.39468159  0.55084728  1.0
  N  N351  1  0.30536164  0.89468132  0.44915182  1.0
  N  N352  1  0.95062368  0.59381587  0.46879967  1.0
  N  N353  1  0.54937485  0.09381666  0.53119985  1.0
  N  N354  1  0.04937637  0.40618387  0.53119976  1.0
  N  N355  1  0.45062451  0.90618308  0.46880036  1.0
  N  N356  1  0.91003963  0.53127436  0.41000476  1.0
  N  N357  1  0.58996166  0.03127374  0.58999448  1.0
  N  N358  1  0.08996110  0.46872626  0.58999495  1.0
  N  N359  1  0.41003975  0.96872600  0.41000479  1.0
  N  N360  1  0.05238401  0.52614504  0.43004553  1.0
  N  N361  1  0.44761635  0.02614521  0.56995390  1.0
  N  N362  1  0.94761535  0.47385513  0.56995434  1.0
  N  N363  1  0.55238438  0.97385453  0.43004580  1.0
  N  N364  1  0.84276645  0.66285297  0.50734421  1.0
  N  N365  1  0.65723274  0.16285289  0.49265553  1.0
  N  N366  1  0.15723360  0.33714633  0.49265523  1.0
  N  N367  1  0.34276731  0.83714642  0.50734390  1.0
  O  O368  1  0.46455314  0.17424833  0.23643629  1.0
  O  O369  1  0.03544852  0.67424909  0.76356321  1.0
  O  O370  1  0.53544690  0.82575140  0.76356314  1.0
  O  O371  1  0.96455153  0.32575108  0.23643796  1.0
  O  O372  1  0.65456635  0.73715484  0.80164359  1.0
  O  O373  1  0.84543417  0.23715329  0.19835698  1.0
  O  O374  1  0.34543301  0.26284577  0.19835628  1.0
  O  O375  1  0.15456519  0.76284557  0.80164359  1.0
  O  O376  1  0.77350352  0.29470960  0.28686908  1.0
  O  O377  1  0.72649765  0.79470992  0.71313067  1.0
  O  O378  1  0.22649652  0.70529014  0.71313036  1.0
  O  O379  1  0.27350239  0.20529114  0.28686877  1.0
  O  O380  1  0.31817263  0.32511456  0.32331021  1.0
  O  O381  1  0.18182829  0.82511494  0.67668962  1.0
  O  O382  1  0.68182810  0.67488649  0.67668949  1.0
  O  O383  1  0.81817176  0.17488568  0.32331016  1.0
  O  O384  1  0.07929791  0.72574047  0.65823234  1.0
  O  O385  1  0.42070237  0.22574004  0.34176765  1.0
  O  O386  1  0.92070282  0.27426102  0.34176701  1.0
  O  O387  1  0.57929837  0.77426058  0.65823275  1.0
  O  O388  1  0.94589781  0.13985114  0.24246565  1.0
  O  O389  1  0.55410275  0.63985190  0.75753394  1.0
  O  O390  1  0.05410293  0.86014904  0.75753475  1.0
  O  O391  1  0.44589729  0.36014784  0.24246584  1.0
  O  O392  1  0.05580793  0.20186545  0.20910553  1.0
  O  O393  1  0.44419099  0.70186516  0.79089534  1.0
  O  O394  1  0.94419144  0.79813560  0.79089574  1.0
  O  O395  1  0.55580837  0.29813545  0.20910418  1.0
  O  O396  1  0.61505845  0.17259638  0.20296184  1.0
  O  O397  1  0.88494415  0.67259699  0.79703852  1.0
  O  O398  1  0.38494159  0.82740379  0.79703795  1.0
  O  O399  1  0.11505727  0.32740275  0.20296214  1.0
  O  O400  1  0.94788851  0.76243207  0.69885629  1.0
  O  O401  1  0.55211267  0.26243313  0.30114278  1.0
  O  O402  1  0.05211221  0.23756811  0.30114271  1.0
  O  O403  1  0.44788874  0.73756837  0.69885649  1.0
  O  O404  1  0.70737224  0.35081922  0.24142009  1.0
  O  O405  1  0.79262549  0.85081902  0.75858073  1.0
  O  O406  1  0.29262644  0.64918140  0.75858091  1.0
  O  O407  1  0.20737387  0.14918072  0.24141879  1.0
  O  O408  1  0.21565760  0.32574023  0.27776553  1.0
  O  O409  1  0.28434330  0.82574007  0.72223361  1.0
  O  O410  1  0.78434107  0.67426039  0.72223442  1.0
  O  O411  1  0.71565742  0.17426010  0.27776540  1.0
  O  O412  1  0.74872466  0.76244385  0.84721764  1.0
  O  O413  1  0.75127585  0.26244283  0.15278291  1.0
  O  O414  1  0.25127470  0.23755720  0.15278258  1.0
  O  O415  1  0.24872557  0.73755735  0.84721740  1.0
