# generated using pymatgen
data_AlH11C25BrNO8
_symmetry_space_group_name_H-M   'P 1'
_cell_length_a   6.59570562
_cell_length_b   26.16911984
_cell_length_c   30.09504822
_cell_angle_alpha   67.85105268
_cell_angle_beta   89.99006446
_cell_angle_gamma   89.99486328
_symmetry_Int_Tables_number   1
_chemical_formula_structural   AlH11C25BrNO8
_chemical_formula_sum   'Al4 H44 C100 Br4 N4 O32'
_cell_volume   4811.20013543
_cell_formula_units_Z   4
loop_
 _symmetry_equiv_pos_site_id
 _symmetry_equiv_pos_as_xyz
  1  'x, y, z'
loop_
 _atom_site_type_symbol
 _atom_site_label
 _atom_site_symmetry_multiplicity
 _atom_site_fract_x
 _atom_site_fract_y
 _atom_site_fract_z
 _atom_site_occupancy
  Al  Al0  1  0.81196702  0.75115367  0.24881055  1.0
  Al  Al1  1  0.18804748  0.24884349  0.75119365  1.0
  Al  Al2  1  0.31196145  0.74879607  0.25121375  1.0
  Al  Al3  1  0.68805759  0.25119819  0.74879008  1.0
  H  H4  1  0.87362874  0.90357003  0.94407002  1.0
  H  H5  1  0.12636604  0.09643136  0.05593850  1.0
  H  H6  1  0.37534799  0.59653653  0.55594982  1.0
  H  H7  1  0.62464679  0.40346000  0.44405582  1.0
  H  H8  1  0.97381456  0.87470417  0.09420909  1.0
  H  H9  1  0.02622268  0.12529485  0.90579260  1.0
  H  H10  1  0.47473572  0.62529602  0.40579982  1.0
  H  H11  1  0.52525906  0.37469933  0.59420941  1.0
  H  H12  1  0.17608727  0.93483567  0.20084345  1.0
  H  H13  1  0.82390599  0.06516040  0.79916326  1.0
  H  H14  1  0.67484391  0.56500392  0.29908568  1.0
  H  H15  1  0.32519029  0.43499432  0.70092391  1.0
  H  H16  1  0.94872892  0.88647597  0.02764980  1.0
  H  H17  1  0.05125070  0.11352657  0.97235873  1.0
  H  H18  1  0.45002076  0.61356239  0.47236248  1.0
  H  H19  1  0.54998009  0.38643179  0.52764243  1.0
  H  H20  1  0.40193236  0.53518338  0.91383589  1.0
  H  H21  1  0.59805788  0.46482273  0.08616008  1.0
  H  H22  1  0.90193620  0.96481893  0.58611232  1.0
  H  H23  1  0.09812681  0.03522844  0.41384785  1.0
  H  H24  1  0.65457035  0.42175571  0.86773197  1.0
  H  H25  1  0.34543808  0.57825455  0.13226149  1.0
  H  H26  1  0.15465181  0.07826936  0.63227485  1.0
  H  H27  1  0.84546427  0.92169070  0.36775653  1.0
  H  H28  1  0.63893905  0.36616171  0.81599861  1.0
  H  H29  1  0.36110273  0.63384419  0.18399520  1.0
  H  H30  1  0.13894453  0.13382982  0.68403812  1.0
  H  H31  1  0.86115487  0.86610556  0.31600863  1.0
  H  H32  1  0.24520847  0.30763870  0.85850264  1.0
  H  H33  1  0.75481815  0.69236612  0.14149979  1.0
  H  H34  1  0.74518309  0.19240221  0.64147274  1.0
  H  H35  1  0.25474195  0.80765517  0.35848639  1.0
  H  H36  1  0.25655697  0.35950937  0.91328682  1.0
  H  H37  1  0.74344084  0.64049594  0.08671274  1.0
  H  H38  1  0.75657666  0.14054280  0.58667824  1.0
  H  H39  1  0.24326499  0.85955773  0.41324511  1.0
  H  H40  1  0.77284666  0.97945331  0.81090348  1.0
  H  H41  1  0.22714054  0.02053735  0.18910860  1.0
  H  H42  1  0.27514471  0.52078769  0.68914958  1.0
  H  H43  1  0.72487282  0.47920997  0.31085786  1.0
  H  H44  1  0.55559246  0.78754916  0.18826668  1.0
  H  H45  1  0.44441143  0.21244160  0.81173643  1.0
  H  H46  1  0.05548414  0.71236486  0.31173901  1.0
  H  H47  1  0.94453490  0.28761654  0.68826191  1.0
  C  C48  1  0.56331822  0.80134798  0.30272031  1.0
  C  C49  1  0.43666292  0.19865930  0.69727997  1.0
  C  C50  1  0.06323510  0.69860930  0.19729548  1.0
  C  C51  1  0.93680820  0.30139102  0.80270586  1.0
  C  C52  1  0.56491051  0.65810476  0.31250716  1.0
  C  C53  1  0.43511307  0.34189379  0.68749560  1.0
  C  C54  1  0.06507384  0.84182471  0.18747431  1.0
  C  C55  1  0.93493156  0.15817227  0.81252594  1.0
  C  C56  1  0.92704091  0.10079916  0.84945936  1.0
  C  C57  1  0.07296752  0.89919863  0.15054340  1.0
  C  C58  1  0.42722375  0.39928091  0.65058101  1.0
  C  C59  1  0.57279529  0.60071850  0.34942679  1.0
  C  C60  1  0.86300892  0.00317653  0.86977587  1.0
  C  C61  1  0.13700860  0.99682252  0.13023014  1.0
  C  C62  1  0.36417000  0.49694818  0.63026799  1.0
  C  C63  1  0.63583994  0.50304948  0.36973945  1.0
  C  C64  1  0.86594951  0.05707861  0.83631083  1.0
  C  C65  1  0.13404679  0.94291938  0.16369410  1.0
  C  C66  1  0.36689219  0.44304055  0.66375440  1.0
  C  C67  1  0.63313595  0.55695817  0.33625412  1.0
  C  C68  1  0.97753507  0.09068607  0.89667513  1.0
  C  C69  1  0.02248094  0.90931414  0.10332908  1.0
  C  C70  1  0.47723288  0.40935282  0.60334458  1.0
  C  C71  1  0.52275887  0.59064201  0.39666321  1.0
  C  C72  1  0.96441897  0.03717673  0.93269173  1.0
  C  C73  1  0.03559400  0.96282574  0.06731608  1.0
  C  C74  1  0.46450185  0.46286545  0.56731904  1.0
  C  C75  1  0.53548990  0.53712826  0.43268695  1.0
  C  C76  1  0.91142454  0.99208583  0.91899719  1.0
  C  C77  1  0.08857783  0.00791480  0.08101133  1.0
  C  C78  1  0.41215833  0.50799311  0.58102111  1.0
  C  C79  1  0.58783797  0.49200118  0.41898703  1.0
  C  C80  1  0.00418205  0.02730848  0.98261738  1.0
  C  C81  1  0.99580667  0.97269556  0.01738684  1.0
  C  C82  1  0.50402911  0.47269093  0.51738806  1.0
  C  C83  1  0.49596264  0.52730233  0.48261721  1.0
  C  C84  1  0.95036696  0.92887588  0.00182010  1.0
  C  C85  1  0.04960963  0.07112584  0.99818591  1.0
  C  C86  1  0.45115574  0.57115690  0.49818741  1.0
  C  C87  1  0.54883904  0.42883629  0.50181714  1.0
  C  C88  1  0.90876700  0.93781644  0.95486590  1.0
  C  C89  1  0.09122626  0.06218337  0.04514010  1.0
  C  C90  1  0.40984748  0.56225383  0.54515215  1.0
  C  C91  1  0.59014276  0.43773886  0.45485527  1.0
  C  C92  1  0.87212293  0.53751752  0.08416418  1.0
  C  C93  1  0.12789156  0.46248666  0.91583358  1.0
  C  C94  1  0.37208530  0.96249865  0.41583779  1.0
  C  C95  1  0.62796103  0.03755480  0.58412420  1.0
  C  C96  1  0.18363125  0.58579317  0.04027446  1.0
  C  C97  1  0.81639234  0.41420801  0.95972580  1.0
  C  C98  1  0.68340279  0.91416011  0.45974402  1.0
  C  C99  1  0.31642673  0.08583034  0.54026591  1.0
  C  C100  1  0.17178517  0.55381195  0.00864042  1.0
  C  C101  1  0.82822477  0.44618952  0.99136092  1.0
  C  C102  1  0.67170779  0.94616642  0.49135333  1.0
  C  C103  1  0.32824151  0.05383709  0.50864335  1.0
  C  C104  1  0.01026933  0.51547704  0.01497591  1.0
  C  C105  1  0.98972545  0.48452901  0.98501934  1.0
  C  C106  1  0.51024680  0.98452612  0.48501581  1.0
  C  C107  1  0.48974040  0.01548939  0.51496653  1.0
  C  C108  1  0.86414889  0.50710644  0.05150760  1.0
  C  C109  1  0.13585196  0.49289691  0.94848944  1.0
  C  C110  1  0.36413838  0.99290418  0.44848979  1.0
  C  C111  1  0.63584276  0.00711341  0.55149041  1.0
  C  C112  1  0.31238079  0.56032451  0.97196042  1.0
  C  C113  1  0.68763522  0.43967710  0.02804236  1.0
  C  C114  1  0.81227570  0.93965730  0.52802814  1.0
  C  C115  1  0.18765995  0.06034433  0.47197284  1.0
  C  C116  1  0.29270294  0.52996332  0.94235550  1.0
  C  C117  1  0.70730093  0.47003830  0.05764548  1.0
  C  C118  1  0.79265828  0.97003547  0.55761917  1.0
  C  C119  1  0.20732286  0.02998029  0.44236785  1.0
  C  C120  1  0.78264135  0.39628139  0.86593665  1.0
  C  C121  1  0.21736860  0.60372648  0.13405968  1.0
  C  C122  1  0.28268836  0.10374256  0.63407135  1.0
  C  C123  1  0.71736555  0.89623948  0.36594035  1.0
  C  C124  1  0.77420259  0.36548689  0.83701152  1.0
  C  C125  1  0.22582100  0.63452412  0.16298374  1.0
  C  C126  1  0.27422976  0.13453595  0.66300271  1.0
  C  C127  1  0.72582264  0.86544250  0.33701544  1.0
  C  C128  1  0.94141767  0.33376228  0.83420916  1.0
  C  C129  1  0.05861199  0.66624487  0.16578968  1.0
  C  C130  1  0.44140347  0.16626673  0.66579645  1.0
  C  C131  1  0.55860799  0.83373624  0.33420670  1.0
  C  C132  1  0.11596551  0.33217694  0.86129839  1.0
  C  C133  1  0.88405656  0.66782684  0.13870116  1.0
  C  C134  1  0.61594574  0.16785584  0.63868915  1.0
  C  C135  1  0.38402327  0.83218483  0.36128286  1.0
  C  C136  1  0.12274880  0.36128747  0.89152298  1.0
  C  C137  1  0.87724750  0.63871460  0.10847872  1.0
  C  C138  1  0.62280921  0.13874569  0.60846525  1.0
  C  C139  1  0.37714009  0.86130881  0.39149782  1.0
  C  C140  1  0.95657609  0.39357751  0.89321991  1.0
  C  C141  1  0.04343234  0.60642667  0.10677784  1.0
  C  C142  1  0.45663756  0.10645335  0.60676973  1.0
  C  C143  1  0.54336026  0.89356671  0.39321443  1.0
  C  C144  1  0.80758776  0.96095701  0.85019918  1.0
  C  C145  1  0.19240551  0.03903719  0.14981004  1.0
  C  C146  1  0.30956075  0.53923451  0.64983159  1.0
  C  C147  1  0.69045071  0.46076333  0.35017369  1.0
  Br  Br148  1  0.53811797  0.60854754  0.95740920  1.0
  Br  Br149  1  0.46188136  0.39145460  0.04258711  1.0
  Br  Br150  1  0.03806649  0.89143778  0.54257808  1.0
  Br  Br151  1  0.96190403  0.10857005  0.45741394  1.0
  N  N152  1  0.03302462  0.57509609  0.07636157  1.0
  N  N153  1  0.96698533  0.42490430  0.92364049  1.0
  N  N154  1  0.53292715  0.92490188  0.42363097  1.0
  N  N155  1  0.46703883  0.07512682  0.57634568  1.0
  O  O156  1  0.39105352  0.67963993  0.30020651  1.0
  O  O157  1  0.60898068  0.32037239  0.69981283  1.0
  O  O158  1  0.89127201  0.82020681  0.19968172  1.0
  O  O159  1  0.10871974  0.17980469  0.80033690  1.0
  O  O160  1  0.73570010  0.79104066  0.28884001  1.0
  O  O161  1  0.26427952  0.20893355  0.71118172  1.0
  O  O162  1  0.23558205  0.70909309  0.21104238  1.0
  O  O163  1  0.76445064  0.29088121  0.78897828  1.0
  O  O164  1  0.73398784  0.68076459  0.29645706  1.0
  O  O165  1  0.26604637  0.31922075  0.70353309  1.0
  O  O166  1  0.23412404  0.81926860  0.20367370  1.0
  O  O167  1  0.76587379  0.18071232  0.79630997  1.0
  O  O168  1  0.89228155  0.71408610  0.20750138  1.0
  O  O169  1  0.10777842  0.28593969  0.79248280  1.0
  O  O170  1  0.39248795  0.78567249  0.29266097  1.0
  O  O171  1  0.60749167  0.21435300  0.70732213  1.0
  O  O172  1  0.56002989  0.76047758  0.22079675  1.0
  O  O173  1  0.43998612  0.23951319  0.77920635  1.0
  O  O174  1  0.06001314  0.73947516  0.27922604  1.0
  O  O175  1  0.94001349  0.26051476  0.72077814  1.0
  O  O176  1  0.74661444  0.53039844  0.11614031  1.0
  O  O177  1  0.25338337  0.46960689  0.88385745  1.0
  O  O178  1  0.24660926  0.96963639  0.38385967  1.0
  O  O179  1  0.75357655  0.03045412  0.61606650  1.0
  O  O180  1  0.31456096  0.62054544  0.03619202  1.0
  O  O181  1  0.68546111  0.37945596  0.96380860  1.0
  O  O182  1  0.81424189  0.87935989  0.46386037  1.0
  O  O183  1  0.18549061  0.12058103  0.53618856  1.0
  O  O184  1  0.79822052  0.91083956  0.87179704  1.0
  O  O185  1  0.20179397  0.08915159  0.12821828  1.0
  O  O186  1  0.30067066  0.58934899  0.62821629  1.0
  O  O187  1  0.69932564  0.41064719  0.37178755  1.0
