# generated using pymatgen
data_NiH12C14N2O5
_symmetry_space_group_name_H-M   'P 1'
_cell_length_a   10.00341905
_cell_length_b   16.30049116
_cell_length_c   16.42863877
_cell_angle_alpha   90.00006972
_cell_angle_beta   90.00001086
_cell_angle_gamma   89.99992931
_symmetry_Int_Tables_number   1
_chemical_formula_structural   NiH12C14N2O5
_chemical_formula_sum   'Ni4 H48 C56 N8 O20'
_cell_volume   2678.86441450
_cell_formula_units_Z   4
loop_
 _symmetry_equiv_pos_site_id
 _symmetry_equiv_pos_as_xyz
  1  'x, y, z'
loop_
 _atom_site_type_symbol
 _atom_site_label
 _atom_site_symmetry_multiplicity
 _atom_site_fract_x
 _atom_site_fract_y
 _atom_site_fract_z
 _atom_site_occupancy
  Ni  Ni0  1  0.30744675  0.21216929  0.54873764  1.0
  Ni  Ni1  1  0.19255338  0.78783082  0.04873794  1.0
  Ni  Ni2  1  0.69254964  0.71216905  0.95126248  1.0
  Ni  Ni3  1  0.80744671  0.28783056  0.45126402  1.0
  H  H4  1  0.42347901  0.24678706  0.29662487  1.0
  H  H5  1  0.07652420  0.75321273  0.79662519  1.0
  H  H6  1  0.57652416  0.74678722  0.20337400  1.0
  H  H7  1  0.92347911  0.25321208  0.70337498  1.0
  H  H8  1  0.39507163  0.34435165  0.34029501  1.0
  H  H9  1  0.10492959  0.65564882  0.84029765  1.0
  H  H10  1  0.60492935  0.84435173  0.15970154  1.0
  H  H11  1  0.89507192  0.15564875  0.65970422  1.0
  H  H12  1  0.18632808  0.26447499  0.33712366  1.0
  H  H13  1  0.31367414  0.73552547  0.83712642  1.0
  H  H14  1  0.81367306  0.76447430  0.16287219  1.0
  H  H15  1  0.68632721  0.23552372  0.66287616  1.0
  H  H16  1  0.13547647  0.28223897  0.47350685  1.0
  H  H17  1  0.36452380  0.71776043  0.97350838  1.0
  H  H18  1  0.86452263  0.78223992  0.02649024  1.0
  H  H19  1  0.63547659  0.21776101  0.52649358  1.0
  H  H20  1  0.77782455  0.62675186  0.79949636  1.0
  H  H21  1  0.72217576  0.37324756  0.29949617  1.0
  H  H22  1  0.22217502  0.12675174  0.70050244  1.0
  H  H23  1  0.27782616  0.87324794  0.20050163  1.0
  H  H24  1  0.69240785  0.51505889  0.70806936  1.0
  H  H25  1  0.80759043  0.48494042  0.20806931  1.0
  H  H26  1  0.30759094  0.01505881  0.79192991  1.0
  H  H27  1  0.19241127  0.98494159  0.29192924  1.0
  H  H28  1  0.35019790  0.49670016  0.86776789  1.0
  H  H29  1  0.14980033  0.50329973  0.36776663  1.0
  H  H30  1  0.64980092  0.99669894  0.63223196  1.0
  H  H31  1  0.85020033  0.00330027  0.13223134  1.0
  H  H32  1  0.45538884  0.60283869  0.95487013  1.0
  H  H33  1  0.04461242  0.39716191  0.45486933  1.0
  H  H34  1  0.54461078  0.10283691  0.54512925  1.0
  H  H35  1  0.95538845  0.89716159  0.04512850  1.0
  H  H36  1  0.36119627  0.36318390  0.81981436  1.0
  H  H37  1  0.13880095  0.63681654  0.31981569  1.0
  H  H38  1  0.63880483  0.86318214  0.68018777  1.0
  H  H39  1  0.86119644  0.13681591  0.18018487  1.0
  H  H40  1  0.28180550  0.25528712  0.72485572  1.0
  H  H41  1  0.21819568  0.74471197  0.22485719  1.0
  H  H42  1  0.71819281  0.75528665  0.77514689  1.0
  H  H43  1  0.78180649  0.24471213  0.27514350  1.0
  H  H44  1  0.44701087  0.37408827  0.52613331  1.0
  H  H45  1  0.05299126  0.62591181  0.02613340  1.0
  H  H46  1  0.55298920  0.87408939  0.97386883  1.0
  H  H47  1  0.94701216  0.12591148  0.47386593  1.0
  H  H48  1  0.53303936  0.48701433  0.61175460  1.0
  H  H49  1  0.96696089  0.51298670  0.11175460  1.0
  H  H50  1  0.46695949  0.98701419  0.88824707  1.0
  H  H51  1  0.03304175  0.01298634  0.38824520  1.0
  C  C52  1  0.51386610  0.26433933  0.41260528  1.0
  C  C53  1  0.98613524  0.73566084  0.91260563  1.0
  C  C54  1  0.48613503  0.76433941  0.08739239  1.0
  C  C55  1  0.01386811  0.23566074  0.58739330  1.0
  C  C56  1  0.39833558  0.27825733  0.35380431  1.0
  C  C57  1  0.10166565  0.72174315  0.85380581  1.0
  C  C58  1  0.60166453  0.77825678  0.14619278  1.0
  C  C59  1  0.89833673  0.22174307  0.64619554  1.0
  C  C60  1  0.26257203  0.24845400  0.38287303  1.0
  C  C61  1  0.23742720  0.75154652  0.88287520  1.0
  C  C62  1  0.73742814  0.74845393  0.11712341  1.0
  C  C63  1  0.76257211  0.25154527  0.61712741  1.0
  C  C64  1  0.26067378  0.15385317  0.39265163  1.0
  C  C65  1  0.23932546  0.84614674  0.89265817  1.0
  C  C66  1  0.73932858  0.65385309  0.10734104  1.0
  C  C67  1  0.76067367  0.34614671  0.60734881  1.0
  C  C68  1  0.68186839  0.59722457  0.81075169  1.0
  C  C69  1  0.81812992  0.40277547  0.31075154  1.0
  C  C70  1  0.31812924  0.09722437  0.68924708  1.0
  C  C71  1  0.18187194  0.90277591  0.18924691  1.0
  C  C72  1  0.63286320  0.53659203  0.75948994  1.0
  C  C73  1  0.86713610  0.46340795  0.25948988  1.0
  C  C74  1  0.36713655  0.03659062  0.74051118  1.0
  C  C75  1  0.13286764  0.96340972  0.24050865  1.0
  C  C76  1  0.51015919  0.49911960  0.77786393  1.0
  C  C77  1  0.98983711  0.50088041  0.27786392  1.0
  C  C78  1  0.48983963  0.99911923  0.72213593  1.0
  C  C79  1  0.01016256  0.00088047  0.22213466  1.0
  C  C80  1  0.44550228  0.52350850  0.84963860  1.0
  C  C81  1  0.05449794  0.47648952  0.34963790  1.0
  C  C82  1  0.55449749  0.02350868  0.65036190  1.0
  C  C83  1  0.94550377  0.97648994  0.15036125  1.0
  C  C84  1  0.50235779  0.58388583  0.89822940  1.0
  C  C85  1  0.99763855  0.41611371  0.39822929  1.0
  C  C86  1  0.49763986  0.08388477  0.60176996  1.0
  C  C87  1  0.00236029  0.91611417  0.10176918  1.0
  C  C88  1  0.45478718  0.43535525  0.72409315  1.0
  C  C89  1  0.04521001  0.56464630  0.22409377  1.0
  C  C90  1  0.54521277  0.93535429  0.77590846  1.0
  C  C91  1  0.95478953  0.06464449  0.27590549  1.0
  C  C92  1  0.38117142  0.36898184  0.75486924  1.0
  C  C93  1  0.11882678  0.63101975  0.25486995  1.0
  C  C94  1  0.61882966  0.86898079  0.74513290  1.0
  C  C95  1  0.88117263  0.13101857  0.24512939  1.0
  C  C96  1  0.33805522  0.30776281  0.70238828  1.0
  C  C97  1  0.16194397  0.69223810  0.20238968  1.0
  C  C98  1  0.66194299  0.80776240  0.79761500  1.0
  C  C99  1  0.83805532  0.19223702  0.29761155  1.0
  C  C100  1  0.42933392  0.37402390  0.59140530  1.0
  C  C101  1  0.07066422  0.62597749  0.09140601  1.0
  C  C102  1  0.57066415  0.87402431  0.90859745  1.0
  C  C103  1  0.92933619  0.12597647  0.40859393  1.0
  C  C104  1  0.47672566  0.43739010  0.63987558  1.0
  C  C105  1  0.02327050  0.56261135  0.13987559  1.0
  C  C106  1  0.52327228  0.93739110  0.86012481  1.0
  C  C107  1  0.97672904  0.06260962  0.36012366  1.0
  N  N108  1  0.61729745  0.62211530  0.87850168  1.0
  N  N109  1  0.88269988  0.37788544  0.37850212  1.0
  N  N110  1  0.38270113  0.12211435  0.62149772  1.0
  N  N111  1  0.11730003  0.87788462  0.12149691  1.0
  N  N112  1  0.36299567  0.30889216  0.62177418  1.0
  N  N113  1  0.13700248  0.69110865  0.12177497  1.0
  N  N114  1  0.63700153  0.80889249  0.87822971  1.0
  N  N115  1  0.86299680  0.19110764  0.37822566  1.0
  O  O116  1  0.49495962  0.22815642  0.48114776  1.0
  O  O117  1  0.00503765  0.77184605  0.98114627  1.0
  O  O118  1  0.50503460  0.72815641  0.01885230  1.0
  O  O119  1  0.99496362  0.27184328  0.51885210  1.0
  O  O120  1  0.62658254  0.29066425  0.38898314  1.0
  O  O121  1  0.87341880  0.70933528  0.88898101  1.0
  O  O122  1  0.37341655  0.79066629  0.11101944  1.0
  O  O123  1  0.12658460  0.20933451  0.61101789  1.0
  O  O124  1  0.23280218  0.29060064  0.45800649  1.0
  O  O125  1  0.26719808  0.70939874  0.95800800  1.0
  O  O126  1  0.76719790  0.79060107  0.04199061  1.0
  O  O127  1  0.73280032  0.20939865  0.54199334  1.0
  O  O128  1  0.26762144  0.11177771  0.32948021  1.0
  O  O129  1  0.23237678  0.88822396  0.82947828  1.0
  O  O130  1  0.73237801  0.61177649  0.17052276  1.0
  O  O131  1  0.76762226  0.38822094  0.67052023  1.0
  O  O132  1  0.25089016  0.12678287  0.46618175  1.0
  O  O133  1  0.24911010  0.87321713  0.96618162  1.0
  O  O134  1  0.74911025  0.62678208  0.03381881  1.0
  O  O135  1  0.75088997  0.37321702  0.53381869  1.0
