# generated using pymatgen
data_Zn4H10C26S4O13F2
_symmetry_space_group_name_H-M   'P 1'
_cell_length_a   19.65154123
_cell_length_b   19.65096301
_cell_length_c   33.32013068
_cell_angle_alpha   79.25032988
_cell_angle_beta   79.08036332
_cell_angle_gamma   63.90776775
_symmetry_Int_Tables_number   1
_chemical_formula_structural   Zn4H10C26S4O13F2
_chemical_formula_sum   'Zn16 H40 C104 S16 O52 F8'
_cell_volume   11268.74192507
_cell_formula_units_Z   4
loop_
 _symmetry_equiv_pos_site_id
 _symmetry_equiv_pos_as_xyz
  1  'x, y, z'
loop_
 _atom_site_type_symbol
 _atom_site_label
 _atom_site_symmetry_multiplicity
 _atom_site_fract_x
 _atom_site_fract_y
 _atom_site_fract_z
 _atom_site_occupancy
  Zn  Zn0  1  0.59784425  0.94382038  0.52453723  1.0
  Zn  Zn1  1  0.52022709  0.00977911  0.44002477  1.0
  Zn  Zn2  1  0.43559062  0.94491240  0.51743511  1.0
  Zn  Zn3  1  0.44922506  0.10080757  0.51946750  1.0
  Zn  Zn4  1  0.65148182  0.30267377  0.72752119  1.0
  Zn  Zn5  1  0.80645254  0.31614934  0.73381734  1.0
  Zn  Zn6  1  0.73336567  0.23264121  0.80917753  1.0
  Zn  Zn7  1  0.81072741  0.15348037  0.72703554  1.0
  Zn  Zn8  1  0.23979592  0.72915553  0.31052838  1.0
  Zn  Zn9  1  0.30020249  0.65110505  0.22663236  1.0
  Zn  Zn10  1  0.14991356  0.80671073  0.23004651  1.0
  Zn  Zn11  1  0.31115450  0.80803446  0.23254920  1.0
  Zn  Zn12  1  0.94003782  0.43864177  0.01468300  1.0
  Zn  Zn13  1  0.94340341  0.59943447  0.02172621  1.0
  Zn  Zn14  1  0.09704959  0.44434327  0.02156865  1.0
  Zn  Zn15  1  0.01595497  0.51947819  0.93952634  1.0
  H  H16  1  0.56436655  0.25160896  0.64676868  1.0
  H  H17  1  0.69645470  0.99349707  0.60406001  1.0
  H  H18  1  0.31039021  0.78909264  0.39822990  1.0
  H  H19  1  0.45127203  0.94939988  0.35256821  1.0
  H  H20  1  0.75209835  0.53698861  0.65892021  1.0
  H  H21  1  0.31118486  0.51391969  0.39505605  1.0
  H  H22  1  0.02709237  0.78942407  0.40371333  1.0
  H  H23  1  0.04918313  0.04961325  0.67069147  1.0
  H  H24  1  0.84915518  0.35601426  0.94964619  1.0
  H  H25  1  0.89265200  0.40421548  0.79881112  1.0
  H  H26  1  0.22817755  0.46753394  0.85185222  1.0
  H  H27  1  0.84600208  0.84088450  0.95875492  1.0
  H  H28  1  0.99175507  0.69842364  0.10094768  1.0
  H  H29  1  0.24101049  0.55625917  0.15293044  1.0
  H  H30  1  0.72335014  0.69056347  0.10161020  1.0
  H  H31  1  0.98355819  0.21833501  0.09616646  1.0
  H  H32  1  0.44057525  0.21698482  0.60309118  1.0
  H  H33  1  0.49247027  0.24823747  0.56096204  1.0
  H  H34  1  0.47032259  0.28836512  0.60813086  1.0
  H  H35  1  0.78885740  0.95593815  0.64629346  1.0
  H  H36  1  0.77068463  0.00504139  0.68973979  1.0
  H  H37  1  0.82227516  0.02758542  0.64428783  1.0
  H  H38  1  0.30387220  0.87213461  0.47976131  1.0
  H  H39  1  0.39588238  0.79773824  0.47953080  1.0
  H  H40  1  0.32096778  0.78222838  0.46566864  1.0
  H  H41  1  0.36579377  0.95311087  0.27251424  1.0
  H  H42  1  0.44730167  0.86651375  0.26985841  1.0
  H  H43  1  0.45292641  0.94577025  0.28549176  1.0
  H  H44  1  0.80690773  0.23575422  0.90917393  1.0
  H  H45  1  0.72280980  0.31972197  0.90525448  1.0
  H  H46  1  0.77357515  0.29751802  0.94844948  1.0
  H  H47  1  0.01920496  0.43992124  0.84279589  1.0
  H  H48  1  0.93534637  0.52441269  0.83974960  1.0
  H  H49  1  0.96715401  0.46384508  0.79997666  1.0
  H  H50  1  0.03106260  0.82092326  0.14249012  1.0
  H  H51  1  0.99379014  0.77643851  0.18580420  1.0
  H  H52  1  0.95616423  0.79564662  0.13817989  1.0
  H  H53  1  0.23831116  0.47772150  0.06833600  1.0
  H  H54  1  0.20271399  0.43304646  0.11230611  1.0
  H  H55  1  0.27713184  0.45980432  0.11544492  1.0
  C  C56  1  0.68763513  0.93302825  0.44284281  1.0
  C  C57  1  0.43051311  0.92705036  0.43278563  1.0
  C  C58  1  0.55437293  0.81635217  0.56054404  1.0
  C  C59  1  0.32005961  0.06969830  0.56394288  1.0
  C  C60  1  0.57169483  0.07146747  0.56905974  1.0
  C  C61  1  0.44329612  0.17688951  0.43374404  1.0
  C  C62  1  0.68768334  0.42897805  0.68287412  1.0
  C  C63  1  0.81184633  0.32498519  0.82029623  1.0
  C  C64  1  0.56619248  0.31798092  0.81048640  1.0
  C  C65  1  0.80674376  0.06535379  0.80842366  1.0
  C  C66  1  0.68962013  0.17479139  0.68062369  1.0
  C  C67  1  0.94130922  0.19362101  0.69592310  1.0
  C  C68  1  0.31630160  0.56153870  0.30845569  1.0
  C  C69  1  0.16812954  0.68588267  0.18305854  1.0
  C  C70  1  0.07197798  0.80696602  0.31593584  1.0
  C  C71  1  0.18866688  0.93364351  0.18902697  1.0
  C  C72  1  0.32572876  0.81632768  0.31807673  1.0
  C  C73  1  0.42971094  0.68578614  0.18549487  1.0
  C  C74  1  0.81402411  0.56014122  0.05863241  1.0
  C  C75  1  0.06641713  0.56865029  0.07017730  1.0
  C  C76  1  0.05945295  0.31533648  0.06027542  1.0
  C  C77  1  0.18311657  0.44447444  0.93845199  1.0
  C  C78  1  0.93237741  0.43280319  0.92809475  1.0
  C  C79  1  0.93425282  0.68664001  0.93927582  1.0
  C  C80  1  0.59986599  0.10099530  0.59767563  1.0
  C  C81  1  0.66196875  0.14481800  0.65213439  1.0
  C  C82  1  0.56047450  0.17580225  0.60929702  1.0
  C  C83  1  0.70150211  0.07018901  0.64052844  1.0
  C  C84  1  0.59321138  0.19487563  0.63669643  1.0
  C  C85  1  0.66835534  0.05068354  0.61354058  1.0
  C  C86  1  0.40328568  0.89595204  0.40453977  1.0
  C  C87  1  0.35530800  0.84533191  0.34622850  1.0
  C  C88  1  0.36325255  0.84954872  0.41870972  1.0
  C  C89  1  0.39617163  0.89106639  0.33207698  1.0
  C  C90  1  0.34085741  0.82539804  0.38865457  1.0
  C  C91  1  0.41924806  0.91455312  0.36216478  1.0
  C  C92  1  0.54439865  0.69031044  0.59272122  1.0
  C  C93  1  0.69778794  0.55162304  0.64831021  1.0
  C  C94  1  0.57953834  0.74004153  0.58371388  1.0
  C  C95  1  0.66132890  0.50338167  0.65742303  1.0
  C  C96  1  0.65483059  0.61965531  0.62465118  1.0
  C  C97  1  0.58642970  0.62139448  0.61612612  1.0
  C  C98  1  0.42390778  0.26811466  0.36570816  1.0
  C  C99  1  0.33625745  0.46950291  0.37469080  1.0
  C  C100  1  0.41883861  0.25087326  0.40820256  1.0
  C  C101  1  0.34215172  0.48548775  0.33229063  1.0
  C  C102  1  0.36662570  0.39007125  0.38662003  1.0
  C  C103  1  0.39463621  0.34728188  0.35282611  1.0
  C  C104  1  0.78056829  0.91756400  0.37608750  1.0
  C  C105  1  0.98219312  0.81909721  0.38383197  1.0
  C  C106  1  0.76310022  0.90726365  0.41849377  1.0
  C  C107  1  0.99736251  0.83065914  0.34145150  1.0
  C  C108  1  0.90270315  0.85071018  0.39640904  1.0
  C  C109  1  0.85961556  0.88569996  0.36300624  1.0
  C  C110  1  0.20093422  0.16628261  0.60364573  1.0
  C  C111  1  0.06457686  0.09755101  0.66126713  1.0
  C  C112  1  0.24775636  0.09476918  0.59123475  1.0
  C  C113  1  0.01770000  0.16971407  0.67231586  1.0
  C  C114  1  0.13164812  0.09659693  0.63655235  1.0
  C  C115  1  0.13434306  0.16845877  0.62944242  1.0
  C  C116  1  0.84011126  0.35288799  0.84956787  1.0
  C  C117  1  0.90206448  0.40700182  0.89887552  1.0
  C  C118  1  0.82615056  0.33823068  0.89287834  1.0
  C  C119  1  0.91551684  0.42216127  0.85557366  1.0
  C  C120  1  0.85819844  0.36616890  0.91617922  1.0
  C  C121  1  0.88352920  0.39417672  0.83227844  1.0
  C  C122  1  0.47494585  0.33345917  0.87806644  1.0
  C  C123  1  0.27330065  0.43611235  0.87146224  1.0
  C  C124  1  0.49162955  0.34557530  0.83566406  1.0
  C  C125  1  0.25842777  0.42202896  0.91373230  1.0
  C  C126  1  0.35259844  0.40428061  0.85863112  1.0
  C  C127  1  0.39609560  0.36652357  0.89169045  1.0
  C  C128  1  0.87045481  0.91832127  0.82129000  1.0
  C  C129  1  0.86509993  0.83231093  0.92652130  1.0
  C  C130  1  0.82953786  0.99087058  0.83340277  1.0
  C  C131  1  0.90748665  0.76080578  0.91365997  1.0
  C  C132  1  0.85189046  0.88964843  0.89260788  1.0
  C  C133  1  0.88412484  0.85997220  0.85462870  1.0
  C  C134  1  0.13789438  0.65837487  0.15447349  1.0
  C  C135  1  0.09491486  0.59617964  0.09951376  1.0
  C  C136  1  0.06557669  0.70070966  0.14020240  1.0
  C  C137  1  0.16705941  0.55369610  0.11394342  1.0
  C  C138  1  0.04672249  0.66761807  0.11284948  1.0
  C  C139  1  0.18590213  0.58688258  0.14120421  1.0
  C  C140  1  0.54369002  0.59594763  0.13987179  1.0
  C  C141  1  0.69977065  0.64945389  0.10263328  1.0
  C  C142  1  0.50416817  0.66062923  0.16013800  1.0
  C  C143  1  0.73823346  0.58439043  0.08291381  1.0
  C  C144  1  0.62874338  0.65335989  0.12333176  1.0
  C  C145  1  0.61484333  0.59082530  0.11875167  1.0
  C  C146  1  0.20430392  0.05196184  0.14800688  1.0
  C  C147  1  0.04257492  0.19878667  0.10138039  1.0
  C  C148  1  0.16361729  0.00842837  0.16413874  1.0
  C  C149  1  0.08473321  0.24071368  0.08558295  1.0
  C  C150  1  0.08654584  0.12986813  0.12420006  1.0
  C  C151  1  0.16137708  0.12122029  0.12518235  1.0
  C  C152  1  0.48703585  0.23559446  0.59462597  1.0
  C  C153  1  0.77464644  0.01146139  0.65602800  1.0
  C  C154  1  0.34503033  0.82394016  0.46326288  1.0
  C  C155  1  0.41678107  0.91538197  0.28764213  1.0
  C  C156  1  0.77982660  0.29565334  0.91519404  1.0
  C  C157  1  0.96179257  0.46479683  0.83326563  1.0
  C  C158  1  0.00851303  0.77748581  0.15228887  1.0
  C  C159  1  0.22443588  0.47700861  0.10187214  1.0
  S  S160  1  0.66593434  0.70190395  0.60409656  1.0
  S  S161  1  0.57486415  0.53974135  0.63728644  1.0
  S  S162  1  0.37729850  0.33289837  0.43306243  1.0
  S  S163  1  0.38444922  0.40456720  0.30649934  1.0
  S  S164  1  0.84522796  0.85725214  0.44297979  1.0
  S  S165  1  0.91593381  0.87971014  0.31646281  1.0
  S  S166  1  0.21007590  0.02850746  0.61164067  1.0
  S  S167  1  0.05479878  0.23688633  0.65325758  1.0
  S  S168  1  0.40917000  0.39894500  0.81185918  1.0
  S  S169  1  0.34009362  0.37068195  0.93833547  1.0
  S  S170  1  0.80658683  0.98791572  0.88664205  1.0
  S  S171  1  0.93130763  0.76216887  0.86052373  1.0
  S  S172  1  0.55484319  0.71659507  0.15323526  1.0
  S  S173  1  0.68877598  0.52743702  0.08915500  1.0
  S  S174  1  0.07061808  0.05323752  0.15125925  1.0
  S  S175  1  0.17777786  0.19721466  0.09820881  1.0
  O  O176  1  0.50128682  0.99951529  0.50052960  1.0
  O  O177  1  0.68655658  0.91293954  0.48174832  1.0
  O  O178  1  0.48341259  0.94881982  0.41727178  1.0
  O  O179  1  0.49178026  0.84230391  0.54510483  1.0
  O  O180  1  0.63047750  0.97313229  0.42305549  1.0
  O  O181  1  0.59855977  0.84961720  0.55815342  1.0
  O  O182  1  0.39899248  0.93055447  0.47007711  1.0
  O  O183  1  0.34838541  0.99998915  0.55672758  1.0
  O  O184  1  0.50747072  0.11537333  0.55616100  1.0
  O  O185  1  0.34788104  0.11831034  0.55001573  1.0
  O  O186  1  0.61399814  0.00395039  0.55961669  1.0
  O  O187  1  0.47121322  0.11672689  0.41578430  1.0
  O  O188  1  0.43377488  0.18066929  0.47255207  1.0
  O  O189  1  0.75065111  0.25164580  0.74909549  1.0
  O  O190  1  0.64444794  0.39384411  0.68879015  1.0
  O  O191  1  0.81942708  0.35039609  0.78222677  1.0
  O  O192  1  0.62418290  0.27680221  0.82951521  1.0
  O  O193  1  0.75108983  0.40689247  0.69689973  1.0
  O  O194  1  0.56578606  0.33764586  0.77160051  1.0
  O  O195  1  0.78302930  0.27734525  0.83512414  1.0
  O  O196  1  0.77359189  0.12318692  0.82872828  1.0
  O  O197  1  0.76103241  0.14373800  0.68400555  1.0
  O  O198  1  0.82184817  0.06607847  0.76943782  1.0
  O  O199  1  0.63919478  0.23050347  0.69936898  1.0
  O  O200  1  0.90799403  0.26311545  0.70353983  1.0
  O  O201  1  0.91509886  0.14293179  0.70624132  1.0
  O  O202  1  0.24992169  0.74869733  0.25013318  1.0
  O  O203  1  0.28156009  0.61867824  0.32897324  1.0
  O  O204  1  0.23139648  0.63868220  0.19608673  1.0
  O  O205  1  0.06934613  0.82428572  0.27709010  1.0
  O  O206  1  0.33104515  0.56305176  0.26928892  1.0
  O  O207  1  0.13154139  0.77194453  0.33441535  1.0
  O  O208  1  0.12970338  0.75404108  0.19224086  1.0
  O  O209  1  0.13793303  0.90735145  0.20070893  1.0
  O  O210  1  0.33282872  0.83882098  0.27960443  1.0
  O  O211  1  0.25783812  0.90172953  0.19662704  1.0
  O  O212  1  0.29462009  0.77101061  0.33466167  1.0
  O  O213  1  0.39320549  0.64445292  0.18968148  1.0
  O  O214  1  0.40865317  0.74785629  0.20118878  1.0
  O  O215  1  0.99872596  0.50072444  0.99960147  1.0
  O  O216  1  0.83846471  0.49766050  0.04288967  1.0
  O  O217  1  0.00572151  0.61655852  0.05469086  1.0
  O  O218  1  0.10968359  0.34218355  0.04844063  1.0
  O  O219  1  0.84825336  0.60339204  0.05562067  1.0
  O  O220  1  0.99036794  0.34646417  0.05243570  1.0
  O  O221  1  0.10414198  0.49941124  0.06268751  1.0
  O  O222  1  0.18300396  0.42985397  0.97754718  1.0
  O  O223  1  0.96166539  0.48019646  0.91343397  1.0
  O  O224  1  0.12511053  0.47596274  0.91863838  1.0
  O  O225  1  0.92654326  0.40572226  0.96596565  1.0
  O  O226  1  0.91255795  0.68622789  0.97789487  1.0
  O  O227  1  0.97745335  0.62896096  0.91995540  1.0
  F  F228  1  0.47710890  0.70505077  0.58082986  1.0
  F  F229  1  0.45359113  0.21581989  0.33899048  1.0
  F  F230  1  0.72876383  0.95379020  0.34937801  1.0
  F  F231  1  0.21573979  0.22821398  0.59222465  1.0
  F  F232  1  0.52734201  0.29403334  0.90421744  1.0
  F  F233  1  0.89588173  0.90360249  0.78206131  1.0
  F  F234  1  0.51817295  0.54270815  0.13996798  1.0
  F  F235  1  0.27720524  0.03161526  0.15317248  1.0
