# generated using pymatgen
data_ZnH13C23N3O4
_symmetry_space_group_name_H-M   'P 1'
_cell_length_a   11.67443510
_cell_length_b   15.71745106
_cell_length_c   17.96435405
_cell_angle_alpha   89.93645426
_cell_angle_beta   90.00012184
_cell_angle_gamma   89.99993818
_symmetry_Int_Tables_number   1
_chemical_formula_structural   ZnH13C23N3O4
_chemical_formula_sum   'Zn4 H52 C92 N12 O16'
_cell_volume   3296.31973515
_cell_formula_units_Z   4
loop_
 _symmetry_equiv_pos_site_id
 _symmetry_equiv_pos_as_xyz
  1  'x, y, z'
loop_
 _atom_site_type_symbol
 _atom_site_label
 _atom_site_symmetry_multiplicity
 _atom_site_fract_x
 _atom_site_fract_y
 _atom_site_fract_z
 _atom_site_occupancy
  Zn  Zn0  1  0.74506096  0.50585019  0.21747262  1.0
  Zn  Zn1  1  0.74249527  0.50543488  0.06219084  1.0
  Zn  Zn2  1  0.24506169  0.49415010  0.78252700  1.0
  Zn  Zn3  1  0.24249565  0.49456541  0.93780878  1.0
  H  H4  1  0.92801982  0.49047570  0.80531994  1.0
  H  H5  1  0.55674447  0.49682468  0.80457348  1.0
  H  H6  1  0.03279892  0.00206673  0.14996151  1.0
  H  H7  1  0.45502834  0.00969830  0.15581416  1.0
  H  H8  1  0.60139788  0.76386205  0.05469732  1.0
  H  H9  1  0.90304966  0.25606323  0.04468773  1.0
  H  H10  1  0.48091317  0.89534202  0.06079531  1.0
  H  H11  1  0.02283844  0.12438824  0.05072762  1.0
  H  H12  1  0.42506939  0.66385311  0.24540426  1.0
  H  H13  1  0.05199719  0.34196620  0.24973345  1.0
  H  H14  1  0.29605492  0.79040553  0.24636779  1.0
  H  H15  1  0.18009942  0.21466540  0.25203786  1.0
  H  H16  1  0.91981922  0.49776917  0.94388863  1.0
  H  H17  1  0.56391078  0.50222334  0.94329450  1.0
  H  H18  1  0.89253776  0.75129450  0.23655207  1.0
  H  H19  1  0.58259679  0.26671202  0.24677037  1.0
  H  H20  1  0.07588985  0.66880601  0.04185795  1.0
  H  H21  1  0.42095860  0.33764161  0.04058324  1.0
  H  H22  1  0.01545969  0.88104637  0.24326326  1.0
  H  H23  1  0.46015072  0.13647379  0.25311848  1.0
  H  H24  1  0.20297087  0.79467418  0.05114291  1.0
  H  H25  1  0.29459371  0.21148857  0.04906359  1.0
  H  H26  1  0.92295867  0.45929278  0.47381289  1.0
  H  H27  1  0.56491646  0.52841088  0.47501389  1.0
  H  H28  1  0.91763741  0.47004196  0.33479960  1.0
  H  H29  1  0.57368411  0.53488144  0.33589915  1.0
  H  H30  1  0.42802031  0.50952508  0.19467938  1.0
  H  H31  1  0.05674497  0.50317448  0.19542589  1.0
  H  H32  1  0.53279784  0.99793436  0.85004171  1.0
  H  H33  1  0.95502640  0.99030118  0.84418297  1.0
  H  H34  1  0.10139780  0.23613772  0.94530211  1.0
  H  H35  1  0.40305059  0.74393756  0.95531490  1.0
  H  H36  1  0.98091282  0.10465807  0.93920519  1.0
  H  H37  1  0.52283701  0.87561286  0.94927225  1.0
  H  H38  1  0.92506896  0.33614576  0.75459450  1.0
  H  H39  1  0.55199628  0.65803296  0.75026869  1.0
  H  H40  1  0.79605382  0.20959472  0.75363191  1.0
  H  H41  1  0.68009574  0.78533494  0.74796168  1.0
  H  H42  1  0.41982012  0.50223034  0.05611068  1.0
  H  H43  1  0.06391083  0.49777454  0.05670487  1.0
  H  H44  1  0.39253792  0.24870503  0.76344831  1.0
  H  H45  1  0.08259622  0.73328712  0.75322736  1.0
  H  H46  1  0.57588752  0.33119314  0.95814367  1.0
  H  H47  1  0.92096351  0.66235917  0.95941663  1.0
  H  H48  1  0.51545958  0.11895346  0.75673771  1.0
  H  H49  1  0.96014949  0.86352441  0.74687922  1.0
  H  H50  1  0.70296955  0.20532551  0.94885888  1.0
  H  H51  1  0.79459840  0.78851168  0.95093554  1.0
  H  H52  1  0.42295935  0.54070927  0.52618698  1.0
  H  H53  1  0.06491895  0.47158955  0.52498604  1.0
  H  H54  1  0.41764027  0.52996010  0.66519970  1.0
  H  H55  1  0.07368791  0.46511771  0.66410024  1.0
  C  C56  1  0.51974702  0.70548215  0.14908681  1.0
  C  C57  1  0.97023848  0.30689136  0.14682831  1.0
  C  C58  1  0.59409585  0.62806101  0.14631150  1.0
  C  C59  1  0.89485747  0.38370934  0.14459956  1.0
  C  C60  1  0.37904289  0.85103524  0.15285338  1.0
  C  C61  1  0.10989718  0.16100391  0.15122126  1.0
  C  C62  1  0.11788336  0.84680123  0.14779412  1.0
  C  C63  1  0.36905062  0.16509014  0.15154344  1.0
  C  C64  1  0.84570839  0.49332900  0.83371363  1.0
  C  C65  1  0.63878960  0.49667083  0.83334337  1.0
  C  C66  1  0.18593713  0.92632268  0.15131721  1.0
  C  C67  1  0.30184400  0.08512797  0.15371127  1.0
  C  C68  1  0.89761202  0.62662608  0.13646457  1.0
  C  C69  1  0.58967439  0.38476859  0.13992179  1.0
  C  C70  1  0.97611941  0.70194764  0.13914136  1.0
  C  C71  1  0.51011000  0.31015117  0.14352822  1.0
  C  C72  1  0.12622357  0.00370539  0.15134575  1.0
  C  C73  1  0.36159599  0.00791066  0.15458697  1.0
  C  C74  1  0.30698111  0.92856171  0.15306913  1.0
  C  C75  1  0.18096963  0.08293776  0.15224211  1.0
  C  C76  1  0.53558834  0.77099775  0.09724810  1.0
  C  C77  1  0.96229629  0.24556599  0.09064162  1.0
  C  C78  1  0.46766038  0.84359981  0.10038367  1.0
  C  C79  1  0.02978014  0.17274458  0.09391427  1.0
  C  C80  1  0.43478282  0.71398308  0.20386336  1.0
  C  C81  1  0.04792929  0.29462278  0.20550703  1.0
  C  C82  1  0.36361359  0.78499792  0.20470126  1.0
  C  C83  1  0.11861456  0.22334182  0.20693764  1.0
  C  C84  1  0.84153187  0.49681608  0.91094769  1.0
  C  C85  1  0.64239503  0.50052629  0.91056444  1.0
  C  C86  1  0.74237399  0.49341541  0.79395478  1.0
  C  C87  1  0.96037994  0.76197469  0.19595713  1.0
  C  C88  1  0.51951702  0.25349498  0.20362180  1.0
  C  C89  1  0.06365461  0.71457625  0.08674809  1.0
  C  C90  1  0.42842031  0.29450082  0.08792337  1.0
  C  C91  1  0.74228991  0.49043703  0.71218093  1.0
  C  C92  1  0.02919993  0.83398512  0.19952937  1.0
  C  C93  1  0.45105723  0.18122669  0.20697772  1.0
  C  C94  1  0.13480747  0.78555521  0.09188685  1.0
  C  C95  1  0.35760753  0.22338006  0.09265701  1.0
  C  C96  1  0.74307002  0.49051599  0.56802873  1.0
  C  C97  1  0.74402667  0.49391411  0.48603638  1.0
  C  C98  1  0.84414624  0.47679444  0.44571151  1.0
  C  C99  1  0.64464277  0.51509169  0.44632745  1.0
  C  C100  1  0.84183764  0.48236094  0.36856270  1.0
  C  C101  1  0.64877474  0.51872914  0.36916064  1.0
  C  C102  1  0.01974740  0.29451705  0.85091195  1.0
  C  C103  1  0.47023915  0.69310938  0.85317385  1.0
  C  C104  1  0.09409698  0.37193876  0.85368513  1.0
  C  C105  1  0.39485911  0.61629145  0.85540640  1.0
  C  C106  1  0.87904218  0.14896494  0.84714698  1.0
  C  C107  1  0.60989547  0.83899712  0.84877818  1.0
  C  C108  1  0.61788266  0.15319852  0.85220700  1.0
  C  C109  1  0.86904977  0.83490941  0.84845469  1.0
  C  C110  1  0.34571051  0.50667247  0.16628613  1.0
  C  C111  1  0.13879172  0.50332890  0.16665611  1.0
  C  C112  1  0.68593654  0.07367638  0.84868400  1.0
  C  C113  1  0.80184303  0.91487227  0.84628676  1.0
  C  C114  1  0.39761147  0.37337408  0.86353805  1.0
  C  C115  1  0.08967433  0.61523055  0.86007539  1.0
  C  C116  1  0.47611725  0.29805182  0.86085970  1.0
  C  C117  1  0.01010897  0.68984804  0.85646830  1.0
  C  C118  1  0.62622334  0.99629626  0.84865649  1.0
  C  C119  1  0.86159490  0.99208826  0.84541114  1.0
  C  C120  1  0.80698051  0.07143917  0.84693002  1.0
  C  C121  1  0.68096866  0.91706257  0.84775854  1.0
  C  C122  1  0.03558813  0.22900207  0.90275124  1.0
  C  C123  1  0.46229620  0.75443475  0.90936053  1.0
  C  C124  1  0.96766068  0.15640157  0.89961626  1.0
  C  C125  1  0.52978035  0.82725715  0.90608617  1.0
  C  C126  1  0.93478260  0.28601642  0.79613486  1.0
  C  C127  1  0.54792845  0.70537767  0.79449510  1.0
  C  C128  1  0.86361261  0.21500164  0.79529742  1.0
  C  C129  1  0.61861191  0.77665856  0.79306292  1.0
  C  C130  1  0.34153116  0.50318413  0.08905263  1.0
  C  C131  1  0.14239519  0.49947280  0.08943615  1.0
  C  C132  1  0.24237281  0.50658488  0.20604596  1.0
  C  C133  1  0.46037939  0.23802478  0.80404335  1.0
  C  C134  1  0.01951485  0.74650295  0.79637751  1.0
  C  C135  1  0.56365306  0.28542291  0.91325351  1.0
  C  C136  1  0.92842243  0.70549869  0.91207595  1.0
  C  C137  1  0.24229071  0.50956326  0.28781869  1.0
  C  C138  1  0.52919990  0.16601534  0.80047274  1.0
  C  C139  1  0.95105708  0.81877280  0.79301996  1.0
  C  C140  1  0.63480601  0.21444453  0.90811429  1.0
  C  C141  1  0.85760867  0.77662014  0.90734165  1.0
  C  C142  1  0.24306871  0.50948493  0.43196977  1.0
  C  C143  1  0.24402992  0.50608682  0.51396547  1.0
  C  C144  1  0.34414531  0.52320577  0.55428714  1.0
  C  C145  1  0.14464447  0.48490804  0.55367204  1.0
  C  C146  1  0.34184126  0.51763990  0.63143706  1.0
  C  C147  1  0.14877842  0.48127059  0.63084052  1.0
  N  N148  1  0.74184573  0.50077440  0.94855630  1.0
  N  N149  1  0.64198092  0.50532549  0.67637666  1.0
  N  N150  1  0.84174822  0.47149325  0.67690695  1.0
  N  N151  1  0.64229774  0.50460986  0.60314196  1.0
  N  N152  1  0.84223463  0.47236508  0.60357797  1.0
  N  N153  1  0.74584663  0.50296820  0.33125213  1.0
  N  N154  1  0.24184748  0.49922462  0.05144332  1.0
  N  N155  1  0.14198014  0.49467615  0.32362338  1.0
  N  N156  1  0.34174824  0.52850696  0.32309337  1.0
  N  N157  1  0.14229719  0.49539178  0.39685808  1.0
  N  N158  1  0.34223490  0.52763640  0.39642235  1.0
  N  N159  1  0.24584697  0.49703081  0.66874805  1.0
  O  O160  1  0.64331099  0.61122597  0.08465254  1.0
  O  O161  1  0.84455514  0.40064611  0.08333223  1.0
  O  O162  1  0.88677802  0.58577336  0.07550187  1.0
  O  O163  1  0.59987689  0.42501648  0.07848849  1.0
  O  O164  1  0.60305830  0.58428952  0.20594239  1.0
  O  O165  1  0.88600486  0.42706067  0.20439762  1.0
  O  O166  1  0.84562589  0.60911841  0.19710864  1.0
  O  O167  1  0.64316657  0.40243049  0.19990433  1.0
  O  O168  1  0.14331145  0.38877440  0.91534416  1.0
  O  O169  1  0.34455872  0.59935473  0.91667031  1.0
  O  O170  1  0.38677847  0.41422554  0.92449795  1.0
  O  O171  1  0.09987881  0.57498265  0.92150871  1.0
  O  O172  1  0.10305917  0.41570834  0.79405425  1.0
  O  O173  1  0.38600637  0.57293759  0.79560554  1.0
  O  O174  1  0.34562597  0.39088243  0.80289057  1.0
  O  O175  1  0.14316634  0.59756924  0.80009237  1.0
