# generated using pymatgen
data_Zn2H21C40N3O10
_symmetry_space_group_name_H-M   'P 1'
_cell_length_a   9.72620781
_cell_length_b   11.00526411
_cell_length_c   14.68995020
_cell_angle_alpha   86.67977682
_cell_angle_beta   77.08658554
_cell_angle_gamma   88.24043917
_symmetry_Int_Tables_number   1
_chemical_formula_structural   Zn2H21C40N3O10
_chemical_formula_sum   'Zn2 H21 C40 N3 O10'
_cell_volume   1529.80930988
_cell_formula_units_Z   1
loop_
 _symmetry_equiv_pos_site_id
 _symmetry_equiv_pos_as_xyz
  1  'x, y, z'
loop_
 _atom_site_type_symbol
 _atom_site_label
 _atom_site_symmetry_multiplicity
 _atom_site_fract_x
 _atom_site_fract_y
 _atom_site_fract_z
 _atom_site_occupancy
  Zn  Zn0  1  0.13565724  0.49167939  0.50649332  1.0
  Zn  Zn1  1  0.85277430  0.49630661  0.49238579  1.0
  H  H2  1  0.73331337  0.76794972  0.06522994  1.0
  H  H3  1  0.91696878  0.48411752  0.18739323  1.0
  H  H4  1  0.20497576  0.48659507  0.87921126  1.0
  H  H5  1  0.94673450  0.72923997  0.94315057  1.0
  H  H6  1  0.05997301  0.64488089  0.78910303  1.0
  H  H7  1  0.66549581  0.50278685  0.76701316  1.0
  H  H8  1  0.48850294  0.72766870  0.13712579  1.0
  H  H9  1  0.45685685  0.51247245  0.81029867  1.0
  H  H10  1  0.00881086  0.47901187  0.01445713  1.0
  H  H11  1  0.79226204  0.12034553  0.48588044  1.0
  H  H12  1  0.27618504  0.19735262  0.48845064  1.0
  H  H13  1  0.47674577  0.07092231  0.51755197  1.0
  H  H14  1  0.44267194  0.84911193  0.56432102  1.0
  H  H15  1  0.21878403  0.75345906  0.55955060  1.0
  H  H16  1  0.78151861  0.89299729  0.48769999  1.0
  H  H17  1  0.65110573  0.61817958  0.39906872  1.0
  H  H18  1  0.71733439  0.32032846  0.62415455  1.0
  H  H19  1  0.55612576  0.18857850  0.74074531  1.0
  H  H20  1  0.29626273  0.20178964  0.75265488  1.0
  H  H21  1  0.19720827  0.34331494  0.64558229  1.0
  H  H22  1  0.38932551  0.62305924  0.40511858  1.0
  C  C23  1  0.99992961  0.25840990  0.49771824  1.0
  C  C24  1  0.93169998  0.52116178  0.67762064  1.0
  C  C25  1  0.98056028  0.72911119  0.49982427  1.0
  C  C26  1  0.06518462  0.51443999  0.31782918  1.0
  C  C27  1  0.86656475  0.56836207  0.77104127  1.0
  C  C28  1  0.11580007  0.53483627  0.21350742  1.0
  C  C29  1  0.88508421  0.67916997  0.90468158  1.0
  C  C30  1  0.94829950  0.63249943  0.82008539  1.0
  C  C31  1  0.72336929  0.55298124  0.80759281  1.0
  C  C32  1  0.65587717  0.59847122  0.89442759  1.0
  C  C33  1  0.73947132  0.66282766  0.94380074  1.0
  C  C34  1  0.50746872  0.58004998  0.93543027  1.0
  C  C35  1  0.45086913  0.61335328  0.02858477  1.0
  C  C36  1  0.53503811  0.68597086  0.07183225  1.0
  C  C37  1  0.67275399  0.71078692  0.03084207  1.0
  C  C38  1  0.41568509  0.53267411  0.88317434  1.0
  C  C39  1  0.27521164  0.51709426  0.92139828  1.0
  C  C40  1  0.21849468  0.53419306  0.01813108  1.0
  C  C41  1  0.30920545  0.57544646  0.07421211  1.0
  C  C42  1  0.07654703  0.50589655  0.05949700  1.0
  C  C43  1  0.02527430  0.50830160  0.15478846  1.0
  C  C44  1  0.25342003  0.56869165  0.17223301  1.0
  C  C45  1  0.26340123  0.10036974  0.50393707  1.0
  C  C46  1  0.37508254  0.02940947  0.52100227  1.0
  C  C47  1  0.35713316  0.90401850  0.54501831  1.0
  C  C48  1  0.23189037  0.85028409  0.54286532  1.0
  C  C49  1  0.11756691  0.91908929  0.51877304  1.0
  C  C50  1  0.12928013  0.04978440  0.50708755  1.0
  C  C51  1  0.00670202  0.12176069  0.49768689  1.0
  C  C52  1  0.88372266  0.06403692  0.49302698  1.0
  C  C53  1  0.87695848  0.93671801  0.49550386  1.0
  C  C54  1  0.99109475  0.86385524  0.50719395  1.0
  C  C55  1  0.60432278  0.32447573  0.62891559  1.0
  C  C56  1  0.51355158  0.25227875  0.69396919  1.0
  C  C57  1  0.36620908  0.25988310  0.70091842  1.0
  C  C58  1  0.30994750  0.33859061  0.64193731  1.0
  C  C59  1  0.40030365  0.41304133  0.57387746  1.0
  C  C60  1  0.54953210  0.40772172  0.56831310  1.0
  C  C61  1  0.57997823  0.55876836  0.44895091  1.0
  C  C62  1  0.43372583  0.56173301  0.45255845  1.0
  N  N63  1  0.63649127  0.48332615  0.50458113  1.0
  N  N64  1  0.34667207  0.48995478  0.51308379  1.0
  N  N65  1  0.34730977  0.59270644  0.23539681  1.0
  O  O66  1  0.09552743  0.31244103  0.52638192  1.0
  O  O67  1  0.89592442  0.31272818  0.47252934  1.0
  O  O68  1  0.06397017  0.53391289  0.64651215  1.0
  O  O69  1  0.85008113  0.47250541  0.63362187  1.0
  O  O70  1  0.09621906  0.66916109  0.47645877  1.0
  O  O71  1  0.85840085  0.68287470  0.51410405  1.0
  O  O72  1  0.15681139  0.47557246  0.36245309  1.0
  O  O73  1  0.93448187  0.53404656  0.35168805  1.0
  O  O74  1  0.44506546  0.51941314  0.23877986  1.0
  O  O75  1  0.32415783  0.68787298  0.27832418  1.0
