# generated using pymatgen
data_MgH5C10N2O3
_symmetry_space_group_name_H-M   'P 1'
_cell_length_a   6.87248101
_cell_length_b   31.95027772
_cell_length_c   31.95023509
_cell_angle_alpha   119.48522950
_cell_angle_beta   94.10755737
_cell_angle_gamma   94.12006180
_symmetry_Int_Tables_number   1
_chemical_formula_structural   MgH5C10N2O3
_chemical_formula_sum   'Mg6 H30 C60 N12 O18'
_cell_volume   6044.71397240
_cell_formula_units_Z   6
loop_
 _symmetry_equiv_pos_site_id
 _symmetry_equiv_pos_as_xyz
  1  'x, y, z'
loop_
 _atom_site_type_symbol
 _atom_site_label
 _atom_site_symmetry_multiplicity
 _atom_site_fract_x
 _atom_site_fract_y
 _atom_site_fract_z
 _atom_site_occupancy
  Mg  Mg0  1  0.58477376  0.69801029  0.33034286  1.0
  Mg  Mg1  1  0.88678273  0.63232134  0.30198396  1.0
  Mg  Mg2  1  0.25447447  0.66965079  0.36767789  1.0
  Mg  Mg3  1  0.29639187  0.30486879  0.67390692  1.0
  Mg  Mg4  1  0.99149572  0.36904278  0.69514414  1.0
  Mg  Mg5  1  0.62248494  0.32612473  0.63097055  1.0
  H  H6  1  0.11731114  0.55892440  0.16667292  1.0
  H  H7  1  0.55816187  0.60770454  0.44102901  1.0
  H  H8  1  0.95047350  0.83326745  0.39223399  1.0
  H  H9  1  0.30168890  0.52781086  0.09376444  1.0
  H  H10  1  0.77367051  0.56594476  0.47221003  1.0
  H  H11  1  0.20760953  0.90622544  0.43398698  1.0
  H  H12  1  0.82629531  0.61700686  0.18595404  1.0
  H  H13  1  0.20924304  0.56897243  0.38305264  1.0
  H  H14  1  0.64026312  0.81409327  0.43104098  1.0
  H  H15  1  0.68861940  0.49925669  0.00652709  1.0
  H  H16  1  0.18908375  0.50732634  0.50079981  1.0
  H  H17  1  0.68221514  0.99344598  0.49261823  1.0
  H  H18  1  0.88829269  0.46605671  0.93643850  1.0
  H  H19  1  0.42188618  0.47036217  0.53395113  1.0
  H  H20  1  0.95190506  0.06356370  0.52960110  1.0
  H  H21  1  0.36477475  0.57835523  0.02301511  1.0
  H  H22  1  0.78583554  0.44463982  0.42161984  1.0
  H  H23  1  0.34155236  0.97699808  0.55539553  1.0
  H  H24  1  0.16193595  0.61239267  0.09328269  1.0
  H  H25  1  0.54902124  0.48087535  0.38759220  1.0
  H  H26  1  0.06853337  0.90671577  0.51912018  1.0
  H  H27  1  0.58183293  0.49187146  0.90385032  1.0
  H  H28  1  0.09011980  0.41198768  0.50811788  1.0
  H  H29  1  0.67798200  0.09619963  0.58805940  1.0
  H  H30  1  0.76689570  0.45264598  0.83197767  1.0
  H  H31  1  0.31425584  0.37927383  0.54730391  1.0
  H  H32  1  0.93497499  0.16808342  0.62071303  1.0
  H  H33  1  0.05177268  0.40337234  0.81390589  1.0
  H  H34  1  0.64846216  0.41050675  0.59658873  1.0
  H  H35  1  0.23785033  0.18612518  0.58947867  1.0
  C  C36  1  0.24895072  0.61907873  0.25754767  1.0
  C  C37  1  0.62985779  0.63844623  0.38090189  1.0
  C  C38  1  0.99135062  0.74244422  0.36153490  1.0
  C  C39  1  0.36797590  0.60400891  0.21698546  1.0
  C  C40  1  0.76389785  0.61295813  0.39599260  1.0
  C  C41  1  0.15090575  0.78301184  0.38703697  1.0
  C  C42  1  0.27297836  0.57089775  0.17015437  1.0
  C  C43  1  0.70190175  0.59922041  0.42908797  1.0
  C  C44  1  0.10266041  0.82983965  0.40076470  1.0
  C  C45  1  0.37290512  0.55384275  0.12997488  1.0
  C  C46  1  0.81882438  0.57610082  0.44615693  1.0
  C  C47  1  0.24269199  0.87003777  0.42387310  1.0
  C  C48  1  0.57205824  0.57174656  0.13577150  1.0
  C  C49  1  0.00013409  0.56404270  0.42828873  1.0
  C  C50  1  0.43611886  0.86425693  0.43595995  1.0
  C  C51  1  0.67098829  0.60431144  0.18182764  1.0
  C  C52  1  0.06664722  0.57754240  0.39574070  1.0
  C  C53  1  0.48904743  0.81819877  0.42247874  1.0
  C  C54  1  0.57414333  0.62047289  0.22336883  1.0
  C  C55  1  0.95365555  0.60289528  0.37954422  1.0
  C  C56  1  0.35072573  0.77663665  0.39711741  1.0
  C  C57  1  0.91681856  0.55746829  0.05390968  1.0
  C  C58  1  0.35877333  0.49638764  0.44250893  1.0
  C  C59  1  0.86291212  0.94607664  0.50350170  1.0
  C  C60  1  0.83600909  0.51625113  0.00942587  1.0
  C  C61  1  0.31928068  0.49315518  0.48375302  1.0
  C  C62  1  0.82668690  0.99055960  0.50675590  1.0
  C  C63  1  0.94536937  0.49808688  0.97096799  1.0
  C  C64  1  0.44676348  0.47282057  0.50188406  1.0
  C  C65  1  0.97445372  0.02903986  0.52710775  1.0
  C  C66  1  0.13753943  0.52059162  0.97616593  1.0
  C  C67  1  0.61638441  0.45550718  0.47935568  1.0
  C  C68  1  0.16135599  0.02384423  0.54444808  1.0
  C  C69  1  0.21586833  0.56207675  0.01998664  1.0
  C  C70  1  0.65311884  0.45785227  0.43787051  1.0
  C  C71  1  0.19574620  0.98001482  0.54210912  1.0
  C  C72  1  0.10485181  0.58073608  0.05848783  1.0
  C  C73  1  0.52345559  0.47769375  0.41921533  1.0
  C  C74  1  0.04623249  0.94149827  0.52223358  1.0
  C  C75  1  0.30487046  0.44967480  0.86248698  1.0
  C  C76  1  0.85532047  0.41282266  0.55029880  1.0
  C  C77  1  0.44240900  0.13756068  0.58723239  1.0
  C  C78  1  0.50893526  0.46401841  0.86849455  1.0
  C  C79  1  0.04506634  0.40448449  0.53597120  1.0
  C  C80  1  0.64046848  0.13156132  0.59556721  1.0
  C  C81  1  0.60956008  0.44217555  0.82865417  1.0
  C  C82  1  0.16741882  0.38644166  0.55778594  1.0
  C  C83  1  0.78094080  0.17140216  0.61357581  1.0
  C  C84  1  0.51540248  0.40627369  0.78233642  1.0
  C  C85  1  0.10916874  0.37603074  0.59369455  1.0
  C  C86  1  0.73305324  0.21771061  0.62399997  1.0
  C  C87  1  0.63364588  0.38722331  0.74147297  1.0
  C  C88  1  0.24632157  0.35423313  0.61278991  1.0
  C  C89  1  0.89210763  0.25857763  0.64576674  1.0
  C  C90  1  0.30895399  0.39125936  0.77652071  1.0
  C  C91  1  0.91774408  0.38522829  0.60868761  1.0
  C  C92  1  0.53245850  0.22353462  0.61482431  1.0
  C  C93  1  0.20907507  0.41382174  0.81754434  1.0
  C  C94  1  0.79533145  0.40370596  0.58613856  1.0
  C  C95  1  0.39151157  0.18250644  0.59633537  1.0
  N  N96  1  0.66064242  0.55360059  0.09262295  1.0
  N  N97  1  0.10678248  0.53903621  0.44642971  1.0
  N  N98  1  0.56795653  0.90739511  0.46092812  1.0
  N  N99  1  0.82422669  0.57708820  0.09637250  1.0
  N  N100  1  0.24673037  0.51926689  0.42291700  1.0
  N  N101  1  0.72776207  0.90362271  0.48065081  1.0
  N  N102  1  0.26304027  0.50324982  0.93970333  1.0
  N  N103  1  0.75944548  0.43642292  0.49669799  1.0
  N  N104  1  0.32331139  0.06032436  0.56359304  1.0
  N  N105  1  0.18083853  0.46869311  0.89921445  1.0
  N  N106  1  0.71209804  0.43051785  0.53129285  1.0
  N  N107  1  0.28165498  0.10080402  0.56948515  1.0
  O  O108  1  0.06747401  0.60307971  0.25027695  1.0
  O  O109  1  0.46439092  0.64718120  0.39690667  1.0
  O  O110  1  0.81716420  0.74971542  0.35279483  1.0
  O  O111  1  0.33311269  0.64939637  0.30094015  1.0
  O  O112  1  0.68375410  0.65152310  0.35058804  1.0
  O  O113  1  0.03214774  0.69906360  0.34847345  1.0
  O  O114  1  0.67900801  0.65022888  0.26683601  1.0
  O  O115  1  0.02877262  0.61659797  0.34977313  1.0
  O  O116  1  0.41218223  0.73317657  0.38342262  1.0
  O  O117  1  0.81454888  0.40303546  0.74704095  1.0
  O  O118  1  0.41135030  0.34395642  0.59696722  1.0
  O  O119  1  0.06743588  0.25300400  0.65599491  1.0
  O  O120  1  0.54846607  0.35380004  0.69925786  1.0
  O  O121  1  0.19461434  0.34549355  0.64625217  1.0
  O  O122  1  0.84917914  0.30078250  0.65453203  1.0
  O  O123  1  0.20395490  0.35755168  0.73457154  1.0
  O  O124  1  0.84640741  0.37696665  0.64238865  1.0
  O  O125  1  0.46945123  0.26548340  0.62306420  1.0
