# generated using pymatgen
data_Zn4H3C24S4NCl4O15
_symmetry_space_group_name_H-M   'P 1'
_cell_length_a   19.59953263
_cell_length_b   19.75069876
_cell_length_c   33.30881950
_cell_angle_alpha   78.95425492
_cell_angle_beta   79.41547852
_cell_angle_gamma   64.11860110
_symmetry_Int_Tables_number   1
_chemical_formula_structural   Zn4H3C24S4NCl4O15
_chemical_formula_sum   'Zn16 H12 C96 S16 N4 Cl16 O60'
_cell_volume   11312.48618539
_cell_formula_units_Z   4
loop_
 _symmetry_equiv_pos_site_id
 _symmetry_equiv_pos_as_xyz
  1  'x, y, z'
loop_
 _atom_site_type_symbol
 _atom_site_label
 _atom_site_symmetry_multiplicity
 _atom_site_fract_x
 _atom_site_fract_y
 _atom_site_fract_z
 _atom_site_occupancy
  Zn  Zn0  1  0.05699020  0.40141321  0.47801274  1.0
  Zn  Zn1  1  0.98399118  0.48364888  0.55999725  1.0
  Zn  Zn2  1  0.06024173  0.56022103  0.48205504  1.0
  Zn  Zn3  1  0.89899567  0.55416433  0.48003199  1.0
  Zn  Zn4  1  0.69332250  0.34941801  0.27123306  1.0
  Zn  Zn5  1  0.69280551  0.18683789  0.26705707  1.0
  Zn  Zn6  1  0.76820259  0.26732324  0.18993185  1.0
  Zn  Zn7  1  0.84826946  0.19614214  0.27310817  1.0
  Zn  Zn8  1  0.26473587  0.76721627  0.68976858  1.0
  Zn  Zn9  1  0.34869284  0.69662478  0.77120893  1.0
  Zn  Zn10  1  0.19229069  0.85033124  0.77055740  1.0
  Zn  Zn11  1  0.19052828  0.68826178  0.76674690  1.0
  Zn  Zn12  1  0.55908411  0.06213087  0.98298078  1.0
  Zn  Zn13  1  0.40171114  0.05368412  0.97765599  1.0
  Zn  Zn14  1  0.55661860  0.90140760  0.97834767  1.0
  Zn  Zn15  1  0.48143030  0.98561156  0.06039838  1.0
  H  H16  1  0.95141562  0.25026660  0.35233729  1.0
  H  H17  1  0.74654513  0.45711063  0.34995834  1.0
  H  H18  1  0.99903669  0.29854546  0.40086565  1.0
  H  H19  1  0.09837064  0.59516870  0.69971271  1.0
  H  H20  1  0.19967374  0.70258920  0.59733724  1.0
  H  H21  1  0.05112375  0.54824055  0.65029250  1.0
  H  H22  1  0.54856153  0.05240171  0.15261745  1.0
  H  H23  1  0.65396399  0.15259157  0.04866972  1.0
  H  H24  1  0.59848611  0.10031402  0.20014530  1.0
  H  H25  1  0.50251829  0.79634542  0.89777711  1.0
  H  H26  1  0.29557510  0.00096944  0.89977689  1.0
  H  H27  1  0.45182067  0.75099603  0.84936151  1.0
  C  C28  1  0.06285311  0.31749686  0.56165088  1.0
  C  C29  1  0.06969370  0.56885590  0.56842166  1.0
  C  C30  1  0.18425887  0.43996279  0.43769261  1.0
  C  C31  1  0.93607947  0.68230758  0.43902532  1.0
  C  C32  1  0.93032525  0.42992992  0.43221826  1.0
  C  C33  1  0.81661693  0.56008382  0.56323437  1.0
  C  C34  1  0.56646896  0.30796485  0.31034212  1.0
  C  C35  1  0.68168273  0.18104466  0.18109136  1.0
  C  C36  1  0.69116812  0.43417829  0.18821205  1.0
  C  C37  1  0.93452151  0.18628812  0.19004177  1.0
  C  C38  1  0.81750653  0.32188199  0.31959103  1.0
  C  C39  1  0.81427991  0.06573475  0.31286040  1.0
  C  C40  1  0.43251490  0.69087227  0.68830081  1.0
  C  C41  1  0.31869454  0.82040000  0.81814154  1.0
  C  C42  1  0.18615566  0.93350290  0.68690769  1.0
  C  C43  1  0.06702782  0.80875283  0.81187958  1.0
  C  C44  1  0.17998172  0.68014655  0.68046684  1.0
  C  C45  1  0.31414449  0.56542704  0.81019572  1.0
  C  C46  1  0.43671608  0.18407255  0.93833092  1.0
  C  C47  1  0.43152872  0.92969971  0.93025795  1.0
  C  C48  1  0.68368514  0.94192298  0.93832985  1.0
  C  C49  1  0.56008327  0.81816868  0.06212413  1.0
  C  C50  1  0.56877168  0.07130447  0.06920150  1.0
  C  C51  1  0.31437134  0.06266770  0.06024760  1.0
  C  C52  1  0.90078627  0.40455226  0.40222579  1.0
  C  C53  1  0.84637885  0.35068725  0.34827926  1.0
  C  C54  1  0.82984426  0.44856136  0.38724641  1.0
  C  C55  1  0.91768925  0.30592745  0.36247242  1.0
  C  C56  1  0.80204566  0.42239232  0.36091154  1.0
  C  C57  1  0.94407368  0.33275098  0.38921438  1.0
  C  C58  1  0.09751378  0.59963963  0.59652129  1.0
  C  C59  1  0.15155542  0.65161804  0.65146748  1.0
  C  C60  1  0.13928293  0.64357341  0.58221173  1.0
  C  C61  1  0.10961520  0.60824011  0.66656894  1.0
  C  C62  1  0.16687721  0.66901970  0.60898592  1.0
  C  C63  1  0.08334006  0.58251793  0.63923856  1.0
  C  C64  1  0.30629925  0.45355844  0.39967700  1.0
  C  C65  1  0.44492541  0.29379600  0.34905321  1.0
  C  C66  1  0.25931034  0.41535774  0.41314062  1.0
  C  C67  1  0.49194012  0.33190059  0.33543736  1.0
  C  C68  1  0.37737429  0.33807715  0.37259781  1.0
  C  C69  1  0.37417541  0.40898964  0.37637598  1.0
  C  C70  1  0.72529772  0.57534940  0.63113735  1.0
  C  C71  1  0.52401930  0.67544673  0.62059041  1.0
  C  C72  1  0.74234808  0.58513001  0.58852146  1.0
  C  C73  1  0.50691536  0.66602662  0.66323040  1.0
  C  C74  1  0.60377903  0.64278305  0.60893345  1.0
  C  C75  1  0.64561313  0.60876546  0.64284714  1.0
  C  C76  1  0.07638346  0.22527535  0.62944652  1.0
  C  C77  1  0.17300926  0.02548973  0.61905266  1.0
  C  C78  1  0.08636335  0.24311699  0.58685127  1.0
  C  C79  1  0.16257317  0.00778396  0.66165061  1.0
  C  C80  1  0.14117715  0.10491029  0.60731238  1.0
  C  C81  1  0.10770533  0.14582588  0.64116115  1.0
  C  C82  1  0.84297734  0.79996703  0.39650478  1.0
  C  C83  1  0.90778357  0.94740535  0.35481820  1.0
  C  C84  1  0.91079290  0.75710251  0.41417070  1.0
  C  C85  1  0.83973470  0.99076126  0.33744663  1.0
  C  C86  1  0.90879809  0.87798332  0.37653438  1.0
  C  C87  1  0.84183916  0.86960471  0.37502705  1.0
  C  C88  1  0.65489555  0.15195014  0.15154272  1.0
  C  C89  1  0.59829018  0.09949858  0.09790117  1.0
  C  C90  1  0.67009242  0.16576013  0.10863229  1.0
  C  C91  1  0.58271491  0.08450843  0.14060766  1.0
  C  C92  1  0.64198028  0.14078757  0.08185942  1.0
  C  C93  1  0.61058047  0.11081623  0.16688198  1.0
  C  C94  1  0.67453006  0.52605331  0.12013215  1.0
  C  C95  1  0.57550971  0.72606346  0.13013718  1.0
  C  C96  1  0.66577682  0.50851830  0.16281846  1.0
  C  C97  1  0.58446905  0.74381965  0.08747686  1.0
  C  C98  1  0.60823216  0.64666004  0.14201562  1.0
  C  C99  1  0.64143469  0.60551373  0.10825466  1.0
  C  C100  1  0.08223582  0.12283706  0.17801598  1.0
  C  C101  1  0.16654735  0.12563651  0.07212240  1.0
  C  C102  1  0.00944543  0.16080969  0.16531792  1.0
  C  C103  1  0.23935711  0.08762798  0.08482353  1.0
  C  C104  1  0.10919520  0.13836701  0.10614908  1.0
  C  C105  1  0.13948833  0.10997489  0.14398412  1.0
  C  C106  1  0.34547171  0.84909353  0.84789112  1.0
  C  C107  1  0.40217785  0.90124149  0.90162698  1.0
  C  C108  1  0.30213843  0.91929632  0.86277869  1.0
  C  C109  1  0.44628213  0.83056028  0.88761968  1.0
  C  C110  1  0.32975134  0.94598666  0.88892337  1.0
  C  C111  1  0.41807385  0.80538131  0.86094462  1.0
  C  C112  1  0.40823886  0.44773255  0.85216442  1.0
  C  C113  1  0.34244359  0.30206327  0.89671653  1.0
  C  C114  1  0.33963731  0.49094291  0.83535168  1.0
  C  C115  1  0.41110259  0.25877813  0.91347459  1.0
  C  C116  1  0.34142376  0.37107964  0.87442641  1.0
  C  C117  1  0.40915768  0.37887654  0.87464829  1.0
  C  C118  1  0.94469116  0.79561505  0.84988817  1.0
  C  C119  1  0.80626537  0.95510485  0.90068016  1.0
  C  C120  1  0.99233860  0.83318908  0.83690652  1.0
  C  C121  1  0.75860409  0.91752281  0.91360233  1.0
  C  C122  1  0.87429711  0.91050667  0.87749991  1.0
  C  C123  1  0.87691883  0.84007968  0.87321143  1.0
  S  S124  1  0.29823173  0.32522464  0.39761773  1.0
  S  S125  1  0.45354063  0.42158660  0.35151670  1.0
  S  S126  1  0.66122613  0.63490000  0.56286218  1.0
  S  S127  1  0.58812252  0.61722755  0.68892882  1.0
  S  S128  1  0.13381432  0.16296239  0.56124982  1.0
  S  S129  1  0.11432174  0.08790355  0.68721823  1.0
  S  S130  1  0.97287009  0.80170705  0.40446313  1.0
  S  S131  1  0.77743471  0.94637448  0.34752282  1.0
  S  S132  1  0.61681538  0.58886766  0.18822040  1.0
  S  S133  1  0.63270143  0.66340999  0.06206534  1.0
  S  S134  1  0.01110073  0.18029912  0.11192059  1.0
  S  S135  1  0.23754808  0.06776375  0.13823857  1.0
  S  S136  1  0.27650602  0.44752940  0.84705764  1.0
  S  S137  1  0.47398772  0.30249219  0.90209824  1.0
  S  S138  1  0.95439395  0.92250472  0.85336423  1.0
  S  S139  1  0.79696813  0.82791890  0.89744031  1.0
  N  N140  1  0.78112603  0.52670361  0.39734148  1.0
  N  N141  1  0.15426816  0.66800873  0.53777294  1.0
  N  N142  1  0.71922358  0.20549977  0.08905421  1.0
  N  N143  1  0.22322799  0.96858645  0.85280503  1.0
  Cl  Cl144  1  0.28878464  0.54171739  0.40926983  1.0
  Cl  Cl145  1  0.46261154  0.20515228  0.33995190  1.0
  Cl  Cl146  1  0.78881292  0.53015497  0.66666667  1.0
  Cl  Cl147  1  0.46069317  0.72006985  0.58501425  1.0
  Cl  Cl148  1  0.03203030  0.28763535  0.66487083  1.0
  Cl  Cl149  1  0.21754177  0.96306198  0.58368136  1.0
  Cl  Cl150  1  0.76893097  0.77539546  0.39909551  1.0
  Cl  Cl151  1  0.98288238  0.97083705  0.35162029  1.0
  Cl  Cl152  1  0.71757364  0.46331265  0.08491840  1.0
  Cl  Cl153  1  0.53151602  0.78853672  0.16553398  1.0
  Cl  Cl154  1  0.10432780  0.09335552  0.22743639  1.0
  Cl  Cl155  1  0.14463089  0.15520334  0.02270025  1.0
  Cl  Cl156  1  0.48382642  0.47083124  0.84773002  1.0
  Cl  Cl157  1  0.26679964  0.27904815  0.90116250  1.0
  Cl  Cl158  1  0.96164306  0.70749035  0.84025666  1.0
  Cl  Cl159  1  0.78901583  0.04325037  0.91027889  1.0
  O  O160  1  0.00037347  0.49933204  0.49971162  1.0
  O  O161  1  0.07404099  0.31633806  0.52257377  1.0
  O  O162  1  0.02247924  0.54049615  0.58515933  1.0
  O  O163  1  0.15294113  0.50790836  0.44620312  1.0
  O  O164  1  0.03405478  0.37588655  0.58053434  1.0
  O  O165  1  0.15694801  0.38990537  0.44817531  1.0
  O  O166  1  0.09609989  0.57262883  0.53061748  1.0
  O  O167  1  0.00071663  0.65886669  0.45273073  1.0
  O  O168  1  0.88271600  0.48687678  0.44990805  1.0
  O  O169  1  0.89277428  0.64763442  0.44473816  1.0
  O  O170  1  0.00031940  0.39141612  0.43782372  1.0
  O  O171  1  0.87581028  0.51928112  0.58155899  1.0
  O  O172  1  0.81461118  0.58188198  0.52450078  1.0
  O  O173  1  0.74986327  0.25046447  0.25043865  1.0
  O  O174  1  0.59692841  0.35542478  0.30371171  1.0
  O  O175  1  0.67446896  0.15484392  0.21891885  1.0
  O  O176  1  0.73131862  0.37585077  0.16986248  1.0
  O  O177  1  0.59397578  0.24338700  0.29747027  1.0
  O  O178  1  0.67046125  0.43528747  0.22702384  1.0
  O  O179  1  0.70828306  0.23002717  0.16597785  1.0
  O  O180  1  0.87659969  0.21786248  0.16959021  1.0
  O  O181  1  0.86103675  0.25596915  0.30961137  1.0
  O  O182  1  0.93352466  0.17542646  0.22905635  1.0
  O  O183  1  0.75232324  0.36544238  0.30773347  1.0
  O  O184  1  0.74730873  0.09197229  0.30156339  1.0
  O  O185  1  0.85987695  0.09812809  0.30488973  1.0
  O  O186  1  0.24869640  0.75078479  0.75016382  1.0
  O  O187  1  0.37326951  0.72202484  0.66936342  1.0
  O  O188  1  0.35913734  0.75184584  0.81143000  1.0
  O  O189  1  0.16600480  0.93471824  0.72570593  1.0
  O  O190  1  0.43436342  0.67853889  0.72743475  1.0
  O  O191  1  0.22418152  0.87497883  0.66838661  1.0
  O  O192  1  0.25889543  0.86689919  0.80176692  1.0
  O  O193  1  0.09806945  0.85572116  0.80514715  1.0
  O  O194  1  0.16562761  0.66162612  0.71883714  1.0
  O  O195  1  0.09388817  0.74416149  0.79911656  1.0
  O  O196  1  0.21601285  0.72075007  0.66414123  1.0
  O  O197  1  0.36042872  0.59691555  0.80102772  1.0
  O  O198  1  0.24653491  0.59182307  0.79973475  1.0
  O  O199  1  0.50060286  0.99983010  0.99990346  1.0
  O  O200  1  0.50291286  0.15899549  0.95041322  1.0
  O  O201  1  0.38752258  0.99477142  0.94122069  1.0
  O  O202  1  0.65370886  0.89393789  0.94592303  1.0
  O  O203  1  0.39184416  0.15097520  0.94559933  1.0
  O  O204  1  0.65528252  0.00753875  0.94997169  1.0
  O  O205  1  0.49759995  0.88670760  0.94115220  1.0
  O  O206  1  0.57686784  0.81662838  0.02311860  1.0
  O  O207  1  0.52950237  0.03390671  0.08568959  1.0
  O  O208  1  0.52501593  0.87689484  0.08072293  1.0
  O  O209  1  0.58557045  0.08710149  0.03078569  1.0
  O  O210  1  0.31576404  0.07548653  0.02119753  1.0
  O  O211  1  0.37223815  0.02962379  0.08077278  1.0
  O  O212  1  0.80222776  0.57676786  0.38034117  1.0
  O  O213  1  0.72134702  0.53599484  0.42023267  1.0
  O  O214  1  0.10011110  0.71947428  0.52113795  1.0
  O  O215  1  0.22058735  0.63769191  0.52159313  1.0
  O  O216  1  0.78865450  0.16916580  0.09025349  1.0
  O  O217  1  0.68703735  0.27024788  0.07129379  1.0
  O  O218  1  0.17265834  0.94861945  0.87058368  1.0
  O  O219  1  0.21401901  0.02766530  0.82927545  1.0
