# generated using pymatgen
data_ZnH16C20NO5
_symmetry_space_group_name_H-M   'P 1'
_cell_length_a   10.87728185
_cell_length_b   16.48689331
_cell_length_c   17.63441594
_cell_angle_alpha   89.82590484
_cell_angle_beta   89.36784424
_cell_angle_gamma   89.67403925
_symmetry_Int_Tables_number   1
_chemical_formula_structural   ZnH16C20NO5
_chemical_formula_sum   'Zn2 H32 C40 N2 O10'
_cell_volume   3162.16774363
_cell_formula_units_Z   2
loop_
 _symmetry_equiv_pos_site_id
 _symmetry_equiv_pos_as_xyz
  1  'x, y, z'
loop_
 _atom_site_type_symbol
 _atom_site_label
 _atom_site_symmetry_multiplicity
 _atom_site_fract_x
 _atom_site_fract_y
 _atom_site_fract_z
 _atom_site_occupancy
  Zn  Zn0  1  0.48868729  0.58433436  0.50271806  1.0
  Zn  Zn1  1  0.48747957  0.41750736  0.49867557  1.0
  H  H2  1  0.88656136  0.61742233  0.54755016  1.0
  H  H3  1  0.33124518  0.28673173  0.56237888  1.0
  H  H4  1  0.34747101  0.86925543  0.58327073  1.0
  H  H5  1  0.33209749  0.13391018  0.56856100  1.0
  H  H6  1  0.86988697  0.61629571  0.44840900  1.0
  H  H7  1  0.89550785  0.48318022  0.37981090  1.0
  H  H8  1  0.08323113  0.60549857  0.42756392  1.0
  H  H9  1  0.10777279  0.45842350  0.38381919  1.0
  H  H10  1  0.09910544  0.62978068  0.52403713  1.0
  H  H11  1  0.09101183  0.38110564  0.45243013  1.0
  H  H12  1  0.07600400  0.51763176  0.62089651  1.0
  H  H13  1  0.87821145  0.39051647  0.42925755  1.0
  H  H14  1  0.10774105  0.41638248  0.59398131  1.0
  H  H15  1  0.59891605  0.62898434  0.87723541  1.0
  H  H16  1  0.60161069  0.36746135  0.87421470  1.0
  H  H17  1  0.54355226  0.63040489  0.73962749  1.0
  H  H18  1  0.54950698  0.37063852  0.73609566  1.0
  H  H19  1  0.60552533  0.62989837  0.12042445  1.0
  H  H20  1  0.58905074  0.36869128  0.12580641  1.0
  H  H21  1  0.97337980  0.46777025  0.72302029  1.0
  H  H22  1  0.83617898  0.40753381  0.71640337  1.0
  H  H23  1  0.82631843  0.51014070  0.74769668  1.0
  H  H24  1  0.55475985  0.63347365  0.25927276  1.0
  H  H25  1  0.03836653  0.29923207  0.56693951  1.0
  H  H26  1  0.90093829  0.25889692  0.60864612  1.0
  H  H27  1  0.99271841  0.32778850  0.66120803  1.0
  H  H28  1  0.53521620  0.37398229  0.26425566  1.0
  H  H29  1  0.65063333  0.86205580  0.42223202  1.0
  H  H30  1  0.66549088  0.13811377  0.43227968  1.0
  H  H31  1  0.63689738  0.70956618  0.42665476  1.0
  H  H32  1  0.65248292  0.29093623  0.43548395  1.0
  H  H33  1  0.34844108  0.71653240  0.58092215  1.0
  C  C34  1  0.50790470  0.50635180  0.35239203  1.0
  C  C35  1  0.61634383  0.49737790  0.03407798  1.0
  C  C36  1  0.59115643  0.57394139  0.15230873  1.0
  C  C37  1  0.58153546  0.42659091  0.15523529  1.0
  C  C38  1  0.56254548  0.57598575  0.22922157  1.0
  C  C39  1  0.55176250  0.42940200  0.23197367  1.0
  C  C40  1  0.54086493  0.50395449  0.26963992  1.0
  C  C41  1  0.72706849  0.49670546  0.49949576  1.0
  C  C42  1  0.59941690  0.49907417  0.11370989  1.0
  C  C43  1  0.58233380  0.83212169  0.45799891  1.0
  C  C44  1  0.59033745  0.16874254  0.46201011  1.0
  C  C45  1  0.05781584  0.47147127  0.57762541  1.0
  C  C46  1  0.57539901  0.74811400  0.46018239  1.0
  C  C47  1  0.58323369  0.25284249  0.46285526  1.0
  C  C48  1  0.41296208  0.75192054  0.54673125  1.0
  C  C49  1  0.40336343  0.25053461  0.53514820  1.0
  C  C50  1  0.41304249  0.83608400  0.54788677  1.0
  C  C51  1  0.40405514  0.16642594  0.53795576  1.0
  C  C52  1  0.49929770  0.87807182  0.50250118  1.0
  C  C53  1  0.49906823  0.12359788  0.50027818  1.0
  C  C54  1  0.50152277  0.96384713  0.50159735  1.0
  C  C55  1  0.50161778  0.03780475  0.50090990  1.0
  C  C56  1  0.58755147  0.57249847  0.84618047  1.0
  C  C57  1  0.50539151  0.50183340  0.64851431  1.0
  C  C58  1  0.24879822  0.49931761  0.50162167  1.0
  C  C59  1  0.91553003  0.58553839  0.49585509  1.0
  C  C60  1  0.92122257  0.45032988  0.43174977  1.0
  C  C61  1  0.05658116  0.58642454  0.48523228  1.0
  C  C62  1  0.06248908  0.44328006  0.43808112  1.0
  C  C63  1  0.91695178  0.45791258  0.57430309  1.0
  C  C64  1  0.86792772  0.49771933  0.49983012  1.0
  C  C65  1  0.10835382  0.50118051  0.50031370  1.0
  C  C66  1  0.87462844  0.46872364  0.70886574  1.0
  C  C67  1  0.58927940  0.42496121  0.84449427  1.0
  C  C68  1  0.95871820  0.31319530  0.60423515  1.0
  C  C69  1  0.55647484  0.57338404  0.76999179  1.0
  C  C70  1  0.55946169  0.42658917  0.76813129  1.0
  C  C71  1  0.54038547  0.50058223  0.73047804  1.0
  C  C72  1  0.60137400  0.49807656  0.88527708  1.0
  C  C73  1  0.61736018  0.49715624  0.96478481  1.0
  N  N74  1  0.49222945  0.70893381  0.50354417  1.0
  N  N75  1  0.49112518  0.29277636  0.49834377  1.0
  O  O76  1  0.51752648  0.57445641  0.38582650  1.0
  O  O77  1  0.88132360  0.37430683  0.57315495  1.0
  O  O78  1  0.47374936  0.43999946  0.38319812  1.0
  O  O79  1  0.67223521  0.56328766  0.51421569  1.0
  O  O80  1  0.67433306  0.43048606  0.48311460  1.0
  O  O81  1  0.47367509  0.56984317  0.61997415  1.0
  O  O82  1  0.51066225  0.43431584  0.61353896  1.0
  O  O83  1  0.30494052  0.56603310  0.49144552  1.0
  O  O84  1  0.29993458  0.43051581  0.51237216  1.0
  O  O85  1  0.85348840  0.49892566  0.63440519  1.0
