# generated using pymatgen
data_InH8(C2O)8
_symmetry_space_group_name_H-M   'P 1'
_cell_length_a   12.65410441
_cell_length_b   14.40239023
_cell_length_c   14.40461563
_cell_angle_alpha   119.96364294
_cell_angle_beta   89.99801433
_cell_angle_gamma   89.99729962
_symmetry_Int_Tables_number   1
_chemical_formula_structural   InH8(C2O)8
_chemical_formula_sum   'In3 H24 C48 O24'
_cell_volume   2274.34991310
_cell_formula_units_Z   3
loop_
 _symmetry_equiv_pos_site_id
 _symmetry_equiv_pos_as_xyz
  1  'x, y, z'
loop_
 _atom_site_type_symbol
 _atom_site_label
 _atom_site_symmetry_multiplicity
 _atom_site_fract_x
 _atom_site_fract_y
 _atom_site_fract_z
 _atom_site_occupancy
  In  In0  1  0.83339317  0.50000551  0.50002841  1.0
  In  In1  1  0.16661523  0.99999500  0.49999918  1.0
  In  In2  1  0.49999243  0.50000418  0.99996118  1.0
  H  H3  1  0.08635730  0.66713724  0.78158416  1.0
  H  H4  1  0.41983043  0.88560752  0.66697269  1.0
  H  H5  1  0.75322022  0.21853607  0.88576761  1.0
  H  H6  1  0.08641851  0.33291304  0.21848023  1.0
  H  H7  1  0.41983336  0.11439288  0.33289688  1.0
  H  H8  1  0.75318374  0.78150571  0.11431650  1.0
  H  H9  1  0.58027408  0.21851674  0.33294634  1.0
  H  H10  1  0.91346595  0.88569321  0.21854215  1.0
  H  H11  1  0.24679096  0.66712776  0.88568306  1.0
  H  H12  1  0.58024449  0.78149689  0.66702673  1.0
  H  H13  1  0.91351068  0.11429853  0.78155830  1.0
  H  H14  1  0.24686651  0.33287646  0.11436912  1.0
  H  H15  1  0.08915237  0.32165550  0.60713672  1.0
  H  H16  1  0.42250725  0.71471990  0.32156458  1.0
  H  H17  1  0.75591530  0.39306029  0.71464437  1.0
  H  H18  1  0.08920028  0.67840158  0.39288264  1.0
  H  H19  1  0.42243150  0.28523761  0.67835940  1.0
  H  H20  1  0.75587507  0.60691057  0.28536353  1.0
  H  H21  1  0.57746859  0.39285920  0.67835612  1.0
  H  H22  1  0.91074546  0.71461064  0.39309966  1.0
  H  H23  1  0.24418829  0.32162282  0.71474565  1.0
  H  H24  1  0.57751265  0.60707149  0.32160449  1.0
  H  H25  1  0.91081159  0.28533505  0.60690681  1.0
  H  H26  1  0.24423609  0.67838503  0.28524639  1.0
  C  C27  1  0.12244722  0.59260872  0.76774982  1.0
  C  C28  1  0.45588548  0.82494111  0.59246226  1.0
  C  C29  1  0.78924639  0.23232973  0.82502444  1.0
  C  C30  1  0.12250754  0.40743846  0.23231251  1.0
  C  C31  1  0.45587270  0.17506582  0.40743367  1.0
  C  C32  1  0.78920614  0.76768814  0.17504583  1.0
  C  C33  1  0.54419262  0.23232420  0.40744431  1.0
  C  C34  1  0.87744086  0.82498099  0.23237130  1.0
  C  C35  1  0.21073809  0.59259562  0.82499507  1.0
  C  C36  1  0.54419600  0.76768371  0.59249933  1.0
  C  C37  1  0.87749591  0.17501221  0.76772206  1.0
  C  C38  1  0.21080127  0.40743733  0.17505808  1.0
  C  C39  1  0.07858942  0.49466394  0.68973599  1.0
  C  C40  1  0.41192735  0.80501951  0.49453018  1.0
  C  C41  1  0.74536343  0.31041637  0.80507474  1.0
  C  C42  1  0.07864045  0.50537711  0.31030039  1.0
  C  C43  1  0.41190205  0.19498049  0.50537409  1.0
  C  C44  1  0.74532469  0.68959536  0.19497651  1.0
  C  C45  1  0.58806145  0.31032852  0.50538095  1.0
  C  C46  1  0.92129939  0.80501689  0.31040672  1.0
  C  C47  1  0.25468034  0.49463670  0.80504583  1.0
  C  C48  1  0.58806945  0.68963903  0.49458069  1.0
  C  C49  1  0.92135358  0.19495283  0.68964713  1.0
  C  C50  1  0.25474118  0.50538558  0.19498810  1.0
  C  C51  1  0.12307146  0.39672439  0.66924245  1.0
  C  C52  1  0.45642355  0.72765211  0.39663755  1.0
  C  C53  1  0.78977979  0.33091544  0.72759332  1.0
  C  C54  1  0.12310030  0.60330749  0.33077548  1.0
  C  C55  1  0.45635880  0.27232186  0.60329262  1.0
  C  C56  1  0.78973327  0.66906869  0.27244138  1.0
  C  C57  1  0.54357557  0.33078752  0.60329619  1.0
  C  C58  1  0.87687422  0.72755480  0.33093504  1.0
  C  C59  1  0.21026456  0.39671497  0.72768426  1.0
  C  C60  1  0.54362212  0.66917157  0.39666745  1.0
  C  C61  1  0.87692142  0.27240566  0.66908709  1.0
  C  C62  1  0.21031069  0.60329802  0.27232973  1.0
  C  C63  1  0.98574044  0.49485640  0.62714750  1.0
  C  C64  1  0.31905725  0.86769830  0.49470660  1.0
  C  C65  1  0.65256338  0.37298037  0.86780360  1.0
  C  C66  1  0.98579800  0.50519890  0.37288861  1.0
  C  C67  1  0.31900950  0.13227736  0.50517133  1.0
  C  C68  1  0.65253832  0.62704147  0.13221839  1.0
  C  C69  1  0.68090741  0.37290112  0.50520609  1.0
  C  C70  1  0.01408851  0.86776315  0.37298924  1.0
  C  C71  1  0.34759536  0.49482421  0.86774391  1.0
  C  C72  1  0.68088894  0.62709158  0.49479410  1.0
  C  C73  1  0.01413025  0.13218191  0.62704579  1.0
  C  C74  1  0.34763860  0.50517913  0.13225448  1.0
  O  O75  1  0.92899050  0.57861534  0.65939198  1.0
  O  O76  1  0.26232557  0.91914655  0.57849658  1.0
  O  O77  1  0.59582377  0.34071649  0.91936722  1.0
  O  O78  1  0.92904089  0.42142937  0.34063248  1.0
  O  O79  1  0.26230920  0.08084014  0.42138051  1.0
  O  O80  1  0.59583727  0.65932041  0.08065247  1.0
  O  O81  1  0.73770071  0.34063232  0.42146073  1.0
  O  O82  1  0.07080602  0.91931307  0.34070206  1.0
  O  O83  1  0.40424899  0.57864261  0.91923496  1.0
  O  O84  1  0.73768092  0.65936936  0.57854822  1.0
  O  O85  1  0.07085340  0.08061694  0.65930542  1.0
  O  O86  1  0.40428656  0.42135613  0.08073068  1.0
  O  O87  1  0.96304005  0.41053579  0.53815187  1.0
  O  O88  1  0.29622498  0.87242722  0.41037760  1.0
  O  O89  1  0.62976850  0.46198035  0.87238575  1.0
  O  O90  1  0.96305937  0.58952056  0.46190068  1.0
  O  O91  1  0.29618622  0.12754390  0.58948482  1.0
  O  O92  1  0.62973297  0.53804657  0.12761860  1.0
  O  O93  1  0.70364234  0.46192859  0.58951120  1.0
  O  O94  1  0.03686862  0.87238795  0.46199714  1.0
  O  O95  1  0.37045212  0.41044627  0.87236259  1.0
  O  O96  1  0.70366414  0.53806144  0.41048354  1.0
  O  O97  1  0.03686342  0.12755845  0.53804832  1.0
  O  O98  1  0.37047690  0.58954718  0.12762119  1.0
