# generated using pymatgen
data_AlH12C27S3N7O15
_symmetry_space_group_name_H-M   'P 1'
_cell_length_a   4.27713148
_cell_length_b   17.94975456
_cell_length_c   17.97166276
_cell_angle_alpha   60.11997413
_cell_angle_beta   87.25966343
_cell_angle_gamma   89.04924507
_symmetry_Int_Tables_number   1
_chemical_formula_structural   AlH12C27S3N7O15
_chemical_formula_sum   'Al1 H12 C27 S3 N7 O15'
_cell_volume   1194.92802419
_cell_formula_units_Z   1
loop_
 _symmetry_equiv_pos_site_id
 _symmetry_equiv_pos_as_xyz
  1  'x, y, z'
loop_
 _atom_site_type_symbol
 _atom_site_label
 _atom_site_symmetry_multiplicity
 _atom_site_fract_x
 _atom_site_fract_y
 _atom_site_fract_z
 _atom_site_occupancy
  Al  Al0  1  0.06480265  0.49931921  0.50065219  1.0
  H  H1  1  0.42213214  0.11134092  0.58512447  1.0
  H  H2  1  0.45499825  0.80404383  0.11583568  1.0
  H  H3  1  0.39232305  0.58001208  0.80750428  1.0
  H  H4  1  0.53455612  0.57214283  0.10124661  1.0
  H  H5  1  0.52001645  0.71915091  0.27453003  1.0
  H  H6  1  0.46151432  0.50646140  0.72068376  1.0
  H  H7  1  0.47654903  0.82601243  0.57601076  1.0
  H  H8  1  0.48563314  0.09989830  0.82900964  1.0
  H  H9  1  0.49117829  0.27104355  0.50963363  1.0
  H  H10  1  0.04721723  0.33349638  0.74997932  1.0
  H  H11  1  0.06770926  0.74940145  0.41847987  1.0
  H  H12  1  0.10178548  0.41664179  0.33195507  1.0
  C  C13  1  0.55626163  0.37127452  0.57823492  1.0
  C  C14  1  0.58287377  0.54993156  0.37274220  1.0
  C  C15  1  0.54661281  0.57697091  0.55138589  1.0
  C  C16  1  0.44499562  0.14451888  0.62148950  1.0
  C  C17  1  0.44290950  0.09613011  0.71158926  1.0
  C  C18  1  0.48121505  0.73451896  0.14822505  1.0
  C  C19  1  0.48145559  0.69299823  0.09945171  1.0
  C  C20  1  0.42147212  0.70734407  0.69689914  1.0
  C  C21  1  0.41924188  0.61718000  0.73770349  1.0
  C  C22  1  0.52261452  0.60376491  0.13965414  1.0
  C  C23  1  0.56048733  0.55701497  0.22778700  1.0
  C  C24  1  0.55676835  0.59801911  0.27715635  1.0
  C  C25  1  0.51870797  0.68729031  0.23631883  1.0
  C  C26  1  0.45891024  0.57643205  0.68937371  1.0
  C  C27  1  0.50214002  0.62473621  0.59974635  1.0
  C  C28  1  0.50402464  0.71497226  0.55929019  1.0
  C  C29  1  0.46312162  0.75620265  0.60721893  1.0
  C  C30  1  0.47750100  0.13767764  0.75931031  1.0
  C  C31  1  0.51349046  0.22654286  0.71705420  1.0
  C  C32  1  0.51830215  0.27536264  0.62683237  1.0
  C  C33  1  0.48399288  0.23328448  0.57962828  1.0
  C  C34  1  0.40055532  0.87942180  0.74682201  1.0
  C  C35  1  0.43827796  0.87484776  0.88410968  1.0
  C  C36  1  0.42363914  0.00152313  0.75656283  1.0
  C  C37  1  0.40487497  0.75151300  0.74756370  1.0
  C  C38  1  0.42461603  0.74136980  0.87934098  1.0
  C  C39  1  0.45486783  0.74281498  0.00549145  1.0
  S  S40  1  0.59425097  0.27170402  0.78329281  1.0
  S  S41  1  0.61066223  0.78250204  0.44770646  1.0
  S  S42  1  0.65951009  0.44621691  0.27068294  1.0
  N  N43  1  0.42173411  0.83186963  0.83674362  1.0
  N  N44  1  0.44161137  0.96039984  0.84256703  1.0
  N  N45  1  0.39702700  0.96500238  0.70745869  1.0
  N  N46  1  0.38896579  0.83782934  0.70293564  1.0
  N  N47  1  0.41647078  0.70178487  0.83333707  1.0
  N  N48  1  0.45401577  0.82892689  0.96929677  1.0
  N  N49  1  0.43984746  0.69747080  0.96451425  1.0
  O  O50  1  0.33058173  0.58472896  0.50164460  1.0
  O  O51  1  0.32741589  0.41369549  0.58580572  1.0
  O  O52  1  0.35464550  0.49952478  0.41544581  1.0
  O  O53  1  0.79019164  0.53112176  0.56728152  1.0
  O  O54  1  0.82104882  0.56618649  0.40180743  1.0
  O  O55  1  0.80729397  0.40054261  0.53241025  1.0
  O  O56  1  0.31698939  0.31362238  0.79601038  1.0
  O  O57  1  0.73331986  0.20636109  0.85926798  1.0
  O  O58  1  0.82265358  0.34601833  0.72419355  1.0
  O  O59  1  0.34632242  0.79583482  0.39387788  1.0
  O  O60  1  0.75815369  0.85818814  0.43782417  1.0
  O  O61  1  0.83763276  0.72417704  0.43033559  1.0
  O  O62  1  0.38517421  0.39065073  0.31239247  1.0
  O  O63  1  0.82214061  0.43740921  0.20392689  1.0
  O  O64  1  0.87001473  0.43045183  0.34472814  1.0
