# generated using pymatgen
data_Zn4H23C46N4O18F5
_symmetry_space_group_name_H-M   'P 1'
_cell_length_a   9.62990595
_cell_length_b   11.08817360
_cell_length_c   26.56955665
_cell_angle_alpha   90.17984583
_cell_angle_beta   89.51113536
_cell_angle_gamma   89.91686091
_symmetry_Int_Tables_number   1
_chemical_formula_structural   Zn4H23C46N4O18F5
_chemical_formula_sum   'Zn4 H23 C46 N4 O18 F5'
_cell_volume   2836.92560936
_cell_formula_units_Z   1
loop_
 _symmetry_equiv_pos_site_id
 _symmetry_equiv_pos_as_xyz
  1  'x, y, z'
loop_
 _atom_site_type_symbol
 _atom_site_label
 _atom_site_symmetry_multiplicity
 _atom_site_fract_x
 _atom_site_fract_y
 _atom_site_fract_z
 _atom_site_occupancy
  Zn  Zn0  1  0.64098373  0.49684979  0.49943758  1.0
  Zn  Zn1  1  0.35916073  0.50204239  0.49893980  1.0
  Zn  Zn2  1  0.35950664  0.49986048  0.08333453  1.0
  Zn  Zn3  1  0.64106603  0.50421216  0.08163072  1.0
  H  H4  1  0.12763816  0.63551259  0.55432642  1.0
  H  H5  1  0.14245335  0.36420579  0.44584419  1.0
  H  H6  1  0.86049179  0.63102341  0.55218697  1.0
  H  H7  1  0.72326933  0.89180688  0.49989775  1.0
  H  H8  1  0.27676023  0.88217104  0.49923081  1.0
  H  H9  1  0.71369584  0.11832173  0.49974418  1.0
  H  H10  1  0.72476336  0.50059344  0.66035484  1.0
  H  H11  1  0.27390483  0.50163719  0.92143212  1.0
  H  H12  1  0.71819999  0.50192529  0.92033392  1.0
  H  H13  1  0.71794261  0.50094518  0.82835730  1.0
  H  H14  1  0.28051440  0.50100412  0.66129605  1.0
  H  H15  1  0.28061723  0.50074154  0.75330241  1.0
  H  H16  1  0.28120254  0.50201451  0.24358646  1.0
  H  H17  1  0.72798125  0.50428320  0.24360909  1.0
  H  H18  1  0.28166167  0.50176773  0.33814921  1.0
  H  H19  1  0.87329043  0.63667443  0.02678123  1.0
  H  H20  1  0.85699367  0.36677928  0.13512220  1.0
  H  H21  1  0.14039314  0.63226291  0.02967309  1.0
  H  H22  1  0.27658336  0.89484038  0.08173503  1.0
  H  H23  1  0.72310465  0.88433205  0.08229452  1.0
  H  H24  1  0.28600600  0.12130568  0.08173314  1.0
  H  H25  1  0.82675281  0.49775346  0.72989385  1.0
  H  H26  1  0.17182507  0.49847165  0.85186758  1.0
  C  C27  1  0.50368771  0.73727944  0.50029189  1.0
  C  C28  1  0.50546853  0.50232016  0.59810929  1.0
  C  C29  1  0.49407947  0.26310927  0.49938099  1.0
  C  C30  1  0.49549316  0.50156020  0.40055937  1.0
  C  C31  1  0.49667640  0.73987290  0.08167348  1.0
  C  C32  1  0.49413018  0.50392244  0.98360252  1.0
  C  C33  1  0.50585363  0.26562645  0.08212579  1.0
  C  C34  1  0.50639549  0.50371992  0.18120549  1.0
  C  C35  1  0.93481039  0.42398617  0.46889652  1.0
  C  C36  1  0.06970549  0.57506884  0.52987850  1.0
  C  C37  1  0.07982761  0.42424949  0.46935328  1.0
  C  C38  1  0.92565270  0.57274918  0.52876259  1.0
  C  C39  1  0.49210761  0.12781669  0.49942760  1.0
  C  C40  1  0.50099032  0.87269085  0.50002996  1.0
  C  C41  1  0.37040379  0.05808320  0.49918304  1.0
  C  C42  1  0.62438758  0.93955998  0.49996942  1.0
  C  C43  1  0.37336975  0.93298500  0.49955752  1.0
  C  C44  1  0.61900271  0.06470886  0.49975222  1.0
  C  C45  1  0.50313966  0.50184993  0.65434340  1.0
  C  C46  1  0.49560790  0.50295906  0.92740044  1.0
  C  C47  1  0.62657643  0.50114420  0.68130255  1.0
  C  C48  1  0.62819960  0.50041011  0.73381073  1.0
  C  C49  1  0.37209785  0.50207217  0.90048703  1.0
  C  C50  1  0.37041372  0.50092767  0.84795800  1.0
  C  C51  1  0.62028220  0.50228666  0.90013735  1.0
  C  C52  1  0.61901955  0.50147691  0.84794548  1.0
  C  C53  1  0.37837904  0.50144636  0.68152564  1.0
  C  C54  1  0.37955060  0.50106118  0.73372724  1.0
  C  C55  1  0.50237333  0.50079514  0.76286768  1.0
  C  C56  1  0.49612581  0.50103503  0.81882807  1.0
  C  C57  1  0.50277998  0.50221322  0.34413011  1.0
  C  C58  1  0.50421336  0.50322728  0.23764930  1.0
  C  C59  1  0.62736422  0.50284158  0.31616224  1.0
  C  C60  1  0.37810687  0.50241799  0.26440429  1.0
  C  C61  1  0.62934555  0.50346630  0.26390800  1.0
  C  C62  1  0.37851469  0.50206923  0.31665750  1.0
  C  C63  1  0.06490113  0.42699285  0.11294323  1.0
  C  C64  1  0.93088937  0.57655343  0.05137487  1.0
  C  C65  1  0.91995579  0.42662070  0.11186180  1.0
  C  C66  1  0.07495374  0.57445528  0.05296368  1.0
  C  C67  1  0.50758178  0.13037820  0.08191862  1.0
  C  C68  1  0.49888059  0.87526010  0.08164834  1.0
  C  C69  1  0.62934275  0.06041352  0.08209986  1.0
  C  C70  1  0.37544562  0.94237387  0.08161994  1.0
  C  C71  1  0.62646790  0.93531435  0.08193188  1.0
  C  C72  1  0.38074278  0.06751443  0.08170640  1.0
  N  N73  1  0.85871487  0.49621532  0.49782461  1.0
  N  N74  1  0.14442972  0.50075429  0.50008019  1.0
  N  N75  1  0.14144358  0.49880616  0.08428042  1.0
  N  N76  1  0.85580536  0.50256868  0.08089644  1.0
  O  O77  1  0.62164531  0.68546232  0.50108035  1.0
  O  O78  1  0.38598146  0.68445847  0.49958723  1.0
  O  O79  1  0.38866220  0.50095798  0.57585173  1.0
  O  O80  1  0.62434244  0.50380704  0.57638003  1.0
  O  O81  1  0.37866403  0.31857653  0.49612042  1.0
  O  O82  1  0.61285615  0.31285955  0.50261826  1.0
  O  O83  1  0.60985917  0.50053291  0.42424698  1.0
  O  O84  1  0.37499553  0.50204847  0.42074082  1.0
  O  O85  1  0.37884936  0.68782742  0.08175769  1.0
  O  O86  1  0.61456052  0.68716857  0.08169929  1.0
  O  O87  1  0.61174013  0.50323364  0.00536457  1.0
  O  O88  1  0.37606159  0.50511680  0.00593693  1.0
  O  O89  1  0.62168606  0.32049642  0.08394719  1.0
  O  O90  1  0.38690998  0.31598934  0.08050320  1.0
  O  O91  1  0.38916944  0.50397251  0.15923552  1.0
  O  O92  1  0.62465328  0.50376483  0.15934670  1.0
  O  O93  1  0.75650511  0.49917181  0.75649872  1.0
  O  O94  1  0.24211849  0.49952442  0.82528201  1.0
  F  F95  1  0.86860431  0.34828586  0.43849815  1.0
  F  F96  1  0.24257437  0.11076836  0.49868120  1.0
  F  F97  1  0.75295207  0.50299077  0.33915228  1.0
  F  F98  1  0.13071456  0.35263161  0.14400196  1.0
  F  F99  1  0.75718743  0.11272436  0.08249934  1.0
