# generated using pymatgen
data_CdH16(C9O2)3
_symmetry_space_group_name_H-M   'P 1'
_cell_length_a   8.03655262
_cell_length_b   28.32203497
_cell_length_c   28.32940105
_cell_angle_alpha   119.99175417
_cell_angle_beta   89.99828967
_cell_angle_gamma   90.00111782
_symmetry_Int_Tables_number   1
_chemical_formula_structural   CdH16(C9O2)3
_chemical_formula_sum   'Cd6 H96 C162 O36'
_cell_volume   5584.68074407
_cell_formula_units_Z   6
loop_
 _symmetry_equiv_pos_site_id
 _symmetry_equiv_pos_as_xyz
  1  'x, y, z'
loop_
 _atom_site_type_symbol
 _atom_site_label
 _atom_site_symmetry_multiplicity
 _atom_site_fract_x
 _atom_site_fract_y
 _atom_site_fract_z
 _atom_site_occupancy
  Cd  Cd0  1  0.83340963  0.00008465  0.60931579  1.0
  Cd  Cd1  1  0.49998823  0.60929146  0.99999615  1.0
  Cd  Cd2  1  0.16657598  0.39078030  0.39068392  1.0
  Cd  Cd3  1  0.50000603  0.37466649  0.99999581  1.0
  Cd  Cd4  1  0.16671282  0.62533068  0.62533570  1.0
  Cd  Cd5  1  0.83326284  0.99999586  0.37467590  1.0
  H  H6  1  0.64047461  0.13623626  0.77676473  1.0
  H  H7  1  0.30725480  0.64053727  0.86375028  1.0
  H  H8  1  0.97383231  0.22326410  0.35950555  1.0
  H  H9  1  0.35952760  0.35947250  0.22322877  1.0
  H  H10  1  0.69271266  0.77678226  0.13625472  1.0
  H  H11  1  0.02615675  0.86375081  0.64048176  1.0
  H  H12  1  0.42761270  0.19754767  0.84345567  1.0
  H  H13  1  0.09442590  0.64587871  0.80240482  1.0
  H  H14  1  0.76097195  0.15656718  0.35417171  1.0
  H  H15  1  0.57240109  0.35409156  0.15653907  1.0
  H  H16  1  0.90554899  0.84346983  0.19760378  1.0
  H  H17  1  0.23901052  0.80238794  0.64581462  1.0
  H  H18  1  0.06245775  0.13446525  0.71455945  1.0
  H  H19  1  0.72920981  0.58010256  0.86555218  1.0
  H  H20  1  0.39583189  0.28550674  0.41994913  1.0
  H  H21  1  0.93755867  0.41989384  0.28543524  1.0
  H  H22  1  0.27075632  0.71454835  0.13444794  1.0
  H  H23  1  0.60415796  0.86555133  0.58003700  1.0
  H  H24  1  0.27715247  0.07378967  0.64884892  1.0
  H  H25  1  0.94385673  0.57510333  0.92625436  1.0
  H  H26  1  0.61051017  0.35121993  0.42494440  1.0
  H  H27  1  0.72285113  0.42493005  0.35114321  1.0
  H  H28  1  0.05611323  0.64884689  0.07374327  1.0
  H  H29  1  0.38948494  0.92626994  0.57504252  1.0
  H  H30  1  0.27972979  0.27401907  0.86993446  1.0
  H  H31  1  0.94653481  0.59589323  0.72597076  1.0
  H  H32  1  0.61297822  0.13010891  0.40416367  1.0
  H  H33  1  0.72028303  0.40407847  0.13006514  1.0
  H  H34  1  0.05346624  0.86991071  0.27403792  1.0
  H  H35  1  0.38699522  0.72593496  0.59582213  1.0
  H  H36  1  0.06467079  0.33688816  0.93360133  1.0
  H  H37  1  0.73150090  0.59669592  0.66310153  1.0
  H  H38  1  0.39785916  0.06642566  0.40334456  1.0
  H  H39  1  0.93533029  0.40328612  0.06639644  1.0
  H  H40  1  0.26851218  0.93358009  0.33690436  1.0
  H  H41  1  0.60210031  0.66307959  0.59665730  1.0
  H  H42  1  0.68956992  0.21560603  0.84930564  1.0
  H  H43  1  0.35636892  0.63368369  0.78435922  1.0
  H  H44  1  0.02295629  0.15069380  0.36623224  1.0
  H  H45  1  0.31045041  0.36631282  0.15069153  1.0
  H  H46  1  0.64361436  0.84932248  0.21563278  1.0
  H  H47  1  0.97701376  0.78446271  0.63376627  1.0
  H  H48  1  0.90274750  0.15164883  0.78521025  1.0
  H  H49  1  0.56952758  0.63355716  0.84831798  1.0
  H  H50  1  0.23619403  0.21481140  0.36640719  1.0
  H  H51  1  0.09728199  0.36643888  0.21478395  1.0
  H  H52  1  0.43043871  0.78523667  0.15167851  1.0
  H  H53  1  0.76378633  0.84839553  0.63357491  1.0
  H  H54  1  0.06487062  0.19569837  0.65490626  1.0
  H  H55  1  0.73158983  0.45926729  0.80434741  1.0
  H  H56  1  0.39810796  0.34507384  0.54079309  1.0
  H  H57  1  0.93510539  0.54079753  0.34509423  1.0
  H  H58  1  0.26847030  0.65491640  0.19565201  1.0
  H  H59  1  0.60191540  0.80426531  0.45920211  1.0
  H  H60  1  0.97133103  0.24198945  0.74899236  1.0
  H  H61  1  0.63795955  0.50706293  0.75803941  1.0
  H  H62  1  0.30448173  0.25096978  0.49292600  1.0
  H  H63  1  0.02863370  0.49300892  0.25100891  1.0
  H  H64  1  0.36209170  0.74902201  0.24195825  1.0
  H  H65  1  0.69553690  0.75802111  0.50705943  1.0
  H  H66  1  0.46206637  0.20734794  0.69428521  1.0
  H  H67  1  0.12872939  0.48691881  0.79267519  1.0
  H  H68  1  0.79524653  0.30575628  0.51316164  1.0
  H  H69  1  0.53789139  0.51303106  0.30570727  1.0
  H  H70  1  0.87132671  0.69424804  0.20734905  1.0
  H  H71  1  0.20477048  0.79259224  0.48683965  1.0
  H  H72  1  0.55573240  0.15800813  0.60014801  1.0
  H  H73  1  0.22249392  0.44211597  0.84202469  1.0
  H  H74  1  0.88900618  0.39991317  0.55802366  1.0
  H  H75  1  0.44423384  0.55781673  0.39984463  1.0
  H  H76  1  0.77757246  0.60009333  0.15800514  1.0
  H  H77  1  0.11101073  0.84189488  0.44198957  1.0
  H  H78  1  0.89491282  0.32104940  0.80310665  1.0
  H  H79  1  0.56147407  0.48204835  0.67897124  1.0
  H  H80  1  0.22807564  0.19687557  0.51792482  1.0
  H  H81  1  0.10510081  0.51794310  0.19689076  1.0
  H  H82  1  0.43855005  0.80307513  0.32103569  1.0
  H  H83  1  0.77193863  0.67894035  0.48208925  1.0
  H  H84  1  0.79760697  0.41480380  0.84515619  1.0
  H  H85  1  0.46414262  0.43032673  0.58524432  1.0
  H  H86  1  0.13080668  0.15484727  0.56964879  1.0
  H  H87  1  0.20244026  0.56965295  0.15485072  1.0
  H  H88  1  0.53588847  0.84508095  0.41476209  1.0
  H  H89  1  0.86919688  0.58518635  0.43036127  1.0
  H  H90  1  0.62370112  0.18865232  0.54602863  1.0
  H  H91  1  0.29051544  0.35734757  0.81135979  1.0
  H  H92  1  0.95706487  0.45399159  0.64272242  1.0
  H  H93  1  0.37631460  0.64260750  0.45395149  1.0
  H  H94  1  0.70950896  0.54599182  0.18866262  1.0
  H  H95  1  0.04295450  0.81127994  0.35728513  1.0
  H  H96  1  0.38769651  0.26388306  0.77316368  1.0
  H  H97  1  0.05430727  0.50927778  0.73615364  1.0
  H  H98  1  0.72081220  0.22682522  0.49073558  1.0
  H  H99  1  0.61229287  0.49071937  0.22685001  1.0
  H  H100  1  0.94572418  0.77313727  0.26385305  1.0
  H  H101  1  0.27921776  0.73607697  0.50924469  1.0
  C  C102  1  0.60754301  0.06896016  0.67103744  1.0
  C  C103  1  0.27424343  0.60213645  0.93109268  1.0
  C  C104  1  0.94089582  0.32900042  0.39787362  1.0
  C  C105  1  0.39245522  0.39792574  0.32895895  1.0
  C  C106  1  0.72572035  0.67104226  0.06890679  1.0
  C  C107  1  0.05909218  0.93111680  0.60211327  1.0
  C  C108  1  0.47354836  0.10284071  0.70885109  1.0
  C  C109  1  0.14029516  0.60604197  0.89718595  1.0
  C  C110  1  0.80691516  0.29119628  0.39399610  1.0
  C  C111  1  0.52645017  0.39398355  0.29114233  1.0
  C  C112  1  0.85967325  0.70885475  0.10281524  1.0
  C  C113  1  0.19307662  0.89719484  0.60599248  1.0
  C  C114  1  0.51380466  0.13719652  0.76387854  1.0
  C  C115  1  0.18058420  0.62669055  0.86279671  1.0
  C  C116  1  0.84715793  0.23615494  0.37334991  1.0
  C  C117  1  0.48620328  0.37331670  0.23611603  1.0
  C  C118  1  0.81939309  0.76389198  0.13720693  1.0
  C  C119  1  0.15283049  0.86279904  0.62663778  1.0
  C  C120  1  0.39492231  0.17116129  0.80069719  1.0
  C  C121  1  0.06173190  0.62952300  0.82881490  1.0
  C  C122  1  0.72828071  0.19933522  0.37052045  1.0
  C  C123  1  0.60509470  0.37046125  0.19929875  1.0
  C  C124  1  0.93824368  0.80070676  0.17119060  1.0
  C  C125  1  0.27170283  0.82880675  0.62946452  1.0
  C  C126  1  0.23099795  0.17134857  0.78349583  1.0
  C  C127  1  0.89778229  0.61213765  0.82863950  1.0
  C  C128  1  0.56436387  0.21654947  0.38790384  1.0
  C  C129  1  0.76901871  0.38784436  0.21649909  1.0
  C  C130  1  0.10219152  0.78349481  0.17136191  1.0
  C  C131  1  0.43561805  0.82863980  0.61208124  1.0
  C  C132  1  0.18955076  0.13533337  0.72845672  1.0
  C  C133  1  0.85631606  0.59312854  0.86467185  1.0
  C  C134  1  0.52293916  0.27160460  0.40692576  1.0
  C  C135  1  0.81046130  0.40686487  0.27153756  1.0
  C  C136  1  0.14365021  0.72845386  0.13532837  1.0
  C  C137  1  0.47704744  0.86467183  0.59305942  1.0
  C  C138  1  0.30936886  0.10150157  0.69139850  1.0
  C  C139  1  0.97612025  0.58992306  0.89852189  1.0
  C  C140  1  0.64275457  0.30866194  0.41012745  1.0
  C  C141  1  0.69063167  0.41009291  0.30859475  1.0
  C  C142  1  0.02384644  0.69139809  0.10147662  1.0
  C  C143  1  0.35724315  0.89852842  0.58985986  1.0
  C  C144  1  0.10591762  0.20853298  0.82255126  1.0
  C  C145  1  0.77271366  0.61400693  0.79145183  1.0
  C  C146  1  0.43925990  0.17748835  0.38602243  1.0
  C  C147  1  0.89409961  0.38597646  0.17744370  1.0
  C  C148  1  0.22726723  0.82254890  0.20855013  1.0
  C  C149  1  0.56071935  0.79145901  0.61396142  1.0
  C  C150  1  0.15017029  0.26087197  0.86517312  1.0
  C  C151  1  0.81697595  0.60428102  0.73911225  1.0
  C  C152  1  0.48344114  0.13486770  0.39576203  1.0
  C  C153  1  0.84983770  0.39569547  0.13482265  1.0
  C  C154  1  0.18302281  0.86515972  0.26089270  1.0
  C  C155  1  0.51653198  0.73909801  0.60422618  1.0
  C  C156  1  0.03018319  0.29642341  0.90072385  1.0
  C  C157  1  0.69700004  0.60428467  0.70356170  1.0
  C  C158  1  0.36341895  0.09930641  0.39574738  1.0
  C  C159  1  0.96982413  0.39569904  0.09927294  1.0
  C  C160  1  0.30300303  0.90071068  0.29644229  1.0
  C  C161  1  0.63654305  0.70355579  0.60424947  1.0
  C  C162  1  0.86303882  0.28000441  0.89439214  1.0
  C  C163  1  0.52985519  0.61437107  0.71997034  1.0
  C  C164  1  0.19630754  0.10563073  0.38562145  1.0
  C  C165  1  0.13696839  0.38561629  0.10560334  1.0
  C  C166  1  0.47014435  0.89439196  0.28002828  1.0
  C  C167  1  0.80365438  0.72001121  0.61438161  1.0
  C  C168  1  0.81939824  0.22755836  0.85292575  1.0
  C  C169  1  0.48619396  0.62535722  0.77241043  1.0
  C  C170  1  0.15274354  0.14708721  0.37460802  1.0
  C  C171  1  0.18062064  0.37464013  0.14707034  1.0
  C  C172  1  0.51379032  0.85294232  0.22758562  1.0
  C  C173  1  0.84722321  0.77247753  0.62538908  1.0
  C  C174  1  0.93850064  0.19230169  0.81739107  1.0
  C  C175  1  0.60529139  0.62507841  0.80766599  1.0
  C  C176  1  0.27187727  0.18263458  0.37490728  1.0
  C  C177  1  0.06151768  0.37491218  0.18260393  1.0
  C  C178  1  0.39468358  0.81740802  0.19233204  1.0
  C  C179  1  0.72810184  0.80772056  0.62508032  1.0
  C  C180  1  0.72927467  0.31625418  0.93030574  1.0
  C  C181  1  0.39607988  0.61403116  0.68371998  1.0
  C  C182  1  0.06250949  0.06971137  0.38594671  1.0
  C  C183  1  0.27072446  0.38595469  0.06968834  1.0
  C  C184  1  0.60392397  0.93030605  0.31628076  1.0
  C  C185  1  0.93745370  0.68376863  0.61406466  1.0
  C  C186  1  0.83426217  0.05887815  0.52189535  1.0
  C  C187  1  0.50079266  0.46305803  0.94111237  1.0
  C  C188  1  0.16698746  0.47791378  0.53684839  1.0
  C  C189  1  0.16563319  0.53703258  0.47814391  1.0
  C  C190  1  0.49928073  0.52196095  0.05889215  1.0
  C  C191  1  0.83294525  0.94107778  0.46314599  1.0
  C  C192  1  0.81743209  0.17789265  0.61944027  1.0
  C  C193  1  0.48417018  0.44156806  0.82213810  1.0
  C  C194  1  0.15069728  0.38056853  0.55852519  1.0
  C  C195  1  0.18254888  0.55843201  0.38055475  1.0
  C  C196  1  0.51588845  0.61942743  0.17787229  1.0
  C  C197  1  0.84932882  0.82204036  0.44147932  1.0
  C  C198  1  0.93183990  0.19677421  0.66296422  1.0
  C  C199  1  0.59854817  0.46624249  0.80326922  1.0
  C  C200  1  0.26506982  0.33702606  0.53382226  1.0
  C  C201  1  0.06812834  0.53380577  0.33703271  1.0
  C  C202  1  0.40151149  0.66296949  0.19673409  1.0
  C  C203  1  0.73494809  0.80319214  0.46617433  1.0
  C  C204  1  0.87836422  0.22393648  0.71672611  1.0
  C  C205  1  0.54501550  0.49283226  0.77609125  1.0
  C  C206  1  0.21153421  0.28325589  0.50718845  1.0
  C  C207  1  0.12160156  0.50720901  0.28326936  1.0
  C  C208  1  0.45503087  0.71673956  0.22390722  1.0
  C  C209  1  0.78847581  0.77605249  0.49280137  1.0
  C  C210  1  0.70784265  0.23408400  0.72940984  1.0
  C  C211  1  0.37448203  0.49534364  0.76594383  1.0
  C  C212  1  0.04098928  0.27058528  0.50467527  1.0
  C  C213  1  0.29211979  0.50467104  0.27058973  1.0
  C  C214  1  0.62557134  0.72940325  0.23406271  1.0
  C  C215  1  0.95902579  0.76589891  0.49531860  1.0
  C  C216  1  0.59536791  0.20427240  0.68624591  1.0
  C  C217  1  0.26204098  0.48197237  0.79575735  1.0
  C  C218  1  0.92854989  0.31378614  0.51809417  1.0
  C  C219  1  0.40459865  0.51800451  0.31374898  1.0
  C  C220  1  0.73801943  0.68621615  0.20425811  1.0
  C  C221  1  0.07146395  0.79568806  0.48190717  1.0
  C  C222  1  0.64876642  0.17660132  0.63243440  1.0
  C  C223  1  0.31549275  0.45583425  0.82343502  1.0
  C  C224  1  0.98201089  0.36760452  0.54427484  1.0
  C  C225  1  0.35120629  0.54414218  0.36755992  1.0
  C  C226  1  0.68456978  0.63239931  0.17658471  1.0
  C  C227  1  0.01800590  0.82333114  0.45573335  1.0
  C  C228  1  0.65016785  0.28428232  0.77798333  1.0
  C  C229  1  0.31676175  0.49369556  0.71573950  1.0
  C  C230  1  0.98330237  0.22199782  0.50629393  1.0
  C  C231  1  0.34982338  0.50629712  0.22201818  1.0
  C  C232  1  0.68328283  0.77796278  0.28426910  1.0
  C  C233  1  0.01671385  0.71569465  0.49370190  1.0
  C  C234  1  0.76130222  0.32845364  0.80530019  1.0
  C  C235  1  0.42786001  0.47683833  0.67157076  1.0
  C  C236  1  0.09446053  0.19467957  0.52314001  1.0
  C  C237  1  0.23871330  0.52315106  0.19469947  1.0
  C  C238  1  0.57216769  0.80526725  0.32843549  1.0
  C  C239  1  0.90554704  0.67153185  0.47686458  1.0
  C  C240  1  0.70606138  0.38194221  0.82871559  1.0
  C  C241  1  0.37259361  0.44676316  0.61809832  1.0
  C  C242  1  0.03924869  0.17127941  0.55322639  1.0
  C  C243  1  0.29397585  0.55322775  0.17128823  1.0
  C  C244  1  0.62742877  0.82866572  0.38190704  1.0
  C  C245  1  0.96075865  0.61804468  0.44677942  1.0
  C  C246  1  0.87014725  0.17462513  0.56803199  1.0
  C  C247  1  0.53695122  0.39340554  0.82538678  1.0
  C  C248  1  0.20348412  0.43196496  0.60667175  1.0
  C  C249  1  0.12985345  0.60657813  0.43196193  1.0
  C  C250  1  0.46309110  0.56801665  0.17462456  1.0
  C  C251  1  0.79654479  0.82529828  0.39333816  1.0
  C  C252  1  0.75712592  0.18936047  0.53937709  1.0
  C  C253  1  0.42395295  0.34999724  0.81064294  1.0
  C  C254  1  0.09050389  0.46063052  0.65006635  1.0
  C  C255  1  0.24288897  0.64996880  0.46061042  1.0
  C  C256  1  0.57607945  0.53935555  0.18937320  1.0
  C  C257  1  0.90952200  0.81057159  0.34994503  1.0
  C  C258  1  0.47924845  0.29664914  0.78813223  1.0
  C  C259  1  0.14583007  0.49147223  0.70339038  1.0
  C  C260  1  0.81237760  0.21185445  0.50852425  1.0
  C  C261  1  0.52075348  0.50851540  0.21187753  1.0
  C  C262  1  0.85420621  0.78809453  0.29661923  1.0
  C  C263  1  0.18763746  0.70331719  0.49146102  1.0
  O  O264  1  0.57387611  0.03417972  0.62087441  1.0
  O  O265  1  0.24050719  0.58677012  0.96588951  1.0
  O  O266  1  0.90719342  0.37917235  0.41322776  1.0
  O  O267  1  0.42612237  0.41330638  0.37912059  1.0
  O  O268  1  0.75945571  0.62087688  0.03410828  1.0
  O  O269  1  0.09280018  0.96593958  0.58676731  1.0
  O  O270  1  0.75633915  0.07418949  0.68940508  1.0
  O  O271  1  0.42303601  0.61528609  0.92587518  1.0
  O  O272  1  0.08966547  0.31062846  0.38471152  1.0
  O  O273  1  0.24365743  0.38478921  0.31059196  1.0
  O  O274  1  0.57693436  0.68940802  0.07412322  1.0
  O  O275  1  0.91032131  0.92590053  0.61527094  1.0
  O  O276  1  0.57985336  0.29781501  0.92324306  1.0
  O  O277  1  0.24662780  0.62535620  0.70214282  1.0
  O  O278  1  0.91311945  0.07676468  0.37454266  1.0
  O  O279  1  0.42015668  0.37459982  0.07676260  1.0
  O  O280  1  0.75337129  0.92321267  0.29785681  1.0
  O  O281  1  0.08684257  0.70223244  0.62547762  1.0
  O  O282  1  0.76302059  0.36510121  0.96844841  1.0
  O  O283  1  0.42981986  0.60337164  0.63489260  1.0
  O  O284  1  0.09621748  0.03156842  0.39666456  1.0
  O  O285  1  0.23696045  0.39663905  0.03153336  1.0
  O  O286  1  0.57017794  0.96846826  0.36510963  1.0
  O  O287  1  0.90375493  0.63490603  0.60334472  1.0
  O  O288  1  0.92297615  0.05676040  0.55384472  1.0
  O  O289  1  0.58957357  0.49712498  0.94324559  1.0
  O  O290  1  0.25597748  0.44603546  0.50282115  1.0
  O  O291  1  0.07703556  0.50293686  0.44617393  1.0
  O  O292  1  0.41046340  0.55388847  0.05675932  1.0
  O  O293  1  0.74400845  0.94320487  0.49717268  1.0
  O  O294  1  0.74447182  0.05757550  0.48846202  1.0
  O  O295  1  0.41094266  0.43091681  0.94239405  1.0
  O  O296  1  0.07696865  0.51126597  0.56895512  1.0
  O  O297  1  0.25531313  0.56919340  0.51159991  1.0
  O  O298  1  0.58915350  0.48854844  0.05761402  1.0
  O  O299  1  0.92291607  0.94234695  0.43103772  1.0
