# generated using pymatgen
data_ZnH9C19(NO2)5
_symmetry_space_group_name_H-M   'P 1'
_cell_length_a   12.99863164
_cell_length_b   16.07487412
_cell_length_c   17.28124806
_cell_angle_alpha   84.88035648
_cell_angle_beta   88.57471579
_cell_angle_gamma   83.95677537
_symmetry_Int_Tables_number   1
_chemical_formula_structural   ZnH9C19(NO2)5
_chemical_formula_sum   'Zn2 H18 C38 N10 O20'
_cell_volume   3576.11108840
_cell_formula_units_Z   2
loop_
 _symmetry_equiv_pos_site_id
 _symmetry_equiv_pos_as_xyz
  1  'x, y, z'
loop_
 _atom_site_type_symbol
 _atom_site_label
 _atom_site_symmetry_multiplicity
 _atom_site_fract_x
 _atom_site_fract_y
 _atom_site_fract_z
 _atom_site_occupancy
  Zn  Zn0  1  0.49916299  0.59107529  0.49640929  1.0
  Zn  Zn1  1  0.50084670  0.40892419  0.50358918  1.0
  H  H2  1  0.18972215  0.42187884  0.45134615  1.0
  H  H3  1  0.81029074  0.57809736  0.54865986  1.0
  H  H4  1  0.03010096  0.35770357  0.41711034  1.0
  H  H5  1  0.96990344  0.64227740  0.58290068  1.0
  H  H6  1  0.38219280  0.58024182  0.74679070  1.0
  H  H7  1  0.61780564  0.41976934  0.25320304  1.0
  H  H8  1  0.38709510  0.57581263  0.89223614  1.0
  H  H9  1  0.61289459  0.42420018  0.10775708  1.0
  H  H10  1  0.36207748  0.62227526  0.10621181  1.0
  H  H11  1  0.63789802  0.37773075  0.89379843  1.0
  H  H12  1  0.55927860  0.89982423  0.39719290  1.0
  H  H13  1  0.44069594  0.10018250  0.60279821  1.0
  H  H14  1  0.60092514  0.13659904  0.38266317  1.0
  H  H15  1  0.39908638  0.86338973  0.61734189  1.0
  H  H16  1  0.57966236  0.29236662  0.39800622  1.0
  H  H17  1  0.42036353  0.70762825  0.60199806  1.0
  H  H18  1  0.60249727  0.73998443  0.26511764  1.0
  H  H19  1  0.39749496  0.26003160  0.73487758  1.0
  C  C20  1  0.49627067  0.50998932  0.34864191  1.0
  C  C21  1  0.50374289  0.49001909  0.65135636  1.0
  C  C22  1  0.69786309  0.47118254  0.49410565  1.0
  C  C23  1  0.30214808  0.52880817  0.50589058  1.0
  C  C24  1  0.18700271  0.52948633  0.51440871  1.0
  C  C25  1  0.81300103  0.47049844  0.48559625  1.0
  C  C26  1  0.98339142  0.40614287  0.44649082  1.0
  C  C27  1  0.01662290  0.59383400  0.55351569  1.0
  C  C28  1  0.87722935  0.40870808  0.44817098  1.0
  C  C29  1  0.12278202  0.59129075  0.55183792  1.0
  C  C30  1  0.85982601  0.53084161  0.51992311  1.0
  C  C31  1  0.14018313  0.46914770  0.48008658  1.0
  C  C32  1  0.96836575  0.53190240  0.51858997  1.0
  C  C33  1  0.03164252  0.46807370  0.48141094  1.0
  C  C34  1  0.49058253  0.51536392  0.26158891  1.0
  C  C35  1  0.50942196  0.48464358  0.73841368  1.0
  C  C36  1  0.56102584  0.46276488  0.22025316  1.0
  C  C37  1  0.43897401  0.53724254  0.77974084  1.0
  C  C38  1  0.55893927  0.46546174  0.13982837  1.0
  C  C39  1  0.44104903  0.53455478  0.86016980  1.0
  C  C40  1  0.48556985  0.52211478  0.09844589  1.0
  C  C41  1  0.51440999  0.47789266  0.90155490  1.0
  C  C42  1  0.41764228  0.57756159  0.13833898  1.0
  C  C43  1  0.58233409  0.42244381  0.86166957  1.0
  C  C44  1  0.42027140  0.57256338  0.21892910  1.0
  C  C45  1  0.57972497  0.42743757  0.78107706  1.0
  C  C46  1  0.46059910  0.22771656  0.55889989  1.0
  C  C47  1  0.53939874  0.77228451  0.44109233  1.0
  C  C48  1  0.47035252  0.14117799  0.55587243  1.0
  C  C49  1  0.52963207  0.85882397  0.44411942  1.0
  C  C50  1  0.51848400  0.10781036  0.49035416  1.0
  C  C51  1  0.48151087  0.89218556  0.50964084  1.0
  C  C52  1  0.56034314  0.16161494  0.43282118  1.0
  C  C53  1  0.43965691  0.83838236  0.56718055  1.0
  C  C54  1  0.54828262  0.24746365  0.44092801  1.0
  C  C55  1  0.45172617  0.75253200  0.55907251  1.0
  C  C56  1  0.59992460  0.73450514  0.37487167  1.0
  C  C57  1  0.40006034  0.26549935  0.62512056  1.0
  N  N58  1  0.47356295  0.52856363  0.01705975  1.0
  N  N59  1  0.52641415  0.47144627  0.98293917  1.0
  N  N60  1  0.49757528  0.28025370  0.50188758  1.0
  N  N61  1  0.50242897  0.71975508  0.49811086  1.0
  N  N62  1  0.53014216  0.02110330  0.47907773  1.0
  N  N63  1  0.46984642  0.97890251  0.52092069  1.0
  N  N64  1  0.16804517  0.65209707  0.59660506  1.0
  N  N65  1  0.83195631  0.34788265  0.40339108  1.0
  N  N66  1  0.34127596  0.62747161  0.25853198  1.0
  N  N67  1  0.65871888  0.37252930  0.74147421  1.0
  O  O68  1  0.49357001  0.57919496  0.37920657  1.0
  O  O69  1  0.50642004  0.42081591  0.62079662  1.0
  O  O70  1  0.50581123  0.43650167  0.38249639  1.0
  O  O71  1  0.49423487  0.56351460  0.61750175  1.0
  O  O72  1  0.64889387  0.54270514  0.50117755  1.0
  O  O73  1  0.35112120  0.45728953  0.49880729  1.0
  O  O74  1  0.65979335  0.40151589  0.49583646  1.0
  O  O75  1  0.34021957  0.59847410  0.50418352  1.0
  O  O76  1  0.23153555  0.62293453  0.64688190  1.0
  O  O77  1  0.13654200  0.72729201  0.58330106  1.0
  O  O78  1  0.76844339  0.37705580  0.35312950  1.0
  O  O79  1  0.86350051  0.27268637  0.41669143  1.0
  O  O80  1  0.33144834  0.70284396  0.23470616  1.0
  O  O81  1  0.28876792  0.59378025  0.31059185  1.0
  O  O82  1  0.66855750  0.29716035  0.76530880  1.0
  O  O83  1  0.71121778  0.40621538  0.68940916  1.0
  O  O84  1  0.67694037  0.68506726  0.38345577  1.0
  O  O85  1  0.56008268  0.76678639  0.30554388  1.0
  O  O86  1  0.32303564  0.31492628  0.61653288  1.0
  O  O87  1  0.43991106  0.23322526  0.69445224  1.0
