# generated using pymatgen
data_ZnH29C36N2(O2F)3
_symmetry_space_group_name_H-M   'P 1'
_cell_length_a   16.45465523
_cell_length_b   16.81364359
_cell_length_c   23.68702906
_cell_angle_alpha   88.91944450
_cell_angle_beta   87.62010817
_cell_angle_gamma   88.45861906
_symmetry_Int_Tables_number   1
_chemical_formula_structural   ZnH29C36N2(O2F)3
_chemical_formula_sum   'Zn2 H58 C72 N4 O12 F6'
_cell_volume   6544.26326170
_cell_formula_units_Z   2
loop_
 _symmetry_equiv_pos_site_id
 _symmetry_equiv_pos_as_xyz
  1  'x, y, z'
loop_
 _atom_site_type_symbol
 _atom_site_label
 _atom_site_symmetry_multiplicity
 _atom_site_fract_x
 _atom_site_fract_y
 _atom_site_fract_z
 _atom_site_occupancy
  Zn  Zn0  1  0.59194267  0.49732451  0.50073706  1.0
  Zn  Zn1  1  0.41026328  0.50334857  0.50874600  1.0
  H  H2  1  0.37736570  0.36336320  0.06655270  1.0
  H  H3  1  0.59741789  0.68784056  0.94284336  1.0
  H  H4  1  0.60848118  0.89609573  0.44392436  1.0
  H  H5  1  0.39531255  0.10467311  0.44644896  1.0
  H  H6  1  0.29974136  0.54217596  0.42607569  1.0
  H  H7  1  0.70552045  0.41252718  0.56269548  1.0
  H  H8  1  0.98973647  0.47319671  0.56718829  1.0
  H  H9  1  0.00928824  0.52195176  0.44196977  1.0
  H  H10  1  0.10999496  0.45911903  0.57827630  1.0
  H  H11  1  0.88776647  0.58503515  0.45146934  1.0
  H  H12  1  0.39297559  0.56839227  0.67706110  1.0
  H  H13  1  0.59804661  0.42346842  0.32178975  1.0
  H  H14  1  0.61098449  0.45674927  0.79487893  1.0
  H  H15  1  0.41083251  0.60908825  0.22295376  1.0
  H  H16  1  0.36710713  0.72725218  0.43377226  1.0
  H  H17  1  0.63425033  0.27861022  0.43838062  1.0
  H  H18  1  0.41182622  0.99697929  0.39912419  1.0
  H  H19  1  0.59830240  0.00954467  0.40175836  1.0
  H  H20  1  0.70494183  0.50956505  0.36395566  1.0
  H  H21  1  0.71066533  0.60657980  0.33368757  1.0
  H  H22  1  0.80169646  0.55381196  0.35128298  1.0
  H  H23  1  0.66634480  0.61456560  0.43568363  1.0
  H  H24  1  0.76228129  0.65764232  0.42417928  1.0
  H  H25  1  0.23671736  0.32035462  0.59542609  1.0
  H  H26  1  0.33600150  0.34492071  0.56942550  1.0
  H  H27  1  0.31472856  0.33667099  0.64351516  1.0
  H  H28  1  0.32000314  0.47902185  0.61501117  1.0
  H  H29  1  0.21964939  0.45594841  0.63921398  1.0
  H  H30  1  0.75393775  0.36259946  0.64501592  1.0
  H  H31  1  0.77563803  0.29220878  0.59108797  1.0
  H  H32  1  0.83380305  0.29072923  0.65250309  1.0
  H  H33  1  0.91535744  0.35093211  0.57398421  1.0
  H  H34  1  0.89228012  0.42130350  0.62632603  1.0
  H  H35  1  0.24251749  0.63205241  0.36161415  1.0
  H  H36  1  0.25226055  0.53303481  0.33751306  1.0
  H  H37  1  0.18047859  0.60016537  0.30742118  1.0
  H  H38  1  0.10737136  0.50827775  0.37282560  1.0
  H  H39  1  0.09820398  0.60616584  0.39704730  1.0
  H  H40  1  0.37787267  0.21313826  0.92983693  1.0
  H  H41  1  0.45946036  0.27642056  0.91042881  1.0
  H  H42  1  0.44648049  0.24093833  0.98162978  1.0
  H  H43  1  0.31307533  0.31831117  0.99067047  1.0
  H  H44  1  0.32786571  0.35409302  0.91991311  1.0
  H  H45  1  0.74868568  0.73465470  0.07340538  1.0
  H  H46  1  0.71984575  0.63544165  0.08934349  1.0
  H  H47  1  0.74356074  0.66523591  0.01796121  1.0
  H  H48  1  0.62173362  0.75982472  0.02126411  1.0
  H  H49  1  0.59874885  0.72864440  0.09221498  1.0
  H  H50  1  0.26829969  0.52060492  0.74329193  1.0
  H  H51  1  0.29312041  0.47860868  0.80982326  1.0
  H  H52  1  0.22661929  0.56404383  0.80634557  1.0
  H  H53  1  0.36488184  0.60545429  0.83236268  1.0
  H  H54  1  0.34160307  0.64524070  0.76554960  1.0
  H  H55  1  0.58858345  0.29913645  0.25301281  1.0
  H  H56  1  0.53276516  0.31635851  0.19130890  1.0
  H  H57  1  0.63724238  0.28509929  0.18545832  1.0
  H  H58  1  0.62540778  0.43077363  0.16366549  1.0
  H  H59  1  0.67820470  0.41400125  0.22599667  1.0
  C  C60  1  0.50554186  0.34884780  0.49158578  1.0
  C  C61  1  0.48761366  0.65228005  0.48799803  1.0
  C  C62  1  0.43106127  0.55100775  0.76246457  1.0
  C  C63  1  0.55906777  0.46406421  0.24001665  1.0
  C  C64  1  0.44042753  0.54434599  0.70381414  1.0
  C  C65  1  0.55679325  0.46324000  0.29906793  1.0
  C  C66  1  0.50866268  0.50830825  0.67657907  1.0
  C  C67  1  0.50303947  0.51135896  0.33156584  1.0
  C  C68  1  0.56965348  0.47768306  0.71091072  1.0
  C  C69  1  0.45170065  0.56427462  0.30277227  1.0
  C  C70  1  0.56286798  0.48196906  0.76931612  1.0
  C  C71  1  0.45147609  0.56733176  0.24430601  1.0
  C  C72  1  0.49384460  0.51842666  0.79452447  1.0
  C  C73  1  0.50420981  0.51650651  0.21369819  1.0
  C  C74  1  0.50823907  0.26847105  0.46495647  1.0
  C  C75  1  0.48981894  0.73371090  0.46111814  1.0
  C  C76  1  0.44160470  0.21807196  0.46412109  1.0
  C  C77  1  0.55771138  0.78262859  0.46058520  1.0
  C  C78  1  0.44759791  0.14289233  0.44136778  1.0
  C  C79  1  0.55608206  0.85922487  0.43837639  1.0
  C  C80  1  0.52159588  0.11355497  0.41675475  1.0
  C  C81  1  0.48559111  0.89144481  0.41387543  1.0
  C  C82  1  0.51239753  0.50402668  0.61321712  1.0
  C  C83  1  0.50244092  0.50400662  0.39469638  1.0
  C  C84  1  0.58658476  0.16641305  0.41488086  1.0
  C  C85  1  0.42001577  0.83982809  0.41109017  1.0
  C  C86  1  0.58146155  0.24087472  0.43875142  1.0
  C  C87  1  0.42053945  0.76397598  0.43467204  1.0
  C  C88  1  0.53466331  0.02998115  0.40386612  1.0
  C  C89  1  0.47493891  0.97614851  0.40243376  1.0
  C  C90  1  0.25425814  0.52485266  0.45839044  1.0
  C  C91  1  0.74926262  0.44863113  0.53875077  1.0
  C  C92  1  0.17163256  0.52838336  0.44749947  1.0
  C  C93  1  0.83171503  0.44309416  0.54938502  1.0
  C  C94  1  0.11666340  0.50470669  0.49200194  1.0
  C  C95  1  0.88403764  0.49285586  0.51635326  1.0
  C  C96  1  0.14957976  0.47880721  0.54301984  1.0
  C  C97  1  0.84952799  0.54407255  0.47612257  1.0
  C  C98  1  0.23300456  0.47635266  0.55064849  1.0
  C  C99  1  0.76600328  0.54643280  0.46800617  1.0
  C  C100  1  0.02903689  0.50703571  0.48438119  1.0
  C  C101  1  0.97134146  0.49080826  0.52490559  1.0
  C  C102  1  0.54572901  0.57787417  0.12344116  1.0
  C  C103  1  0.45002366  0.45884249  0.88491264  1.0
  C  C104  1  0.45258735  0.46194579  0.12877221  1.0
  C  C105  1  0.52768034  0.58543875  0.88014985  1.0
  C  C106  1  0.45265006  0.46376592  0.06636830  1.0
  C  C107  1  0.52930059  0.58247862  0.94258139  1.0
  C  C108  1  0.49475668  0.52287975  0.03439087  1.0
  C  C109  1  0.49042862  0.52116684  0.97441730  1.0
  C  C110  1  0.53935216  0.58226403  0.06106261  1.0
  C  C111  1  0.44802023  0.46024115  0.94768372  1.0
  C  C112  1  0.40957774  0.40679535  0.03979915  1.0
  C  C113  1  0.56961442  0.64134699  0.96933012  1.0
  C  C114  1  0.40618235  0.40258425  0.98049618  1.0
  C  C115  1  0.57662079  0.64304231  0.02850916  1.0
  C  C116  1  0.73032315  0.60097973  0.42400616  1.0
  C  C117  1  0.73774777  0.56543506  0.36466709  1.0
  C  C118  1  0.26617615  0.44553906  0.60523388  1.0
  C  C119  1  0.28972790  0.35648175  0.60316440  1.0
  C  C120  1  0.86456112  0.38614780  0.59357896  1.0
  C  C121  1  0.80324659  0.33006336  0.62201054  1.0
  C  C122  1  0.14237471  0.55631597  0.39054847  1.0
  C  C123  1  0.20823691  0.58167305  0.34711993  1.0
  C  C124  1  0.35922217  0.33508177  0.95795812  1.0
  C  C125  1  0.41433283  0.26205667  0.94421327  1.0
  C  C126  1  0.62502720  0.70926662  0.05133554  1.0
  C  C127  1  0.71474219  0.68439827  0.05832431  1.0
  C  C128  1  0.35481767  0.58916244  0.78852631  1.0
  C  C129  1  0.28125327  0.53492255  0.78704455  1.0
  C  C130  1  0.61801720  0.40971529  0.20775798  1.0
  C  C131  1  0.59260654  0.32241386  0.20935850  1.0
  N  N132  1  0.50017213  0.51916340  0.15292530  1.0
  N  N133  1  0.48959152  0.52166440  0.85557326  1.0
  N  N134  1  0.28479879  0.49987089  0.50792497  1.0
  N  N135  1  0.71690823  0.49834915  0.49967242  1.0
  O  O136  1  0.57337163  0.37569374  0.50545672  1.0
  O  O137  1  0.41827341  0.62712463  0.50424951  1.0
  O  O138  1  0.43641964  0.38414023  0.49661126  1.0
  O  O139  1  0.55539043  0.61445552  0.49077342  1.0
  O  O140  1  0.58149440  0.50329058  0.58766399  1.0
  O  O141  1  0.43489470  0.51587772  0.42132694  1.0
  O  O142  1  0.44358932  0.50250043  0.59051158  1.0
  O  O143  1  0.57017820  0.48499837  0.41590424  1.0
  O  O144  1  0.58826172  0.62136613  0.15040228  1.0
  O  O145  1  0.42017688  0.40624652  0.85750768  1.0
  O  O146  1  0.41460552  0.41358395  0.15839085  1.0
  O  O147  1  0.55808507  0.63879116  0.85078035  1.0
  F  F148  1  0.65943099  0.14136976  0.39033919  1.0
  F  F149  1  0.35086606  0.86754137  0.38626571  1.0
  F  F150  1  0.63739364  0.44033165  0.68807928  1.0
  F  F151  1  0.40144331  0.61646853  0.33156469  1.0
  F  F152  1  0.36887437  0.23953180  0.48954146  1.0
  F  F153  1  0.62693905  0.75795818  0.48595822  1.0
