# generated using pymatgen
data_ZnH8C12(IN2)2
_symmetry_space_group_name_H-M   'P 1'
_cell_length_a   14.85670014
_cell_length_b   18.78415011
_cell_length_c   34.04856999
_cell_angle_alpha   105.20830777
_cell_angle_beta   89.99948827
_cell_angle_gamma   113.30619311
_symmetry_Int_Tables_number   1
_chemical_formula_structural   ZnH8C12(IN2)2
_chemical_formula_sum   'Zn12 H96 C144 I24 N48'
_cell_volume   8363.06918865
_cell_formula_units_Z   12
loop_
 _symmetry_equiv_pos_site_id
 _symmetry_equiv_pos_as_xyz
  1  'x, y, z'
loop_
 _atom_site_type_symbol
 _atom_site_label
 _atom_site_symmetry_multiplicity
 _atom_site_fract_x
 _atom_site_fract_y
 _atom_site_fract_z
 _atom_site_occupancy
  Zn  Zn0  1  0.03072802  0.23133729  0.56055209  1.0
  Zn  Zn1  1  0.97440005  0.65671052  0.73343821  1.0
  Zn  Zn2  1  0.25969929  0.75159389  0.92402650  1.0
  Zn  Zn3  1  0.20055021  0.23137535  0.06051697  1.0
  Zn  Zn4  1  0.68224409  0.65652506  0.23335264  1.0
  Zn  Zn5  1  0.49192331  0.75155866  0.42403678  1.0
  Zn  Zn6  1  0.79944906  0.76862363  0.93948103  1.0
  Zn  Zn7  1  0.31775683  0.34347454  0.76664662  1.0
  Zn  Zn8  1  0.50807582  0.24844275  0.57596392  1.0
  Zn  Zn9  1  0.96927252  0.76866291  0.43944814  1.0
  Zn  Zn10  1  0.02559908  0.34329089  0.26656191  1.0
  Zn  Zn11  1  0.74029857  0.24840631  0.07597344  1.0
  H  H12  1  0.25057847  0.29349453  0.57917946  1.0
  H  H13  1  0.38547733  0.40531521  0.62998180  1.0
  H  H14  1  0.16306132  0.47167917  0.69121208  1.0
  H  H15  1  0.03550633  0.35511229  0.63794828  1.0
  H  H16  1  0.84449251  0.71779043  0.78490486  1.0
  H  H17  1  0.66666667  0.69953480  0.78213084  1.0
  H  H18  1  0.61239127  0.52298750  0.66428693  1.0
  H  H19  1  0.79123484  0.54732449  0.67214189  1.0
  H  H20  1  0.15912219  0.64797673  0.83903191  1.0
  H  H21  1  0.20785921  0.59186733  0.77128840  1.0
  H  H22  1  0.51243623  0.72708577  0.82460380  1.0
  H  H23  1  0.45201845  0.77782407  0.88971847  1.0
  H  H24  1  0.33947012  0.66914529  0.96980612  1.0
  H  H25  1  0.49195486  0.70263850  0.01637594  1.0
  H  H26  1  0.60238210  0.94507687  0.00504700  1.0
  H  H27  1  0.44324002  0.90284949  0.96038146  1.0
  H  H28  1  0.12500477  0.13027212  0.11586606  1.0
  H  H29  1  0.97159022  0.01239318  0.12132659  1.0
  H  H30  1  0.85143393  0.00479255  0.00438228  1.0
  H  H31  1  0.00907273  0.12515857  0.00411019  1.0
  H  H32  1  0.59215619  0.61196421  0.14615572  1.0
  H  H33  1  0.60217987  0.68010462  0.09044750  1.0
  H  H34  1  0.82936566  0.89490682  0.17068634  1.0
  H  H35  1  0.80521696  0.82013104  0.22428904  1.0
  H  H36  1  0.04253968  0.29344819  0.07911910  1.0
  H  H37  1  0.01966360  0.40534358  0.12990961  1.0
  H  H38  1  0.30850554  0.47168277  0.19110126  1.0
  H  H39  1  0.31925870  0.35501397  0.13785243  1.0
  H  H40  1  0.87343611  0.71795624  0.28489432  1.0
  H  H41  1  0.03304868  0.69970693  0.28212544  1.0
  H  H42  1  0.91070506  0.52303650  0.16431716  1.0
  H  H43  1  0.75616465  0.54737675  0.17216854  1.0
  H  H44  1  0.48903902  0.64804550  0.33899475  1.0
  H  H45  1  0.38415839  0.59189150  0.27126154  1.0
  H  H46  1  0.21466069  0.72691267  0.32462576  1.0
  H  H47  1  0.32591905  0.77774798  0.38969095  1.0
  H  H48  1  0.32962574  0.66908076  0.46982322  1.0
  H  H49  1  0.21064347  0.70260693  0.51640957  1.0
  H  H50  1  0.34265944  0.94498437  0.50504742  1.0
  H  H51  1  0.45957139  0.90277220  0.46034409  1.0
  H  H52  1  0.00556995  0.13026366  0.61595411  1.0
  H  H53  1  0.04126189  0.01245986  0.62135070  1.0
  H  H54  1  0.15325741  0.00480941  0.50429066  1.0
  H  H55  1  0.11607547  0.12519115  0.50413617  1.0
  H  H56  1  0.01982182  0.61204286  0.64630538  1.0
  H  H57  1  0.07760809  0.67986220  0.59046909  1.0
  H  H58  1  0.06533414  0.89481225  0.67056703  1.0
  H  H59  1  0.01503452  0.82031421  0.72429738  1.0
  H  H60  1  0.95745973  0.70654838  0.92088179  1.0
  H  H61  1  0.98033581  0.59465300  0.87009157  1.0
  H  H62  1  0.69149558  0.52831320  0.80889807  1.0
  H  H63  1  0.68074071  0.64498260  0.86214698  1.0
  H  H64  1  0.12656700  0.28204638  0.71510538  1.0
  H  H65  1  0.96695291  0.30029266  0.71787382  1.0
  H  H66  1  0.08929353  0.47696249  0.83568231  1.0
  H  H67  1  0.24383620  0.45262406  0.82783148  1.0
  H  H68  1  0.51096341  0.35195712  0.66100642  1.0
  H  H69  1  0.61584374  0.40811052  0.72873924  1.0
  H  H70  1  0.78533827  0.27308572  0.67537421  1.0
  H  H71  1  0.67407917  0.22225161  0.61030861  1.0
  H  H72  1  0.67037908  0.33092125  0.53017904  1.0
  H  H73  1  0.78935587  0.29739085  0.48359032  1.0
  H  H74  1  0.65733098  0.05501038  0.49494997  1.0
  H  H75  1  0.54042805  0.09722981  0.53965493  1.0
  H  H76  1  0.99443127  0.86973654  0.38404642  1.0
  H  H77  1  0.95873835  0.98753974  0.37864915  1.0
  H  H78  1  0.84674217  0.99519019  0.49570948  1.0
  H  H79  1  0.88392508  0.87480905  0.49586407  1.0
  H  H80  1  0.98018367  0.38795915  0.35369541  1.0
  H  H81  1  0.92239576  0.32013921  0.40953102  1.0
  H  H82  1  0.93466207  0.10518734  0.32943106  1.0
  H  H83  1  0.98496326  0.17968719  0.27570156  1.0
  H  H84  1  0.74942269  0.70650689  0.42082212  1.0
  H  H85  1  0.61452316  0.59468620  0.37001861  1.0
  H  H86  1  0.83693849  0.52832224  0.30878891  1.0
  H  H87  1  0.96449385  0.64488852  0.36205204  1.0
  H  H88  1  0.15550895  0.28221159  0.21509681  1.0
  H  H89  1  0.33337533  0.30046540  0.21787086  1.0
  H  H90  1  0.38760638  0.47701633  0.33571383  1.0
  H  H91  1  0.20876446  0.45267994  0.32785837  1.0
  H  H92  1  0.84087890  0.35202589  0.16096837  1.0
  H  H93  1  0.79214201  0.40813288  0.22871213  1.0
  H  H94  1  0.48756516  0.27291745  0.17539569  1.0
  H  H95  1  0.54798196  0.22217854  0.11028035  1.0
  H  H96  1  0.66052683  0.33085310  0.03019326  1.0
  H  H97  1  0.50804020  0.29735746  0.98362368  1.0
  H  H98  1  0.39761620  0.05492152  0.99495444  1.0
  H  H99  1  0.55675864  0.09714829  0.03961901  1.0
  H  H100  1  0.87499211  0.86972747  0.88413438  1.0
  H  H101  1  0.02840905  0.98760581  0.87867317  1.0
  H  H102  1  0.14856332  0.99520644  0.99561808  1.0
  H  H103  1  0.99092446  0.87484163  0.99589063  1.0
  H  H104  1  0.40784136  0.38803538  0.85384384  1.0
  H  H105  1  0.39782105  0.31989497  0.90955147  1.0
  H  H106  1  0.17063489  0.10509337  0.82931331  1.0
  H  H107  1  0.19478053  0.17986977  0.77571157  1.0
  C  C108  1  0.23390561  0.33364875  0.60471259  1.0
  C  C109  1  0.30908380  0.39632271  0.63308834  1.0
  C  C110  1  0.28436015  0.44724028  0.66483297  1.0
  C  C111  1  0.18472746  0.43284845  0.66703151  1.0
  C  C112  1  0.11407469  0.36876843  0.63763931  1.0
  C  C113  1  0.36041253  0.51475775  0.69622961  1.0
  C  C114  1  0.79009872  0.67591537  0.75874028  1.0
  C  C115  1  0.69234261  0.66584373  0.75701136  1.0
  C  C116  1  0.62614627  0.61000277  0.72286682  1.0
  C  C117  1  0.66162041  0.56692988  0.69135749  1.0
  C  C118  1  0.76070588  0.58056814  0.69551216  1.0
  C  C119  1  0.51980816  0.59378448  0.72219083  1.0
  C  C120  1  0.23652937  0.66394750  0.83436599  1.0
  C  C121  1  0.26384570  0.63304551  0.79687398  1.0
  C  C122  1  0.36448430  0.65469891  0.79294901  1.0
  C  C123  1  0.43373837  0.70912637  0.82639176  1.0
  C  C124  1  0.40014450  0.73714501  0.86271849  1.0
  C  C125  1  0.39727211  0.61583581  0.75554115  1.0
  C  C126  1  0.39989450  0.72931915  0.97853515  1.0
  C  C127  1  0.48358830  0.74810875  0.00425866  1.0
  C  C128  1  0.55807266  0.82647550  0.01394644  1.0
  C  C129  1  0.54537497  0.88360263  0.99781917  1.0
  C  C130  1  0.45852120  0.86048532  0.97306794  1.0
  C  C131  1  0.64821609  0.84920842  0.04132190  1.0
  C  C132  1  0.06202846  0.10078618  0.09212363  1.0
  C  C133  1  0.97800779  0.03533227  0.09478166  1.0
  C  C134  1  0.90041615  0.99989320  0.06297318  1.0
  C  C135  1  0.91088828  0.03131695  0.02940875  1.0
  C  C136  1  0.99736020  0.09723356  0.02911077  1.0
  C  C137  1  0.80757252  0.93272732  0.06561846  1.0
  C  C138  1  0.64317327  0.67475955  0.15010071  1.0
  C  C139  1  0.64900727  0.71241708  0.11955662  1.0
  C  C140  1  0.71624289  0.79298398  0.12677911  1.0
  C  C141  1  0.77591258  0.83242760  0.16443562  1.0
  C  C142  1  0.76367076  0.79115381  0.19380089  1.0
  C  C143  1  0.72174727  0.83561759  0.09535359  1.0
  C  C144  1  0.09943369  0.33363888  0.10462415  1.0
  C  C145  1  0.08705208  0.39635728  0.13301295  1.0
  C  C146  1  0.16275400  0.44727518  0.16475978  1.0
  C  C147  1  0.24794157  0.43284559  0.16693489  1.0
  C  C148  1  0.25442257  0.36875522  0.13752518  1.0
  C  C149  1  0.15429928  0.51478237  0.19618418  1.0
  C  C150  1  0.88594549  0.67603547  0.25874446  1.0
  C  C151  1  0.97360971  0.66596304  0.25700977  1.0
  C  C152  1  0.98394982  0.61010446  0.22287047  1.0
  C  C153  1  0.90539818  0.56701183  0.19136409  1.0
  C  C154  1  0.81995189  0.58062680  0.19553545  1.0
  C  C155  1  0.07401482  0.59383935  0.22219047  1.0
  C  C156  1  0.42757568  0.66397487  0.33433781  1.0
  C  C157  1  0.36933500  0.63305338  0.29684521  1.0
  C  C158  1  0.29025571  0.65459442  0.29292757  1.0
  C  C159  1  0.27544330  0.70901644  0.32637323  1.0
  C  C160  1  0.33709806  0.73708087  0.36269551  1.0
  C  C161  1  0.21855826  0.61574395  0.25553672  1.0
  C  C162  1  0.32939167  0.72926346  0.47855129  1.0
  C  C163  1  0.26447228  0.74803519  0.50426907  1.0
  C  C164  1  0.26838849  0.82640196  0.51394290  1.0
  C  C165  1  0.33820749  0.88352867  0.49782002  1.0
  C  C166  1  0.40199614  0.86045028  0.47308527  1.0
  C  C167  1  0.20095067  0.84911101  0.54129349  1.0
  C  C168  1  0.03914329  0.10089740  0.59220085  1.0
  C  C169  1  0.05772380  0.03543741  0.59481864  1.0
  C  C170  1  0.09966318  0.99990905  0.56295592  1.0
  C  C171  1  0.12048305  0.03131441  0.52938265  1.0
  C  C172  1  0.09993628  0.09725193  0.52913548  1.0
  C  C173  1  0.12514564  0.93263082  0.56555921  1.0
  C  C174  1  0.03152171  0.67479329  0.65018494  1.0
  C  C175  1  0.06318247  0.71228802  0.61956474  1.0
  C  C176  1  0.07651648  0.79282799  0.62672118  1.0
  C  C177  1  0.05636422  0.83236572  0.66437732  1.0
  C  C178  1  0.02749920  0.79124591  0.69381801  1.0
  C  C179  1  0.11366423  0.83544761  0.59528065  1.0
  C  C180  1  0.90056766  0.66635890  0.89537603  1.0
  C  C181  1  0.91294861  0.60364051  0.86698664  1.0
  C  C182  1  0.83724767  0.55272320  0.83523960  1.0
  C  C183  1  0.75205941  0.56715280  0.83306420  1.0
  C  C184  1  0.74557842  0.63124316  0.86247449  1.0
  C  C185  1  0.84570238  0.48521601  0.80381608  1.0
  C  C186  1  0.11405701  0.32396594  0.74125536  1.0
  C  C187  1  0.02639121  0.33403656  0.74298949  1.0
  C  C188  1  0.01605110  0.38989514  0.77712909  1.0
  C  C189  1  0.09460236  0.43298837  0.80863555  1.0
  C  C190  1  0.18004963  0.41937401  0.80446458  1.0
  C  C191  1  0.92598519  0.40615843  0.77780912  1.0
  C  C192  1  0.57242645  0.33602715  0.66566269  1.0
  C  C193  1  0.63066683  0.36694803  0.70315520  1.0
  C  C194  1  0.70974453  0.34540517  0.70707257  1.0
  C  C195  1  0.72455628  0.29098315  0.67362663  1.0
  C  C196  1  0.66290212  0.26291993  0.63730451  1.0
  C  C197  1  0.78144303  0.38425504  0.74446304  1.0
  C  C198  1  0.67061053  0.27073735  0.52144873  1.0
  C  C199  1  0.73552638  0.25196259  0.49573111  1.0
  C  C200  1  0.73160957  0.17359461  0.48605652  1.0
  C  C201  1  0.66178751  0.11646850  0.50217919  1.0
  C  C202  1  0.59800441  0.13954991  0.52691438  1.0
  C  C203  1  0.79904702  0.15088616  0.45870572  1.0
  C  C204  1  0.96085988  0.89910401  0.40779955  1.0
  C  C205  1  0.94227803  0.96456400  0.40518206  1.0
  C  C206  1  0.90033639  0.00009054  0.43704393  1.0
  C  C207  1  0.87951750  0.96868579  0.47061729  1.0
  C  C208  1  0.90006592  0.90274888  0.47086513  1.0
  C  C209  1  0.87485265  0.06736757  0.43443988  1.0
  C  C210  1  0.96848214  0.32520813  0.34981547  1.0
  C  C211  1  0.93682101  0.28771399  0.38043576  1.0
  C  C212  1  0.92348407  0.20717221  0.37327847  1.0
  C  C213  1  0.94363663  0.16763508  0.33562182  1.0
  C  C214  1  0.97250030  0.20875489  0.30618114  1.0
  C  C215  1  0.88633535  0.16455199  0.40471891  1.0
  C  C216  1  0.76609488  0.66635266  0.39528900  1.0
  C  C217  1  0.69091540  0.60367749  0.36691248  1.0
  C  C218  1  0.71564033  0.55276113  0.33516832  1.0
  C  C219  1  0.81527168  0.56715296  0.33296920  1.0
  C  C220  1  0.88592646  0.63123298  0.36236169  1.0
  C  C221  1  0.63958833  0.48524306  0.30377129  1.0
  C  C222  1  0.20990012  0.32408543  0.24126063  1.0
  C  C223  1  0.30765750  0.33415828  0.24298943  1.0
  C  C224  1  0.37385323  0.38999804  0.27713438  1.0
  C  C225  1  0.33837910  0.43307093  0.30864371  1.0
  C  C226  1  0.23929154  0.41943387  0.30448951  1.0
  C  C227  1  0.48019293  0.40621814  0.27781034  1.0
  C  C228  1  0.76347135  0.33605572  0.16563438  1.0
  C  C229  1  0.73615515  0.36695529  0.20312546  1.0
  C  C230  1  0.63551581  0.34530311  0.20705060  1.0
  C  C231  1  0.56626332  0.29087746  0.17360753  1.0
  C  C232  1  0.59985749  0.26285942  0.13728059  1.0
  C  C233  1  0.60272574  0.38416439  0.24445967  1.0
  C  C234  1  0.60010289  0.27067742  0.02146544  1.0
  C  C235  1  0.51641006  0.25188843  0.99574085  1.0
  C  C236  1  0.44192600  0.17352228  0.98605403  1.0
  C  C237  1  0.45462168  0.11639515  0.00218130  1.0
  C  C238  1  0.54147747  0.13951246  0.02693136  1.0
  C  C239  1  0.35178160  0.15078876  0.95867760  1.0
  C  C240  1  0.93797074  0.89921402  0.90787661  1.0
  C  C241  1  0.02199178  0.96466732  0.90521878  1.0
  C  C242  1  0.09958238  0.00010700  0.93702705  1.0
  C  C243  1  0.08911130  0.96868264  0.97059169  1.0
  C  C244  1  0.00263773  0.90276543  0.97088928  1.0
  C  C245  1  0.19242773  0.06727228  0.93438080  1.0
  C  C246  1  0.35682526  0.32524065  0.84989923  1.0
  C  C247  1  0.35099230  0.28758252  0.88044352  1.0
  C  C248  1  0.28375907  0.20701501  0.87321977  1.0
  C  C249  1  0.22408736  0.16757139  0.83556415  1.0
  C  C250  1  0.23632702  0.20884760  0.80619893  1.0
  C  C251  1  0.27825536  0.16438140  0.90464677  1.0
  I  I252  1  0.07793866  0.27261860  0.49548823  1.0
  I  I253  1  0.86588118  0.20273938  0.59123380  1.0
  I  I254  1  0.99461597  0.52365153  0.70571708  1.0
  I  I255  1  0.05461733  0.75775139  0.80305593  1.0
  I  I256  1  0.12869214  0.62350660  0.93555424  1.0
  I  I257  1  0.24750921  0.88327516  0.92457057  1.0
  I  I258  1  0.19508410  0.27244083  0.99536253  1.0
  I  I259  1  0.33695074  0.20303207  0.09129141  1.0
  I  I260  1  0.52902947  0.52346533  0.20550957  1.0
  I  I261  1  0.70313734  0.75771677  0.30291717  1.0
  I  I262  1  0.49470076  0.62344816  0.43553154  1.0
  I  I263  1  0.63562715  0.88331923  0.42457965  1.0
  I  I264  1  0.80491510  0.72755937  0.00463535  1.0
  I  I265  1  0.66305536  0.79697115  0.90870544  1.0
  I  I266  1  0.47097980  0.47652943  0.79448987  1.0
  I  I267  1  0.29685631  0.24228040  0.69708204  1.0
  I  I268  1  0.50529618  0.37655022  0.56446520  1.0
  I  I269  1  0.36437266  0.11668218  0.57542046  1.0
  I  I270  1  0.92206415  0.72738341  0.50451285  1.0
  I  I271  1  0.13412004  0.79726082  0.40876644  1.0
  I  I272  1  0.00538482  0.47635048  0.29428429  1.0
  I  I273  1  0.94538285  0.24224942  0.19694468  1.0
  I  I274  1  0.87130639  0.37649360  0.06444599  1.0
  I  I275  1  0.75248999  0.11672504  0.07542966  1.0
  N  N276  1  0.13817363  0.31991532  0.60698850  1.0
  N  N277  1  0.82394032  0.63397250  0.72859818  1.0
  N  N278  1  0.30350084  0.71390102  0.86694142  1.0
  N  N279  1  0.45608525  0.53084506  0.69253734  1.0
  N  N280  1  0.49459981  0.64062389  0.75315902  1.0
  N  N281  1  0.32748664  0.55401893  0.72769525  1.0
  N  N282  1  0.38743233  0.78459306  0.96329490  1.0
  N  N283  1  0.07137519  0.13139905  0.05993888  1.0
  N  N284  1  0.69837196  0.71370461  0.18681241  1.0
  N  N285  1  0.73050682  0.91049531  0.03769144  1.0
  N  N286  1  0.80565748  0.89963269  0.09630846  1.0
  N  N287  1  0.64092300  0.80744087  0.06855474  1.0
  N  N288  1  0.18143670  0.31990211  0.10688749  1.0
  N  N289  1  0.81013005  0.63404123  0.22860778  1.0
  N  N290  1  0.41052674  0.71389392  0.36692076  1.0
  N  N291  1  0.07477557  0.53094762  0.19249822  1.0
  N  N292  1  0.14604539  0.64056698  0.25318669  1.0
  N  N293  1  0.22647974  0.55395786  0.22765693  1.0
  N  N294  1  0.39715438  0.78454368  0.46331885  1.0
  N  N295  1  0.06020713  0.13145206  0.55999476  1.0
  N  N296  1  0.01538139  0.71382417  0.68688802  1.0
  N  N297  1  0.18003891  0.91043177  0.53766077  1.0
  N  N298  1  0.09382528  0.89946809  0.59622212  1.0
  N  N299  1  0.16635523  0.80729733  0.56850152  1.0
  N  N300  1  0.81856497  0.68009627  0.89311219  1.0
  N  N301  1  0.18987245  0.36596018  0.77139204  1.0
  N  N302  1  0.58947307  0.28610749  0.63307965  1.0
  N  N303  1  0.92522512  0.46905016  0.80750196  1.0
  N  N304  1  0.85395590  0.35943201  0.74681219  1.0
  N  N305  1  0.77352223  0.44604113  0.77234343  1.0
  N  N306  1  0.60284611  0.21545773  0.53668156  1.0
  N  N307  1  0.93979537  0.86854935  0.44000564  1.0
  N  N308  1  0.98462074  0.28617785  0.31311189  1.0
  N  N309  1  0.81995908  0.08956601  0.46233852  1.0
  N  N310  1  0.90617527  0.10053211  0.40377812  1.0
  N  N311  1  0.83364276  0.19270045  0.43149778  1.0
  N  N312  1  0.86182587  0.68008549  0.39301212  1.0
  N  N313  1  0.17605777  0.36602951  0.27140261  1.0
  N  N314  1  0.69649927  0.28610100  0.13305820  1.0
  N  N315  1  0.54391547  0.46915817  0.30746303  1.0
  N  N316  1  0.50539872  0.35937632  0.24684268  1.0
  N  N317  1  0.67251226  0.44598067  0.27230519  1.0
  N  N318  1  0.61256439  0.21540351  0.03670422  1.0
  N  N319  1  0.92862438  0.86860055  0.94006156  1.0
  N  N320  1  0.30162657  0.28629559  0.81318753  1.0
  N  N321  1  0.26949246  0.08950368  0.96230832  1.0
  N  N322  1  0.19434381  0.10036630  0.90369042  1.0
  N  N323  1  0.35907897  0.19255812  0.93144590  1.0
