# generated using pymatgen
data_AlH7C9O5
_symmetry_space_group_name_H-M   'P 1'
_cell_length_a   6.65680111
_cell_length_b   12.84926096
_cell_length_c   16.87958410
_cell_angle_alpha   89.98709003
_cell_angle_beta   90.78398323
_cell_angle_gamma   89.58035827
_symmetry_Int_Tables_number   1
_chemical_formula_structural   AlH7C9O5
_chemical_formula_sum   'Al4 H28 C36 O20'
_cell_volume   1443.62084373
_cell_formula_units_Z   4
loop_
 _symmetry_equiv_pos_site_id
 _symmetry_equiv_pos_as_xyz
  1  'x, y, z'
loop_
 _atom_site_type_symbol
 _atom_site_label
 _atom_site_symmetry_multiplicity
 _atom_site_fract_x
 _atom_site_fract_y
 _atom_site_fract_z
 _atom_site_occupancy
  Al  Al0  1  0.00689463  0.00641159  0.49661123  1.0
  Al  Al1  1  0.50694870  0.00811941  0.49889293  1.0
  Al  Al2  1  0.99209733  0.50924396  0.99830135  1.0
  Al  Al3  1  0.49240344  0.50468228  0.99761683  1.0
  H  H4  1  0.75571647  0.87618997  0.46936194  1.0
  H  H5  1  0.25304147  0.14042448  0.47530629  1.0
  H  H6  1  0.73383357  0.63368322  0.96115169  1.0
  H  H7  1  0.23542275  0.37772720  0.96677786  1.0
  H  H8  1  0.95569947  0.75767140  0.15618691  1.0
  H  H9  1  0.55219706  0.64843258  0.21034920  1.0
  H  H10  1  0.96894950  0.87010846  0.27783108  1.0
  H  H11  1  0.44901652  0.35728984  0.77756511  1.0
  H  H12  1  0.03628136  0.25083815  0.84960112  1.0
  H  H13  1  0.46948129  0.24398961  0.65694802  1.0
  H  H14  1  0.04705537  0.37053593  0.22136081  1.0
  H  H15  1  0.46537348  0.25989757  0.15069983  1.0
  H  H16  1  0.03517213  0.25710623  0.34209868  1.0
  H  H17  1  0.94832114  0.64808259  0.77009531  1.0
  H  H18  1  0.52817051  0.75558639  0.84674301  1.0
  H  H19  1  0.97187493  0.76125577  0.64938365  1.0
  H  H20  1  0.70278172  0.82354921  0.34669561  1.0
  H  H21  1  0.58630236  0.73114522  0.40787848  1.0
  H  H22  1  0.72149284  0.68922727  0.32286889  1.0
  H  H23  1  0.20641202  0.12239465  0.78534278  1.0
  H  H24  1  0.06335377  0.03167147  0.72861756  1.0
  H  H25  1  0.19353945  0.13037667  0.67971693  1.0
  H  H26  1  0.31178334  0.12467554  0.21194045  1.0
  H  H27  1  0.45392335  0.03956564  0.27482894  1.0
  H  H28  1  0.30973377  0.13952836  0.31676695  1.0
  H  H29  1  0.69343247  0.87461080  0.67922910  1.0
  H  H30  1  0.55564111  0.97409530  0.72493662  1.0
  H  H31  1  0.69602762  0.88453856  0.78481159  1.0
  C  C32  1  0.26206483  0.88593199  0.60710022  1.0
  C  C33  1  0.25697790  0.88671901  0.38572676  1.0
  C  C34  1  0.75025151  0.13052019  0.38782442  1.0
  C  C35  1  0.76137433  0.12152369  0.61135577  1.0
  C  C36  1  0.23182459  0.62702835  0.88683989  1.0
  C  C37  1  0.25338417  0.62820374  0.10514950  1.0
  C  C38  1  0.75616325  0.39059306  0.10830646  1.0
  C  C39  1  0.73590737  0.38084127  0.89089163  1.0
  C  C40  1  0.26411593  0.81961773  0.31350676  1.0
  C  C41  1  0.25441525  0.69650833  0.17664714  1.0
  C  C42  1  0.43382055  0.75720325  0.29533206  1.0
  C  C43  1  0.08782799  0.75861239  0.19499010  1.0
  C  C44  1  0.42443865  0.69729691  0.22627019  1.0
  C  C45  1  0.09513869  0.81997540  0.26270712  1.0
  C  C46  1  0.76309224  0.18433076  0.68583200  1.0
  C  C47  1  0.74357040  0.31137227  0.82015114  1.0
  C  C48  1  0.92637395  0.18336921  0.74059577  1.0
  C  C49  1  0.58101034  0.30910737  0.76663100  1.0
  C  C50  1  0.91259611  0.24885114  0.80660403  1.0
  C  C51  1  0.59270823  0.24632028  0.69998271  1.0
  C  C52  1  0.74498312  0.19444496  0.31385183  1.0
  C  C53  1  0.75443813  0.32236266  0.17977226  1.0
  C  C54  1  0.58115375  0.19232396  0.25932032  1.0
  C  C55  1  0.91789811  0.32152002  0.23289050  1.0
  C  C56  1  0.58951805  0.25835639  0.19352118  1.0
  C  C57  1  0.91099235  0.25828054  0.29944618  1.0
  C  C58  1  0.26183779  0.82139013  0.68071773  1.0
  C  C59  1  0.23926019  0.69454704  0.81501469  1.0
  C  C60  1  0.42235438  0.82247846  0.73674323  1.0
  C  C61  1  0.07962180  0.69620204  0.76010722  1.0
  C  C62  1  0.40708254  0.75707965  0.80261871  1.0
  C  C63  1  0.09298956  0.75889739  0.69340089  1.0
  C  C64  1  0.62113276  0.74969631  0.34599909  1.0
  C  C65  1  0.10777286  0.11366830  0.73320140  1.0
  C  C66  1  0.40456773  0.12051127  0.26607459  1.0
  C  C67  1  0.60208968  0.89226686  0.73118071  1.0
  O  O68  1  0.09183329  0.90861371  0.57598101  1.0
  O  O69  1  0.42443450  0.91357450  0.41652889  1.0
  O  O70  1  0.58284111  0.10608351  0.41822382  1.0
  O  O71  1  0.92865111  0.09640246  0.58119094  1.0
  O  O72  1  0.92298225  0.10614872  0.41640696  1.0
  O  O73  1  0.58960854  0.09917690  0.58194126  1.0
  O  O74  1  0.43069564  0.91275950  0.57948139  1.0
  O  O75  1  0.08443801  0.91297809  0.41159093  1.0
  O  O76  1  0.75741423  0.94346469  0.49521883  1.0
  O  O77  1  0.25518512  0.07121817  0.49799026  1.0
  O  O78  1  0.06093100  0.59135117  0.90613236  1.0
  O  O79  1  0.42013835  0.58644703  0.08670254  1.0
  O  O80  1  0.59174650  0.40167020  0.06964081  1.0
  O  O81  1  0.90057003  0.39827311  0.92797702  1.0
  O  O82  1  0.92231726  0.43247004  0.09061857  1.0
  O  O83  1  0.56406704  0.41787798  0.90886402  1.0
  O  O84  1  0.39738824  0.61046733  0.92384550  1.0
  O  O85  1  0.08764658  0.61642938  0.06771348  1.0
  O  O86  1  0.73992713  0.57209153  0.99427156  1.0
  O  O87  1  0.24124513  0.44192271  0.99680854  1.0
