# generated using pymatgen
data_AlH9C27(NO3)6
_symmetry_space_group_name_H-M   'P 1'
_cell_length_a   4.24779637
_cell_length_b   16.11814791
_cell_length_c   16.11828189
_cell_angle_alpha   119.87572967
_cell_angle_beta   90.93392944
_cell_angle_gamma   90.93567608
_symmetry_Int_Tables_number   1
_chemical_formula_structural   AlH9C27(NO3)6
_chemical_formula_sum   'Al1 H9 C27 N6 O18'
_cell_volume   956.40146635
_cell_formula_units_Z   1
loop_
 _symmetry_equiv_pos_site_id
 _symmetry_equiv_pos_as_xyz
  1  'x, y, z'
loop_
 _atom_site_type_symbol
 _atom_site_label
 _atom_site_symmetry_multiplicity
 _atom_site_fract_x
 _atom_site_fract_y
 _atom_site_fract_z
 _atom_site_occupancy
  Al  Al0  1  0.99999422  0.49931844  0.50056812  1.0
  H  H1  1  0.50002870  0.92186875  0.07800866  1.0
  H  H2  1  0.48670556  0.65505788  0.07794973  1.0
  H  H3  1  0.51317791  0.92192877  0.34481700  1.0
  H  H4  1  0.76866449  0.05974801  0.16844825  1.0
  H  H5  1  0.21180444  0.05202408  0.38752707  1.0
  H  H6  1  0.23141359  0.83145765  0.94013645  1.0
  H  H7  1  0.78807507  0.61234351  0.94787767  1.0
  H  H8  1  0.73505781  0.60478691  0.16191305  1.0
  H  H9  1  0.26485884  0.83800513  0.39510930  1.0
  C  C10  1  0.51527383  0.57226458  0.64632713  1.0
  C  C11  1  0.49998750  0.57215262  0.42776799  1.0
  C  C12  1  0.48473453  0.35356737  0.42760523  1.0
  C  C13  1  0.50335953  0.78257063  0.06634322  1.0
  C  C14  1  0.50006968  0.88280062  0.11709146  1.0
  C  C15  1  0.49665361  0.93354434  0.21730966  1.0
  C  C16  1  0.50027952  0.88256925  0.26679942  1.0
  C  C17  1  0.49993654  0.78218332  0.21769214  1.0
  C  C18  1  0.49963980  0.73309332  0.11732131  1.0
  C  C19  1  0.63062161  0.19243082  0.28461273  1.0
  C  C20  1  0.64017159  0.09319123  0.23470285  1.0
  C  C21  1  0.49202018  0.03925000  0.26989794  1.0
  C  C22  1  0.33695832  0.08905499  0.35654400  1.0
  C  C23  1  0.33651309  0.18846633  0.40575922  1.0
  C  C24  1  0.48196567  0.24455017  0.37237066  1.0
  C  C25  1  0.35986011  0.76518995  0.90669808  1.0
  C  C26  1  0.36946687  0.71527744  0.80745318  1.0
  C  C27  1  0.51802911  0.62749999  0.75534151  1.0
  C  C28  1  0.66341124  0.59410379  0.81142987  1.0
  C  C29  1  0.66297004  0.64333627  0.91083956  1.0
  C  C30  1  0.50796093  0.72998529  0.96063674  1.0
  C  C31  1  0.62941713  0.63847868  0.23197667  1.0
  C  C32  1  0.63078476  0.58978165  0.28280629  1.0
  C  C33  1  0.49993511  0.62616740  0.37375612  1.0
  C  C34  1  0.36911824  0.71712724  0.41013784  1.0
  C  C35  1  0.37050101  0.76793758  0.36142302  1.0
  C  C36  1  0.49993726  0.72924828  0.27066179  1.0
  N  N37  1  0.17702730  0.23459245  0.49863499  1.0
  N  N38  1  0.78414566  0.24294889  0.23983818  1.0
  N  N39  1  0.21604688  0.76005579  0.75692233  1.0
  N  N40  1  0.82287857  0.50122680  0.76531525  1.0
  N  N41  1  0.77114395  0.49341094  0.22888541  1.0
  N  N42  1  0.22877744  0.77105631  0.50651312  1.0
  O  O43  1  0.24484804  0.39233795  0.41560682  1.0
  O  O44  1  0.27169039  0.52061719  0.60647603  1.0
  O  O45  1  0.26790317  0.58363588  0.48043086  1.0
  O  O46  1  0.72825848  0.39341569  0.47926299  1.0
  O  O47  1  0.73206789  0.51949825  0.41627883  1.0
  O  O48  1  0.75511483  0.58426721  0.60755208  1.0
  O  O49  1  0.25354421  0.31837495  0.55570258  1.0
  O  O50  1  0.98061866  0.18501051  0.51223344  1.0
  O  O51  1  0.69835365  0.32468387  0.26571314  1.0
  O  O52  1  0.98445964  0.19906207  0.17923485  1.0
  O  O53  1  0.30190713  0.73415331  0.67518718  1.0
  O  O54  1  0.01576654  0.82067465  0.80078829  1.0
  O  O55  1  0.74641433  0.44415992  0.68152919  1.0
  O  O56  1  0.01924826  0.48763486  0.81490861  1.0
  O  O57  1  0.03240038  0.48209264  0.25518384  1.0
  O  O58  1  0.61889029  0.43424818  0.15710219  1.0
  O  O59  1  0.96755829  0.74474909  0.51785397  1.0
  O  O60  1  0.38100776  0.84285912  0.56565081  1.0
