# generated using pymatgen
data_Zr3H16C25O16
_symmetry_space_group_name_H-M   'P 1'
_cell_length_a   9.34097902
_cell_length_b   17.79909018
_cell_length_c   28.99831896
_cell_angle_alpha   93.41183737
_cell_angle_beta   96.86419096
_cell_angle_gamma   90.98720447
_symmetry_Int_Tables_number   1
_chemical_formula_structural   Zr3H16C25O16
_chemical_formula_sum   'Zr6 H32 C50 O32'
_cell_volume   4776.80387652
_cell_formula_units_Z   2
loop_
 _symmetry_equiv_pos_site_id
 _symmetry_equiv_pos_as_xyz
  1  'x, y, z'
loop_
 _atom_site_type_symbol
 _atom_site_label
 _atom_site_symmetry_multiplicity
 _atom_site_fract_x
 _atom_site_fract_y
 _atom_site_fract_z
 _atom_site_occupancy
  Zr  Zr0  1  0.03247952  0.88551630  0.04711533  1.0
  Zr  Zr1  1  0.97273077  0.10467312  0.95604522  1.0
  Zr  Zr2  1  0.87410872  0.05529402  0.06086644  1.0
  Zr  Zr3  1  0.13773129  0.92819804  0.93816121  1.0
  Zr  Zr4  1  0.76155974  0.93602008  0.95923434  1.0
  Zr  Zr5  1  0.25618398  0.05150767  0.04088337  1.0
  H  H6  1  0.95051185  0.81152654  0.95713267  1.0
  H  H7  1  0.68418483  0.09155758  0.97929652  1.0
  H  H8  1  0.26736546  0.07841241  0.94648501  1.0
  H  H9  1  0.13173153  0.00548237  0.11876554  1.0
  H  H10  1  0.46523388  0.92677080  0.97110099  1.0
  H  H11  1  0.97330973  0.19681189  0.08824208  1.0
  H  H12  1  0.30578851  0.15574213  0.10771257  1.0
  H  H13  1  0.71964985  0.81698656  0.88871518  1.0
  H  H14  1  0.88436692  0.85749578  0.88439441  1.0
  H  H15  1  0.41751549  0.95344355  0.91299673  1.0
  H  H16  1  0.53994843  0.10131305  0.03205783  1.0
  H  H17  1  0.62626558  0.96718990  0.88101311  1.0
  H  H18  1  0.84274851  0.15769052  0.87437845  1.0
  H  H19  1  0.20596673  0.79262452  0.10032250  1.0
  H  H20  1  0.46388534  0.99151744  0.09412106  1.0
  H  H21  1  0.05248653  0.86750023  0.85273720  1.0
  H  H22  1  0.76874017  0.19462079  0.91714553  1.0
  H  H23  1  0.64816613  0.11486126  0.09916785  1.0
  H  H24  1  0.51484269  0.94187884  0.02725503  1.0
  H  H25  1  0.49933426  0.03178663  0.99730587  1.0
  H  H26  1  0.92441440  0.17039341  0.13571818  1.0
  H  H27  1  0.09881013  0.83161819  0.13335960  1.0
  H  H28  1  0.76178131  0.50749874  0.01247273  1.0
  H  H29  1  0.22539247  0.48886022  0.98816239  1.0
  H  H30  1  0.13713955  0.94508644  0.29043386  1.0
  H  H31  1  0.94920878  0.96560100  0.41924499  1.0
  H  H32  1  0.67366119  0.94822709  0.28845120  1.0
  H  H33  1  0.30006575  0.05309987  0.71293761  1.0
  H  H34  1  0.02793939  0.03435636  0.58144968  1.0
  H  H35  1  0.83630704  0.05633510  0.70950759  1.0
  H  H36  1  0.75171089  0.00111345  0.49828877  1.0
  H  H37  1  0.22273532  0.99891115  0.50249846  1.0
  C  C38  1  0.75658958  0.77696360  0.00982427  1.0
  C  C39  1  0.21626110  0.76693108  0.99190546  1.0
  C  C40  1  0.87556225  0.94384814  0.14309037  1.0
  C  C41  1  0.85154838  0.25724206  0.01559314  1.0
  C  C42  1  0.22508713  0.22072732  0.99591015  1.0
  C  C43  1  0.09014064  0.05260113  0.85721141  1.0
  C  C44  1  0.56529356  0.56920159  0.00336081  1.0
  C  C45  1  0.41121381  0.56415536  0.99613183  1.0
  C  C46  1  0.34274522  0.49313262  0.99313809  1.0
  C  C47  1  0.42218795  0.42697906  0.99672464  1.0
  C  C48  1  0.57618592  0.43216499  0.00329222  1.0
  C  C49  1  0.64446552  0.50340050  0.00687930  1.0
  C  C50  1  0.90360349  0.94502879  0.28436118  1.0
  C  C51  1  0.04296444  0.94781984  0.30918827  1.0
  C  C52  1  0.05988620  0.95583162  0.35806138  1.0
  C  C53  1  0.93649667  0.95947101  0.38139362  1.0
  C  C54  1  0.79707511  0.95664657  0.35689737  1.0
  C  C55  1  0.78067120  0.94952251  0.30804783  1.0
  C  C56  1  0.06969817  0.05650066  0.71633489  1.0
  C  C57  1  0.19350234  0.05167328  0.69304430  1.0
  C  C58  1  0.17841859  0.04391320  0.64418489  1.0
  C  C59  1  0.03950750  0.04087567  0.61927830  1.0
  C  C60  1  0.91550298  0.04483555  0.64225591  1.0
  C  C61  1  0.93108392  0.05342182  0.69106334  1.0
  C  C62  1  0.54403779  0.98619508  0.45746110  1.0
  C  C63  1  0.39197146  0.98566258  0.45863403  1.0
  C  C64  1  0.33894177  0.99943589  0.50156757  1.0
  C  C65  1  0.43042519  0.01384821  0.54334720  1.0
  C  C66  1  0.58245935  0.01444634  0.54212004  1.0
  C  C67  1  0.63549522  0.00060217  0.49921733  1.0
  C  C68  1  0.68257967  0.02796537  0.58220645  1.0
  C  C69  1  0.78179293  0.03765121  0.61354446  1.0
  C  C70  1  0.29311277  0.03639783  0.61651656  1.0
  C  C71  1  0.36659600  0.02693813  0.58464903  1.0
  C  C72  1  0.29214427  0.97230603  0.41839659  1.0
  C  C73  1  0.19383022  0.96273523  0.38673153  1.0
  C  C74  1  0.68276658  0.96381520  0.38467348  1.0
  C  C75  1  0.60830316  0.97310092  0.41627194  1.0
  C  C76  1  0.27886068  0.69315564  0.99154474  1.0
  C  C77  1  0.33390466  0.63165979  0.99317093  1.0
  C  C78  1  0.66316108  0.36801005  0.00650474  1.0
  C  C79  1  0.74820783  0.31686742  0.00986080  1.0
  C  C80  1  0.29009907  0.29485538  0.99505273  1.0
  C  C81  1  0.35044245  0.35611265  0.99510633  1.0
  C  C82  1  0.69135341  0.70314081  0.00972206  1.0
  C  C83  1  0.63562798  0.64044917  0.00704897  1.0
  C  C84  1  0.08217391  0.06123198  0.76569005  1.0
  C  C85  1  0.08853297  0.06216389  0.80791844  1.0
  C  C86  1  0.88749001  0.94036277  0.23496837  1.0
  C  C87  1  0.87450471  0.93901905  0.19261929  1.0
  O  O88  1  0.17088033  0.84066265  0.11217708  1.0
  O  O89  1  0.86500107  0.79287837  0.04030440  1.0
  O  O90  1  0.92328812  0.88850950  0.12052954  1.0
  O  O91  1  0.22128847  0.80539882  0.95727530  1.0
  O  O92  1  0.83273731  0.00610667  0.12661382  1.0
  O  O93  1  0.15872370  0.78574462  0.02922882  1.0
  O  O94  1  0.70146955  0.81873094  0.97843205  1.0
  O  O95  1  0.85386245  0.94942607  0.03087040  1.0
  O  O96  1  0.96361978  0.86313514  0.96994864  1.0
  O  O97  1  0.08911307  0.99739325  0.08653121  1.0
  O  O98  1  0.16453212  0.94359107  0.01121659  1.0
  O  O99  1  0.34894412  0.92635221  0.92998496  1.0
  O  O100  1  0.55272793  0.94255300  0.99567802  1.0
  O  O101  1  0.93915539  0.99219748  0.93739593  1.0
  O  O102  1  0.77137625  0.06298610  0.98635395  1.0
  O  O103  1  0.03177267  0.09220203  0.02468316  1.0
  O  O104  1  0.19458843  0.05347744  0.96191494  1.0
  O  O105  1  0.68446835  0.10922427  0.06912494  1.0
  O  O106  1  0.93509794  0.25883025  0.05293344  1.0
  O  O107  1  0.84670231  0.20829955  0.98078833  1.0
  O  O108  1  0.40569795  0.97077594  0.06602340  1.0
  O  O109  1  0.12568671  0.20149198  0.96248296  1.0
  O  O110  1  0.97717566  0.15378590  0.11017912  1.0
  O  O111  1  0.31845237  0.10164973  0.10459391  1.0
  O  O112  1  0.46156614  0.08240714  0.00636799  1.0
  O  O113  1  0.27314269  0.18123704  0.02880571  1.0
  O  O114  1  0.79071116  0.14700340  0.90068685  1.0
  O  O115  1  0.02758799  0.85523829  0.88306149  1.0
  O  O116  1  0.03798556  0.10526743  0.88173103  1.0
  O  O117  1  0.14176959  0.99154837  0.87122833  1.0
  O  O118  1  0.77089285  0.86530518  0.89111783  1.0
  O  O119  1  0.60637627  0.97988604  0.91268036  1.0
