# generated using pymatgen
data_AlH10C19BrO7
_symmetry_space_group_name_H-M   'P 1'
_cell_length_a   6.69680938
_cell_length_b   24.97763360
_cell_length_c   27.05423563
_cell_angle_alpha   84.21270423
_cell_angle_beta   89.99930658
_cell_angle_gamma   89.99780779
_symmetry_Int_Tables_number   1
_chemical_formula_structural   AlH10C19BrO7
_chemical_formula_sum   'Al4 H40 C76 Br4 O28'
_cell_volume   4502.30877385
_cell_formula_units_Z   4
loop_
 _symmetry_equiv_pos_site_id
 _symmetry_equiv_pos_as_xyz
  1  'x, y, z'
loop_
 _atom_site_type_symbol
 _atom_site_label
 _atom_site_symmetry_multiplicity
 _atom_site_fract_x
 _atom_site_fract_y
 _atom_site_fract_z
 _atom_site_occupancy
  Al  Al0  1  0.77617486  0.25009518  0.74887292  1.0
  Al  Al1  1  0.21812386  0.75102182  0.25102434  1.0
  Al  Al2  1  0.27617698  0.24989427  0.75111831  1.0
  Al  Al3  1  0.71812185  0.74897337  0.24897366  1.0
  H  H4  1  0.25714689  0.61843889  0.04633359  1.0
  H  H5  1  0.74056692  0.38253621  0.95277974  1.0
  H  H6  1  0.75717331  0.88155978  0.45365325  1.0
  H  H7  1  0.24061521  0.11743505  0.54721750  1.0
  H  H8  1  0.69452061  0.55417784  0.10309746  1.0
  H  H9  1  0.29875521  0.44883603  0.89499809  1.0
  H  H10  1  0.19452651  0.94582290  0.39690387  1.0
  H  H11  1  0.79884953  0.05115617  0.60499090  1.0
  H  H12  1  0.69255851  0.62194143  0.16391195  1.0
  H  H13  1  0.29986167  0.38168188  0.83340878  1.0
  H  H14  1  0.19255390  0.87806029  0.33608789  1.0
  H  H15  1  0.79992769  0.11830958  0.66657946  1.0
  H  H16  1  0.66882288  0.53423784  0.02484295  1.0
  H  H17  1  0.32778144  0.46694552  0.97445950  1.0
  H  H18  1  0.16886844  0.96575408  0.47516546  1.0
  H  H19  1  0.82784048  0.03303185  0.52552991  1.0
  H  H20  1  0.68587174  0.46719741  0.96451606  1.0
  H  H21  1  0.31083412  0.53391239  0.03488393  1.0
  H  H22  1  0.18593891  0.03278545  0.53549934  1.0
  H  H23  1  0.81085363  0.96607181  0.46510444  1.0
  H  H24  1  0.28326368  0.40982828  0.53511314  1.0
  H  H25  1  0.69569078  0.53520179  0.41655364  1.0
  H  H26  1  0.78320981  0.09018690  0.96490289  1.0
  H  H27  1  0.19568282  0.96480456  0.08345139  1.0
  H  H28  1  0.30150932  0.33772027  0.60593512  1.0
  H  H29  1  0.68904318  0.60726323  0.34612288  1.0
  H  H30  1  0.80149201  0.16228500  0.89407388  1.0
  H  H31  1  0.18902258  0.89273144  0.15387215  1.0
  H  H32  1  0.73579767  0.46793092  0.59508663  1.0
  H  H33  1  0.25876269  0.59650362  0.46432414  1.0
  H  H34  1  0.23585007  0.03206218  0.90490533  1.0
  H  H35  1  0.75876054  0.90349733  0.03567124  1.0
  H  H36  1  0.70846602  0.39994833  0.74765732  1.0
  H  H37  1  0.33516164  0.75476513  0.40300462  1.0
  H  H38  1  0.20869458  0.10003741  0.75232428  1.0
  H  H39  1  0.83513285  0.74522408  0.09699784  1.0
  H  H40  1  0.51761504  0.31471317  0.72064885  1.0
  H  H41  1  0.46626559  0.68389523  0.27484756  1.0
  H  H42  1  0.01763832  0.18526904  0.77932869  1.0
  H  H43  1  0.96624929  0.81610975  0.22516783  1.0
  C  C44  1  0.53137852  0.18320402  0.82038102  1.0
  C  C45  1  0.46692067  0.81722118  0.17904528  1.0
  C  C46  1  0.03137898  0.31678735  0.67961432  1.0
  C  C47  1  0.96692917  0.68277469  0.32095008  1.0
  C  C48  1  0.52279275  0.18740321  0.68677402  1.0
  C  C49  1  0.47273802  0.81005627  0.31502601  1.0
  C  C50  1  0.02278791  0.31258488  0.81321168  1.0
  C  C51  1  0.97276662  0.68994061  0.18497047  1.0
  C  C52  1  0.13618949  0.65418065  0.10841677  1.0
  C  C53  1  0.86017291  0.34805144  0.88984059  1.0
  C  C54  1  0.63621999  0.84581276  0.39157011  1.0
  C  C55  1  0.36019626  0.15193481  0.61015175  1.0
  C  C56  1  0.13526103  0.61722273  0.07307900  1.0
  C  C57  1  0.86137913  0.38431632  0.92571722  1.0
  C  C58  1  0.63529534  0.88276661  0.42690863  1.0
  C  C59  1  0.36141358  0.11566180  0.57427997  1.0
  C  C60  1  0.97973689  0.57989736  0.07080205  1.0
  C  C61  1  0.01653740  0.42179355  0.92806129  1.0
  C  C62  1  0.47976397  0.92009602  0.42919258  1.0
  C  C63  1  0.51660301  0.07819176  0.57193631  1.0
  C  C64  1  0.81810479  0.58249996  0.10371385  1.0
  C  C65  1  0.17632980  0.42012272  0.89451478  1.0
  C  C66  1  0.31810779  0.91749995  0.39628412  1.0
  C  C67  1  0.67639713  0.07986706  0.60547794  1.0
  C  C68  1  0.81743549  0.61988949  0.13833828  1.0
  C  C69  1  0.17634207  0.38317799  0.85945032  1.0
  C  C70  1  0.31743467  0.88011095  0.36165858  1.0
  C  C71  1  0.67638187  0.11681082  0.64054018  1.0
  C  C72  1  0.97805021  0.65550614  0.14268220  1.0
  C  C73  1  0.01708323  0.34723975  0.85525524  1.0
  C  C74  1  0.47805352  0.84449251  0.35731204  1.0
  C  C75  1  0.51711440  0.15274865  0.64473195  1.0
  C  C76  1  0.81409923  0.51904783  0.01454824  1.0
  C  C77  1  0.18255884  0.48206041  0.98484767  1.0
  C  C78  1  0.31414239  0.98093382  0.48546391  1.0
  C  C79  1  0.68261581  0.01792068  0.51514694  1.0
  C  C80  1  0.82380324  0.48110441  0.98041844  1.0
  C  C81  1  0.17286529  0.51998506  0.01900724  1.0
  C  C82  1  0.32386265  0.01887882  0.51959174  1.0
  C  C83  1  0.67290898  0.98000672  0.48098298  1.0
  C  C84  1  0.00807462  0.46170901  0.96469251  1.0
  C  C85  1  0.98857598  0.53949941  0.03461135  1.0
  C  C86  1  0.50814131  0.03827465  0.53530658  1.0
  C  C87  1  0.48861241  0.96048493  0.46538813  1.0
  C  C88  1  0.16788992  0.40648449  0.56362721  1.0
  C  C89  1  0.81757285  0.56408605  0.41131209  1.0
  C  C90  1  0.66786624  0.09352374  0.93638143  1.0
  C  C91  1  0.31755712  0.93591348  0.08868960  1.0
  C  C92  1  0.17827908  0.36632274  0.60298413  1.0
  C  C93  1  0.81387045  0.60429025  0.37196208  1.0
  C  C94  1  0.67827056  0.13368265  0.89701969  1.0
  C  C95  1  0.31385450  0.89570386  0.12803442  1.0
  C  C96  1  0.02943987  0.36197886  0.63938015  1.0
  C  C97  1  0.96816456  0.64215097  0.36521646  1.0
  C  C98  1  0.52945907  0.13802063  0.86061814  1.0
  C  C99  1  0.46816258  0.85784208  0.13477891  1.0
  C  C100  1  0.87139714  0.39938328  0.63674578  1.0
  C  C101  1  0.12748992  0.63948230  0.39940000  1.0
  C  C102  1  0.37144392  0.10061112  0.86324765  1.0
  C  C103  1  0.62748440  0.86051056  0.10059319  1.0
  C  C104  1  0.85846800  0.43912342  0.59700988  1.0
  C  C105  1  0.13437001  0.59847430  0.43823632  1.0
  C  C106  1  0.35849358  0.06087596  0.90298725  1.0
  C  C107  1  0.63435712  0.90152324  0.06176094  1.0
  C  C108  1  0.00685620  0.44305724  0.55979557  1.0
  C  C109  1  0.97944140  0.56021181  0.44477517  1.0
  C  C110  1  0.50684958  0.05694648  0.94021088  1.0
  C  C111  1  0.47942782  0.93978748  0.05522798  1.0
  C  C112  1  0.99532480  0.48383686  0.51948510  1.0
  C  C113  1  0.98707555  0.51902737  0.48481686  1.0
  C  C114  1  0.49531337  0.01616953  0.98052387  1.0
  C  C115  1  0.48706064  0.98097246  0.01518406  1.0
  C  C116  1  0.72101359  0.39781883  0.67774642  1.0
  C  C117  1  0.29122998  0.68049748  0.39695959  1.0
  C  C118  1  0.22112606  0.10216938  0.82223293  1.0
  C  C119  1  0.79123312  0.81949434  0.10302727  1.0
  Br  Br120  1  0.35289319  0.70347387  0.10455249  1.0
  Br  Br121  1  0.64093218  0.29915590  0.89298681  1.0
  Br  Br122  1  0.85295106  0.79652620  0.39542840  1.0
  Br  Br123  1  0.14095355  0.20083110  0.60701001  1.0
  O  O124  1  0.35582684  0.19901306  0.70534959  1.0
  O  O125  1  0.63867812  0.79749144  0.29673610  1.0
  O  O126  1  0.85580832  0.30096872  0.79464388  1.0
  O  O127  1  0.13868149  0.70249919  0.20325784  1.0
  O  O128  1  0.69892367  0.20064596  0.80406630  1.0
  O  O129  1  0.29955284  0.80424310  0.19889747  1.0
  O  O130  1  0.19890235  0.29934084  0.69592161  1.0
  O  O131  1  0.79954057  0.69575124  0.30109866  1.0
  O  O132  1  0.69471066  0.20057158  0.70168006  1.0
  O  O133  1  0.29969565  0.79785892  0.29996312  1.0
  O  O134  1  0.19469493  0.29942086  0.79830411  1.0
  O  O135  1  0.79970537  0.70213459  0.20004081  1.0
  O  O136  1  0.86099534  0.29887920  0.69437914  1.0
  O  O137  1  0.13662895  0.70051283  0.30537579  1.0
  O  O138  1  0.36102387  0.20111602  0.80561540  1.0
  O  O139  1  0.63663916  0.79948091  0.19461925  1.0
  O  O140  1  0.52581670  0.28325254  0.74506106  1.0
  O  O141  1  0.46676190  0.71716971  0.25297846  1.0
  O  O142  1  0.02582655  0.21673936  0.75492982  1.0
  O  O143  1  0.96675494  0.78282598  0.24702247  1.0
  O  O144  1  0.54164963  0.39055324  0.67323739  1.0
  O  O145  1  0.80892346  0.40685153  0.72137294  1.0
  O  O146  1  0.46694428  0.67086001  0.39016916  1.0
  O  O147  1  0.22272870  0.72941199  0.40693730  1.0
  O  O148  1  0.04175352  0.10943468  0.82672491  1.0
  O  O149  1  0.30911937  0.09314201  0.77861344  1.0
  O  O150  1  0.96695484  0.82913013  0.10980468  1.0
  O  O151  1  0.72270049  0.77057798  0.09306406  1.0
