# generated using pymatgen
data_ZnH10C16NO4
_symmetry_space_group_name_H-M   'P 1'
_cell_length_a   10.98017491
_cell_length_b   19.74136882
_cell_length_c   21.62405392
_cell_angle_alpha   89.99997354
_cell_angle_beta   79.36837797
_cell_angle_gamma   89.99995436
_symmetry_Int_Tables_number   1
_chemical_formula_structural   ZnH10C16NO4
_chemical_formula_sum   'Zn8 H80 C128 N8 O32'
_cell_volume   4606.84568190
_cell_formula_units_Z   8
loop_
 _symmetry_equiv_pos_site_id
 _symmetry_equiv_pos_as_xyz
  1  'x, y, z'
loop_
 _atom_site_type_symbol
 _atom_site_label
 _atom_site_symmetry_multiplicity
 _atom_site_fract_x
 _atom_site_fract_y
 _atom_site_fract_z
 _atom_site_occupancy
  Zn  Zn0  1  0.64637382  0.04916724  0.36386320  1.0
  Zn  Zn1  1  0.35362751  0.54916663  0.13613647  1.0
  Zn  Zn2  1  0.35362753  0.95083318  0.63613682  1.0
  Zn  Zn3  1  0.64637385  0.45083277  0.86386308  1.0
  Zn  Zn4  1  0.68382583  0.94959266  0.26602799  1.0
  Zn  Zn5  1  0.31617497  0.44959196  0.23397156  1.0
  Zn  Zn6  1  0.31617460  0.05040776  0.73397119  1.0
  Zn  Zn7  1  0.68382545  0.55040745  0.76602854  1.0
  H  H8  1  0.63269868  0.91862971  0.51813248  1.0
  H  H9  1  0.36729996  0.41862987  0.98186677  1.0
  H  H10  1  0.36729989  0.08137020  0.48186733  1.0
  H  H11  1  0.63269769  0.58137004  0.01813313  1.0
  H  H12  1  0.69057941  0.76086964  0.37894993  1.0
  H  H13  1  0.30942071  0.26086951  0.12104977  1.0
  H  H14  1  0.30942102  0.23913026  0.62105018  1.0
  H  H15  1  0.69057878  0.73913040  0.87894996  1.0
  H  H16  1  0.63645854  0.83509242  0.60198248  1.0
  H  H17  1  0.36353929  0.33509212  0.89801687  1.0
  H  H18  1  0.36353911  0.16490749  0.39801695  1.0
  H  H19  1  0.63645928  0.66490728  0.10198294  1.0
  H  H20  1  0.08391675  0.91680530  0.24483783  1.0
  H  H21  1  0.91608409  0.41680483  0.25516219  1.0
  H  H22  1  0.91608367  0.08319461  0.75516227  1.0
  H  H23  1  0.08391634  0.58319457  0.74483745  1.0
  H  H24  1  0.30992660  0.91718871  0.25309790  1.0
  H  H25  1  0.69007424  0.41718834  0.24690166  1.0
  H  H26  1  0.69007383  0.08281171  0.74690174  1.0
  H  H27  1  0.30992711  0.58281157  0.75309836  1.0
  H  H28  1  0.65853202  0.30411295  0.87879088  1.0
  H  H29  1  0.34145101  0.80411388  0.62121124  1.0
  H  H30  1  0.34145079  0.69588645  0.12121085  1.0
  H  H31  1  0.65853181  0.19588705  0.37879142  1.0
  H  H32  1  0.76828372  0.08641444  0.11193482  1.0
  H  H33  1  0.23171293  0.58641376  0.38806480  1.0
  H  H34  1  0.23171300  0.91358598  0.88806470  1.0
  H  H35  1  0.76828379  0.41358565  0.61193472  1.0
  H  H36  1  0.66757395  0.38773045  0.09169595  1.0
  H  H37  1  0.33243157  0.88773022  0.40830319  1.0
  H  H38  1  0.33243204  0.61226946  0.90830364  1.0
  H  H39  1  0.66757534  0.11226918  0.59169585  1.0
  H  H40  1  0.58500954  0.22920748  0.24649917  1.0
  H  H41  1  0.41499062  0.72920729  0.25350191  1.0
  H  H42  1  0.41499088  0.77079243  0.75350139  1.0
  H  H43  1  0.58500888  0.27079262  0.74649874  1.0
  H  H44  1  0.66443435  0.21945314  0.96374892  1.0
  H  H45  1  0.33555158  0.71945412  0.53625251  1.0
  H  H46  1  0.33555125  0.78054575  0.03625302  1.0
  H  H47  1  0.66443402  0.28054681  0.46374943  1.0
  H  H48  1  0.69799833  0.67526411  0.46305827  1.0
  H  H49  1  0.30200191  0.17526402  0.03694145  1.0
  H  H50  1  0.30200117  0.32473580  0.53694192  1.0
  H  H51  1  0.69799759  0.82473589  0.96305874  1.0
  H  H52  1  0.01609315  0.07826161  0.37929647  1.0
  H  H53  1  0.98390629  0.57826123  0.12070337  1.0
  H  H54  1  0.98390635  0.92173830  0.62070372  1.0
  H  H55  1  0.01609414  0.42173817  0.87929627  1.0
  H  H56  1  0.57640431  0.31284152  0.16070248  1.0
  H  H57  1  0.42359018  0.81284129  0.33929864  1.0
  H  H58  1  0.42359148  0.68715839  0.83929805  1.0
  H  H59  1  0.57640468  0.18715862  0.66070244  1.0
  H  H60  1  0.23975724  0.07602209  0.39055913  1.0
  H  H61  1  0.76024313  0.57602233  0.10944062  1.0
  H  H62  1  0.76024319  0.92397832  0.60944098  1.0
  H  H63  1  0.23975730  0.42397808  0.89055902  1.0
  H  H64  1  0.81257513  0.63387889  0.53811847  1.0
  H  H65  1  0.18742388  0.13387864  0.96188132  1.0
  H  H66  1  0.18742437  0.36612153  0.46188126  1.0
  H  H67  1  0.81257469  0.86612127  0.03811803  1.0
  H  H68  1  0.65146201  0.46456152  0.00234191  1.0
  H  H69  1  0.34854989  0.96456073  0.49765660  1.0
  H  H70  1  0.34854953  0.53543940  0.99765669  1.0
  H  H71  1  0.65146259  0.03543867  0.50234192  1.0
  H  H72  1  0.77031213  0.17050690  0.02607885  1.0
  H  H73  1  0.22968163  0.67050567  0.47392101  1.0
  H  H74  1  0.22968088  0.82949351  0.97392102  1.0
  H  H75  1  0.77031324  0.32949322  0.52607868  1.0
  H  H76  1  0.81391255  0.55734770  0.63049796  1.0
  H  H77  1  0.18608750  0.05734699  0.86950176  1.0
  H  H78  1  0.18608788  0.44265272  0.36950168  1.0
  H  H79  1  0.81391293  0.94265241  0.13049788  1.0
  H  H80  1  0.54958063  0.67252920  0.74468515  1.0
  H  H81  1  0.45042018  0.17252894  0.75531445  1.0
  H  H82  1  0.45042072  0.32747070  0.25531486  1.0
  H  H83  1  0.54958117  0.82747147  0.24468510  1.0
  H  H84  1  0.53364949  0.75337013  0.65741524  1.0
  H  H85  1  0.46634844  0.25337083  0.84258460  1.0
  H  H86  1  0.46634908  0.24662927  0.34258503  1.0
  H  H87  1  0.53364920  0.74662959  0.15741530  1.0
  C  C88  1  0.66218298  0.84496005  0.44317071  1.0
  C  C89  1  0.33781703  0.34495943  0.05682989  1.0
  C  C90  1  0.33781745  0.15503985  0.55682847  1.0
  C  C91  1  0.66218246  0.65504047  0.94317123  1.0
  C  C92  1  0.66911529  0.74910396  0.53853258  1.0
  C  C93  1  0.33088357  0.24910415  0.96146717  1.0
  C  C94  1  0.33088328  0.25089595  0.46146723  1.0
  C  C95  1  0.66911500  0.75089576  0.03853264  1.0
  C  C96  1  0.67227155  0.70054551  0.58981609  1.0
  C  C97  1  0.32772459  0.20054472  0.91018533  1.0
  C  C98  1  0.32772424  0.29945541  0.41018537  1.0
  C  C99  1  0.67227398  0.79945519  0.08981448  1.0
  C  C100  1  0.67594806  0.15268695  0.18430565  1.0
  C  C101  1  0.32404850  0.65268626  0.31569442  1.0
  C  C102  1  0.32405052  0.84731398  0.81569416  1.0
  C  C103  1  0.67595007  0.34731314  0.68430539  1.0
  C  C104  1  0.03788891  0.99814008  0.31104050  1.0
  C  C105  1  0.96210997  0.49814064  0.18895967  1.0
  C  C106  1  0.96211059  0.00185983  0.68895969  1.0
  C  C107  1  0.03788860  0.50186028  0.81104014  1.0
  C  C108  1  0.64730361  0.86539530  0.50609253  1.0
  C  C109  1  0.35269510  0.36539547  0.99390672  1.0
  C  C110  1  0.35269496  0.13460461  0.49390728  1.0
  C  C111  1  0.64730347  0.63460444  0.00609309  1.0
  C  C112  1  0.42337498  0.99799309  0.32524950  1.0
  C  C113  1  0.57662668  0.49799281  0.17474995  1.0
  C  C114  1  0.57662637  0.00200732  0.67474959  1.0
  C  C115  1  0.42337374  0.50200659  0.82525061  1.0
  C  C116  1  0.65821105  0.89708158  0.39309128  1.0
  C  C117  1  0.34178889  0.39708144  0.10690883  1.0
  C  C118  1  0.34178937  0.10291833  0.60690882  1.0
  C  C119  1  0.65821153  0.60291796  0.89309173  1.0
  C  C120  1  0.68042533  0.77621102  0.42803049  1.0
  C  C121  1  0.31957477  0.27621091  0.07196873  1.0
  C  C122  1  0.31957417  0.22378889  0.57196923  1.0
  C  C123  1  0.68042472  0.72378900  0.92803099  1.0
  C  C124  1  0.67252341  0.24762314  0.08718925  1.0
  C  C125  1  0.32747117  0.74762241  0.41281189  1.0
  C  C126  1  0.32747238  0.75237727  0.91281128  1.0
  C  C127  1  0.67252370  0.25237699  0.58718919  1.0
  C  C128  1  0.66734052  0.29599417  0.03584874  1.0
  C  C129  1  0.33265584  0.79599391  0.46415267  1.0
  C  C130  1  0.33265434  0.70400624  0.96415234  1.0
  C  C131  1  0.66733995  0.20400600  0.53584879  1.0
  C  C132  1  0.64921442  0.81803535  0.55324867  1.0
  C  C133  1  0.35078342  0.31803504  0.94675116  1.0
  C  C134  1  0.35078323  0.18196506  0.44675123  1.0
  C  C135  1  0.64921422  0.68196437  0.05324920  1.0
  C  C136  1  0.67278219  0.10026149  0.23501796  1.0
  C  C137  1  0.32721813  0.60026235  0.26498363  1.0
  C  C138  1  0.32721822  0.89973690  0.76498353  1.0
  C  C139  1  0.67278136  0.39973807  0.73501841  1.0
  C  C140  1  0.11985135  0.95193558  0.27593097  1.0
  C  C141  1  0.88014944  0.45193564  0.22406904  1.0
  C  C142  1  0.88014907  0.04806484  0.72406913  1.0
  C  C143  1  0.11985191  0.54806477  0.77593097  1.0
  C  C144  1  0.24430677  0.95170051  0.28098261  1.0
  C  C145  1  0.75569495  0.45170063  0.21901685  1.0
  C  C146  1  0.75569458  0.04829991  0.71901648  1.0
  C  C147  1  0.24430640  0.54829978  0.78098316  1.0
  C  C148  1  0.28808130  0.99677234  0.32208708  1.0
  C  C149  1  0.71192036  0.49677200  0.17791284  1.0
  C  C150  1  0.71192005  0.00322859  0.67791201  1.0
  C  C151  1  0.28808007  0.50322842  0.82208727  1.0
  C  C152  1  0.90358147  0.99900204  0.30580773  1.0
  C  C153  1  0.09641926  0.49900196  0.19419319  1.0
  C  C154  1  0.09641895  0.00099838  0.69419329  1.0
  C  C155  1  0.90358116  0.50099744  0.80580784  1.0
  C  C156  1  0.65937731  0.31981144  0.92706791  1.0
  C  C157  1  0.34061127  0.81981189  0.57293323  1.0
  C  C158  1  0.34061107  0.68018796  0.07293331  1.0
  C  C159  1  0.65937711  0.18018903  0.42706845  1.0
  C  C160  1  0.72780408  0.13649202  0.12191460  1.0
  C  C161  1  0.27219251  0.63649133  0.37808501  1.0
  C  C162  1  0.27219265  0.86350839  0.87808493  1.0
  C  C163  1  0.72780421  0.36350807  0.62191497  1.0
  C  C164  1  0.66364998  0.36638291  0.04568025  1.0
  C  C165  1  0.33635093  0.86638265  0.45431933  1.0
  C  C166  1  0.33635137  0.63361751  0.95431931  1.0
  C  C167  1  0.66365135  0.13361726  0.54568014  1.0
  C  C168  1  0.62447804  0.21710802  0.19782397  1.0
  C  C169  1  0.37552028  0.71710782  0.30217637  1.0
  C  C170  1  0.37552146  0.78289240  0.80217621  1.0
  C  C171  1  0.62447736  0.28289208  0.69782399  1.0
  C  C172  1  0.66491210  0.27333644  0.97444864  1.0
  C  C173  1  0.33507654  0.77333640  0.52555252  1.0
  C  C174  1  0.33507628  0.72666347  0.02555305  1.0
  C  C175  1  0.66491184  0.22666351  0.47444870  1.0
  C  C176  1  0.68511699  0.72876850  0.47519212  1.0
  C  C177  1  0.31488225  0.22876842  0.02480767  1.0
  C  C178  1  0.31488158  0.27123140  0.52480769  1.0
  C  C179  1  0.68511632  0.77123149  0.97519261  1.0
  C  C180  1  0.08138194  0.04295503  0.35230310  1.0
  C  C181  1  0.91861846  0.54295467  0.14769804  1.0
  C  C182  1  0.91861848  0.95704539  0.64769746  1.0
  C  C183  1  0.08138196  0.45704524  0.85230298  1.0
  C  C184  1  0.62164330  0.26392089  0.14997622  1.0
  C  C185  1  0.37835496  0.76392067  0.35002364  1.0
  C  C186  1  0.37835435  0.73607851  0.85002322  1.0
  C  C187  1  0.62164268  0.23607974  0.64997672  1.0
  C  C188  1  0.20534502  0.04178639  0.35828418  1.0
  C  C189  1  0.79465631  0.54178660  0.14171596  1.0
  C  C190  1  0.79465633  0.95821352  0.64171584  1.0
  C  C191  1  0.20534411  0.45821382  0.85828414  1.0
  C  C192  1  0.75092013  0.64381995  0.58273932  1.0
  C  C193  1  0.24907887  0.14382020  0.91726001  1.0
  C  C194  1  0.24908030  0.35617996  0.41726032  1.0
  C  C195  1  0.75091970  0.85617971  0.08273934  1.0
  C  C196  1  0.65609772  0.40980468  0.99604406  1.0
  C  C197  1  0.34390648  0.90980465  0.50395560  1.0
  C  C198  1  0.34390641  0.59019523  0.00395616  1.0
  C  C199  1  0.65609765  0.09019526  0.49604416  1.0
  C  C200  1  0.72699958  0.18342445  0.07415033  1.0
  C  C201  1  0.27299509  0.68342322  0.42584990  1.0
  C  C202  1  0.27299529  0.81657648  0.92584937  1.0
  C  C203  1  0.72699978  0.31657618  0.57415025  1.0
  C  C204  1  0.75340642  0.60153512  0.63382094  1.0
  C  C205  1  0.24659357  0.10153489  0.86617877  1.0
  C  C206  1  0.24659401  0.39846529  0.36617823  1.0
  C  C207  1  0.75340593  0.89846501  0.13382095  1.0
  C  C208  1  0.60533130  0.66617858  0.69789404  1.0
  C  C209  1  0.39466952  0.16617832  0.80210604  1.0
  C  C210  1  0.39467005  0.33382133  0.30210552  1.0
  C  C211  1  0.60533090  0.83382210  0.19789407  1.0
  C  C212  1  0.59756276  0.71069678  0.64928427  1.0
  C  C213  1  0.40243523  0.21069751  0.85071605  1.0
  C  C214  1  0.40243581  0.28930262  0.35071601  1.0
  C  C215  1  0.59756335  0.78930291  0.14928376  1.0
  N  N216  1  0.65396724  0.38708540  0.93749972  1.0
  N  N217  1  0.34603051  0.88708635  0.56250008  1.0
  N  N218  1  0.34603040  0.61291400  0.06250018  1.0
  N  N219  1  0.65396714  0.11291508  0.43749982  1.0
  N  N220  1  0.68237803  0.61257286  0.69061078  1.0
  N  N221  1  0.31762286  0.11257263  0.80938931  1.0
  N  N222  1  0.31762332  0.38742654  0.30938924  1.0
  N  N223  1  0.68237756  0.88742728  0.19061033  1.0
  O  O224  1  0.63770904  0.11901753  0.29197601  1.0
  O  O225  1  0.36229219  0.61901688  0.20802410  1.0
  O  O226  1  0.36229138  0.88098238  0.70802409  1.0
  O  O227  1  0.63770916  0.38098303  0.79197546  1.0
  O  O228  1  0.45793454  0.03413185  0.36780555  1.0
  O  O229  1  0.54206588  0.53413166  0.13219421  1.0
  O  O230  1  0.54206589  0.96586806  0.63219409  1.0
  O  O231  1  0.45793547  0.46586875  0.86780627  1.0
  O  O232  1  0.65737196  0.87639610  0.33745150  1.0
  O  O233  1  0.34262893  0.37639593  0.16254807  1.0
  O  O234  1  0.34262846  0.12360381  0.66254814  1.0
  O  O235  1  0.65737242  0.62360398  0.83745148  1.0
  O  O236  1  0.83678225  0.04544659  0.33552473  1.0
  O  O237  1  0.16322001  0.54544656  0.16447531  1.0
  O  O238  1  0.16321817  0.95455332  0.66447537  1.0
  O  O239  1  0.83678320  0.45455335  0.83552407  1.0
  O  O240  1  0.86617043  0.95272563  0.27255002  1.0
  O  O241  1  0.13383037  0.45272501  0.22744999  1.0
  O  O242  1  0.13383000  0.04727479  0.72745008  1.0
  O  O243  1  0.86617098  0.54727439  0.77255003  1.0
  O  O244  1  0.49432623  0.96277111  0.28423124  1.0
  O  O245  1  0.50567456  0.46277034  0.21576784  1.0
  O  O246  1  0.50567420  0.03722930  0.71576794  1.0
  O  O247  1  0.49432680  0.53722906  0.78423171  1.0
  O  O248  1  0.65613368  0.95873384  0.41078406  1.0
  O  O249  1  0.34386710  0.45873370  0.08921549  1.0
  O  O250  1  0.34386767  0.04126607  0.58921549  1.0
  O  O251  1  0.65613425  0.54126620  0.91078407  1.0
  O  O252  1  0.70407627  0.04054223  0.21652847  1.0
  O  O253  1  0.29592507  0.54054157  0.28347120  1.0
  O  O254  1  0.29592508  0.95945819  0.78347062  1.0
  O  O255  1  0.70407628  0.45945834  0.71652835  1.0
