# generated using pymatgen
data_TiH6C9O4
_symmetry_space_group_name_H-M   'P 1'
_cell_length_a   11.82237754
_cell_length_b   20.07293787
_cell_length_c   20.07299434
_cell_angle_alpha   119.99981686
_cell_angle_beta   89.99999649
_cell_angle_gamma   89.99997653
_symmetry_Int_Tables_number   1
_chemical_formula_structural   TiH6C9O4
_chemical_formula_sum   'Ti12 H72 C108 O48'
_cell_volume   4125.33631450
_cell_formula_units_Z   12
loop_
 _symmetry_equiv_pos_site_id
 _symmetry_equiv_pos_as_xyz
  1  'x, y, z'
loop_
 _atom_site_type_symbol
 _atom_site_label
 _atom_site_symmetry_multiplicity
 _atom_site_fract_x
 _atom_site_fract_y
 _atom_site_fract_z
 _atom_site_occupancy
  Ti  Ti0  1  0.60485804  0.10258412  0.10258516  1.0
  Ti  Ti1  1  0.60485848  0.99999924  0.89741486  1.0
  Ti  Ti2  1  0.60485856  0.89741550  0.99999970  1.0
  Ti  Ti3  1  0.10485841  0.89741570  0.89741443  1.0
  Ti  Ti4  1  0.10485797  0.00000165  0.10258588  1.0
  Ti  Ti5  1  0.10485874  0.10258461  0.00000047  1.0
  Ti  Ti6  1  0.89514145  0.10258407  0.10258513  1.0
  Ti  Ti7  1  0.89514112  0.89741623  0.00000024  1.0
  Ti  Ti8  1  0.89514189  0.99999919  0.89741483  1.0
  Ti  Ti9  1  0.39514182  0.89741565  0.89741440  1.0
  Ti  Ti10  1  0.39514130  0.10258456  0.00000044  1.0
  Ti  Ti11  1  0.39514222  0.00000160  0.10258585  1.0
  H  H12  1  0.61753137  0.32734531  0.49070899  1.0
  H  H13  1  0.61753141  0.16336532  0.67265668  1.0
  H  H14  1  0.61753213  0.50929073  0.83663482  1.0
  H  H15  1  0.11753024  0.67265529  0.50929118  1.0
  H  H16  1  0.11752935  0.83663421  0.32734235  1.0
  H  H17  1  0.11753286  0.49070938  0.16336536  1.0
  H  H18  1  0.88246952  0.49070986  0.32734373  1.0
  H  H19  1  0.88246777  0.67265612  0.16336511  1.0
  H  H20  1  0.88246939  0.83663507  0.50929096  1.0
  H  H21  1  0.38246944  0.50929043  0.67265695  1.0
  H  H22  1  0.38246949  0.32734381  0.83663385  1.0
  H  H23  1  0.38247041  0.16336601  0.49071030  1.0
  H  H24  1  0.38246934  0.67265525  0.50929116  1.0
  H  H25  1  0.38247014  0.83663416  0.32734231  1.0
  H  H26  1  0.38246773  0.49070933  0.16336533  1.0
  H  H27  1  0.88246962  0.32734476  0.49070895  1.0
  H  H28  1  0.88246882  0.16336527  0.67265664  1.0
  H  H29  1  0.88246784  0.50929068  0.83663478  1.0
  H  H30  1  0.11753119  0.50929048  0.67265698  1.0
  H  H31  1  0.11753040  0.32734386  0.83663388  1.0
  H  H32  1  0.11753047  0.16336499  0.49070919  1.0
  H  H33  1  0.61753042  0.49070962  0.32734318  1.0
  H  H34  1  0.61753206  0.67265617  0.16336514  1.0
  H  H35  1  0.61753029  0.83663511  0.50929098  1.0
  H  H36  1  0.61748065  0.25491756  0.34690346  1.0
  H  H37  1  0.61748068  0.09198631  0.74508301  1.0
  H  H38  1  0.61747963  0.65309570  0.90801343  1.0
  H  H39  1  0.11748031  0.74508304  0.65309670  1.0
  H  H40  1  0.11748027  0.90801350  0.25491658  1.0
  H  H41  1  0.11747963  0.34690391  0.09198675  1.0
  H  H42  1  0.88251947  0.34690414  0.25491644  1.0
  H  H43  1  0.88252019  0.74508355  0.09198745  1.0
  H  H44  1  0.88252010  0.90801236  0.65309590  1.0
  H  H45  1  0.38251929  0.65309587  0.74508368  1.0
  H  H46  1  0.38252111  0.25491667  0.90801208  1.0
  H  H47  1  0.38252035  0.09198794  0.34690479  1.0
  H  H48  1  0.38252006  0.74508300  0.65309668  1.0
  H  H49  1  0.38251917  0.90801346  0.25491656  1.0
  H  H50  1  0.38252022  0.34690436  0.09198672  1.0
  H  H51  1  0.88251955  0.25491701  0.34690343  1.0
  H  H52  1  0.88251874  0.09198627  0.74508298  1.0
  H  H53  1  0.88252023  0.65309565  0.90801339  1.0
  H  H54  1  0.11748039  0.65309591  0.74508370  1.0
  H  H55  1  0.11747882  0.25491643  0.90801154  1.0
  H  H56  1  0.11747976  0.09198770  0.34690424  1.0
  H  H57  1  0.61748057  0.34690419  0.25491647  1.0
  H  H58  1  0.61747959  0.74508360  0.09198748  1.0
  H  H59  1  0.61747951  0.90801241  0.65309593  1.0
  H  H60  1  0.74999976  0.05572998  0.17323163  1.0
  H  H61  1  0.74999970  0.11749569  0.94426672  1.0
  H  H62  1  0.75000030  0.82677141  0.88250264  1.0
  H  H63  1  0.25000010  0.94426900  0.82676735  1.0
  H  H64  1  0.25000016  0.88250437  0.05573342  1.0
  H  H65  1  0.24999956  0.17322893  0.11749807  1.0
  H  H66  1  0.74999967  0.17322947  0.05573344  1.0
  H  H67  1  0.75000024  0.94426888  0.11749790  1.0
  H  H68  1  0.75000023  0.88249829  0.82676851  1.0
  H  H69  1  0.25000019  0.82677059  0.94426671  1.0
  H  H70  1  0.24999962  0.05573117  0.88250224  1.0
  H  H71  1  0.24999963  0.11750184  0.17323278  1.0
  H  H72  1  0.49999998  0.40479788  0.59520309  1.0
  H  H73  1  0.50000090  0.19040526  0.59520212  1.0
  H  H74  1  0.49999997  0.40479670  0.80959415  1.0
  H  H75  1  0.99999998  0.59520259  0.40479700  1.0
  H  H76  1  0.00000054  0.80959538  0.40479807  1.0
  H  H77  1  0.99999999  0.59520356  0.19040652  1.0
  H  H78  1  0.49999988  0.59520268  0.40479706  1.0
  H  H79  1  0.49999980  0.80959529  0.40479801  1.0
  H  H80  1  0.49999989  0.59520365  0.19040657  1.0
  H  H81  1  0.00000009  0.40479750  0.59520245  1.0
  H  H82  1  0.00000016  0.19040468  0.59520207  1.0
  H  H83  1  0.00000008  0.40479632  0.80959351  1.0
  C  C84  1  0.56511807  0.27613736  0.45929809  1.0
  C  C85  1  0.56511978  0.18316140  0.72386254  1.0
  C  C86  1  0.56511965  0.54070076  0.81683813  1.0
  C  C87  1  0.06511860  0.72386276  0.54070209  1.0
  C  C88  1  0.06511858  0.81683893  0.27613706  1.0
  C  C89  1  0.06511787  0.45929836  0.18316204  1.0
  C  C90  1  0.93488115  0.45929807  0.27613673  1.0
  C  C91  1  0.93488107  0.72386354  0.18316229  1.0
  C  C92  1  0.93488101  0.81683849  0.54070191  1.0
  C  C93  1  0.43488189  0.54070242  0.72386338  1.0
  C  C94  1  0.43488283  0.27613645  0.81683781  1.0
  C  C95  1  0.43488288  0.18316200  0.45929819  1.0
  C  C96  1  0.43488094  0.72386270  0.54070206  1.0
  C  C97  1  0.43488092  0.81683887  0.27613703  1.0
  C  C98  1  0.43488190  0.45929830  0.18316201  1.0
  C  C99  1  0.93488126  0.27613779  0.45929804  1.0
  C  C100  1  0.93487959  0.18316133  0.72386249  1.0
  C  C101  1  0.93488199  0.54070120  0.81683810  1.0
  C  C102  1  0.06511786  0.54070198  0.72386341  1.0
  C  C103  1  0.06511710  0.27613602  0.81683785  1.0
  C  C104  1  0.06511885  0.18316156  0.45929822  1.0
  C  C105  1  0.56511881  0.45929814  0.27613677  1.0
  C  C106  1  0.56511872  0.72386360  0.18316232  1.0
  C  C107  1  0.56511867  0.81683856  0.54070196  1.0
  C  C108  1  0.56582945  0.23596457  0.37932803  1.0
  C  C109  1  0.56582862  0.14336443  0.76403688  1.0
  C  C110  1  0.56583014  0.62067217  0.85663616  1.0
  C  C111  1  0.06582825  0.76403605  0.62067215  1.0
  C  C112  1  0.06582824  0.85663483  0.23596158  1.0
  C  C113  1  0.06583010  0.37932717  0.14336345  1.0
  C  C114  1  0.93417151  0.37932687  0.23596249  1.0
  C  C115  1  0.93416884  0.76403685  0.14336301  1.0
  C  C116  1  0.93417132  0.85663545  0.62067256  1.0
  C  C117  1  0.43417135  0.62067312  0.76403761  1.0
  C  C118  1  0.43417063  0.23596286  0.85663652  1.0
  C  C119  1  0.43417153  0.14336533  0.37932812  1.0
  C  C120  1  0.43417125  0.76403599  0.62067212  1.0
  C  C121  1  0.43417209  0.85663526  0.23596154  1.0
  C  C122  1  0.43416972  0.37932710  0.14336340  1.0
  C  C123  1  0.93417161  0.23596401  0.37932799  1.0
  C  C124  1  0.93417077  0.14336437  0.76403684  1.0
  C  C125  1  0.93416976  0.62067289  0.85663669  1.0
  C  C126  1  0.06582835  0.62067318  0.76403764  1.0
  C  C127  1  0.06582932  0.23596292  0.85663656  1.0
  C  C128  1  0.06582853  0.14336461  0.37932758  1.0
  C  C129  1  0.56582851  0.37932694  0.23596253  1.0
  C  C130  1  0.56583092  0.76403691  0.14336304  1.0
  C  C131  1  0.56582833  0.85663551  0.62067259  1.0
  C  C132  1  0.50000089  0.25029475  0.50058784  1.0
  C  C133  1  0.49999918  0.25029379  0.74970674  1.0
  C  C134  1  0.50000079  0.49941266  0.74970651  1.0
  C  C135  1  0.00000056  0.74970589  0.49941236  1.0
  C  C136  1  0.99999824  0.74970668  0.25029335  1.0
  C  C137  1  0.00000150  0.50058669  0.25029310  1.0
  C  C138  1  0.49999982  0.74970581  0.49941231  1.0
  C  C139  1  0.50000152  0.74970677  0.25029341  1.0
  C  C140  1  0.49999822  0.50058661  0.25029306  1.0
  C  C141  1  0.00000015  0.25029416  0.50058778  1.0
  C  C142  1  0.00000077  0.25029359  0.74970622  1.0
  C  C143  1  0.99999836  0.49941336  0.74970703  1.0
  C  C144  1  0.50000093  0.16940583  0.33880978  1.0
  C  C145  1  0.50000090  0.16940258  0.83059444  1.0
  C  C146  1  0.50000073  0.66119093  0.83059514  1.0
  C  C147  1  0.99999988  0.83059513  0.66119030  1.0
  C  C148  1  0.99999991  0.83059632  0.16940451  1.0
  C  C149  1  0.00000008  0.33880883  0.16940553  1.0
  C  C150  1  0.49999978  0.83059551  0.66119093  1.0
  C  C151  1  0.50000065  0.83059641  0.16940456  1.0
  C  C152  1  0.49999998  0.33880941  0.16940558  1.0
  C  C153  1  0.00000018  0.16940446  0.33880915  1.0
  C  C154  1  0.99999931  0.16940249  0.83059438  1.0
  C  C155  1  0.99999999  0.66119056  0.83059451  1.0
  C  C156  1  0.50000010  0.12655828  0.25311656  1.0
  C  C157  1  0.49999753  0.12655798  0.87344254  1.0
  C  C158  1  0.50000239  0.74688451  0.87344313  1.0
  C  C159  1  0.00000135  0.87344136  0.74688363  1.0
  C  C160  1  0.99999821  0.87344170  0.12655697  1.0
  C  C161  1  0.00000244  0.25311534  0.12655649  1.0
  C  C162  1  0.49999891  0.87344156  0.74688415  1.0
  C  C163  1  0.50000233  0.87344179  0.12655703  1.0
  C  C164  1  0.49999747  0.25311526  0.12655644  1.0
  C  C165  1  0.00000020  0.12655741  0.25311593  1.0
  C  C166  1  0.00000165  0.12655807  0.87344259  1.0
  C  C167  1  0.99999826  0.74688443  0.87344308  1.0
  C  C168  1  0.50000087  0.29277717  0.58555279  1.0
  C  C169  1  0.50000002  0.29277494  0.70722276  1.0
  C  C170  1  0.50000167  0.41444773  0.70722380  1.0
  C  C171  1  0.00000058  0.70722347  0.41444740  1.0
  C  C172  1  0.99999910  0.70722503  0.29277732  1.0
  C  C173  1  0.00000147  0.58555241  0.29277639  1.0
  C  C174  1  0.49999984  0.70722338  0.41444734  1.0
  C  C175  1  0.50000069  0.70722512  0.29277738  1.0
  C  C176  1  0.49999819  0.58555232  0.29277633  1.0
  C  C177  1  0.00000013  0.29277658  0.58555273  1.0
  C  C178  1  0.00000012  0.29277485  0.70722271  1.0
  C  C179  1  0.99999839  0.41444765  0.70722375  1.0
  C  C180  1  0.50000169  0.37342023  0.62657954  1.0
  C  C181  1  0.50000173  0.25315965  0.62658023  1.0
  C  C182  1  0.50000083  0.37342003  0.74684073  1.0
  C  C183  1  0.00000061  0.62657962  0.37342007  1.0
  C  C184  1  0.99999993  0.74684032  0.37341986  1.0
  C  C185  1  0.00000061  0.62658011  0.25315946  1.0
  C  C186  1  0.49999902  0.62657982  0.37342059  1.0
  C  C187  1  0.49999982  0.74684040  0.37341991  1.0
  C  C188  1  0.49999987  0.62658031  0.25315998  1.0
  C  C189  1  0.99999925  0.37342014  0.62657949  1.0
  C  C190  1  0.99999929  0.25315928  0.62657960  1.0
  C  C191  1  0.99999925  0.37341916  0.74684010  1.0
  O  O192  1  0.56888641  0.14826271  0.21915953  1.0
  O  O193  1  0.56888302  0.07089055  0.85173380  1.0
  O  O194  1  0.56887938  0.78084285  0.92910658  1.0
  O  O195  1  0.06888598  0.85173741  0.78084065  1.0
  O  O196  1  0.06888344  0.92910900  0.14826523  1.0
  O  O197  1  0.06887862  0.21915735  0.07089475  1.0
  O  O198  1  0.93111635  0.21915687  0.14826693  1.0
  O  O199  1  0.93112036  0.85173696  0.07089409  1.0
  O  O200  1  0.93111438  0.92910386  0.78084106  1.0
  O  O201  1  0.43111606  0.78084349  0.85173490  1.0
  O  O202  1  0.43112136  0.14826324  0.92910544  1.0
  O  O203  1  0.43111465  0.07089720  0.21916019  1.0
  O  O204  1  0.43111345  0.85173735  0.78084061  1.0
  O  O205  1  0.43111684  0.92910893  0.14826519  1.0
  O  O206  1  0.43112132  0.21915778  0.07089471  1.0
  O  O207  1  0.93111388  0.14826286  0.21915892  1.0
  O  O208  1  0.93111642  0.07089048  0.85173376  1.0
  O  O209  1  0.93112039  0.78084278  0.92910653  1.0
  O  O210  1  0.06888351  0.78084355  0.85173493  1.0
  O  O211  1  0.06887865  0.14826331  0.92910548  1.0
  O  O212  1  0.06888548  0.07089698  0.21915966  1.0
  O  O213  1  0.56888380  0.21915664  0.14826639  1.0
  O  O214  1  0.56887935  0.85173702  0.07089412  1.0
  O  O215  1  0.56888521  0.92910343  0.78084110  1.0
  O  O216  1  0.74999975  0.08321890  0.14508060  1.0
  O  O217  1  0.74999972  0.06185567  0.91676810  1.0
  O  O218  1  0.75000028  0.85491684  0.93814194  1.0
  O  O219  1  0.25000011  0.91678036  0.85491896  1.0
  O  O220  1  0.25000014  0.93814360  0.08323146  1.0
  O  O221  1  0.24999958  0.14508322  0.06185820  1.0
  O  O222  1  0.74999968  0.14508807  0.08323214  1.0
  O  O223  1  0.75000026  0.91677479  0.06185802  1.0
  O  O224  1  0.75000021  0.93813809  0.85491831  1.0
  O  O225  1  0.25000018  0.85491199  0.91676801  1.0
  O  O226  1  0.24999960  0.08322576  0.93814212  1.0
  O  O227  1  0.24999965  0.06186147  0.14508183  1.0
  O  O228  1  0.42640489  0.08513708  0.08513687  1.0
  O  O229  1  0.42640408  0.00000082  0.91486411  1.0
  O  O230  1  0.42639615  0.91486887  0.99999970  1.0
  O  O231  1  0.92640556  0.91486370  0.91486381  1.0
  O  O232  1  0.92640468  0.99999967  0.08513599  1.0
  O  O233  1  0.92639485  0.08513084  0.99999983  1.0
  O  O234  1  0.07359515  0.08513714  0.08513691  1.0
  O  O235  1  0.07360417  0.91486872  0.00000031  1.0
  O  O236  1  0.07359603  0.00000088  0.91486415  1.0
  O  O237  1  0.57359412  0.91486326  0.91486384  1.0
  O  O238  1  0.57360540  0.08513090  0.99999986  1.0
  O  O239  1  0.57359493  0.99999973  0.08513602  1.0
