# generated using pymatgen
data_AlH4C8O5F
_symmetry_space_group_name_H-M   'P 1'
_cell_length_a   6.71259546
_cell_length_b   12.88579357
_cell_length_c   16.90655219
_cell_angle_alpha   90.02957179
_cell_angle_beta   90.61426674
_cell_angle_gamma   90.54973520
_symmetry_Int_Tables_number   1
_chemical_formula_structural   AlH4C8O5F
_chemical_formula_sum   'Al4 H16 C32 O20 F4'
_cell_volume   1462.21643551
_cell_formula_units_Z   4
loop_
 _symmetry_equiv_pos_site_id
 _symmetry_equiv_pos_as_xyz
  1  'x, y, z'
loop_
 _atom_site_type_symbol
 _atom_site_label
 _atom_site_symmetry_multiplicity
 _atom_site_fract_x
 _atom_site_fract_y
 _atom_site_fract_z
 _atom_site_occupancy
  Al  Al0  1  0.99101526  0.00039766  0.49981427  1.0
  Al  Al1  1  0.49053240  0.00014632  0.49811540  1.0
  Al  Al2  1  0.00932692  0.50238440  0.99850087  1.0
  Al  Al3  1  0.50932484  0.49881373  0.99862429  1.0
  H  H4  1  0.23997832  0.86972265  0.52753752  1.0
  H  H5  1  0.74299006  0.13763004  0.50549810  1.0
  H  H6  1  0.26642320  0.63402807  0.02008163  1.0
  H  H7  1  0.76258181  0.36759124  0.02181652  1.0
  H  H8  1  0.06600123  0.71869169  0.81898472  1.0
  H  H9  1  0.43456408  0.66234336  0.79719027  1.0
  H  H10  1  0.05127409  0.83122760  0.69795438  1.0
  H  H11  1  0.57376814  0.29235414  0.18719911  1.0
  H  H12  1  0.93557315  0.32162455  0.19151699  1.0
  H  H13  1  0.55737040  0.17863684  0.30712815  1.0
  H  H14  1  0.93007305  0.31339669  0.80388684  1.0
  H  H15  1  0.56979149  0.29940138  0.81708504  1.0
  H  H16  1  0.93475303  0.20155332  0.68241816  1.0
  H  H17  1  0.07806307  0.70491857  0.19239425  1.0
  H  H18  1  0.43746933  0.68539419  0.18480106  1.0
  H  H19  1  0.05785270  0.81582338  0.31376950  1.0
  C  C20  1  0.74008325  0.87924748  0.39064672  1.0
  C  C21  1  0.73598341  0.87899687  0.60828131  1.0
  C  C22  1  0.24462055  0.12295041  0.60744767  1.0
  C  C23  1  0.24254360  0.11906677  0.38935057  1.0
  C  C24  1  0.76524924  0.62336681  0.10756110  1.0
  C  C25  1  0.75424548  0.61866856  0.88853418  1.0
  C  C26  1  0.24982519  0.38013616  0.88994586  1.0
  C  C27  1  0.26132449  0.37949138  0.10872429  1.0
  C  C28  1  0.73744353  0.81010963  0.67934948  1.0
  C  C29  1  0.75123446  0.68502308  0.81614262  1.0
  C  C30  1  0.56608858  0.76050019  0.70857790  1.0
  C  C31  1  0.92579073  0.73171037  0.78773634  1.0
  C  C32  1  0.57025093  0.69948888  0.77602922  1.0
  C  C33  1  0.91749900  0.79368429  0.72055207  1.0
  C  C34  1  0.24101457  0.18715436  0.31772485  1.0
  C  C35  1  0.25596083  0.31298803  0.18107246  1.0
  C  C36  1  0.06812018  0.22930723  0.28368500  1.0
  C  C37  1  0.43168870  0.27342103  0.21432778  1.0
  C  C38  1  0.07296774  0.29054547  0.21625319  1.0
  C  C39  1  0.42279827  0.21091643  0.28106810  1.0
  C  C40  1  0.25182628  0.18876619  0.68039873  1.0
  C  C41  1  0.24912973  0.31339858  0.81773257  1.0
  C  C42  1  0.42865240  0.21733615  0.72023185  1.0
  C  C43  1  0.06966818  0.28586223  0.77973758  1.0
  C  C44  1  0.42988687  0.27864327  0.78769548  1.0
  C  C45  1  0.07246294  0.22429863  0.71233511  1.0
  C  C46  1  0.74017701  0.81249589  0.31816029  1.0
  C  C47  1  0.75930408  0.68908073  0.18029810  1.0
  C  C48  1  0.56754172  0.77411314  0.28030585  1.0
  C  C49  1  0.93465724  0.72530887  0.21716017  1.0
  C  C50  1  0.57460734  0.71383618  0.21242900  1.0
  C  C51  1  0.92372950  0.78637028  0.28462623  1.0
  O  O52  1  0.91039148  0.91037148  0.41513494  1.0
  O  O53  1  0.56789649  0.91131499  0.58403643  1.0
  O  O54  1  0.40812138  0.10365858  0.57340944  1.0
  O  O55  1  0.07790994  0.09904469  0.42258181  1.0
  O  O56  1  0.07195446  0.09225762  0.58489453  1.0
  O  O57  1  0.41247884  0.08652286  0.41171951  1.0
  O  O58  1  0.57405365  0.89925600  0.42229173  1.0
  O  O59  1  0.90449488  0.90031357  0.57791608  1.0
  O  O60  1  0.23946143  0.93671409  0.50139804  1.0
  O  O61  1  0.74205693  0.06300630  0.49888190  1.0
  O  O62  1  0.93569615  0.59563749  0.08308972  1.0
  O  O63  1  0.58643094  0.58590453  0.91292135  1.0
  O  O64  1  0.41821736  0.39972568  0.92236337  1.0
  O  O65  1  0.09412138  0.40269966  0.07724604  1.0
  O  O66  1  0.08233136  0.41223506  0.91390491  1.0
  O  O67  1  0.43230340  0.40748657  0.08398462  1.0
  O  O68  1  0.59786966  0.60022272  0.07539008  1.0
  O  O69  1  0.92279434  0.60033216  0.92057225  1.0
  O  O70  1  0.26159939  0.56387001  0.99954745  1.0
  O  O71  1  0.75960382  0.43726744  0.00043559  1.0
  F  F72  1  0.38716332  0.76880031  0.67052406  1.0
  F  F73  1  0.88656393  0.21186134  0.31600411  1.0
  F  F74  1  0.60816788  0.18430015  0.69439886  1.0
  F  F75  1  0.38420558  0.79485571  0.30896999  1.0
