# generated using pymatgen
data_Zn4H24C40N4O13
_symmetry_space_group_name_H-M   'P 1'
_cell_length_a   23.83869354
_cell_length_b   23.83905111
_cell_length_c   23.83789548
_cell_angle_alpha   66.98528193
_cell_angle_beta   72.26819458
_cell_angle_gamma   107.72719956
_symmetry_Int_Tables_number   1
_chemical_formula_structural   Zn4H24C40N4O13
_chemical_formula_sum   'Zn8 H48 C80 N8 O26'
_cell_volume   10398.17096533
_cell_formula_units_Z   2
loop_
 _symmetry_equiv_pos_site_id
 _symmetry_equiv_pos_as_xyz
  1  'x, y, z'
loop_
 _atom_site_type_symbol
 _atom_site_label
 _atom_site_symmetry_multiplicity
 _atom_site_fract_x
 _atom_site_fract_y
 _atom_site_fract_z
 _atom_site_occupancy
  Zn  Zn0  1  0.05698692  0.09975379  0.45638972  1.0
  Zn  Zn1  1  0.05699400  0.95724002  0.48661610  1.0
  Zn  Zn2  1  0.94299403  0.95638734  0.59977389  1.0
  Zn  Zn3  1  0.94299702  0.98661881  0.45723533  1.0
  Zn  Zn4  1  0.94385142  0.40024203  0.04276181  1.0
  Zn  Zn5  1  0.05615250  0.54276808  0.90022571  1.0
  Zn  Zn6  1  0.94384545  0.54360663  0.01338574  1.0
  Zn  Zn7  1  0.05613778  0.51337645  0.04361706  1.0
  H  H8  1  0.92315934  0.27189736  0.96347185  1.0
  H  H9  1  0.92295110  0.20854283  0.90104524  1.0
  H  H10  1  0.07706084  0.40104729  0.70851408  1.0
  H  H11  1  0.07684438  0.46348317  0.77185994  1.0
  H  H12  1  0.92434812  0.09804314  0.79125951  1.0
  H  H13  1  0.92496116  0.03553236  0.72794649  1.0
  H  H14  1  0.07502662  0.22792973  0.53551311  1.0
  H  H15  1  0.07562888  0.29126360  0.59800865  1.0
  H  H16  1  0.07684590  0.61337204  0.15126394  1.0
  H  H17  1  0.07706924  0.67602041  0.21439782  1.0
  H  H18  1  0.92294129  0.71441906  0.17601176  1.0
  H  H19  1  0.92315030  0.65128058  0.11336937  1.0
  H  H20  1  0.07564489  0.78438844  0.32632714  1.0
  H  H21  1  0.07503717  0.84710330  0.38943915  1.0
  H  H22  1  0.92496223  0.88944803  0.34710021  1.0
  H  H23  1  0.92435397  0.82633172  0.28438712  1.0
  H  H24  1  0.73654377  0.27207036  0.15288867  1.0
  H  H25  1  0.61071524  0.20874280  0.21561656  1.0
  H  H26  1  0.61070485  0.40196479  0.17368210  1.0
  H  H27  1  0.73653255  0.46447806  0.11055899  1.0
  H  H28  1  0.39042777  0.09896762  0.32399718  1.0
  H  H29  1  0.26464769  0.03652712  0.38663634  1.0
  H  H30  1  0.26462421  0.22811036  0.34875113  1.0
  H  H31  1  0.39040697  0.29147006  0.28562093  1.0
  H  H32  1  0.26345952  0.65290284  0.77206219  1.0
  H  H33  1  0.38928547  0.71562490  0.70874466  1.0
  H  H34  1  0.38927277  0.67366954  0.90198378  1.0
  H  H35  1  0.26344590  0.61054287  0.96448745  1.0
  H  H36  1  0.60957498  0.82399847  0.59896008  1.0
  H  H37  1  0.73535602  0.88663475  0.53652975  1.0
  H  H38  1  0.73534541  0.84873140  0.72813090  1.0
  H  H39  1  0.60956242  0.78560190  0.79148989  1.0
  H  H40  1  0.91647989  0.07441882  0.33380661  1.0
  H  H41  1  0.90934785  0.10632421  0.25951489  1.0
  H  H42  1  0.09174951  0.42558500  0.15795676  1.0
  H  H43  1  0.13415609  0.39368411  0.19696566  1.0
  H  H44  1  0.90821885  0.25028462  0.16619548  1.0
  H  H45  1  0.86583177  0.16886423  0.24049304  1.0
  H  H46  1  0.08354968  0.24971925  0.34203672  1.0
  H  H47  1  0.09065747  0.33113251  0.30302068  1.0
  H  H48  1  0.91644768  0.84203873  0.74975044  1.0
  H  H49  1  0.90933603  0.80301243  0.83116941  1.0
  H  H50  1  0.09178210  0.66620102  0.75024928  1.0
  H  H51  1  0.13416556  0.74050104  0.66882386  1.0
  H  H52  1  0.90823926  0.65793497  0.92559639  1.0
  H  H53  1  0.86584287  0.69696560  0.89370212  1.0
  H  H54  1  0.08351935  0.83383510  0.57440587  1.0
  H  H55  1  0.09064308  0.75953647  0.60629831  1.0
  C  C56  1  0.18227446  0.09113394  0.40886954  1.0
  C  C57  1  0.99998340  0.86060939  0.63941265  1.0
  C  C58  1  0.99998726  0.09061343  0.59062926  1.0
  C  C59  1  0.81771193  0.90886915  0.59114341  1.0
  C  C60  1  0.00001853  0.13940152  0.36058998  1.0
  C  C61  1  0.00000228  0.90938600  0.40937746  1.0
  C  C62  1  0.00000012  0.40887443  0.90884458  1.0
  C  C63  1  0.00001418  0.63939995  0.86058662  1.0
  C  C64  1  0.81875669  0.40938229  0.09061843  1.0
  C  C65  1  0.99999865  0.59114629  0.09113276  1.0
  C  C66  1  0.99998047  0.36060572  0.13940981  1.0
  C  C67  1  0.18124065  0.59061401  0.90937625  1.0
  C  C68  1  0.00001842  0.19544864  0.30454277  1.0
  C  C69  1  0.99998406  0.30455756  0.19545470  1.0
  C  C70  1  0.95679627  0.17938533  0.27638794  1.0
  C  C71  1  0.04422053  0.32061824  0.22260092  1.0
  C  C72  1  0.95577023  0.23317467  0.22361554  1.0
  C  C73  1  0.04322628  0.26682844  0.27739026  1.0
  C  C74  1  0.99999095  0.80456123  0.69545299  1.0
  C  C75  1  0.00000984  0.69545125  0.80455078  1.0
  C  C76  1  0.95677958  0.77740327  0.76684033  1.0
  C  C77  1  0.04423097  0.72361824  0.73316165  1.0
  C  C78  1  0.95577887  0.72260180  0.82062494  1.0
  C  C79  1  0.04321128  0.77640165  0.67937879  1.0
  C  C80  1  0.00001086  0.37136060  0.87133334  1.0
  C  C81  1  0.95657038  0.29946511  0.90770072  1.0
  C  C82  1  0.95648136  0.26436742  0.87299261  1.0
  C  C83  1  0.00001023  0.30062491  0.80060663  1.0
  C  C84  1  0.04353079  0.37300403  0.76434343  1.0
  C  C85  1  0.04344552  0.40771650  0.79943756  1.0
  C  C86  1  0.00000042  0.26507327  0.76505078  1.0
  C  C87  1  0.99998547  0.23435188  0.73432961  1.0
  C  C88  1  0.99997960  0.19879454  0.69878278  1.0
  C  C89  1  0.95729804  0.12619802  0.73529006  1.0
  C  C90  1  0.95757540  0.09147362  0.70022246  1.0
  C  C91  1  0.99998789  0.12808763  0.62810079  1.0
  C  C92  1  0.04240141  0.20021090  0.59146174  1.0
  C  C93  1  0.04267177  0.23529241  0.62617236  1.0
  C  C94  1  0.99999659  0.62866120  0.12864657  1.0
  C  C95  1  0.04343541  0.63573752  0.15710554  1.0
  C  C96  1  0.04353360  0.67054132  0.19210472  1.0
  C  C97  1  0.00000275  0.69939119  0.19938071  1.0
  C  C98  1  0.95647824  0.69212671  0.17052924  1.0
  C  C99  1  0.95656094  0.65711878  0.13573120  1.0
  C  C100  1  0.00000058  0.73494074  0.23494353  1.0
  C  C101  1  0.00000154  0.76566573  0.26565730  1.0
  C  C102  1  0.99999663  0.80120900  0.30121613  1.0
  C  C103  1  0.04267474  0.80738490  0.33113341  1.0
  C  C104  1  0.04241321  0.84219709  0.36611135  1.0
  C  C105  1  0.00000164  0.87191178  0.37190007  1.0
  C  C106  1  0.95758718  0.86611978  0.34219020  1.0
  C  C107  1  0.95732210  0.83113176  0.30738626  1.0
  C  C108  1  0.74380885  0.37190749  0.12809122  1.0
  C  C109  1  0.70831180  0.29978502  0.15780183  1.0
  C  C110  1  0.63852235  0.26470846  0.19261389  1.0
  C  C111  1  0.60242535  0.30121264  0.19879482  1.0
  C  C112  1  0.63851640  0.37380730  0.16887936  1.0
  C  C113  1  0.70830966  0.40852987  0.13388442  1.0
  C  C114  1  0.53131666  0.26565928  0.23435622  1.0
  C  C115  1  0.46987391  0.23493741  0.26508361  1.0
  C  C116  1  0.39875881  0.19938350  0.30063711  1.0
  C  C117  1  0.36263899  0.12700826  0.32948835  1.0
  C  C118  1  0.29283347  0.09229762  0.36427886  1.0
  C  C119  1  0.25729952  0.12865258  0.37136363  1.0
  C  C120  1  0.29283241  0.20054575  0.34291068  1.0
  C  C121  1  0.36263648  0.23564473  0.30790331  1.0
  C  C122  1  0.25618388  0.62808932  0.87190801  1.0
  C  C123  1  0.29168174  0.65779931  0.79978487  1.0
  C  C124  1  0.36147284  0.69261173  0.76471373  1.0
  C  C125  1  0.39757237  0.69879777  0.80121727  1.0
  C  C126  1  0.36146548  0.66886048  0.87382520  1.0
  C  C127  1  0.29167380  0.63387166  0.90854050  1.0
  C  C128  1  0.46867691  0.73435738  0.76566473  1.0
  C  C129  1  0.53011849  0.76507770  0.73494334  1.0
  C  C130  1  0.60122638  0.80063316  0.69939101  1.0
  C  C131  1  0.63735436  0.82948295  0.62700754  1.0
  C  C132  1  0.70716068  0.86427034  0.59229946  1.0
  C  C133  1  0.74268720  0.87135315  0.62866287  1.0
  C  C134  1  0.70714890  0.84290397  0.70055967  1.0
  C  C135  1  0.63734361  0.80789635  0.73565943  1.0
  N  N136  1  0.91200047  0.11198680  0.29896494  1.0
  N  N137  1  0.08903802  0.38801884  0.19999722  1.0
  N  N138  1  0.91094365  0.21096062  0.20103937  1.0
  N  N139  1  0.08802180  0.28904301  0.29999620  1.0
  N  N140  1  0.91197432  0.79999525  0.78907307  1.0
  N  N141  1  0.08905583  0.70104662  0.71092838  1.0
  N  N142  1  0.91095870  0.69998686  0.88803606  1.0
  N  N143  1  0.08800285  0.79898632  0.61196770  1.0
  O  O144  1  0.99998842  0.99999454  0.50001053  1.0
  O  O145  1  0.15309210  0.12674151  0.41609722  1.0
  O  O146  1  0.04354850  0.88799250  0.57565791  1.0
  O  O147  1  0.96288434  0.02446435  0.62767095  1.0
  O  O148  1  0.15310358  0.02634641  0.43080985  1.0
  O  O149  1  0.03708374  0.12763336  0.52447483  1.0
  O  O150  1  0.95640761  0.88078225  0.65561426  1.0
  O  O151  1  0.84688670  0.91607818  0.62676248  1.0
  O  O152  1  0.95644471  0.07565555  0.38797488  1.0
  O  O153  1  0.84688722  0.93082755  0.52634840  1.0
  O  O154  1  0.04359769  0.15559046  0.38075692  1.0
  O  O155  1  0.03710961  0.90945773  0.43842228  1.0
  O  O156  1  0.96289533  0.93843040  0.40945065  1.0
  O  O157  1  0.00000173  0.50000288  0.99999052  1.0
  O  O158  1  0.95716296  0.37325784  0.97363979  1.0
  O  O159  1  0.03639322  0.61202973  0.84438483  1.0
  O  O160  1  0.84787284  0.47553168  0.06157222  1.0
  O  O161  1  0.04283682  0.47366874  0.87321632  1.0
  O  O162  1  0.84787865  0.37235284  0.09055351  1.0
  O  O163  1  0.96363788  0.61920377  0.92434345  1.0
  O  O164  1  0.95715782  0.58392367  0.06918274  1.0
  O  O165  1  0.03633958  0.42435349  0.11923932  1.0
  O  O166  1  0.04283285  0.56918806  0.08391618  1.0
  O  O167  1  0.96361553  0.34441392  0.11202651  1.0
  O  O168  1  0.15212470  0.59055189  0.87233987  1.0
  O  O169  1  0.15210816  0.56155670  0.97552962  1.0
