# generated using pymatgen
data_Al6H68C99N3O28F3
_symmetry_space_group_name_H-M   'P 1'
_cell_length_a   12.76992383
_cell_length_b   12.78713367
_cell_length_c   27.65596713
_cell_angle_alpha   89.95028277
_cell_angle_beta   89.77730167
_cell_angle_gamma   118.52351970
_symmetry_Int_Tables_number   1
_chemical_formula_structural   Al6H68C99N3O28F3
_chemical_formula_sum   'Al6 H68 C99 N3 O28 F3'
_cell_volume   3967.77152505
_cell_formula_units_Z   1
loop_
 _symmetry_equiv_pos_site_id
 _symmetry_equiv_pos_as_xyz
  1  'x, y, z'
loop_
 _atom_site_type_symbol
 _atom_site_label
 _atom_site_symmetry_multiplicity
 _atom_site_fract_x
 _atom_site_fract_y
 _atom_site_fract_z
 _atom_site_occupancy
  Al  Al0  1  0.56186390  0.41616267  0.50349601  1.0
  Al  Al1  1  0.58496110  0.17724556  0.50357932  1.0
  Al  Al2  1  0.81012677  0.41097122  0.50204774  1.0
  Al  Al3  1  0.07905537  0.90458622  0.01442637  1.0
  Al  Al4  1  0.06987051  0.15181031  0.01887976  1.0
  Al  Al5  1  0.83816505  0.92510114  0.01703390  1.0
  H  H6  1  0.96208777  0.35779410  0.80437219  1.0
  H  H7  1  0.00825497  0.31109273  0.13759151  1.0
  H  H8  1  0.67483799  0.72567860  0.13994520  1.0
  H  H9  1  0.25181863  0.95826256  0.14140830  1.0
  H  H10  1  0.94273700  0.38039011  0.37713559  1.0
  H  H11  1  0.61098194  0.57295952  0.37773131  1.0
  H  H12  1  0.41102537  0.02303624  0.37780505  1.0
  H  H13  1  0.06842417  0.43964989  0.21114819  1.0
  H  H14  1  0.54985972  0.66278356  0.21493581  1.0
  H  H15  1  0.31275618  0.88587387  0.21440852  1.0
  H  H16  1  0.04766808  0.46267657  0.29890986  1.0
  H  H17  1  0.63864792  0.61829434  0.79829554  1.0
  H  H18  1  0.52826728  0.61122342  0.30214128  1.0
  H  H19  1  0.36763696  0.90752996  0.30103625  1.0
  H  H20  1  0.71467029  0.95572376  0.14450018  1.0
  H  H21  1  0.02245172  0.75174419  0.13931731  1.0
  H  H22  1  0.20535520  0.26871233  0.14998376  1.0
  H  H23  1  0.60870826  0.87396216  0.22258725  1.0
  H  H24  1  0.10590211  0.71546469  0.21514779  1.0
  H  H25  1  0.23072267  0.37324196  0.22868121  1.0
  H  H26  1  0.58650998  0.89771166  0.31014351  1.0
  H  H27  1  0.08551177  0.66657373  0.30250801  1.0
  H  H28  1  0.35501017  0.02268288  0.81033714  1.0
  H  H29  1  0.28643911  0.39552980  0.31525463  1.0
  H  H30  1  0.92617104  0.37440848  0.72179207  1.0
  H  H31  1  0.63740686  0.58138703  0.71491823  1.0
  H  H32  1  0.39884512  0.03455090  0.72687888  1.0
  H  H33  1  0.64771126  0.02580865  0.38383371  1.0
  H  H34  1  0.96011572  0.60254773  0.37737732  1.0
  H  H35  1  0.36354552  0.33289850  0.38642000  1.0
  H  H36  1  0.90873108  0.07352900  0.70644406  1.0
  H  H37  1  0.92958921  0.85910337  0.70105648  1.0
  H  H38  1  0.14875787  0.10553087  0.70580432  1.0
  H  H39  1  0.77278208  0.31809076  0.73509947  1.0
  H  H40  1  0.00675728  0.22708163  0.71072776  1.0
  H  H41  1  0.77420648  0.79998862  0.70001016  1.0
  H  H42  1  0.18481941  0.98985592  0.71293551  1.0
  H  H43  1  0.02105578  0.20356196  0.79434149  1.0
  H  H44  1  0.77433044  0.83270551  0.78395565  1.0
  H  H45  1  0.15143367  0.98907292  0.79674632  1.0
  H  H46  1  0.91358661  0.05210565  0.79085669  1.0
  H  H47  1  0.93023799  0.88966450  0.78494292  1.0
  H  H48  1  0.12191895  0.10932682  0.79008053  1.0
  H  H49  1  0.63221101  0.10399227  0.72544437  1.0
  H  H50  1  0.69765748  0.48548582  0.72805866  1.0
  H  H51  1  0.91615416  0.56234183  0.72607735  1.0
  H  H52  1  0.46450627  0.34914195  0.72116870  1.0
  H  H53  1  0.65008523  0.10570405  0.80920431  1.0
  H  H54  1  0.92129818  0.59667265  0.80903972  1.0
  H  H55  1  0.44276024  0.34637576  0.80494668  1.0
  H  H56  1  0.72423388  0.93488466  0.72424465  1.0
  H  H57  1  0.53115191  0.79796337  0.69840157  1.0
  H  H58  1  0.49188128  0.91332856  0.69795401  1.0
  H  H59  1  0.51370697  0.85825054  0.75439579  1.0
  H  H60  1  0.07092035  0.81812532  0.71483357  1.0
  H  H61  1  0.50983027  0.18426711  0.73513403  1.0
  H  H62  1  0.22265967  0.76805726  0.69895600  1.0
  H  H63  1  0.11841306  0.61535322  0.70598043  1.0
  H  H64  1  0.16524515  0.70995789  0.75782050  1.0
  H  H65  1  0.21751899  0.30111921  0.71759657  1.0
  H  H66  1  0.29848503  0.49321270  0.68401022  1.0
  H  H67  1  0.44159969  0.50335184  0.68404792  1.0
  H  H68  1  0.37382296  0.50891037  0.74014666  1.0
  H  H69  1  0.68953841  0.99117210  0.80402210  1.0
  H  H70  1  0.01777399  0.74978441  0.79920559  1.0
  H  H71  1  0.29700242  0.32631009  0.79711749  1.0
  H  H72  1  0.44608764  0.49938846  0.53313004  1.0
  H  H73  1  0.22227054  0.84514206  0.03224238  1.0
  C  C74  1  0.77407605  0.54983742  0.56962400  1.0
  C  C75  1  0.85273290  0.15699395  0.85998510  1.0
  C  C76  1  0.83576220  0.72673757  0.85390946  1.0
  C  C77  1  0.28214949  0.15914265  0.85903185  1.0
  C  C78  1  0.80957148  0.19368653  0.66228552  1.0
  C  C79  1  0.82281714  0.63956228  0.65778263  1.0
  C  C80  1  0.36187919  0.16703004  0.66232272  1.0
  C  C81  1  0.79805768  0.20681965  0.61944421  1.0
  C  C82  1  0.80691975  0.60733874  0.61593101  1.0
  C  C83  1  0.39101796  0.17618996  0.62004987  1.0
  C  C84  1  0.19221104  0.09794420  0.08926377  1.0
  C  C85  1  0.44394226  0.20822540  0.57266986  1.0
  C  C86  1  0.88457515  0.11053065  0.08540176  1.0
  C  C87  1  0.87163542  0.78602269  0.08451872  1.0
  C  C88  1  0.20812622  0.12196163  0.94982511  1.0
  C  C89  1  0.88672939  0.11341828  0.95048905  1.0
  C  C90  1  0.87500166  0.79346382  0.94558587  1.0
  C  C91  1  0.88568665  0.29687934  0.35887073  1.0
  C  C92  1  0.69243416  0.59364760  0.35778768  1.0
  C  C93  1  0.38412589  0.08283537  0.36032603  1.0
  C  C94  1  0.90040229  0.28446418  0.30933092  1.0
  C  C95  1  0.70395330  0.62527555  0.30880979  1.0
  C  C96  1  0.77160832  0.22941025  0.57129392  1.0
  C  C97  1  0.34746528  0.06527776  0.31194298  1.0
  C  C98  1  0.92526041  0.25694411  0.20815518  1.0
  C  C99  1  0.72926616  0.68564680  0.20857976  1.0
  C  C100  1  0.28362668  0.03987387  0.21226377  1.0
  C  C101  1  0.76226060  0.53809704  0.43221438  1.0
  C  C102  1  0.44378535  0.20710701  0.43544898  1.0
  C  C103  1  0.77212922  0.22571375  0.43608352  1.0
  C  C104  1  0.00115813  0.36626449  0.23246652  1.0
  C  C105  1  0.62223608  0.65974509  0.23465368  1.0
  C  C106  1  0.31362422  0.95786748  0.23585762  1.0
  C  C107  1  0.71227578  0.08121841  0.79145062  1.0
  C  C108  1  0.98961421  0.37909117  0.28086365  1.0
  C  C109  1  0.61019863  0.63123788  0.28264290  1.0
  C  C110  1  0.34395927  0.96984810  0.28355842  1.0
  C  C111  1  0.93797892  0.24029553  0.15880872  1.0
  C  C112  1  0.74465865  0.71785792  0.15956406  1.0
  C  C113  1  0.25449507  0.03058039  0.16312817  1.0
  C  C114  1  0.86212149  0.13224470  0.13625570  1.0
  C  C115  1  0.85001487  0.74154972  0.13526488  1.0
  C  C116  1  0.22801649  0.11362472  0.14100426  1.0
  C  C117  1  0.71853061  0.09624399  0.36268878  1.0
  C  C118  1  0.93241753  0.67431985  0.78815998  1.0
  C  C119  1  0.89028305  0.61034804  0.35775695  1.0
  C  C120  1  0.35705862  0.25841501  0.36504472  1.0
  C  C121  1  0.73119292  0.07964147  0.31332099  1.0
  C  C122  1  0.90597530  0.64340876  0.30884727  1.0
  C  C123  1  0.31911338  0.24365664  0.31691564  1.0
  C  C124  1  0.82229817  0.17498455  0.28597394  1.0
  C  C125  1  0.81138489  0.64967046  0.28369843  1.0
  C  C126  1  0.31606963  0.14732043  0.28956116  1.0
  C  C127  1  0.65463003  0.97066724  0.28894033  1.0
  C  C128  1  0.01291816  0.66913929  0.28278112  1.0
  C  C129  1  0.35722896  0.29056308  0.78715589  1.0
  C  C130  1  0.28614314  0.32393670  0.29368964  1.0
  C  C131  1  0.66679171  0.95754085  0.24061541  1.0
  C  C132  1  0.02440049  0.69651500  0.23470608  1.0
  C  C133  1  0.25566036  0.31174472  0.24600025  1.0
  C  C134  1  0.75665309  0.05185475  0.21225030  1.0
  C  C135  1  0.93075637  0.70259107  0.20852817  1.0
  C  C136  1  0.25531014  0.21819579  0.21730732  1.0
  C  C137  1  0.84873377  0.30089423  0.73937232  1.0
  C  C138  1  0.71105121  0.57625096  0.73311147  1.0
  C  C139  1  0.41529821  0.12098510  0.74134326  1.0
  C  C140  1  0.70248021  0.08163792  0.73532889  1.0
  C  C141  1  0.83468863  0.16136501  0.23559103  1.0
  C  C142  1  0.82377102  0.67927998  0.23373738  1.0
  C  C143  1  0.28450888  0.13480978  0.23989573  1.0
  C  C144  1  0.77153119  0.03937973  0.16271587  1.0
  C  C145  1  0.94161483  0.73261905  0.15939572  1.0
  C  C146  1  0.22802303  0.20630922  0.16790576  1.0
  C  C147  1  0.79484714  0.20407484  0.38527893  1.0
  C  C148  1  0.78413725  0.58476330  0.38183636  1.0
  C  C149  1  0.39070745  0.17960921  0.38630074  1.0
  C  C150  1  0.92370471  0.15468292  0.72556302  1.0
  C  C151  1  0.93388018  0.65421686  0.73270195  1.0
  C  C152  1  0.84670161  0.79262976  0.71828405  1.0
  C  C153  1  0.20593298  0.07881604  0.72607726  1.0
  C  C154  1  0.93156901  0.14219015  0.78088534  1.0
  C  C155  1  0.84648138  0.81338767  0.77337946  1.0
  C  C156  1  0.18668358  0.07891195  0.78128327  1.0
  C  C157  1  0.86333236  0.14128760  0.90265447  1.0
  C  C158  1  0.84670622  0.74998340  0.89675783  1.0
  C  C159  1  0.25749424  0.15231360  0.90176852  1.0
  C  C160  1  0.82105185  0.18238476  0.71401686  1.0
  C  C161  1  0.83004748  0.66637121  0.70895137  1.0
  C  C162  1  0.37052787  0.29198630  0.73118015  1.0
  C  C163  1  0.33775673  0.16408790  0.71368106  1.0
  C  C164  1  0.86981753  0.29584067  0.79384412  1.0
  C  C165  1  0.71066119  0.59888373  0.78754961  1.0
  C  C166  1  0.39160293  0.11378878  0.79598742  1.0
  C  C167  1  0.84000624  0.16823223  0.80829351  1.0
  C  C168  1  0.83163141  0.70295628  0.80245132  1.0
  C  C169  1  0.30516580  0.16277154  0.80750411  1.0
  C  C170  1  0.54642499  0.88037715  0.71656685  1.0
  C  C171  1  0.14246548  0.70538944  0.71891933  1.0
  C  C172  1  0.35647801  0.46681559  0.70386781  1.0
  N  N173  1  0.67161862  0.96884213  0.71172368  1.0
  N  N174  1  0.04553268  0.73090966  0.70799118  1.0
  N  N175  1  0.30254466  0.33746145  0.70451033  1.0
  O  O176  1  0.46766933  0.31029406  0.55737754  1.0
  O  O177  1  0.46220340  0.30423109  0.45427229  1.0
  O  O178  1  0.67658234  0.14776590  0.45672586  1.0
  O  O179  1  0.84390043  0.52037670  0.45210944  1.0
  O  O180  1  0.66360858  0.51424065  0.45153577  1.0
  O  O181  1  0.47234277  0.13206502  0.45475003  1.0
  O  O182  1  0.84590598  0.32455616  0.45552825  1.0
  O  O183  1  0.65339716  0.33369235  0.50348042  1.0
  O  O184  1  0.96724457  0.80295352  0.06439154  1.0
  O  O185  1  0.17491857  0.18008109  0.06968734  1.0
  O  O186  1  0.80907614  0.01337913  0.06547097  1.0
  O  O187  1  0.67360816  0.15125295  0.55282805  1.0
  O  O188  1  0.17707288  0.00403881  0.06815272  1.0
  O  O189  1  0.98183365  0.18692158  0.06519621  1.0
  O  O190  1  0.79327461  0.80980718  0.06507011  1.0
  O  O191  1  0.99496433  0.99517501  0.01661021  1.0
  O  O192  1  0.18158572  0.01890389  0.96442885  1.0
  O  O193  1  0.98639609  0.18585463  0.96939055  1.0
  O  O194  1  0.79706568  0.81223242  0.96823375  1.0
  O  O195  1  0.85251045  0.52978613  0.54797248  1.0
  O  O196  1  0.97554812  0.81371233  0.96120465  1.0
  O  O197  1  0.19030532  0.20001829  0.97286075  1.0
  O  O198  1  0.80886675  0.01524808  0.96931104  1.0
  O  O199  1  0.66996183  0.51937256  0.55504065  1.0
  O  O200  1  0.46703177  0.13240702  0.55081333  1.0
  O  O201  1  0.84480676  0.32831834  0.55161302  1.0
  O  O202  1  0.47828495  0.49240995  0.50235257  1.0
  O  O203  1  0.15418384  0.82034952  0.01129814  1.0
  F  F204  1  0.79699257  0.33127271  0.81982932  1.0
  F  F205  1  0.68938749  0.49487470  0.81311698  1.0
  F  F206  1  0.50080732  0.18168737  0.82022970  1.0
