# generated using pymatgen
data_CuH6C8N3
_symmetry_space_group_name_H-M   'P 1'
_cell_length_a   32.98610464
_cell_length_b   33.96395726
_cell_length_c   34.37621553
_cell_angle_alpha   92.72289734
_cell_angle_beta   92.00604756
_cell_angle_gamma   91.21899579
_symmetry_Int_Tables_number   1
_chemical_formula_structural   CuH6C8N3
_chemical_formula_sum   'Cu12 H72 C96 N36'
_cell_volume   38435.79416980
_cell_formula_units_Z   12
loop_
 _symmetry_equiv_pos_site_id
 _symmetry_equiv_pos_as_xyz
  1  'x, y, z'
loop_
 _atom_site_type_symbol
 _atom_site_label
 _atom_site_symmetry_multiplicity
 _atom_site_fract_x
 _atom_site_fract_y
 _atom_site_fract_z
 _atom_site_occupancy
  Cu  Cu0  1  0.62466961  0.33740961  0.41380639  1.0
  Cu  Cu1  1  0.66561310  0.41205866  0.37733079  1.0
  Cu  Cu2  1  0.58569096  0.37057149  0.33720798  1.0
  Cu  Cu3  1  0.38230810  0.82632622  0.08635617  1.0
  Cu  Cu4  1  0.34384654  0.90579047  0.11728220  1.0
  Cu  Cu5  1  0.42351278  0.87500817  0.15957132  1.0
  Cu  Cu6  1  0.12409590  0.15847315  0.58340585  1.0
  Cu  Cu7  1  0.15840837  0.07987016  0.61622628  1.0
  Cu  Cu8  1  0.08253204  0.12047991  0.65531872  1.0
  Cu  Cu9  1  0.87333621  0.67774360  0.91799612  1.0
  Cu  Cu10  1  0.82520352  0.60170941  0.88308211  1.0
  Cu  Cu11  1  0.90439141  0.63197900  0.84236508  1.0
  H  H12  1  0.68566852  0.32489041  0.48481537  1.0
  H  H13  1  0.73825815  0.43071785  0.43969158  1.0
  H  H14  1  0.51323845  0.30785467  0.31900019  1.0
  H  H15  1  0.56274406  0.26733484  0.42813817  1.0
  H  H16  1  0.68216130  0.47858432  0.31731143  1.0
  H  H17  1  0.56912818  0.42724918  0.26838202  1.0
  H  H18  1  0.31588126  0.79807207  0.02079412  1.0
  H  H19  1  0.27132930  0.91331518  0.05491632  1.0
  H  H20  1  0.49739948  0.81988100  0.17906540  1.0
  H  H21  1  0.44467771  0.75739651  0.07597693  1.0
  H  H22  1  0.32381838  0.97807004  0.17444283  1.0
  H  H23  1  0.43690703  0.94122295  0.22782253  1.0
  H  H24  1  0.18638896  0.17408542  0.51730647  1.0
  H  H25  1  0.22916195  0.06268395  0.55739197  1.0
  H  H26  1  0.01616037  0.18476272  0.67425415  1.0
  H  H27  1  0.06722887  0.23112795  0.57088592  1.0
  H  H28  1  0.17247848  0.00985007  0.67266230  1.0
  H  H29  1  0.06414234  0.05998723  0.72049023  1.0
  H  H30  1  0.81592036  0.70394640  0.98641175  1.0
  H  H31  1  0.75770838  0.59307157  0.94635669  1.0
  H  H32  1  0.97822381  0.68824264  0.82213870  1.0
  H  H33  1  0.94060131  0.74562549  0.92986061  1.0
  H  H34  1  0.79454837  0.53432579  0.82108843  1.0
  H  H35  1  0.90980194  0.56674120  0.77343357  1.0
  H  H36  1  0.23701072  0.90791787  0.98519693  1.0
  H  H37  1  0.18185034  0.84129369  0.94447870  1.0
  H  H38  1  0.23885680  0.81733735  0.98647400  1.0
  H  H39  1  0.19461096  0.92965090  0.93007859  1.0
  H  H40  1  0.75548571  0.31847824  0.51711953  1.0
  H  H41  1  0.81824541  0.32009059  0.55793516  1.0
  H  H42  1  0.77472017  0.40683014  0.51076988  1.0
  H  H43  1  0.79694739  0.40561979  0.58114864  1.0
  H  H44  1  0.73157365  0.59555940  0.01890161  1.0
  H  H45  1  0.68436997  0.66278636  0.06113755  1.0
  H  H46  1  0.73965039  0.68611743  0.02002911  1.0
  H  H47  1  0.69204204  0.57413522  0.07510282  1.0
  H  H48  1  0.25496272  0.17894584  0.48694036  1.0
  H  H49  1  0.31508903  0.17719636  0.44676977  1.0
  H  H50  1  0.26778030  0.08984517  0.49123968  1.0
  H  H51  1  0.28897854  0.09127213  0.42444629  1.0
  H  H52  1  0.01251074  0.77571167  0.93239086  1.0
  H  H53  1  0.07387945  0.81726234  0.92668629  1.0
  H  H54  1  0.01987539  0.76026049  0.84412156  1.0
  H  H55  1  0.04156862  0.82950552  0.84314545  1.0
  H  H56  1  0.47873214  0.23818353  0.31295107  1.0
  H  H57  1  0.43904832  0.17592114  0.31576975  1.0
  H  H58  1  0.49152465  0.22797718  0.40084657  1.0
  H  H59  1  0.42068264  0.20507947  0.39932964  1.0
  H  H60  1  0.99132317  0.25715573  0.68472223  1.0
  H  H61  1  0.95542263  0.32055855  0.68357225  1.0
  H  H62  1  0.99763656  0.26982819  0.59721921  1.0
  H  H63  1  0.92657689  0.29166811  0.60076146  1.0
  H  H64  1  0.51557699  0.72793336  0.07147604  1.0
  H  H65  1  0.57613094  0.68692998  0.07670502  1.0
  H  H66  1  0.53352509  0.74688640  0.15878350  1.0
  H  H67  1  0.55194308  0.67772420  0.16153318  1.0
  H  H68  1  0.05531666  0.99024865  0.74841972  1.0
  H  H69  1  0.05942288  0.93226859  0.79000430  1.0
  H  H70  1  0.14687858  0.97726220  0.74272073  1.0
  H  H71  1  0.14484234  0.96608739  0.81244265  1.0
  H  H72  1  0.68794930  0.50493941  0.24677213  1.0
  H  H73  1  0.68208881  0.54113058  0.18579598  1.0
  H  H74  1  0.59548172  0.49638602  0.23385078  1.0
  H  H75  1  0.59915905  0.56594542  0.21593003  1.0
  H  H76  1  0.43893704  0.01301214  0.25900995  1.0
  H  H77  1  0.43036950  0.07463685  0.29907413  1.0
  H  H78  1  0.34675571  0.01885646  0.24515765  1.0
  H  H79  1  0.34563218  0.03993940  0.31398056  1.0
  H  H80  1  0.90428497  0.49280499  0.74405672  1.0
  H  H81  1  0.83372252  0.45401300  0.69171414  1.0
  H  H82  1  0.81126074  0.49825953  0.74586957  1.0
  H  H83  1  0.92391200  0.43353828  0.70323653  1.0
  C  C84  1  0.69385533  0.35031537  0.46854904  1.0
  C  C85  1  0.72593755  0.37806490  0.47556755  1.0
  C  C86  1  0.72031444  0.40471486  0.44580613  1.0
  C  C87  1  0.53057873  0.30259424  0.34558445  1.0
  C  C88  1  0.52461951  0.27373635  0.37310367  1.0
  C  C89  1  0.55559683  0.28231554  0.40162968  1.0
  C  C90  1  0.65484338  0.46106574  0.30986578  1.0
  C  C91  1  0.62576320  0.46507869  0.27938733  1.0
  C  C92  1  0.59673762  0.43520883  0.28530802  1.0
  C  C93  1  0.31015842  0.82698645  0.03402073  1.0
  C  C94  1  0.27947002  0.85352314  0.02482038  1.0
  C  C95  1  0.28785046  0.88622065  0.05084379  1.0
  C  C96  1  0.47940469  0.80925995  0.15350792  1.0
  C  C97  1  0.48527155  0.77623664  0.12818310  1.0
  C  C98  1  0.45289184  0.77766768  0.10047609  1.0
  C  C99  1  0.35181615  0.96390193  0.18272169  1.0
  C  C100  1  0.37967211  0.97396016  0.21373267  1.0
  C  C101  1  0.40991224  0.94550903  0.20969267  1.0
  C  C102  1  0.19224946  0.14714212  0.53207410  1.0
  C  C103  1  0.22175516  0.11851788  0.52497903  1.0
  C  C104  1  0.21370244  0.08995470  0.55223456  1.0
  C  C105  1  0.03360390  0.19126707  0.64905845  1.0
  C  C106  1  0.02954447  0.22220139  0.62340599  1.0
  C  C107  1  0.05928879  0.21453148  0.59586260  1.0
  C  C108  1  0.14604343  0.02694869  0.67969460  1.0
  C  C109  1  0.11779963  0.02148248  0.70882455  1.0
  C  C110  1  0.09030490  0.05214914  0.70373242  1.0
  C  C111  1  0.80633576  0.67618950  0.97161050  1.0
  C  C112  1  0.77417650  0.65037151  0.97985111  1.0
  C  C113  1  0.77712056  0.61909941  0.95173258  1.0
  C  C114  1  0.96379328  0.69757704  0.84883678  1.0
  C  C115  1  0.97404902  0.72943892  0.87528173  1.0
  C  C116  1  0.94500210  0.72658457  0.90417428  1.0
  C  C117  1  0.82366561  0.54731504  0.81433335  1.0
  C  C118  1  0.84961077  0.53691198  0.78406945  1.0
  C  C119  1  0.88299485  0.56324422  0.79048340  1.0
  C  C120  1  0.14887762  0.89486156  0.89695557  1.0
  C  C121  1  0.11895941  0.91718983  0.84165006  1.0
  C  C122  1  0.09344624  0.86239927  0.86884282  1.0
  C  C123  1  0.84790291  0.37593649  0.60734059  1.0
  C  C124  1  0.90407518  0.34463534  0.62941652  1.0
  C  C125  1  0.88523304  0.40220348  0.65964712  1.0
  C  C126  1  0.65117330  0.61012434  0.10832518  1.0
  C  C127  1  0.62462224  0.58969495  0.16448171  1.0
  C  C128  1  0.59967041  0.64380822  0.13583229  1.0
  C  C129  1  0.33871150  0.12059544  0.39742311  1.0
  C  C130  1  0.36900761  0.09338752  0.34421318  1.0
  C  C131  1  0.39279135  0.15198775  0.37201214  1.0
  C  C132  1  0.24714023  0.84786285  0.99555766  1.0
  C  C133  1  0.22728068  0.87731118  0.97813079  1.0
  C  C134  1  0.19490839  0.87107743  0.94943740  1.0
  C  C135  1  0.18066872  0.90014574  0.92731399  1.0
  C  C136  1  0.75791804  0.37887174  0.50535516  1.0
  C  C137  1  0.76966802  0.34723829  0.52532867  1.0
  C  C138  1  0.80184674  0.34750145  0.55485146  1.0
  C  C139  1  0.81360714  0.37819100  0.57965850  1.0
  C  C140  1  0.74500637  0.65568618  0.00991301  1.0
  C  C141  1  0.72462894  0.62622893  0.02682645  1.0
  C  C142  1  0.69501546  0.63276508  0.05588745  1.0
  C  C143  1  0.68036827  0.60396046  0.07788337  1.0
  C  C144  1  0.25326769  0.11810811  0.49694397  1.0
  C  C145  1  0.26691674  0.15008261  0.47855086  1.0
  C  C146  1  0.29781761  0.14974457  0.44989497  1.0
  C  C147  1  0.30681337  0.11878089  0.42556602  1.0
  C  C148  1  0.00680295  0.75793559  0.87276688  1.0
  C  C149  1  0.02301781  0.78076410  0.90315485  1.0
  C  C150  1  0.05462428  0.81047474  0.90057162  1.0
  C  C151  1  0.06162114  0.83195579  0.86912807  1.0
  C  C152  1  0.49494267  0.24192891  0.37305926  1.0
  C  C153  1  0.47281967  0.22689179  0.34154440  1.0
  C  C154  1  0.44362852  0.19468949  0.34238011  1.0
  C  C155  1  0.42078014  0.18587518  0.37295691  1.0
  C  C156  1  0.00223548  0.25483741  0.62446123  1.0
  C  C157  1  0.98366902  0.26931299  0.65655020  1.0
  C  C158  1  0.95619705  0.30182295  0.65684135  1.0
  C  C159  1  0.93050089  0.31082301  0.62709118  1.0
  C  C160  1  0.51726492  0.74802265  0.13057485  1.0
  C  C161  1  0.52919412  0.72410893  0.10050053  1.0
  C  C162  1  0.55994036  0.69463024  0.10314080  1.0
  C  C163  1  0.56926364  0.67431747  0.13515142  1.0
  C  C164  1  0.11793193  0.99153028  0.73723797  1.0
  C  C165  1  0.08518256  0.97917421  0.75660869  1.0
  C  C166  1  0.08649369  0.95075770  0.78654290  1.0
  C  C167  1  0.11837752  0.94617075  0.81176129  1.0
  C  C168  1  0.62500143  0.49240871  0.24850788  1.0
  C  C169  1  0.65773837  0.51175642  0.23513133  1.0
  C  C170  1  0.65588871  0.53914642  0.20431716  1.0
  C  C171  1  0.62472692  0.56336795  0.19673040  1.0
  C  C172  1  0.37681688  0.00623419  0.24227697  1.0
  C  C173  1  0.40815689  0.02284825  0.26437255  1.0
  C  C174  1  0.40426968  0.05449795  0.29346768  1.0
  C  C175  1  0.37138259  0.06073985  0.31533525  1.0
  C  C176  1  0.84289035  0.50642359  0.75366863  1.0
  C  C177  1  0.87252824  0.48683231  0.73489918  1.0
  C  C178  1  0.86466274  0.45737047  0.70415566  1.0
  C  C179  1  0.89319186  0.43278361  0.69024786  1.0
  N  N180  1  0.68785513  0.39342137  0.42276706  1.0
  N  N181  1  0.67129447  0.35975713  0.43713713  1.0
  N  N182  1  0.57828148  0.31340913  0.39167544  1.0
  N  N183  1  0.56256461  0.32615936  0.35696744  1.0
  N  N184  1  0.60790743  0.41484000  0.31642642  1.0
  N  N185  1  0.64388403  0.43113946  0.33189161  1.0
  N  N186  1  0.32078780  0.87944959  0.07356965  1.0
  N  N187  1  0.33493686  0.84281991  0.06285178  1.0
  N  N188  1  0.42993503  0.80905349  0.10871324  1.0
  N  N189  1  0.44655737  0.82890414  0.14153005  1.0
  N  N190  1  0.40066507  0.92078376  0.17872827  1.0
  N  N191  1  0.36470221  0.93240083  0.16176415  1.0
  N  N192  1  0.18230443  0.10095232  0.57394901  1.0
  N  N193  1  0.16885179  0.13638372  0.56120621  1.0
  N  N194  1  0.07962806  0.18200065  0.60470391  1.0
  N  N195  1  0.06342585  0.16735485  0.63759900  1.0
  N  N196  1  0.10139042  0.07389930  0.67397753  1.0
  N  N197  1  0.13587642  0.05803999  0.65880402  1.0
  N  N198  1  0.80845287  0.62600393  0.92871996  1.0
  N  N199  1  0.82691093  0.66125259  0.94135974  1.0
  N  N200  1  0.91978195  0.69551121  0.89550363  1.0
  N  N201  1  0.93162397  0.67725825  0.86126026  1.0
  N  N202  1  0.87717391  0.58726058  0.82199638  1.0
  N  N203  1  0.84054199  0.57704796  0.83712832  1.0
  N  N204  1  0.14824185  0.92252440  0.86991822  1.0
  N  N205  1  0.09060300  0.88781553  0.83991291  1.0
  N  N206  1  0.12270480  0.86392731  0.89743216  1.0
  N  N207  1  0.87305214  0.34517579  0.60300308  1.0
  N  N208  1  0.91218139  0.37301606  0.65770710  1.0
  N  N209  1  0.85225639  0.40494630  0.63542570  1.0
  N  N210  1  0.65105756  0.58318620  0.13590731  1.0
  N  N211  1  0.59779235  0.61916053  0.16553909  1.0
  N  N212  1  0.62651566  0.64127840  0.10713569  1.0
  N  N213  1  0.33936730  0.09056953  0.37024069  1.0
  N  N214  1  0.39615547  0.12350783  0.34365217  1.0
  N  N215  1  0.36502743  0.15174178  0.39986334  1.0
