# generated using pymatgen
data_ZnH9C16N2ClO4
_symmetry_space_group_name_H-M   'P 1'
_cell_length_a   13.95179657
_cell_length_b   14.00341335
_cell_length_c   15.30957786
_cell_angle_alpha   90.71816356
_cell_angle_beta   90.41519628
_cell_angle_gamma   82.21704143
_symmetry_Int_Tables_number   1
_chemical_formula_structural   ZnH9C16N2ClO4
_chemical_formula_sum   'Zn2 H18 C32 N4 Cl2 O8'
_cell_volume   2963.24212729
_cell_formula_units_Z   2
loop_
 _symmetry_equiv_pos_site_id
 _symmetry_equiv_pos_as_xyz
  1  'x, y, z'
loop_
 _atom_site_type_symbol
 _atom_site_label
 _atom_site_symmetry_multiplicity
 _atom_site_fract_x
 _atom_site_fract_y
 _atom_site_fract_z
 _atom_site_occupancy
  Zn  Zn0  1  0.59986948  0.50012282  0.50178237  1.0
  Zn  Zn1  1  0.40002736  0.49999517  0.49986519  1.0
  H  H2  1  0.61475576  0.97430366  0.49306472  1.0
  H  H3  1  0.73516962  0.63537365  0.56419332  1.0
  H  H4  1  0.24250357  0.54948024  0.62734241  1.0
  H  H5  1  0.76745953  0.37223292  0.43477408  1.0
  H  H6  1  0.06158886  0.55596514  0.63225746  1.0
  H  H7  1  0.94813492  0.36521644  0.43018041  1.0
  H  H8  1  0.37067669  0.40252449  0.98336993  1.0
  H  H9  1  0.32551775  0.36590948  0.07879627  1.0
  H  H10  1  0.65351730  0.40379525  0.01419992  1.0
  H  H11  1  0.70736164  0.36759281  0.91733187  1.0
  H  H12  1  0.39274975  0.02540381  0.50357545  1.0
  H  H13  1  0.60682813  0.59494477  0.22755005  1.0
  H  H14  1  0.36194397  0.59701670  0.77772940  1.0
  H  H15  1  0.38928127  0.40461331  0.22081440  1.0
  H  H16  1  0.63180975  0.40774887  0.77680322  1.0
  H  H17  1  0.07434988  0.44301010  0.36776394  1.0
  H  H18  1  0.91471861  0.63967971  0.56729148  1.0
  H  H19  1  0.25451319  0.44319545  0.37428152  1.0
  C  C20  1  0.49641081  0.49890515  0.33117778  1.0
  C  C21  1  0.78597384  0.57697684  0.53637224  1.0
  C  C22  1  0.20114714  0.52769866  0.57151865  1.0
  C  C23  1  0.80403599  0.42991431  0.46230074  1.0
  C  C24  1  0.10115723  0.53109638  0.57331650  1.0
  C  C25  1  0.90393095  0.42692650  0.46014639  1.0
  C  C26  1  0.05275010  0.50008251  0.49980712  1.0
  C  C27  1  0.94667907  0.50199988  0.49920178  1.0
  C  C28  1  0.53202127  0.31256843  0.49829254  1.0
  C  C29  1  0.47506976  0.68732089  0.50190403  1.0
  C  C30  1  0.46453935  0.79141682  0.50052273  1.0
  C  C31  1  0.49744423  0.50106677  0.67023901  1.0
  C  C32  1  0.54258629  0.20845620  0.49671487  1.0
  C  C33  1  0.46235732  0.97904966  0.50027894  1.0
  C  C34  1  0.54520001  0.02074212  0.49641546  1.0
  C  C35  1  0.54481119  0.12096639  0.49617751  1.0
  C  C36  1  0.46270741  0.87884395  0.49997210  1.0
  C  C37  1  0.55780743  0.55496955  0.09937304  1.0
  C  C38  1  0.42304278  0.55574670  0.90416538  1.0
  C  C39  1  0.55970287  0.55369165  0.19024754  1.0
  C  C40  1  0.42064784  0.55520139  0.81327785  1.0
  C  C41  1  0.49746853  0.49950149  0.23321115  1.0
  C  C42  1  0.43753458  0.44543391  0.09403596  1.0
  C  C43  1  0.49723020  0.50154414  0.76824149  1.0
  C  C44  1  0.43672584  0.44659405  0.18576327  1.0
  C  C45  1  0.57312051  0.44874064  0.81366968  1.0
  C  C46  1  0.57351928  0.44685334  0.90537967  1.0
  C  C47  1  0.49812598  0.50205371  0.04920797  1.0
  C  C48  1  0.49776469  0.50269645  0.95232785  1.0
  C  C49  1  0.10851062  0.46664102  0.42698890  1.0
  C  C50  1  0.88543230  0.57846374  0.53780215  1.0
  C  C51  1  0.20809939  0.46655270  0.42970786  1.0
  N  N52  1  0.25342555  0.49658359  0.50072190  1.0
  N  N53  1  0.74630661  0.50355321  0.49988469  1.0
  N  N54  1  0.38248222  0.38725426  0.04743244  1.0
  N  N55  1  0.64501565  0.38859940  0.94990710  1.0
  Cl  Cl56  1  0.63174976  0.62609428  0.04620837  1.0
  Cl  Cl57  1  0.32997493  0.62610074  0.95980965  1.0
  O  O58  1  0.57066976  0.52202558  0.37064303  1.0
  O  O59  1  0.41624931  0.52413930  0.63187016  1.0
  O  O60  1  0.42122995  0.47541272  0.36783853  1.0
  O  O61  1  0.57844801  0.47763146  0.63260454  1.0
  O  O62  1  0.60613868  0.35251646  0.47967597  1.0
  O  O63  1  0.40160756  0.64679687  0.48147818  1.0
  O  O64  1  0.44826424  0.35472445  0.51835220  1.0
  O  O65  1  0.55890414  0.64589156  0.52363808  1.0
