# generated using pymatgen
data_ZnH32C40N4O13
_symmetry_space_group_name_H-M   'P 1'
_cell_length_a   13.90087050
_cell_length_b   15.19427609
_cell_length_c   28.05191643
_cell_angle_alpha   89.94444811
_cell_angle_beta   89.35730436
_cell_angle_gamma   89.94295136
_symmetry_Int_Tables_number   1
_chemical_formula_structural   ZnH32C40N4O13
_chemical_formula_sum   'Zn2 H64 C80 N8 O26'
_cell_volume   5924.56965277
_cell_formula_units_Z   2
loop_
 _symmetry_equiv_pos_site_id
 _symmetry_equiv_pos_as_xyz
  1  'x, y, z'
loop_
 _atom_site_type_symbol
 _atom_site_label
 _atom_site_symmetry_multiplicity
 _atom_site_fract_x
 _atom_site_fract_y
 _atom_site_fract_z
 _atom_site_occupancy
  Zn  Zn0  1  0.39932909  0.49982161  0.50037835  1.0
  Zn  Zn1  1  0.60150619  0.49923965  0.50049395  1.0
  H  H2  1  0.37236874  0.57793593  0.65021616  1.0
  H  H3  1  0.63343007  0.42359379  0.34776579  1.0
  H  H4  1  0.57590160  0.71343702  0.87830787  1.0
  H  H5  1  0.31353676  0.34681684  0.12440075  1.0
  H  H6  1  0.37516081  0.57405316  0.25815416  1.0
  H  H7  1  0.62185900  0.42589661  0.74522893  1.0
  H  H8  1  0.66070297  0.65498597  0.11975819  1.0
  H  H9  1  0.37529634  0.31073059  0.87923922  1.0
  H  H10  1  0.63705174  0.67602510  0.03273703  1.0
  H  H11  1  0.35508207  0.31800340  0.96731808  1.0
  H  H12  1  0.35206376  0.94024757  0.52562519  1.0
  H  H13  1  0.64298497  0.05972170  0.52813628  1.0
  H  H14  1  0.35475771  0.05847532  0.47317064  1.0
  H  H15  1  0.64652769  0.93953916  0.47587909  1.0
  H  H16  1  0.35197725  0.77599414  0.52502380  1.0
  H  H17  1  0.64179970  0.22421924  0.52729428  1.0
  H  H18  1  0.35397079  0.22274553  0.47363010  1.0
  H  H19  1  0.64594070  0.77507146  0.47679631  1.0
  H  H20  1  0.75331500  0.60046256  0.55048684  1.0
  H  H21  1  0.24836658  0.36925213  0.52105512  1.0
  H  H22  1  0.75133655  0.39833383  0.45064556  1.0
  H  H23  1  0.24841076  0.62940552  0.47479137  1.0
  H  H24  1  0.02001084  0.64492999  0.61398963  1.0
  H  H25  1  0.01637881  0.53108870  0.59930364  1.0
  H  H26  1  0.84570118  0.63872777  0.63855869  1.0
  H  H27  1  0.84278959  0.52480242  0.62582800  1.0
  H  H28  1  0.97093281  0.49772297  0.68784203  1.0
  H  H29  1  0.86614794  0.54682452  0.71260611  1.0
  H  H30  1  0.97056693  0.61167831  0.70177644  1.0
  H  H31  1  0.97463450  0.27740482  0.56771107  1.0
  H  H32  1  0.97555216  0.39243935  0.57905962  1.0
  H  H33  1  0.14605274  0.26751659  0.59585063  1.0
  H  H34  1  0.14372590  0.38067728  0.61027894  1.0
  H  H35  1  0.00590717  0.35232205  0.66904877  1.0
  H  H36  1  0.11000492  0.29026049  0.68326190  1.0
  H  H37  1  0.01138430  0.23870751  0.65496392  1.0
  H  H38  1  0.01817102  0.35793918  0.38078952  1.0
  H  H39  1  0.03079985  0.46654760  0.40333457  1.0
  H  H40  1  0.85192798  0.39275735  0.35347867  1.0
  H  H41  1  0.86039630  0.50016603  0.37708045  1.0
  H  H42  1  0.99673805  0.53490738  0.31985666  1.0
  H  H43  1  0.89282474  0.49932209  0.28881845  1.0
  H  H44  1  0.99091414  0.42630648  0.29668301  1.0
  H  H45  1  0.97843147  0.61007403  0.41299817  1.0
  H  H46  1  0.10032501  0.63987220  0.39893153  1.0
  H  H47  1  0.94442314  0.76668689  0.43601870  1.0
  H  H48  1  0.06325657  0.79587856  0.41946070  1.0
  H  H49  1  0.03092119  0.74717108  0.33441568  1.0
  H  H50  1  0.94970033  0.83078225  0.35301582  1.0
  H  H51  1  0.91101854  0.71966689  0.35119541  1.0
  H  H52  1  0.54499644  0.83142936  0.01616591  1.0
  H  H53  1  0.45561857  0.74817647  0.01074369  1.0
  H  H54  1  0.50761615  0.88849019  0.93566521  1.0
  H  H55  1  0.42552106  0.80175189  0.92611424  1.0
  H  H56  1  0.31829811  0.85747092  0.99225430  1.0
  H  H57  1  0.33860056  0.94101579  0.94911976  1.0
  H  H58  1  0.40050198  0.94397565  0.00403822  1.0
  H  H59  1  0.16651533  0.34563874  0.99126557  1.0
  H  H60  1  0.22712148  0.44845022  0.99594520  1.0
  H  H61  1  0.10413374  0.35912460  0.07382626  1.0
  H  H62  1  0.17344810  0.45472718  0.08327906  1.0
  H  H63  1  0.07858628  0.53786237  0.02248759  1.0
  H  H64  1  0.00055556  0.49318523  0.06677778  1.0
  H  H65  1  0.00963846  0.44246362  0.00999565  1.0
  C  C66  1  0.49855121  0.66825441  0.50103766  1.0
  C  C67  1  0.49785978  0.33067933  0.49983061  1.0
  C  C68  1  0.50071767  0.49627067  0.59363957  1.0
  C  C69  1  0.50689936  0.50153843  0.40704046  1.0
  C  C70  1  0.52208597  0.58348629  0.82105826  1.0
  C  C71  1  0.43052876  0.43729917  0.18038165  1.0
  C  C72  1  0.44937943  0.43202418  0.82169543  1.0
  C  C73  1  0.56390914  0.54902899  0.17812060  1.0
  C  C74  1  0.56651721  0.45875780  0.72461351  1.0
  C  C75  1  0.43103854  0.53985661  0.27778996  1.0
  C  C76  1  0.56799217  0.45428815  0.67512938  1.0
  C  C77  1  0.43352721  0.54383230  0.32722252  1.0
  C  C78  1  0.42664055  0.54356364  0.67083824  1.0
  C  C79  1  0.57622370  0.45581553  0.32809913  1.0
  C  C80  1  0.42356418  0.54747870  0.72036347  1.0
  C  C81  1  0.57379675  0.45034321  0.27865647  1.0
  C  C82  1  0.49292416  0.50421480  0.74784635  1.0
  C  C83  1  0.50115131  0.49254615  0.25294161  1.0
  C  C84  1  0.47658860  0.51146884  0.89895998  1.0
  C  C85  1  0.48483172  0.50272051  0.10203040  1.0
  C  C86  1  0.51692795  0.58346765  0.87359923  1.0
  C  C87  1  0.42658632  0.44241601  0.12791307  1.0
  C  C88  1  0.54876039  0.65670868  0.89806050  1.0
  C  C89  1  0.36068115  0.39072522  0.10419780  1.0
  C  C90  1  0.44178322  0.43722809  0.87402881  1.0
  C  C91  1  0.55207332  0.55607371  0.12613678  1.0
  C  C92  1  0.49848460  0.49581165  0.64733387  1.0
  C  C93  1  0.50537270  0.50185031  0.35337911  1.0
  C  C94  1  0.52890922  0.57559297  0.02633869  1.0
  C  C95  1  0.42355978  0.44416811  0.97479918  1.0
  C  C96  1  0.41486116  0.44855496  0.02671056  1.0
  C  C97  1  0.51556189  0.58541630  0.97500767  1.0
  C  C98  1  0.47605839  0.50869505  0.05137410  1.0
  C  C99  1  0.47188602  0.51400508  0.94990498  1.0
  C  C100  1  0.59479069  0.62691721  0.05177538  1.0
  C  C101  1  0.38970518  0.37212775  0.94852281  1.0
  C  C102  1  0.60794594  0.61590336  0.10063731  1.0
  C  C103  1  0.40032211  0.36782070  0.89908461  1.0
  C  C104  1  0.54712298  0.65888080  0.94799723  1.0
  C  C105  1  0.35308263  0.39450126  0.05447733  1.0
  C  C106  1  0.41612727  0.90417480  0.51415268  1.0
  C  C107  1  0.58016559  0.09536599  0.51538972  1.0
  C  C108  1  0.41728780  0.09466288  0.48570722  1.0
  C  C109  1  0.58230327  0.90376120  0.48737569  1.0
  C  C110  1  0.41584419  0.81278839  0.51421039  1.0
  C  C111  1  0.57981094  0.18680703  0.51524502  1.0
  C  C112  1  0.41667188  0.18607504  0.48559112  1.0
  C  C113  1  0.58222146  0.81231925  0.48747420  1.0
  C  C114  1  0.49892598  0.76621656  0.50088537  1.0
  C  C115  1  0.49804267  0.23273505  0.50026670  1.0
  C  C116  1  0.49926442  0.95105499  0.50069865  1.0
  C  C117  1  0.49901797  0.04791712  0.50058381  1.0
  C  C118  1  0.89560968  0.55767697  0.52822833  1.0
  C  C119  1  0.10543389  0.42324553  0.51159607  1.0
  C  C120  1  0.89436843  0.44124611  0.46934435  1.0
  C  C121  1  0.10561998  0.57420638  0.48412261  1.0
  C  C122  1  0.79528697  0.55568731  0.52817788  1.0
  C  C123  1  0.20570792  0.42654566  0.51118699  1.0
  C  C124  1  0.79415329  0.44282519  0.47220223  1.0
  C  C125  1  0.20585147  0.57197182  0.48492194  1.0
  C  C126  1  0.94721421  0.49919720  0.49832393  1.0
  C  C127  1  0.05327776  0.49880928  0.49800897  1.0
  C  C128  1  0.97244420  0.59142363  0.60256919  1.0
  C  C129  1  0.88975393  0.57848760  0.63781669  1.0
  C  C130  1  0.92652498  0.55768484  0.68776309  1.0
  C  C131  1  0.02151176  0.33529538  0.57031464  1.0
  C  C132  1  0.09850173  0.32137925  0.60771731  1.0
  C  C133  1  0.05400876  0.29956900  0.65642681  1.0
  C  C134  1  0.97828717  0.41439343  0.39540542  1.0
  C  C135  1  0.90269880  0.44654834  0.36063235  1.0
  C  C136  1  0.94846007  0.47869302  0.31394945  1.0
  C  C137  1  0.03663093  0.65720516  0.42086612  1.0
  C  C138  1  0.00389422  0.75068749  0.41127906  1.0
  C  C139  1  0.97216746  0.76259005  0.35964210  1.0
  C  C140  1  0.50669548  0.78989887  0.99057659  1.0
  C  C141  1  0.45491138  0.84543251  0.95364756  1.0
  C  C142  1  0.37374939  0.89994950  0.97606270  1.0
  C  C143  1  0.20132420  0.39082188  0.01629131  1.0
  C  C144  1  0.13269800  0.41845775  0.05619187  1.0
  C  C145  1  0.05089265  0.47606707  0.03779116  1.0
  N  N146  1  0.49180164  0.50544029  0.79882816  1.0
  N  N147  1  0.49755777  0.49376321  0.20200650  1.0
  N  N148  1  0.74688333  0.49895055  0.50085780  1.0
  N  N149  1  0.25364299  0.49957148  0.49842112  1.0
  N  N150  1  0.34440173  0.59879393  0.74233083  1.0
  N  N151  1  0.65015371  0.39889119  0.25463920  1.0
  N  N152  1  0.35863557  0.59907124  0.35051640  1.0
  N  N153  1  0.64467406  0.40051300  0.65273396  1.0
  O  O154  1  0.41905858  0.63013901  0.51104768  1.0
  O  O155  1  0.57707422  0.36925989  0.50849923  1.0
  O  O156  1  0.41843477  0.36906431  0.49065447  1.0
  O  O157  1  0.57762695  0.62927123  0.49125948  1.0
  O  O158  1  0.42135722  0.48031888  0.57381632  1.0
  O  O159  1  0.58604760  0.48141253  0.42613444  1.0
  O  O160  1  0.42781452  0.52006531  0.42759047  1.0
  O  O161  1  0.58092640  0.51535644  0.57443707  1.0
  O  O162  1  0.55069332  0.64617845  0.79698719  1.0
  O  O163  1  0.37894024  0.38912107  0.20485230  1.0
  O  O164  1  0.62549773  0.58882794  0.20073226  1.0
  O  O165  1  0.42184879  0.36889417  0.79808764  1.0
  O  O166  1  0.94151338  0.61885520  0.55552723  1.0
  O  O167  1  0.06127636  0.34534399  0.52257029  1.0
  O  O168  1  0.93676471  0.38103058  0.43968569  1.0
  O  O169  1  0.06077437  0.65050661  0.47096834  1.0
  O  O170  1  0.30973887  0.65902824  0.71822401  1.0
  O  O171  1  0.31661536  0.57780338  0.78296090  1.0
  O  O172  1  0.72792299  0.39202562  0.27550556  1.0
  O  O173  1  0.63166687  0.36492056  0.21565347  1.0
  O  O174  1  0.38497483  0.67091741  0.36603943  1.0
  O  O175  1  0.27506704  0.57117392  0.34978347  1.0
  O  O176  1  0.61983186  0.34536055  0.62310193  1.0
  O  O177  1  0.72800208  0.41340043  0.66657280  1.0
  O  O178  1  0.58066128  0.73480966  0.96866075  1.0
  O  O179  1  0.28337904  0.34221257  0.03467214  1.0
