# generated using pymatgen
data_AlHC12IO5F3
_symmetry_space_group_name_H-M   'P 1'
_cell_length_a   6.66247820
_cell_length_b   21.49406431
_cell_length_c   23.49495550
_cell_angle_alpha   77.38720813
_cell_angle_beta   89.99977093
_cell_angle_gamma   89.99991422
_symmetry_Int_Tables_number   1
_chemical_formula_structural   AlHC12IO5F3
_chemical_formula_sum   'Al4 H4 C48 I4 O20 F12'
_cell_volume   3283.37180447
_cell_formula_units_Z   4
loop_
 _symmetry_equiv_pos_site_id
 _symmetry_equiv_pos_as_xyz
  1  'x, y, z'
loop_
 _atom_site_type_symbol
 _atom_site_label
 _atom_site_symmetry_multiplicity
 _atom_site_fract_x
 _atom_site_fract_y
 _atom_site_fract_z
 _atom_site_occupancy
  Al  Al0  1  0.77221424  0.74954283  0.25022030  1.0
  Al  Al1  1  0.22778691  0.25045691  0.74977938  1.0
  Al  Al2  1  0.27221411  0.75045734  0.24977870  1.0
  Al  Al3  1  0.72778554  0.24954307  0.75022010  1.0
  H  H4  1  0.52037875  0.66955923  0.24568326  1.0
  H  H5  1  0.47962240  0.33044067  0.75431772  1.0
  H  H6  1  0.02037966  0.83044002  0.25431820  1.0
  H  H7  1  0.97962299  0.16955886  0.74568323  1.0
  C  C8  1  0.52318418  0.83602967  0.16400441  1.0
  C  C9  1  0.47681097  0.16396867  0.83599527  1.0
  C  C10  1  0.02318476  0.66396951  0.33599530  1.0
  C  C11  1  0.97681789  0.33603200  0.66400479  1.0
  C  C12  1  0.52302103  0.81740466  0.32008237  1.0
  C  C13  1  0.47698312  0.18259678  0.67991599  1.0
  C  C14  1  0.02302821  0.68259612  0.17991646  1.0
  C  C15  1  0.97697745  0.31740295  0.82008409  1.0
  C  C16  1  0.82571903  0.44672011  0.90124760  1.0
  C  C17  1  0.17428212  0.55327896  0.09875295  1.0
  C  C18  1  0.32571747  0.05328182  0.59875132  1.0
  C  C19  1  0.67428068  0.94672009  0.40124703  1.0
  C  C20  1  0.82671603  0.40574305  0.86281679  1.0
  C  C21  1  0.17328362  0.59425499  0.13718421  1.0
  C  C22  1  0.32671973  0.09425671  0.63718345  1.0
  C  C23  1  0.67328292  0.90574473  0.36281490  1.0
  C  C24  1  0.97681494  0.35959672  0.86316242  1.0
  C  C25  1  0.02318471  0.64040169  0.13683901  1.0
  C  C26  1  0.47681992  0.14040235  0.63683853  1.0
  C  C27  1  0.52318423  0.85959899  0.36316026  1.0
  C  C28  1  0.12872633  0.35551781  0.90524955  1.0
  C  C29  1  0.87127332  0.64448116  0.09475144  1.0
  C  C30  1  0.62872915  0.14448219  0.59475004  1.0
  C  C31  1  0.37127200  0.85551878  0.40524832  1.0
  C  C32  1  0.12960701  0.39530298  0.94465071  1.0
  C  C33  1  0.87039114  0.60469589  0.05535072  1.0
  C  C34  1  0.62960757  0.10469702  0.55534888  1.0
  C  C35  1  0.37039358  0.89530272  0.44465080  1.0
  C  C36  1  0.98082320  0.44210280  0.94336047  1.0
  C  C37  1  0.01917795  0.55789591  0.05663965  1.0
  C  C38  1  0.48082070  0.05789780  0.55663786  1.0
  C  C39  1  0.51917745  0.94210168  0.44336095  1.0
  C  C40  1  0.99177220  0.48260176  0.98281585  1.0
  C  C41  1  0.00822895  0.51739844  0.01718383  1.0
  C  C42  1  0.49176895  0.01739873  0.51718290  1.0
  C  C43  1  0.50823070  0.98260064  0.48281634  1.0
  C  C44  1  0.97803240  0.38597883  0.61199893  1.0
  C  C45  1  0.02196875  0.61402481  0.38800202  1.0
  C  C46  1  0.47802799  0.11402160  0.88800418  1.0
  C  C47  1  0.52197016  0.88597844  0.11199418  1.0
  C  C48  1  0.98610767  0.42978046  0.56874062  1.0
  C  C49  1  0.01388447  0.57022104  0.43125948  1.0
  C  C50  1  0.48610737  0.07022150  0.93125987  1.0
  C  C51  1  0.51388328  0.92977618  0.06874069  1.0
  C  C52  1  0.99531617  0.47782392  0.52161100  1.0
  C  C53  1  0.00467447  0.52217732  0.47838823  1.0
  C  C54  1  0.49531244  0.02218080  0.97838553  1.0
  C  C55  1  0.50467220  0.97781811  0.02161371  1.0
  I  I56  1  0.59800484  0.51423657  0.89626731  1.0
  I  I57  1  0.40199631  0.48576251  0.10373324  1.0
  I  I58  1  0.09800711  0.98576438  0.60373265  1.0
  I  I59  1  0.90199554  0.01423629  0.39626702  1.0
  O  O60  1  0.35268667  0.80326028  0.30229463  1.0
  O  O61  1  0.64731448  0.19674173  0.69770329  1.0
  O  O62  1  0.85268780  0.69674194  0.19770340  1.0
  O  O63  1  0.14731185  0.30325827  0.80229628  1.0
  O  O64  1  0.69417001  0.81671333  0.18483673  1.0
  O  O65  1  0.30582814  0.18328621  0.81516382  1.0
  O  O66  1  0.19416928  0.68328738  0.31516409  1.0
  O  O67  1  0.80583337  0.31671402  0.68483644  1.0
  O  O68  1  0.69257220  0.80014677  0.30454325  1.0
  O  O69  1  0.30742895  0.19985343  0.69545642  1.0
  O  O70  1  0.19257458  0.69985134  0.19545672  1.0
  O  O71  1  0.80742507  0.30014680  0.80454384  1.0
  O  O72  1  0.85143522  0.68296832  0.31558367  1.0
  O  O73  1  0.14856743  0.31703162  0.68441513  1.0
  O  O74  1  0.35143568  0.81703074  0.18441394  1.0
  O  O75  1  0.64856247  0.18296791  0.81558444  1.0
  O  O76  1  0.52168892  0.71224368  0.25294365  1.0
  O  O77  1  0.47831223  0.28775663  0.74705558  1.0
  O  O78  1  0.02168714  0.78775654  0.24705562  1.0
  O  O79  1  0.97831401  0.21224320  0.75294406  1.0
  F  F80  1  0.68002614  0.41239192  0.82217530  1.0
  F  F81  1  0.31997501  0.58760706  0.17782569  1.0
  F  F82  1  0.18002780  0.08760741  0.67782511  1.0
  F  F83  1  0.81997485  0.91239310  0.32217326  1.0
  F  F84  1  0.27592988  0.31186188  0.90986123  1.0
  F  F85  1  0.72407277  0.68813776  0.09013888  1.0
  F  F86  1  0.77593256  0.18813772  0.59013776  1.0
  F  F87  1  0.22407009  0.81186309  0.40985929  1.0
  F  F88  1  0.27669766  0.38851654  0.98495582  1.0
  F  F89  1  0.72330199  0.61148196  0.01504517  1.0
  F  F90  1  0.77669425  0.11148400  0.51504316  1.0
  F  F91  1  0.22330540  0.88851508  0.48495739  1.0
