# generated using pymatgen
data_Zn2H27C46N7O12
_symmetry_space_group_name_H-M   'P 1'
_cell_length_a   9.82976661
_cell_length_b   11.10730778
_cell_length_c   28.10849622
_cell_angle_alpha   89.40259718
_cell_angle_beta   89.59029482
_cell_angle_gamma   89.89186109
_symmetry_Int_Tables_number   1
_chemical_formula_structural   Zn2H27C46N7O12
_chemical_formula_sum   'Zn2 H27 C46 N7 O12'
_cell_volume   3068.69834967
_cell_formula_units_Z   1
loop_
 _symmetry_equiv_pos_site_id
 _symmetry_equiv_pos_as_xyz
  1  'x, y, z'
loop_
 _atom_site_type_symbol
 _atom_site_label
 _atom_site_symmetry_multiplicity
 _atom_site_fract_x
 _atom_site_fract_y
 _atom_site_fract_z
 _atom_site_occupancy
  Zn  Zn0  1  0.63871751  0.50109639  0.50086023  1.0
  Zn  Zn1  1  0.35716742  0.50330528  0.50005166  1.0
  H  H2  1  0.27059657  0.48078288  0.74161813  1.0
  H  H3  1  0.86832384  0.65790567  0.46374241  1.0
  H  H4  1  0.90123003  0.43145224  0.51599047  1.0
  H  H5  1  0.43715069  0.20329363  0.87829056  1.0
  H  H6  1  0.27809033  0.51511961  0.34591466  1.0
  H  H7  1  0.28525256  0.51978692  0.25682632  1.0
  H  H8  1  0.57859779  0.21214002  0.12300643  1.0
  H  H9  1  0.55560255  0.20352367  0.03577879  1.0
  H  H10  1  0.70583771  0.53071364  0.65237453  1.0
  H  H11  1  0.50600422  0.80323018  0.87709030  1.0
  H  H12  1  0.29938950  0.11076777  0.48561233  1.0
  H  H13  1  0.42461543  0.80309472  0.03235090  1.0
  H  H14  1  0.59475003  0.09767625  0.52112873  1.0
  H  H15  1  0.06014812  0.68402449  0.41845349  1.0
  H  H16  1  0.22238269  0.63096719  0.43168726  1.0
  H  H17  1  0.16982097  0.40293586  0.55961013  1.0
  H  H18  1  0.04536844  0.49963039  0.56673441  1.0
  H  H19  1  0.38837469  0.16822381  0.00342654  1.0
  H  H20  1  0.38247824  0.10862202  0.94798904  1.0
  H  H21  1  0.27312115  0.48463973  0.65240517  1.0
  H  H22  1  0.71312275  0.48822754  0.34940041  1.0
  H  H23  1  0.42550868  0.80126413  0.12064578  1.0
  H  H24  1  0.72156782  0.49393193  0.26008966  1.0
  H  H25  1  0.49334018  0.80525551  0.96540234  1.0
  H  H26  1  0.30237236  0.88768651  0.50307473  1.0
  H  H27  1  0.60829194  0.91023131  0.48074375  1.0
  H  H28  1  0.70493993  0.52592253  0.74175446  1.0
  C  C29  1  0.49625260  0.26969721  0.50532834  1.0
  C  C30  1  0.49564349  0.38980558  0.02648628  1.0
  C  C31  1  0.46691925  0.61311893  0.02546591  1.0
  C  C32  1  0.49055203  0.50877216  0.59382166  1.0
  C  C33  1  0.48412947  0.50231177  0.05084937  1.0
  C  C34  1  0.53250397  0.28771816  0.05351854  1.0
  C  C35  1  0.54847709  0.29211332  0.10283497  1.0
  C  C36  1  0.52448919  0.39791109  0.12738888  1.0
  C  C37  1  0.49259640  0.50447440  0.10165746  1.0
  C  C38  1  0.47106636  0.61355082  0.12625429  1.0
  C  C39  1  0.47502678  0.61729117  0.17880509  1.0
  C  C40  1  0.61074938  0.51664606  0.72190876  1.0
  C  C41  1  0.53489080  0.39767388  0.17978041  1.0
  C  C42  1  0.37867784  0.51354120  0.27735732  1.0
  C  C43  1  0.37483998  0.51146985  0.32684062  1.0
  C  C44  1  0.51017711  0.73591801  0.49371142  1.0
  C  C45  1  0.62027402  0.49617269  0.32867915  1.0
  C  C46  1  0.62483503  0.49911970  0.27913914  1.0
  C  C47  1  0.50377725  0.50754688  0.25374358  1.0
  C  C48  1  0.47437453  0.38770438  0.97515606  1.0
  C  C49  1  0.47768503  0.49993094  0.94951178  1.0
  C  C50  1  0.47799778  0.61247986  0.97373468  1.0
  C  C51  1  0.48770696  0.50284093  0.74631598  1.0
  C  C52  1  0.44949782  0.28131788  0.94888634  1.0
  C  C53  1  0.49609520  0.71982418  0.89756039  1.0
  C  C54  1  0.44388411  0.71874918  0.05122189  1.0
  C  C55  1  0.44426023  0.71894283  0.10083705  1.0
  C  C56  1  0.49131055  0.50032176  0.40624311  1.0
  C  C57  1  0.48873678  0.71950789  0.94705181  1.0
  C  C58  1  0.39797255  0.93583728  0.49682793  1.0
  C  C59  1  0.51085069  0.86882100  0.48985575  1.0
  C  C60  1  0.39433106  0.06638346  0.49593396  1.0
  C  C61  1  0.49975233  0.13669442  0.50828649  1.0
  C  C62  1  0.47895486  0.50194151  0.89867737  1.0
  C  C63  1  0.91967390  0.58147240  0.48114547  1.0
  C  C64  1  0.07021499  0.57724615  0.47786510  1.0
  C  C65  1  0.47107425  0.38954335  0.82095435  1.0
  C  C66  1  0.49544907  0.61390079  0.82054414  1.0
  C  C67  1  0.36564584  0.49144174  0.72184137  1.0
  C  C68  1  0.36706448  0.49352472  0.67234485  1.0
  C  C69  1  0.61133774  0.51936007  0.67236506  1.0
  C  C70  1  0.46818192  0.39210224  0.87372917  1.0
  C  C71  1  0.45035526  0.28580376  0.89853639  1.0
  C  C72  1  0.48998147  0.61164018  0.87317027  1.0
  C  C73  1  0.48966114  0.50756478  0.64722411  1.0
  C  C74  1  0.49548090  0.50270145  0.35290358  1.0
  N  N75  1  0.48580745  0.50161698  0.79771039  1.0
  N  N76  1  0.50593131  0.50792914  0.20238538  1.0
  N  N77  1  0.84531105  0.50005980  0.50045398  1.0
  N  N78  1  0.14893913  0.51142823  0.50497936  1.0
  N  N79  1  0.12431816  0.64753201  0.44259615  1.0
  N  N80  1  0.08986787  0.44300311  0.54248205  1.0
  N  N81  1  0.42578140  0.16988218  0.96969149  1.0
  O  O82  1  0.60929172  0.32237655  0.51319455  1.0
  O  O83  1  0.60054653  0.47514697  0.42794646  1.0
  O  O84  1  0.37677964  0.52404786  0.42620881  1.0
  O  O85  1  0.46145311  0.29577264  0.79837153  1.0
  O  O86  1  0.56523737  0.30739931  0.20314454  1.0
  O  O87  1  0.50725804  0.70756874  0.79721945  1.0
  O  O88  1  0.45273632  0.70963315  0.20142138  1.0
  O  O89  1  0.38419889  0.32191129  0.49507856  1.0
  O  O90  1  0.60262824  0.53216687  0.57286581  1.0
  O  O91  1  0.37814081  0.48561374  0.57336775  1.0
  O  O92  1  0.62413661  0.68281825  0.48666845  1.0
  O  O93  1  0.39820497  0.68357292  0.50397581  1.0
