# generated using pymatgen
data_Zn2H13C22IO8
_symmetry_space_group_name_H-M   'P 1'
_cell_length_a   18.44536393
_cell_length_b   18.94028562
_cell_length_c   18.93951439
_cell_angle_alpha   110.21243684
_cell_angle_beta   108.62431534
_cell_angle_gamma   108.68054969
_symmetry_Int_Tables_number   1
_chemical_formula_structural   Zn2H13C22IO8
_chemical_formula_sum   'Zn6 H39 C66 I3 O24'
_cell_volume   5148.16407077
_cell_formula_units_Z   3
loop_
 _symmetry_equiv_pos_site_id
 _symmetry_equiv_pos_as_xyz
  1  'x, y, z'
loop_
 _atom_site_type_symbol
 _atom_site_label
 _atom_site_symmetry_multiplicity
 _atom_site_fract_x
 _atom_site_fract_y
 _atom_site_fract_z
 _atom_site_occupancy
  Zn  Zn0  1  0.00775805  0.04556187  0.56440738  1.0
  Zn  Zn1  1  0.99175166  0.91509322  0.43073528  1.0
  Zn  Zn2  1  0.46646547  0.96787996  0.01373544  1.0
  Zn  Zn3  1  0.59044420  0.08754550  0.00933551  1.0
  Zn  Zn4  1  0.53184508  0.49040821  0.54477691  1.0
  Zn  Zn5  1  0.41992296  0.51022619  0.43023838  1.0
  H  H6  1  0.68455545  0.94644497  0.18589048  1.0
  H  H7  1  0.89262423  0.12589794  0.36477711  1.0
  H  H8  1  0.62349198  0.60323589  0.37064474  1.0
  H  H9  1  0.76703664  0.67351277  0.55382315  1.0
  H  H10  1  0.76060984  0.67657793  0.35844870  1.0
  H  H11  1  0.80363927  0.81131020  0.53597561  1.0
  H  H12  1  0.38394699  0.71845679  0.59007380  1.0
  H  H13  1  0.21658945  0.99917745  0.57251683  1.0
  H  H14  1  0.53631567  0.72330502  0.72448373  1.0
  H  H15  1  0.57765937  0.87958948  0.78922205  1.0
  H  H16  1  0.50277237  0.28390913  0.34401353  1.0
  H  H17  1  0.42170462  0.32689718  0.20617318  1.0
  H  H18  1  0.48060004  0.15850538  0.21865381  1.0
  H  H19  1  0.55830455  0.29759671  0.17560869  1.0
  H  H20  1  0.47007669  0.01688363  0.68022823  1.0
  H  H21  1  0.45259689  0.00664548  0.79948058  1.0
  H  H22  1  0.21966013  0.96242158  0.87233294  1.0
  H  H23  1  0.37856267  0.29946399  0.58144303  1.0
  H  H24  1  0.24238000  0.21107487  0.58949068  1.0
  H  H25  1  0.00970407  0.82406273  0.67034698  1.0
  H  H26  1  0.87445422  0.80160651  0.68221225  1.0
  H  H27  1  0.86867183  0.92463150  0.78015758  1.0
  H  H28  1  0.99956347  0.07045923  0.86798623  1.0
  H  H29  1  0.13524946  0.09223308  0.85758906  1.0
  H  H30  1  0.75499710  0.84833099  0.30986315  1.0
  H  H31  1  0.61274988  0.73965905  0.27822194  1.0
  H  H32  1  0.50118964  0.78167210  0.29289751  1.0
  H  H33  1  0.53284626  0.93320106  0.33926150  1.0
  H  H34  1  0.67491393  0.04183316  0.37046340  1.0
  H  H35  1  0.31303734  0.80732307  0.61146195  1.0
  H  H36  1  0.16290444  0.76961813  0.58828671  1.0
  H  H37  1  0.11461579  0.72528968  0.68213856  1.0
  H  H38  1  0.21868846  0.72014614  0.79979661  1.0
  H  H39  1  0.36995201  0.75925320  0.82384076  1.0
  H  H40  1  0.16711752  0.30589399  0.53624631  1.0
  H  H41  1  0.01634370  0.27356868  0.44710139  1.0
  H  H42  1  0.96638047  0.24500910  0.29667738  1.0
  H  H43  1  0.06931181  0.25089756  0.23683859  1.0
  H  H44  1  0.22040603  0.28491265  0.32662551  1.0
  C  C45  1  0.11870141  0.06023910  0.46758136  1.0
  C  C46  1  0.25543448  0.99334953  0.69058262  1.0
  C  C47  1  0.17717290  0.98409455  0.69502915  1.0
  C  C48  1  0.16381674  0.97269555  0.75938650  1.0
  C  C49  1  0.23006345  0.97225008  0.82224808  1.0
  C  C50  1  0.30888886  0.98636958  0.82339873  1.0
  C  C51  1  0.31030145  0.27427438  0.53553088  1.0
  C  C52  1  0.29355797  0.31600237  0.49210394  1.0
  C  C53  1  0.24432919  0.20196521  0.52980483  1.0
  C  C54  1  0.18584884  0.12297988  0.46085282  1.0
  C  C55  1  0.76016622  0.07885150  0.26999760  1.0
  C  C56  1  0.11002770  0.98910761  0.63018364  1.0
  C  C57  1  0.69304220  0.00949431  0.19557779  1.0
  C  C58  1  0.82498944  0.07649444  0.33635478  1.0
  C  C59  1  0.80982878  0.01838043  0.36316206  1.0
  C  C60  1  0.68924141  0.64435520  0.42633759  1.0
  C  C61  1  0.70188440  0.64074733  0.49884535  1.0
  C  C62  1  0.75677133  0.70058225  0.41789344  1.0
  C  C63  1  0.81044901  0.78386278  0.47908944  1.0
  C  C64  1  0.53592067  0.93489404  0.87946396  1.0
  C  C65  1  0.37866108  0.99451464  0.89750981  1.0
  C  C66  1  0.54541583  0.16817888  0.11760043  1.0
  C  C67  1  0.87642307  0.84592595  0.47248377  1.0
  C  C68  1  0.62605489  0.00804263  0.12563386  1.0
  C  C69  1  0.44251237  0.38829042  0.33869336  1.0
  C  C70  1  0.36948294  0.38754417  0.50303647  1.0
  C  C71  1  0.47682851  0.63273943  0.58854184  1.0
  C  C72  1  0.62753701  0.58901009  0.50524702  1.0
  C  C73  1  0.43657700  0.74250934  0.65375790  1.0
  C  C74  1  0.48780925  0.70553046  0.66134878  1.0
  C  C75  1  0.44067231  0.80532647  0.72910406  1.0
  C  C76  1  0.51957074  0.87018915  0.79667343  1.0
  C  C77  1  0.48420100  0.28042740  0.28139102  1.0
  C  C78  1  0.88780431  0.01940736  0.42225689  1.0
  C  C79  1  0.44844282  0.32955956  0.26792510  1.0
  C  C80  1  0.49712594  0.22060314  0.22125943  1.0
  C  C81  1  0.53344155  0.23568377  0.17297206  1.0
  C  C82  1  0.26807801  0.00157703  0.62294212  1.0
  C  C83  1  0.34389982  0.01016857  0.61999324  1.0
  C  C84  1  0.41078566  0.01122383  0.68365115  1.0
  C  C85  1  0.40041599  0.00489670  0.75047443  1.0
  C  C86  1  0.32361430  0.99623122  0.75679054  1.0
  C  C87  1  0.08155370  0.95966529  0.76369391  1.0
  C  C88  1  0.00742330  0.87802140  0.71379636  1.0
  C  C89  1  0.93141159  0.86557253  0.72022604  1.0
  C  C90  1  0.92817632  0.93448662  0.77548701  1.0
  C  C91  1  0.00170766  0.01615227  0.82499540  1.0
  C  C92  1  0.07800139  0.02847733  0.81946477  1.0
  C  C93  1  0.72412963  0.95223660  0.34125936  1.0
  C  C94  1  0.70618921  0.86681178  0.31611330  1.0
  C  C95  1  0.62610830  0.80586396  0.29825953  1.0
  C  C96  1  0.56343211  0.82928303  0.30625062  1.0
  C  C97  1  0.58117063  0.91430138  0.33206901  1.0
  C  C98  1  0.66077330  0.97534876  0.34946715  1.0
  C  C99  1  0.35231913  0.78696853  0.72023931  1.0
  C  C100  1  0.29252932  0.78804737  0.65286017  1.0
  C  C101  1  0.20785420  0.76678608  0.63975069  1.0
  C  C102  1  0.18098795  0.74227873  0.69254909  1.0
  C  C103  1  0.23939183  0.73944222  0.75854941  1.0
  C  C104  1  0.32449870  0.76159912  0.77248738  1.0
  C  C105  1  0.20400840  0.29674923  0.43739911  1.0
  C  C106  1  0.14531358  0.29293650  0.47020530  1.0
  C  C107  1  0.06049123  0.27458834  0.41999765  1.0
  C  C108  1  0.03269257  0.25921116  0.33579823  1.0
  C  C109  1  0.09052896  0.26283072  0.30250317  1.0
  C  C110  1  0.17557427  0.28191944  0.35287969  1.0
  I  I111  1  0.18345111  0.08172143  0.34198081  1.0
  I  I112  1  0.78139321  0.20566365  0.30362864  1.0
  I  I113  1  0.35995391  0.02154802  0.51850137  1.0
  O  O114  1  0.10147737  0.09111254  0.52732967  1.0
  O  O115  1  0.59342385  0.01368056  0.91002621  1.0
  O  O116  1  0.35603506  0.94742693  0.93048469  1.0
  O  O117  1  0.45711396  0.04850481  0.92545988  1.0
  O  O118  1  0.50542642  0.09223201  0.10376548  1.0
  O  O119  1  0.59641524  0.19106885  0.08691918  1.0
  O  O120  1  0.54601834  0.95357134  0.09701603  1.0
  O  O121  1  0.65131390  0.05805329  0.09781229  1.0
  O  O122  1  0.48231760  0.39961959  0.41341554  1.0
  O  O123  1  0.39759601  0.42586564  0.32019659  1.0
  O  O124  1  0.44740246  0.40526872  0.55258720  1.0
  O  O125  1  0.08188635  0.97958765  0.41265864  1.0
  O  O126  1  0.35259384  0.42647876  0.46258006  1.0
  O  O127  1  0.51902873  0.59483572  0.60865634  1.0
  O  O128  1  0.42536455  0.61095448  0.51096371  1.0
  O  O129  1  0.64388823  0.55890681  0.55676372  1.0
  O  O130  1  0.55276119  0.57781848  0.46029398  1.0
  O  O131  1  0.09169267  0.04934554  0.66007262  1.0
  O  O132  1  0.07739357  0.93608040  0.55118764  1.0
  O  O133  1  0.90908883  0.92482421  0.52656088  1.0
  O  O134  1  0.89694814  0.81747617  0.41318366  1.0
  O  O135  1  0.92494126  0.07317209  0.50306550  1.0
  O  O136  1  0.90983566  0.96552062  0.38811173  1.0
  O  O137  1  0.49488856  0.91074160  0.91638626  1.0
