# generated using pymatgen
data_Zn4H16C30O13
_symmetry_space_group_name_H-M   'P 1'
_cell_length_a   17.37273172
_cell_length_b   18.13388439
_cell_length_c   18.59008440
_cell_angle_alpha   89.69832660
_cell_angle_beta   90.01245496
_cell_angle_gamma   89.98954976
_symmetry_Int_Tables_number   1
_chemical_formula_structural   Zn4H16C30O13
_chemical_formula_sum   'Zn16 H64 C120 O52'
_cell_volume   5856.44784193
_cell_formula_units_Z   4
loop_
 _symmetry_equiv_pos_site_id
 _symmetry_equiv_pos_as_xyz
  1  'x, y, z'
loop_
 _atom_site_type_symbol
 _atom_site_label
 _atom_site_symmetry_multiplicity
 _atom_site_fract_x
 _atom_site_fract_y
 _atom_site_fract_z
 _atom_site_occupancy
  Zn  Zn0  1  0.82765584  0.94091705  0.68108613  1.0
  Zn  Zn1  1  0.69935829  0.61615611  0.18294685  1.0
  Zn  Zn2  1  0.82745589  0.11608436  0.68270241  1.0
  Zn  Zn3  1  0.69901266  0.44098611  0.18094480  1.0
  Zn  Zn4  1  0.69392742  0.02675579  0.59750839  1.0
  Zn  Zn5  1  0.69407233  0.02969779  0.76710745  1.0
  Zn  Zn6  1  0.83281600  0.52690237  0.09751841  1.0
  Zn  Zn7  1  0.83267602  0.52944400  0.26712654  1.0
  Zn  Zn8  1  0.17244791  0.88450831  0.31713450  1.0
  Zn  Zn9  1  0.30091015  0.55966806  0.81898501  1.0
  Zn  Zn10  1  0.17219847  0.05969786  0.31888519  1.0
  Zn  Zn11  1  0.30055128  0.38444675  0.81699492  1.0
  Zn  Zn12  1  0.30594590  0.97378465  0.40247227  1.0
  Zn  Zn13  1  0.30581880  0.97114920  0.23289502  1.0
  Zn  Zn14  1  0.16728351  0.47395981  0.90256903  1.0
  Zn  Zn15  1  0.16719384  0.47114696  0.73293361  1.0
  H  H16  1  0.31305731  0.97109769  0.58092349  1.0
  H  H17  1  0.86926352  0.78338451  0.52192758  1.0
  H  H18  1  0.65351747  0.86604622  0.44183864  1.0
  H  H19  1  0.65560623  0.77204356  0.34384475  1.0
  H  H20  1  0.87087351  0.68840646  0.42430623  1.0
  H  H21  1  0.06576753  0.14051301  0.71879764  1.0
  H  H22  1  0.20887275  0.13902867  0.72184508  1.0
  H  H23  1  0.20779149  0.91603212  0.64235965  1.0
  H  H24  1  0.07004604  0.46610302  0.08357426  1.0
  H  H25  1  0.67532582  0.78832125  0.03677194  1.0
  H  H26  1  0.85548597  0.67331169  0.92533428  1.0
  H  H27  1  0.85320854  0.76920455  0.82785928  1.0
  H  H28  1  0.67320254  0.88444126  0.93910649  1.0
  H  H29  1  0.46206433  0.41383795  0.15390703  1.0
  H  H30  1  0.07062473  0.58973105  0.28056002  1.0
  H  H31  1  0.21387982  0.59228528  0.27880743  1.0
  H  H32  1  0.45601534  0.97430287  0.57930099  1.0
  H  H33  1  0.85284861  0.28628956  0.53515079  1.0
  H  H34  1  0.67223936  0.17192275  0.42367903  1.0
  H  H35  1  0.67471938  0.26799299  0.32632778  1.0
  H  H36  1  0.85493602  0.38272164  0.43777760  1.0
  H  H37  1  0.06467755  0.91685071  0.64304119  1.0
  H  H38  1  0.45652132  0.08184893  0.78505258  1.0
  H  H39  1  0.31322877  0.08339083  0.78479680  1.0
  H  H40  1  0.21268093  0.46292422  0.08474058  1.0
  H  H41  1  0.65858572  0.28208327  0.02299765  1.0
  H  H42  1  0.87051006  0.36943327  0.93888593  1.0
  H  H43  1  0.86826498  0.27565542  0.84068822  1.0
  H  H44  1  0.65680232  0.18747143  0.92505765  1.0
  H  H45  1  0.46071008  0.64463825  0.20561752  1.0
  H  H46  1  0.31735175  0.64382789  0.20710580  1.0
  H  H47  1  0.31876851  0.41288952  0.15322300  1.0
  H  H48  1  0.68731391  0.02886282  0.41855521  1.0
  H  H49  1  0.14816499  0.71298869  0.46373640  1.0
  H  H50  1  0.32608956  0.82948049  0.57684364  1.0
  H  H51  1  0.32370970  0.73352634  0.67429465  1.0
  H  H52  1  0.14622148  0.61663033  0.56117074  1.0
  H  H53  1  0.93512808  0.08408334  0.35433329  1.0
  H  H54  1  0.92991812  0.53551771  0.91640633  1.0
  H  H55  1  0.34255755  0.71778177  0.97771107  1.0
  H  H56  1  0.12929977  0.63204652  0.06040377  1.0
  H  H57  1  0.13155463  0.72586796  0.15858738  1.0
  H  H58  1  0.34434208  0.81249796  0.07560239  1.0
  H  H59  1  0.53934619  0.35719327  0.78961213  1.0
  H  H60  1  0.92940529  0.41045244  0.72028979  1.0
  H  H61  1  0.78625954  0.40803638  0.72192638  1.0
  H  H62  1  0.54434848  0.02557602  0.42079761  1.0
  H  H63  1  0.12930401  0.21574906  0.47936103  1.0
  H  H64  1  0.34662685  0.13510764  0.55764881  1.0
  H  H65  1  0.34463592  0.22924958  0.65552616  1.0
  H  H66  1  0.12774811  0.31083329  0.57686914  1.0
  H  H67  1  0.93416110  0.85949412  0.28120000  1.0
  H  H68  1  0.79102541  0.86080209  0.27832245  1.0
  H  H69  1  0.79197390  0.08471646  0.35528749  1.0
  H  H70  1  0.54290300  0.91866340  0.21473069  1.0
  H  H71  1  0.68622659  0.91699552  0.21446770  1.0
  H  H72  1  0.78738514  0.53851095  0.91533840  1.0
  H  H73  1  0.32343883  0.21178530  0.96259058  1.0
  H  H74  1  0.14743582  0.32974827  0.07682472  1.0
  H  H75  1  0.14992335  0.23395554  0.17437749  1.0
  H  H76  1  0.32565766  0.11567798  0.06025277  1.0
  H  H77  1  0.53774519  0.58547867  0.85082878  1.0
  H  H78  1  0.68092476  0.58650805  0.85176219  1.0
  H  H79  1  0.68259808  0.35804853  0.78865412  1.0
  C  C80  1  0.76484139  0.66857973  0.32016141  1.0
  C  C81  1  0.34434495  0.99489376  0.62601291  1.0
  C  C82  1  0.76345846  0.72486625  0.37844592  1.0
  C  C83  1  0.76133075  0.83015581  0.48738231  1.0
  C  C84  1  0.76073856  0.88718416  0.54498183  1.0
  C  C85  1  0.82273982  0.78017891  0.48277188  1.0
  C  C86  1  0.70080226  0.82699058  0.43760541  1.0
  C  C87  1  0.70198149  0.77472476  0.38319596  1.0
  C  C88  1  0.82370671  0.72765928  0.42862773  1.0
  C  C89  1  0.09740328  0.09131511  0.70297456  1.0
  C  C90  1  0.17736916  0.09013063  0.70485395  1.0
  C  C91  1  0.17679477  0.96537794  0.65913669  1.0
  C  C92  1  0.76159281  0.88947255  0.81963040  1.0
  C  C93  1  0.10194402  0.49208801  0.12714225  1.0
  C  C94  1  0.76296060  0.83222249  0.87786895  1.0
  C  C95  1  0.76539582  0.72520942  0.98661672  1.0
  C  C96  1  0.76633885  0.66788429  0.04469403  1.0
  C  C97  1  0.71397788  0.78473400  0.99077546  1.0
  C  C98  1  0.81568386  0.71958764  0.92785743  1.0
  C  C99  1  0.81447236  0.77281079  0.87376749  1.0
  C  C100  1  0.71276350  0.83794557  0.93668716  1.0
  C  C101  1  0.42983677  0.46405184  0.16497274  1.0
  C  C102  1  0.10240312  0.56286183  0.23746931  1.0
  C  C103  1  0.18240068  0.56391046  0.23638709  1.0
  C  C104  1  0.76602370  0.38848214  0.31868610  1.0
  C  C105  1  0.42433031  0.99689468  0.62475396  1.0
  C  C106  1  0.76505506  0.33076917  0.37647373  1.0
  C  C107  1  0.76266892  0.22344464  0.48492650  1.0
  C  C108  1  0.76124842  0.16632818  0.54319938  1.0
  C  C109  1  0.81421812  0.28282659  0.48914450  1.0
  C  C110  1  0.71232798  0.21801592  0.42615108  1.0
  C  C111  1  0.71355823  0.27137861  0.37217937  1.0
  C  C112  1  0.81540002  0.33621285  0.43522598  1.0
  C  C113  1  0.09679988  0.96554134  0.65942398  1.0
  C  C114  1  0.42448479  0.05853207  0.74019746  1.0
  C  C115  1  0.34446734  0.05909696  0.73986457  1.0
  C  C116  1  0.76114720  0.16964387  0.81913031  1.0
  C  C117  1  0.18194437  0.49045889  0.12805776  1.0
  C  C118  1  0.76229865  0.22620206  0.87720137  1.0
  C  C119  1  0.76464297  0.33114332  0.98652318  1.0
  C  C120  1  0.76538692  0.38782102  0.04446532  1.0
  C  C121  1  0.70422917  0.27997781  0.98289264  1.0
  C  C122  1  0.82400265  0.32944235  0.93545296  1.0
  C  C123  1  0.82270383  0.27734262  0.88088362  1.0
  C  C124  1  0.70314913  0.22766783  0.92857345  1.0
  C  C125  1  0.42905829  0.59399997  0.19490680  1.0
  C  C126  1  0.34904173  0.59319322  0.19606479  1.0
  C  C127  1  0.34983205  0.46384229  0.16450628  1.0
  C  C128  1  0.46504797  0.02815144  0.68221566  1.0
  C  C129  1  0.97071664  0.02900214  0.68097506  1.0
  C  C130  1  0.55070970  0.02884783  0.68191921  1.0
  C  C131  1  0.30316922  0.02681278  0.68308265  1.0
  C  C132  1  0.05642290  0.02872236  0.68092727  1.0
  C  C133  1  0.21832925  0.02737372  0.68253249  1.0
  C  C134  1  0.06156363  0.52777093  0.18223848  1.0
  C  C135  1  0.55590640  0.52934581  0.18070977  1.0
  C  C136  1  0.97590448  0.52865023  0.18205020  1.0
  C  C137  1  0.22334362  0.52726225  0.18197494  1.0
  C  C138  1  0.47015586  0.52921501  0.18006177  1.0
  C  C139  1  0.30819420  0.52813517  0.18086623  1.0
  C  C140  1  0.23374542  0.61201616  0.68118062  1.0
  C  C141  1  0.65580063  0.00514648  0.37356185  1.0
  C  C142  1  0.23474515  0.66963728  0.62329909  1.0
  C  C143  1  0.23700925  0.77690686  0.51477921  1.0
  C  C144  1  0.23824555  0.83411189  0.45659108  1.0
  C  C145  1  0.18626822  0.71691729  0.51009432  1.0
  C  C146  1  0.28664103  0.78291785  0.57401245  1.0
  C  C147  1  0.28547467  0.72960189  0.62803515  1.0
  C  C148  1  0.18516057  0.66356731  0.56405471  1.0
  C  C149  1  0.90302830  0.03513720  0.33863056  1.0
  C  C150  1  0.23914455  0.83112836  0.18076965  1.0
  C  C151  1  0.89803459  0.50913674  0.87305667  1.0
  C  C152  1  0.23815947  0.77450822  0.12276278  1.0
  C  C153  1  0.23584797  0.66957287  0.01349905  1.0
  C  C154  1  0.23495721  0.61300130  0.95546679  1.0
  C  C155  1  0.29665616  0.72026632  0.01752837  1.0
  C  C156  1  0.17611636  0.67169128  0.06417386  1.0
  C  C157  1  0.17740712  0.72379438  0.11872545  1.0
  C  C158  1  0.29771777  0.77260504  0.07182758  1.0
  C  C159  1  0.57090733  0.40731941  0.80251351  1.0
  C  C160  1  0.89763548  0.43762544  0.76320489  1.0
  C  C161  1  0.81764828  0.43663371  0.76424985  1.0
  C  C162  1  0.23469523  0.33181518  0.68001755  1.0
  C  C163  1  0.57581589  0.00311930  0.37515116  1.0
  C  C164  1  0.23597054  0.27541482  0.62182422  1.0
  C  C165  1  0.23802402  0.16997438  0.51301356  1.0
  C  C166  1  0.23871520  0.11302398  0.45533692  1.0
  C  C167  1  0.17617357  0.21940788  0.51812560  1.0
  C  C168  1  0.29899390  0.17373376  0.56227956  1.0
  C  C169  1  0.29786070  0.22607146  0.61661674  1.0
  C  C170  1  0.17524466  0.27199940  0.57219588  1.0
  C  C171  1  0.90250225  0.90883346  0.29651384  1.0
  C  C172  1  0.82252776  0.90991507  0.29474821  1.0
  C  C173  1  0.82303402  0.03521416  0.33907514  1.0
  C  C174  1  0.57515655  0.94179288  0.25953897  1.0
  C  C175  1  0.65517454  0.94117421  0.25957023  1.0
  C  C176  1  0.23914276  0.11190224  0.18093346  1.0
  C  C177  1  0.81804462  0.51068033  0.87215860  1.0
  C  C178  1  0.23802422  0.16938661  0.12291382  1.0
  C  C179  1  0.23542438  0.27633422  0.01411509  1.0
  C  C180  1  0.23416475  0.33344096  0.95584681  1.0
  C  C181  1  0.28576532  0.21604299  0.00921803  1.0
  C  C182  1  0.18639349  0.28284809  0.07371030  1.0
  C  C183  1  0.18771206  0.22966451  0.12784641  1.0
  C  C184  1  0.28704475  0.16285345  0.06331704  1.0
  C  C185  1  0.56999317  0.53582898  0.83769493  1.0
  C  C186  1  0.64998928  0.53605402  0.83834908  1.0
  C  C187  1  0.65092737  0.40819431  0.80164260  1.0
  C  C188  1  0.53485301  0.97204161  0.31775298  1.0
  C  C189  1  0.02915081  0.97146999  0.31795521  1.0
  C  C190  1  0.44918323  0.97148038  0.31823413  1.0
  C  C191  1  0.69670003  0.97334996  0.31626477  1.0
  C  C192  1  0.94343474  0.97171935  0.31783524  1.0
  C  C193  1  0.78155147  0.97286814  0.31651725  1.0
  C  C194  1  0.93846340  0.47306323  0.81822234  1.0
  C  C195  1  0.44398760  0.47125151  0.81903568  1.0
  C  C196  1  0.02410816  0.47219218  0.81841706  1.0
  C  C197  1  0.77662298  0.47352069  0.81846450  1.0
  C  C198  1  0.52974277  0.47137801  0.81984560  1.0
  C  C199  1  0.69177413  0.47255312  0.81950137  1.0
  O  O200  1  0.71142974  0.93902260  0.53843111  1.0
  O  O201  1  0.81343941  0.61624304  0.32704363  1.0
  O  O202  1  0.80949515  0.87969274  0.59586989  1.0
  O  O203  1  0.71746315  0.67745133  0.26824843  1.0
  O  O204  1  0.93717801  0.96644039  0.67679883  1.0
  O  O205  1  0.81316124  0.61411884  0.03669541  1.0
  O  O206  1  0.71273910  0.94159085  0.82645016  1.0
  O  O207  1  0.72026266  0.67722429  0.09727530  1.0
  O  O208  1  0.80928936  0.88135775  0.76806659  1.0
  O  O209  1  0.58937909  0.59210690  0.18354017  1.0
  O  O210  1  0.71380755  0.11304658  0.53552665  1.0
  O  O211  1  0.81469641  0.44071086  0.32576080  1.0
  O  O212  1  0.80743004  0.17555156  0.59574355  1.0
  O  O213  1  0.71810315  0.38064999  0.26725437  1.0
  O  O214  1  0.93733474  0.09170910  0.68539642  1.0
  O  O215  1  0.81491524  0.43946446  0.03830117  1.0
  O  O216  1  0.71282040  0.11711961  0.82633127  1.0
  O  O217  1  0.71646974  0.38030818  0.09522837  1.0
  O  O218  1  0.80845414  0.17834463  0.76716395  1.0
  O  O219  1  0.58942038  0.46663989  0.17855845  1.0
  O  O220  1  0.76102959  0.02851778  0.68213622  1.0
  O  O221  1  0.58393510  0.02317597  0.62081835  1.0
  O  O222  1  0.58428603  0.03505881  0.74276784  1.0
  O  O223  1  0.76564511  0.52853768  0.18216193  1.0
  O  O224  1  0.94270289  0.52211765  0.12102654  1.0
  O  O225  1  0.94241985  0.53598188  0.24278583  1.0
  O  O226  1  0.28539804  0.88760479  0.46444290  1.0
  O  O227  1  0.18518093  0.55969436  0.67405884  1.0
  O  O228  1  0.19219172  0.82479111  0.40396756  1.0
  O  O229  1  0.28150538  0.61999803  0.73271577  1.0
  O  O230  1  0.06255635  0.90874313  0.31396156  1.0
  O  O231  1  0.18519804  0.56156168  0.96151581  1.0
  O  O232  1  0.28734702  0.88376018  0.17356356  1.0
  O  O233  1  0.28394061  0.62042248  0.90474863  1.0
  O  O234  1  0.19180020  0.82235663  0.23267540  1.0
  O  O235  1  0.41048291  0.53393381  0.82176479  1.0
  O  O236  1  0.28850861  0.06156643  0.46152415  1.0
  O  O237  1  0.18610354  0.38415902  0.67313854  1.0
  O  O238  1  0.18958395  0.12023123  0.40472873  1.0
  O  O239  1  0.28217937  0.32301104  0.73185721  1.0
  O  O240  1  0.06267329  0.03406215  0.32190060  1.0
  O  O241  1  0.18744138  0.38727019  0.96391252  1.0
  O  O242  1  0.28742833  0.05935896  0.17365267  1.0
  O  O243  1  0.27985240  0.32383423  0.90300906  1.0
  O  O244  1  0.19176684  0.12018074  0.23272389  1.0
  O  O245  1  0.41053383  0.40851095  0.81554842  1.0
  O  O246  1  0.23883163  0.97210375  0.31783455  1.0
  O  O247  1  0.41603095  0.97703794  0.37939016  1.0
  O  O248  1  0.41553205  0.96552635  0.25740259  1.0
  O  O249  1  0.23430072  0.47210308  0.81783408  1.0
  O  O250  1  0.05732701  0.47886214  0.87941724  1.0
  O  O251  1  0.05755539  0.46471384  0.75768611  1.0
