# generated using pymatgen
data_AlH27(C5O)9
_symmetry_space_group_name_H-M   'P 1'
_cell_length_a   3.96818786
_cell_length_b   23.52258514
_cell_length_c   23.52724251
_cell_angle_alpha   60.02267277
_cell_angle_beta   87.24099345
_cell_angle_gamma   86.94417649
_symmetry_Int_Tables_number   1
_chemical_formula_structural   AlH27(C5O)9
_chemical_formula_sum   'Al1 H27 C45 O9'
_cell_volume   1899.00431018
_cell_formula_units_Z   1
loop_
 _symmetry_equiv_pos_site_id
 _symmetry_equiv_pos_as_xyz
  1  'x, y, z'
loop_
 _atom_site_type_symbol
 _atom_site_label
 _atom_site_symmetry_multiplicity
 _atom_site_fract_x
 _atom_site_fract_y
 _atom_site_fract_z
 _atom_site_occupancy
  Al  Al0  1  0.00039696  0.49964827  0.50011858  1.0
  H  H1  1  0.48625620  0.31811570  0.68100466  1.0
  H  H2  1  0.46938886  0.25635857  0.80221590  1.0
  H  H3  1  0.85185071  0.16650142  0.01315325  1.0
  H  H4  1  0.43280363  0.68297775  0.31758228  1.0
  H  H5  1  0.48536763  0.80358548  0.25724917  1.0
  H  H6  1  0.22792362  0.89692332  0.22754061  1.0
  H  H7  1  0.23701219  0.01692778  0.16562435  1.0
  H  H8  1  0.52608776  0.10627908  0.10477400  1.0
  H  H9  1  0.51225635  0.68009291  0.50059259  1.0
  H  H10  1  0.49240797  0.80114187  0.44189351  1.0
  H  H11  1  0.83132013  0.01245336  0.31690232  1.0
  H  H12  1  0.51112704  0.31733211  0.49929866  1.0
  H  H13  1  0.55826412  0.25724334  0.43766939  1.0
  H  H14  1  0.26088859  0.23078187  0.37849492  1.0
  H  H15  1  0.25235276  0.16839379  0.32055310  1.0
  H  H16  1  0.54491405  0.10487626  0.28813755  1.0
  H  H17  1  0.56448618  0.50084903  0.31796593  1.0
  H  H18  1  0.54450950  0.44221160  0.25582708  1.0
  H  H19  1  0.87214752  0.31354650  0.16496349  1.0
  H  H20  1  0.46886614  0.49991080  0.68333331  1.0
  H  H21  1  0.51162525  0.43812725  0.80438521  1.0
  H  H22  1  0.20351082  0.37755148  0.89693358  1.0
  H  H23  1  0.21658218  0.31913722  0.01756750  1.0
  H  H24  1  0.54776632  0.28813159  0.10601178  1.0
  H  H25  1  0.96494581  0.39907324  0.24683675  1.0
  H  H26  1  0.90277783  0.24907617  0.84312723  1.0
  H  H27  1  0.91041685  0.84406154  0.40182094  1.0
  C  C28  1  0.48736130  0.44968598  0.60121531  1.0
  C  C29  1  0.52904530  0.44882055  0.44977231  1.0
  C  C30  1  0.48367996  0.60064726  0.44911232  1.0
  C  C31  1  0.48820864  0.34430070  0.70831991  1.0
  C  C32  1  0.48758434  0.30968997  0.77665782  1.0
  C  C33  1  0.69756709  0.24552902  0.92032405  1.0
  C  C34  1  0.70025070  0.21197874  0.98870544  1.0
  C  C35  1  0.45632397  0.70927181  0.34436652  1.0
  C  C36  1  0.48113172  0.77715444  0.31075094  1.0
  C  C37  1  0.36986743  0.92215664  0.24639021  1.0
  C  C38  1  0.37390407  0.99016698  0.21122039  1.0
  C  C39  1  0.48186935  0.41295293  0.67431984  1.0
  C  C40  1  0.50159972  0.34234666  0.81308255  1.0
  C  C41  1  0.51736554  0.30629190  0.88532050  1.0
  C  C42  1  0.53169562  0.23779591  0.02481013  1.0
  C  C43  1  0.53610884  0.20128714  0.09723917  1.0
  C  C44  1  0.53184342  0.13253802  0.13195509  1.0
  C  C45  1  0.50138715  0.70753481  0.44718883  1.0
  C  C46  1  0.50105792  0.77585019  0.41358231  1.0
  C  C47  1  0.68898590  0.91991953  0.33186681  1.0
  C  C48  1  0.68809794  0.98831286  0.29710932  1.0
  C  C49  1  0.52863136  0.34423467  0.44580653  1.0
  C  C50  1  0.55011381  0.31077927  0.41097044  1.0
  C  C51  1  0.40350574  0.24807812  0.33232361  1.0
  C  C52  1  0.39854395  0.21262854  0.29978111  1.0
  C  C53  1  0.47807123  0.67360906  0.41287465  1.0
  C  C54  1  0.50407049  0.81249942  0.34422985  1.0
  C  C55  1  0.52278829  0.88467722  0.30777987  1.0
  C  C56  1  0.53129647  0.02461912  0.23664970  1.0
  C  C57  1  0.53471593  0.09705753  0.20069421  1.0
  C  C58  1  0.54267543  0.13180576  0.23466378  1.0
  C  C59  1  0.55975688  0.44737330  0.34402146  1.0
  C  C60  1  0.55803053  0.41380700  0.30923250  1.0
  C  C61  1  0.73796256  0.33023692  0.24434275  1.0
  C  C62  1  0.72841840  0.29523131  0.21106121  1.0
  C  C63  1  0.47670027  0.44635489  0.70971649  1.0
  C  C64  1  0.49623241  0.41149864  0.77774116  1.0
  C  C65  1  0.35316429  0.33186015  0.92251544  1.0
  C  C66  1  0.35972179  0.29901276  0.99056133  1.0
  C  C67  1  0.54146477  0.41287620  0.41260412  1.0
  C  C68  1  0.56199203  0.34450523  0.34176372  1.0
  C  C69  1  0.56916234  0.30792945  0.30586479  1.0
  C  C70  1  0.55902032  0.23635429  0.23778115  1.0
  C  C71  1  0.54837769  0.20050164  0.20132010  1.0
  C  C72  1  0.54421831  0.23462741  0.13255512  1.0
  O  O73  1  0.26096726  0.57188598  0.43608438  1.0
  O  O74  1  0.24744248  0.49145675  0.57243716  1.0
  O  O75  1  0.28923096  0.43591605  0.49222910  1.0
  O  O76  1  0.71402651  0.57149516  0.49132771  1.0
  O  O77  1  0.75688731  0.49022377  0.43671499  1.0
  O  O78  1  0.73420555  0.43656636  0.57233658  1.0
  O  O79  1  0.92622444  0.38543531  0.21474276  1.0
  O  O80  1  0.88630888  0.21728023  0.89005691  1.0
  O  O81  1  0.86744666  0.89027089  0.38862009  1.0
