# generated using pymatgen
data_ZnH14C27I2NO4
_symmetry_space_group_name_H-M   'P 1'
_cell_length_a   15.28855434
_cell_length_b   18.31641492
_cell_length_c   19.71798208
_cell_angle_alpha   90.00102179
_cell_angle_beta   90.40782905
_cell_angle_gamma   89.99907417
_symmetry_Int_Tables_number   1
_chemical_formula_structural   ZnH14C27I2NO4
_chemical_formula_sum   'Zn2 H28 C54 I4 N2 O8'
_cell_volume   5521.51631452
_cell_formula_units_Z   2
loop_
 _symmetry_equiv_pos_site_id
 _symmetry_equiv_pos_as_xyz
  1  'x, y, z'
loop_
 _atom_site_type_symbol
 _atom_site_label
 _atom_site_symmetry_multiplicity
 _atom_site_fract_x
 _atom_site_fract_y
 _atom_site_fract_z
 _atom_site_occupancy
  Zn  Zn0  1  0.50000005  0.42294461  0.49999822  1.0
  Zn  Zn1  1  0.49999874  0.57705556  0.50000241  1.0
  H  H2  1  0.77778731  0.61701736  0.50022479  1.0
  H  H3  1  0.22221343  0.38298390  0.49977230  1.0
  H  H4  1  0.36010291  0.06731792  0.48554464  1.0
  H  H5  1  0.63989850  0.93268170  0.51445498  1.0
  H  H6  1  0.63989701  0.06731804  0.51445613  1.0
  H  H7  1  0.36010374  0.93268214  0.48554450  1.0
  H  H8  1  0.77778327  0.38298302  0.50006936  1.0
  H  H9  1  0.22221421  0.61701824  0.49993076  1.0
  H  H10  1  0.91899803  0.31412418  0.49986690  1.0
  H  H11  1  0.08100076  0.68587599  0.50013424  1.0
  H  H12  1  0.08100483  0.31412638  0.49986776  1.0
  H  H13  1  0.91899396  0.68587379  0.50013185  1.0
  H  H14  1  0.50034508  0.61699197  0.71682089  1.0
  H  H15  1  0.49965501  0.38300602  0.28317923  1.0
  H  H16  1  0.49964615  0.61699068  0.28317841  1.0
  H  H17  1  0.50035001  0.38300840  0.71681917  1.0
  H  H18  1  0.64102631  0.50002671  0.93798674  1.0
  H  H19  1  0.35897313  0.49996964  0.06201135  1.0
  H  H20  1  0.64057807  0.50002023  0.06423756  1.0
  H  H21  1  0.35942136  0.49997667  0.93576003  1.0
  H  H22  1  0.59582079  0.30628729  0.57449710  1.0
  H  H23  1  0.40417865  0.69371233  0.42550404  1.0
  H  H24  1  0.40417967  0.30628554  0.42550166  1.0
  H  H25  1  0.59582239  0.69371354  0.57449746  1.0
  H  H26  1  0.59947226  0.16973055  0.57848307  1.0
  H  H27  1  0.40052784  0.83026853  0.42151756  1.0
  H  H28  1  0.40052742  0.16972933  0.42151720  1.0
  H  H29  1  0.59947464  0.83026975  0.57848293  1.0
  C  C30  1  0.49895020  0.49999978  0.36659044  1.0
  C  C31  1  0.50104924  0.50000257  0.63340817  1.0
  C  C32  1  0.04465942  0.36544739  0.49988842  1.0
  C  C33  1  0.95534002  0.63455442  0.50011221  1.0
  C  C34  1  0.50063218  0.56608164  0.74523277  1.0
  C  C35  1  0.49936727  0.43391743  0.25476786  1.0
  C  C36  1  0.49936211  0.56607867  0.25476680  1.0
  C  C37  1  0.50063470  0.43392150  0.74523078  1.0
  C  C38  1  0.50052729  0.56544034  0.81587317  1.0
  C  C39  1  0.49947281  0.43455764  0.18412796  1.0
  C  C40  1  0.49946701  0.56543315  0.18412588  1.0
  C  C41  1  0.50052981  0.43456266  0.81587069  1.0
  C  C42  1  0.50049327  0.50000108  0.85349467  1.0
  C  C43  1  0.49950551  0.49999527  0.14650342  1.0
  C  C44  1  0.50081260  0.50000174  0.70974696  1.0
  C  C45  1  0.49918814  0.49999897  0.29025215  1.0
  C  C46  1  0.57922806  0.50001072  0.96530609  1.0
  C  C47  1  0.42077203  0.49998509  0.03469302  1.0
  C  C48  1  0.57898363  0.50001566  0.03596256  1.0
  C  C49  1  0.42101581  0.49998069  0.96403655  1.0
  C  C50  1  0.49973542  0.49999557  0.07117383  1.0
  C  C51  1  0.50026468  0.50000133  0.92882477  1.0
  C  C52  1  0.55394232  0.27335244  0.54157340  1.0
  C  C53  1  0.44605909  0.72664718  0.45842723  1.0
  C  C54  1  0.44605778  0.27335160  0.45842588  1.0
  C  C55  1  0.55394298  0.72664857  0.54157527  1.0
  C  C56  1  0.55593406  0.19757614  0.54297840  1.0
  C  C57  1  0.44406604  0.80242348  0.45702274  1.0
  C  C58  1  0.44406538  0.19757586  0.45702127  1.0
  C  C59  1  0.55593668  0.80242431  0.54297785  1.0
  C  C60  1  0.49999859  0.15771695  0.50000029  1.0
  C  C61  1  0.50000216  0.84228268  0.49999983  1.0
  C  C62  1  0.32895332  0.50000405  0.49908465  1.0
  C  C63  1  0.67104612  0.50000268  0.50091547  1.0
  C  C64  1  0.42182946  0.03795132  0.49084234  1.0
  C  C65  1  0.57817195  0.96204775  0.50915830  1.0
  C  C66  1  0.57816940  0.03795262  0.50915647  1.0
  C  C67  1  0.42183201  0.96204592  0.49084366  1.0
  C  C68  1  0.50000313  0.92277278  0.50000094  1.0
  C  C69  1  0.49999828  0.07722630  0.49999969  1.0
  C  C70  1  0.81491423  0.56619971  0.50037589  1.0
  C  C71  1  0.18508652  0.43380210  0.49962373  1.0
  C  C72  1  0.76923274  0.50000165  0.50058341  1.0
  C  C73  1  0.23076604  0.50000125  0.49941519  1.0
  C  C74  1  0.81491255  0.43380317  0.50028107  1.0
  C  C75  1  0.18508690  0.56619919  0.49972006  1.0
  C  C76  1  0.90661555  0.43241821  0.50007625  1.0
  C  C77  1  0.09338390  0.56758251  0.49992540  1.0
  C  C78  1  0.95351101  0.50000081  0.50008013  1.0
  C  C79  1  0.04648844  0.49999991  0.49992152  1.0
  C  C80  1  0.90661789  0.56758440  0.50017565  1.0
  C  C81  1  0.09338352  0.43241632  0.49982499  1.0
  C  C82  1  0.95533408  0.36544717  0.49992811  1.0
  C  C83  1  0.04466471  0.63455410  0.50007251  1.0
  I  I84  1  0.50064382  0.66710215  0.86662564  1.0
  I  I85  1  0.49935628  0.33289420  0.13337448  1.0
  I  I86  1  0.49933324  0.66709770  0.13337283  1.0
  I  I87  1  0.50065311  0.33290028  0.86662268  1.0
  N  N88  1  0.50000054  0.31068192  0.49999891  1.0
  N  N89  1  0.50000218  0.68931825  0.50000123  1.0
  O  O90  1  0.49886913  0.43799833  0.39565967  1.0
  O  O91  1  0.50112899  0.56200075  0.60433741  1.0
  O  O92  1  0.50113084  0.43800050  0.60433801  1.0
  O  O93  1  0.49886860  0.56199803  0.39566059  1.0
  O  O94  1  0.36693043  0.43805539  0.49896748  1.0
  O  O95  1  0.63306770  0.56194860  0.50103315  1.0
  O  O96  1  0.63306886  0.43805536  0.50102310  1.0
  O  O97  1  0.36693254  0.56194918  0.49897551  1.0
