# generated using pymatgen
data_ZnH4C15S(NO3)5
_symmetry_space_group_name_H-M   'P 1'
_cell_length_a   9.20951920
_cell_length_b   17.86893183
_cell_length_c   34.73844699
_cell_angle_alpha   90.20007917
_cell_angle_beta   89.80716529
_cell_angle_gamma   89.92435778
_symmetry_Int_Tables_number   1
_chemical_formula_structural   ZnH4C15S(NO3)5
_chemical_formula_sum   'Zn4 H16 C60 S4 N20 O60'
_cell_volume   5716.63489273
_cell_formula_units_Z   4
loop_
 _symmetry_equiv_pos_site_id
 _symmetry_equiv_pos_as_xyz
  1  'x, y, z'
loop_
 _atom_site_type_symbol
 _atom_site_label
 _atom_site_symmetry_multiplicity
 _atom_site_fract_x
 _atom_site_fract_y
 _atom_site_fract_z
 _atom_site_occupancy
  Zn  Zn0  1  0.35926817  0.99435563  0.49984893  1.0
  Zn  Zn1  1  0.64136245  0.00565614  0.49960411  1.0
  Zn  Zn2  1  0.73801653  0.99239654  0.00022246  1.0
  Zn  Zn3  1  0.45590658  0.00422240  0.00038251  1.0
  H  H4  1  0.28149653  0.76635288  0.50051747  1.0
  H  H5  1  0.26682729  0.62838810  0.49813346  1.0
  H  H6  1  0.73577432  0.61774169  0.49637571  1.0
  H  H7  1  0.26261333  0.38225818  0.49586623  1.0
  H  H8  1  0.71617996  0.23346260  0.50159393  1.0
  H  H9  1  0.73142088  0.37131505  0.49899705  1.0
  H  H10  1  0.81472484  0.76454528  0.99956366  1.0
  H  H11  1  0.83010629  0.62667273  0.00231997  1.0
  H  H12  1  0.36125349  0.61609475  0.00470159  1.0
  H  H13  1  0.83462489  0.38009166  0.00482529  1.0
  H  H14  1  0.38033787  0.23237979  0.99895920  1.0
  H  H15  1  0.36575119  0.37032937  0.00184578  1.0
  H  H16  1  0.76390359  0.85683198  0.52753262  1.0
  H  H17  1  0.23232644  0.14383106  0.52710578  1.0
  H  H18  1  0.33119475  0.85456096  0.97344370  1.0
  H  H19  1  0.86348475  0.14133563  0.97301989  1.0
  C  C20  1  0.50703930  0.85446623  0.50061025  1.0
  C  C21  1  0.50150890  0.99984898  0.42536538  1.0
  C  C22  1  0.49071868  0.14547139  0.50112975  1.0
  C  C23  1  0.50231312  0.99982927  0.57482365  1.0
  C  C24  1  0.58882840  0.85270848  0.99954484  1.0
  C  C25  1  0.59717406  0.99889900  0.07461850  1.0
  C  C26  1  0.60548280  0.14383822  0.99914915  1.0
  C  C27  1  0.59626042  0.99763701  0.92526634  1.0
  C  C28  1  0.59537127  0.99864409  0.11797311  1.0
  C  C29  1  0.46454204  0.99713096  0.13892869  1.0
  C  C30  1  0.46106575  0.00091757  0.17892583  1.0
  C  C31  1  0.59078421  0.99707255  0.20035511  1.0
  C  C32  1  0.72153028  0.99501300  0.17931532  1.0
  C  C33  1  0.72415168  0.00008592  0.13945018  1.0
  C  C34  1  0.37629190  0.99580269  0.32070707  1.0
  C  C35  1  0.50680518  0.99771994  0.29958241  1.0
  C  C36  1  0.63668807  0.00168408  0.32094940  1.0
  C  C37  1  0.63361441  0.99789716  0.36094105  1.0
  C  C38  1  0.50298023  0.99945863  0.38199170  1.0
  C  C39  1  0.37403739  0.00091008  0.36059156  1.0
  C  C40  1  0.59503675  0.99774587  0.88187461  1.0
  C  C41  1  0.46463252  0.00034773  0.86100143  1.0
  C  C42  1  0.46167403  0.99606304  0.82102955  1.0
  C  C43  1  0.59177936  0.99926086  0.79953568  1.0
  C  C44  1  0.72225938  0.00038055  0.82045627  1.0
  C  C45  1  0.72403231  0.99497969  0.86030495  1.0
  C  C46  1  0.37685690  0.00154487  0.67969951  1.0
  C  C47  1  0.50747636  0.00022653  0.70055817  1.0
  C  C48  1  0.63749901  0.99749254  0.67898451  1.0
  C  C49  1  0.63421125  0.00213177  0.63904055  1.0
  C  C50  1  0.50369991  0.99959897  0.61822004  1.0
  C  C51  1  0.37486328  0.99653262  0.63982355  1.0
  C  C52  1  0.51467265  0.77132013  0.49917334  1.0
  C  C53  1  0.38076374  0.73328451  0.49929266  1.0
  C  C54  1  0.37232154  0.65588302  0.49796307  1.0
  C  C55  1  0.50074535  0.61303950  0.49675887  1.0
  C  C56  1  0.63578671  0.65023673  0.49681385  1.0
  C  C57  1  0.64391279  0.72778438  0.49786880  1.0
  C  C58  1  0.49809819  0.53408364  0.49617479  1.0
  C  C59  1  0.50051560  0.46579025  0.49624193  1.0
  C  C60  1  0.49760801  0.38684285  0.49701142  1.0
  C  C61  1  0.36248465  0.34972797  0.49672659  1.0
  C  C62  1  0.35412625  0.27220860  0.49788597  1.0
  C  C63  1  0.48307661  0.22860512  0.49966407  1.0
  C  C64  1  0.61706778  0.26656276  0.50009443  1.0
  C  C65  1  0.62582756  0.34392608  0.49865380  1.0
  C  C66  1  0.58153441  0.76958765  0.00117490  1.0
  C  C67  1  0.71561646  0.73153144  0.00097378  1.0
  C  C68  1  0.72446130  0.65416248  0.00250019  1.0
  C  C69  1  0.59627241  0.61136892  0.00393410  1.0
  C  C70  1  0.46106408  0.64857230  0.00398592  1.0
  C  C71  1  0.45257515  0.72608161  0.00279198  1.0
  C  C72  1  0.59929398  0.53244895  0.00465700  1.0
  C  C73  1  0.59695897  0.46417016  0.00461478  1.0
  C  C74  1  0.59960472  0.38524347  0.00380939  1.0
  C  C75  1  0.73459375  0.34781112  0.00397188  1.0
  C  C76  1  0.74258697  0.27027028  0.00265066  1.0
  C  C77  1  0.61341235  0.22697760  0.00083275  1.0
  C  C78  1  0.47958381  0.26524778  0.00052244  1.0
  C  C79  1  0.47118552  0.34264581  0.00213298  1.0
  S  S80  1  0.82821676  0.76244412  0.49668373  1.0
  S  S81  1  0.17009723  0.23746384  0.49590549  1.0
  S  S82  1  0.26832573  0.76086394  0.00457160  1.0
  S  S83  1  0.92653721  0.23503225  0.00434445  1.0
  N  N84  1  0.60730550  0.99609974  0.24038234  1.0
  N  N85  1  0.49007338  0.99649394  0.25955964  1.0
  N  N86  1  0.60838639  0.00046284  0.75950258  1.0
  N  N87  1  0.49099027  0.00096451  0.74059987  1.0
  N  N88  1  0.86831017  0.00839336  0.12057897  1.0
  N  N89  1  0.85967267  0.98840642  0.20087699  1.0
  N  N90  1  0.32271968  0.99011385  0.11875433  1.0
  N  N91  1  0.31748349  0.01004218  0.19781426  1.0
  N  N92  1  0.23785164  0.98939997  0.29923184  1.0
  N  N93  1  0.23000098  0.00931665  0.37956009  1.0
  N  N94  1  0.78001831  0.01100448  0.30202599  1.0
  N  N95  1  0.77554595  0.99068615  0.38103086  1.0
  N  N96  1  0.86780596  0.98546069  0.87902302  1.0
  N  N97  1  0.86085304  0.00659093  0.79883828  1.0
  N  N98  1  0.32243620  0.00821547  0.88122174  1.0
  N  N99  1  0.31836935  0.98639774  0.80234275  1.0
  N  N100  1  0.23829060  0.00759549  0.70139285  1.0
  N  N101  1  0.23103299  0.98708447  0.62109773  1.0
  N  N102  1  0.78110559  0.98827245  0.69754425  1.0
  N  N103  1  0.77604220  0.01046771  0.61875625  1.0
  O  O104  1  0.38133904  0.88429716  0.50322077  1.0
  O  O105  1  0.62573588  0.89272061  0.49914873  1.0
  O  O106  1  0.62119877  0.01394482  0.44197500  1.0
  O  O107  1  0.38107418  0.98613748  0.44178149  1.0
  O  O108  1  0.61629988  0.11577794  0.50359315  1.0
  O  O109  1  0.37202084  0.10702999  0.49981990  1.0
  O  O110  1  0.37934823  0.00602109  0.55876149  1.0
  O  O111  1  0.62458682  0.99375388  0.55807064  1.0
  O  O112  1  0.71443675  0.88236340  0.99687582  1.0
  O  O113  1  0.47007096  0.89115052  0.00089239  1.0
  O  O114  1  0.47759795  0.01304344  0.05798648  1.0
  O  O115  1  0.71778756  0.98498914  0.05824560  1.0
  O  O116  1  0.47981659  0.11438390  0.99658455  1.0
  O  O117  1  0.72405552  0.10516206  0.00034790  1.0
  O  O118  1  0.71923209  0.00339671  0.94138806  1.0
  O  O119  1  0.47393438  0.99179948  0.94196020  1.0
  O  O120  1  0.89583100  0.07072798  0.10771377  1.0
  O  O121  1  0.94656700  0.95240656  0.12085509  1.0
  O  O122  1  0.88558027  0.92661095  0.21465806  1.0
  O  O123  1  0.93423145  0.04552808  0.20235297  1.0
  O  O124  1  0.29462955  0.92766332  0.10592286  1.0
  O  O125  1  0.24702764  0.04695708  0.11795880  1.0
  O  O126  1  0.28849483  0.07354703  0.20921933  1.0
  O  O127  1  0.24024404  0.95390738  0.19877032  1.0
  O  O128  1  0.21176857  0.92770484  0.28518729  1.0
  O  O129  1  0.16320650  0.04661381  0.29809244  1.0
  O  O130  1  0.20238398  0.07169042  0.39262805  1.0
  O  O131  1  0.15192927  0.95336927  0.37915029  1.0
  O  O132  1  0.80784876  0.07446735  0.29063134  1.0
  O  O133  1  0.85825494  0.95512111  0.30105008  1.0
  O  O134  1  0.80349686  0.92821058  0.39368479  1.0
  O  O135  1  0.85137991  0.04737149  0.38196454  1.0
  O  O136  1  0.89687071  0.92183406  0.88987330  1.0
  O  O137  1  0.94466864  0.04175745  0.88051298  1.0
  O  O138  1  0.88770702  0.06849712  0.78530182  1.0
  O  O139  1  0.93494198  0.94921137  0.79712288  1.0
  O  O140  1  0.29151802  0.07172831  0.89219791  1.0
  O  O141  1  0.24889169  0.95094067  0.88378856  1.0
  O  O142  1  0.29068577  0.92260571  0.79120111  1.0
  O  O143  1  0.23978813  0.04213183  0.80141097  1.0
  O  O144  1  0.21104043  0.06947932  0.71517235  1.0
  O  O145  1  0.16458193  0.95018901  0.70288971  1.0
  O  O146  1  0.20249502  0.92357455  0.60980146  1.0
  O  O147  1  0.15360198  0.04329766  0.62004538  1.0
  O  O148  1  0.81075132  0.92440195  0.70801235  1.0
  O  O149  1  0.85799000  0.04450092  0.69904761  1.0
  O  O150  1  0.80600546  0.07415973  0.60815280  1.0
  O  O151  1  0.85022090  0.95336341  0.61573129  1.0
  O  O152  1  0.83296555  0.81558125  0.53373884  1.0
  O  O153  1  0.92375297  0.70122693  0.50542102  1.0
  O  O154  1  0.84847472  0.80530078  0.46215385  1.0
  O  O155  1  0.16219143  0.18500459  0.53299357  1.0
  O  O156  1  0.07363575  0.29878170  0.50409411  1.0
  O  O157  1  0.15334694  0.19393137  0.46134281  1.0
  O  O158  1  0.26147170  0.81340872  0.96751248  1.0
  O  O159  1  0.17249807  0.69956562  0.99625147  1.0
  O  O160  1  0.25001339  0.80426041  0.03916108  1.0
  O  O161  1  0.93365558  0.18232040  0.96714853  1.0
  O  O162  1  0.02319504  0.29602921  0.99615514  1.0
  O  O163  1  0.94371213  0.19170104  0.03880923  1.0
