# generated using pymatgen
data_Zn4H55C78N19
_symmetry_space_group_name_H-M   'P 1'
_cell_length_a   19.74988386
_cell_length_b   19.85822864
_cell_length_c   20.66362709
_cell_angle_alpha   108.06648139
_cell_angle_beta   106.12733579
_cell_angle_gamma   112.41045956
_symmetry_Int_Tables_number   1
_chemical_formula_structural   Zn4H55C78N19
_chemical_formula_sum   'Zn4 H55 C78 N19'
_cell_volume   6358.80849194
_cell_formula_units_Z   1
loop_
 _symmetry_equiv_pos_site_id
 _symmetry_equiv_pos_as_xyz
  1  'x, y, z'
loop_
 _atom_site_type_symbol
 _atom_site_label
 _atom_site_symmetry_multiplicity
 _atom_site_fract_x
 _atom_site_fract_y
 _atom_site_fract_z
 _atom_site_occupancy
  Zn  Zn0  1  0.60424047  0.60251976  0.50166792  1.0
  Zn  Zn1  1  0.39611712  0.39697949  0.50106775  1.0
  Zn  Zn2  1  0.50488860  0.59931845  0.60389454  1.0
  Zn  Zn3  1  0.49705226  0.40269729  0.39789281  1.0
  H  H4  1  0.76145175  0.60921259  0.61333063  1.0
  H  H5  1  0.09473959  0.65310499  0.39339497  1.0
  H  H6  1  0.50079266  0.35931715  0.62409826  1.0
  H  H7  1  0.93150740  0.52708552  0.28517986  1.0
  H  H8  1  0.97710733  0.40715759  0.28114891  1.0
  H  H9  1  0.93296231  0.39719624  0.39888989  1.0
  H  H10  1  0.69612865  0.22117247  0.73710221  1.0
  H  H11  1  0.55059842  0.06660486  0.67209845  1.0
  H  H12  1  0.76846556  0.13917483  0.67123396  1.0
  H  H13  1  0.71052961  0.15853275  0.54028067  1.0
  H  H14  1  0.56386269  0.00397780  0.47319516  1.0
  H  H15  1  0.24320664  0.38062360  0.37377982  1.0
  H  H16  1  0.32248492  0.40021114  0.14130106  1.0
  H  H17  1  0.43648948  0.61889265  0.73514600  1.0
  H  H18  1  0.32804358  0.60089092  0.77923139  1.0
  H  H19  1  0.29013438  0.35776945  0.72514162  1.0
  H  H20  1  0.23751475  0.43135650  0.93835460  1.0
  H  H21  1  0.39462180  0.67572947  0.16065339  1.0
  H  H22  1  0.29221433  0.60446394  0.88441041  1.0
  H  H23  1  0.43685436  0.66290028  0.27717900  1.0
  H  H24  1  0.28462209  0.41372154  0.02559527  1.0
  H  H25  1  0.25513572  0.36163480  0.83094021  1.0
  H  H26  1  0.53560354  0.79333433  0.66197418  1.0
  H  H27  1  0.74481312  0.61176079  0.84466216  1.0
  H  H28  1  0.63860120  0.37515197  0.34513277  1.0
  H  H29  1  0.29863109  0.05169992  0.20623907  1.0
  H  H30  1  0.11978434  0.08597819  0.27033314  1.0
  H  H31  1  0.96425441  0.82244572  0.06073492  1.0
  H  H32  1  0.01169561  0.77745298  0.85261585  1.0
  H  H33  1  0.19024271  0.91275381  0.10321951  1.0
  H  H34  1  0.88542136  0.69871722  0.73171406  1.0
  H  H35  1  0.08085490  0.83371760  0.98700330  1.0
  H  H36  1  0.87077701  0.69256176  0.96591105  1.0
  H  H37  1  0.37251694  0.20714850  0.25646203  1.0
  H  H38  1  0.01168927  0.94586916  0.16871539  1.0
  H  H39  1  0.29761396  0.35292364  0.60477416  1.0
  H  H40  1  0.77896499  0.63960930  0.48840776  1.0
  H  H41  1  0.63357350  0.37462273  0.48860478  1.0
  H  H42  1  0.63211927  0.60846054  0.75203350  1.0
  H  H43  1  0.50973916  0.65222816  0.38432863  1.0
  H  H44  1  0.14515614  0.50002327  0.50866909  1.0
  H  H45  1  0.13676401  0.52245169  0.62498764  1.0
  H  H46  1  0.03298981  0.45407135  0.55253667  1.0
  H  H47  1  0.07146603  0.56179597  0.60213383  1.0
  H  H48  1  0.23968499  0.20153100  0.39144800  1.0
  H  H49  1  0.47288030  0.13735551  0.55174565  1.0
  H  H50  1  0.34905176  0.00846355  0.46791407  1.0
  H  H51  1  0.39622210  0.99747394  0.54848868  1.0
  H  H52  1  0.40605457  0.95785301  0.46373701  1.0
  H  H53  1  0.38314964  0.63869003  0.97953374  1.0
  H  H54  1  0.43268976  0.66774462  0.07328140  1.0
  H  H55  1  0.66088540  0.79179258  0.52022029  1.0
  H  H56  1  0.36562875  0.38596344  0.24849774  1.0
  H  H57  1  0.39281916  0.64693659  0.50694535  1.0
  H  H58  1  0.05327302  0.64499598  0.51298856  1.0
  C  C59  1  0.71909944  0.60714139  0.63780280  1.0
  C  C60  1  0.62792907  0.77854046  0.55307277  1.0
  C  C61  1  0.40764337  0.45000648  0.29136087  1.0
  C  C62  1  0.52614580  0.36863577  0.58513004  1.0
  C  C63  1  0.36772413  0.58076398  0.48052296  1.0
  C  C64  1  0.41995910  0.52284189  0.28699000  1.0
  C  C65  1  0.28728810  0.51676024  0.42598527  1.0
  C  C66  1  0.60236012  0.82658649  0.59404797  1.0
  C  C67  1  0.27956730  0.16635539  0.30026528  1.0
  C  C68  1  0.06126559  0.52571907  0.45968339  1.0
  C  C69  1  0.03645894  0.59208617  0.46123533  1.0
  C  C70  1  0.58389874  0.34978436  0.56995399  1.0
  C  C71  1  0.81083450  0.51184842  0.40878042  1.0
  C  C72  1  0.21680065  0.52307577  0.40270767  1.0
  C  C73  1  0.96997525  0.45409867  0.39818685  1.0
  C  C74  1  0.40783070  0.55449407  0.69445089  1.0
  C  C75  1  0.94516184  0.52157679  0.40108768  1.0
  C  C76  1  0.99287387  0.45950759  0.33273582  1.0
  C  C77  1  0.08418817  0.52945164  0.39255086  1.0
  C  C78  1  0.96916637  0.52648736  0.33481383  1.0
  C  C79  1  0.05890762  0.59655550  0.39513299  1.0
  C  C80  1  0.87333339  0.51689958  0.40564214  1.0
  C  C81  1  0.34975559  0.48395270  0.69187149  1.0
  C  C82  1  0.15573683  0.52893078  0.39265123  1.0
  C  C83  1  0.58546528  0.08751950  0.64241886  1.0
  C  C84  1  0.66632326  0.17203765  0.67861434  1.0
  C  C85  1  0.61334709  0.30238625  0.59266969  1.0
  C  C86  1  0.66092770  0.43936577  0.38162496  1.0
  C  C87  1  0.61154576  0.90243027  0.60000078  1.0
  C  C88  1  0.55255999  0.09693502  0.56796240  1.0
  C  C89  1  0.63427411  0.18352121  0.60596897  1.0
  C  C90  1  0.59351786  0.05274685  0.53194057  1.0
  C  C91  1  0.62538978  0.04159122  0.60493405  1.0
  C  C92  1  0.74024549  0.50840486  0.41432165  1.0
  C  C93  1  0.67457433  0.13750459  0.56907640  1.0
  C  C94  1  0.70691256  0.12797415  0.64194860  1.0
  C  C95  1  0.63054791  0.25243552  0.60305938  1.0
  C  C96  1  0.61894942  0.96743561  0.60311236  1.0
  C  C97  1  0.38557134  0.53074289  0.21922220  1.0
  C  C98  1  0.33795139  0.41894233  0.62883457  1.0
  C  C99  1  0.33856161  0.46123168  0.14643917  1.0
  C  C100  1  0.31628151  0.46878496  0.08040903  1.0
  C  C101  1  0.33834540  0.54620927  0.08294281  1.0
  C  C102  1  0.37995120  0.61498965  0.15573417  1.0
  C  C103  1  0.48099868  0.58574458  0.36074606  1.0
  C  C104  1  0.40316015  0.60755176  0.22213773  1.0
  C  C105  1  0.29608868  0.55187868  0.85261505  1.0
  C  C106  1  0.31470865  0.54913347  0.79187341  1.0
  C  C107  1  0.29098467  0.41236568  0.76012110  1.0
  C  C108  1  0.27145535  0.41459669  0.81994517  1.0
  C  C109  1  0.27879854  0.48647906  0.87132789  1.0
  C  C110  1  0.73266659  0.57448875  0.45490512  1.0
  C  C111  1  0.32731255  0.55585384  0.01323958  1.0
  C  C112  1  0.27557607  0.49016614  0.94168359  1.0
  C  C113  1  0.31693292  0.48125426  0.74681739  1.0
  C  C114  1  0.29113079  0.44447475  0.41244631  1.0
  C  C115  1  0.80448715  0.65220879  0.77929170  1.0
  C  C116  1  0.80310587  0.64934334  0.84630684  1.0
  C  C117  1  0.87426805  0.69491093  0.91479984  1.0
  C  C118  1  0.95063539  0.74531944  0.91965491  1.0
  C  C119  1  0.95304261  0.74077599  0.85095589  1.0
  C  C120  1  0.88171704  0.69607940  0.78264462  1.0
  C  C121  1  0.17409884  0.95082084  0.13904981  1.0
  C  C122  1  0.59406189  0.37646682  0.51578001  1.0
  C  C123  1  0.23524865  0.02940847  0.19697329  1.0
  C  C124  1  0.13585385  0.04788409  0.23437101  1.0
  C  C125  1  0.56414149  0.77950007  0.62570929  1.0
  C  C126  1  0.07483051  0.96891956  0.17693112  1.0
  C  C127  1  0.09159058  0.91965656  0.12565232  1.0
  C  C128  1  0.02345941  0.80793483  0.99135734  1.0
  C  C129  1  0.02303463  0.84443057  0.05847086  1.0
  C  C130  1  0.21714099  0.08092473  0.24439205  1.0
  C  C131  1  0.65257492  0.60527610  0.70809287  1.0
  C  C132  1  0.72917231  0.61906161  0.71144938  1.0
  C  C133  1  0.08770208  0.51598947  0.57791604  1.0
  C  C134  1  0.40369813  0.00928886  0.50119511  1.0
  C  C135  1  0.34998924  0.21937091  0.29856183  1.0
  C  C136  1  0.28162723  0.21683982  0.36669235  1.0
  N  N137  1  0.64325676  0.58943313  0.59533640  1.0
  N  N138  1  0.42878926  0.53316197  0.63793547  1.0
  N  N139  1  0.61103410  0.46285684  0.40131351  1.0
  N  N140  1  0.38505277  0.44860964  0.59676252  1.0
  N  N141  1  0.65575008  0.54689107  0.44687815  1.0
  N  N142  1  0.54465894  0.40651557  0.49926624  1.0
  N  N143  1  0.60247148  0.58837063  0.63860991  1.0
  N  N144  1  0.50336550  0.55233731  0.40412970  1.0
  N  N145  1  0.11734523  0.53193612  0.52401829  1.0
  N  N146  1  0.47663804  0.08691165  0.52596884  1.0
  N  N147  1  0.37772950  0.63506547  0.02607911  1.0
  N  N148  1  0.36723165  0.46476447  0.45722736  1.0
  N  N149  1  0.56685376  0.70972150  0.60500541  1.0
  N  N150  1  0.39016534  0.29492266  0.35876640  1.0
  N  N151  1  0.34766287  0.29314340  0.40141772  1.0
  N  N152  1  0.60651004  0.70913167  0.55982063  1.0
  N  N153  1  0.45815433  0.46891617  0.36148392  1.0
  N  N154  1  0.41411895  0.54826265  0.49892803  1.0
  N  N155  1  0.50304277  0.40178463  0.54179753  1.0
