# generated using pymatgen
data_AlH15(C5O2)6
_symmetry_space_group_name_H-M   'P 1'
_cell_length_a   4.08914852
_cell_length_b   16.01267266
_cell_length_c   16.02955328
_cell_angle_alpha   60.08027699
_cell_angle_beta   89.61039579
_cell_angle_gamma   89.41373771
_symmetry_Int_Tables_number   1
_chemical_formula_structural   AlH15(C5O2)6
_chemical_formula_sum   'Al1 H15 C30 O12'
_cell_volume   909.65337973
_cell_formula_units_Z   1
loop_
 _symmetry_equiv_pos_site_id
 _symmetry_equiv_pos_as_xyz
  1  'x, y, z'
loop_
 _atom_site_type_symbol
 _atom_site_label
 _atom_site_symmetry_multiplicity
 _atom_site_fract_x
 _atom_site_fract_y
 _atom_site_fract_z
 _atom_site_occupancy
  Al  Al0  1  0.01786041  0.00329802  0.49987532  1.0
  H  H1  1  0.48051152  0.84385469  0.07641152  1.0
  H  H2  1  0.50926207  0.57818788  0.34646309  1.0
  H  H3  1  0.45015674  0.57325495  0.08143817  1.0
  H  H4  1  0.29484620  0.98300138  0.76176772  1.0
  H  H5  1  0.25501279  0.89869941  0.93838094  1.0
  H  H6  1  0.70637422  0.64736326  0.95122686  1.0
  H  H7  1  0.70655085  0.90077747  0.14953964  1.0
  H  H8  1  0.29732015  0.75618258  0.48454227  1.0
  H  H9  1  0.26358126  0.66364983  0.40019126  1.0
  H  H10  1  0.21802629  0.44579682  0.39707977  1.0
  H  H11  1  0.76149542  0.26320017  0.25916979  1.0
  H  H12  1  0.75044690  0.44154018  0.16578619  1.0
  H  H13  1  0.01949633  0.80613060  0.67070817  1.0
  H  H14  1  0.00813157  0.02479097  0.30597037  1.0
  H  H15  1  0.62824966  0.21899627  0.57996281  1.0
  C  C16  1  0.52348354  0.93309173  0.41993178  1.0
  C  C17  1  0.51491865  0.14800942  0.43283954  1.0
  C  C18  1  0.52231820  0.91880498  0.64917858  1.0
  C  C19  1  0.48439523  0.71760911  0.21768656  1.0
  C  C20  1  0.47911193  0.76538643  0.11674768  1.0
  C  C21  1  0.47583232  0.71477349  0.06638240  1.0
  C  C22  1  0.46908789  0.61375778  0.11923249  1.0
  C  C23  1  0.47756863  0.56380465  0.22005205  1.0
  C  C24  1  0.48727035  0.61663198  0.26829354  1.0
  C  C25  1  0.38797989  0.90941666  0.80402666  1.0
  C  C26  1  0.36853839  0.86168936  0.90394004  1.0
  C  C27  1  0.48501491  0.76652628  0.95982801  1.0
  C  C28  1  0.61390251  0.72108478  0.91146860  1.0
  C  C29  1  0.62994126  0.76682185  0.81105861  1.0
  C  C30  1  0.51960979  0.86280440  0.75681341  1.0
  C  C31  1  0.61701548  0.86677682  0.22334327  1.0
  C  C32  1  0.62827840  0.92170047  0.26892579  1.0
  C  C33  1  0.52167419  0.88021760  0.36497870  1.0
  C  C34  1  0.39284209  0.78684479  0.41144926  1.0
  C  C35  1  0.37710867  0.73447644  0.36373765  1.0
  C  C36  1  0.49484379  0.77291465  0.26899791  1.0
  C  C37  1  0.34254131  0.40673170  0.36651505  1.0
  C  C38  1  0.35678016  0.30653939  0.42065851  1.0
  C  C39  1  0.50717704  0.25438696  0.38128501  1.0
  C  C40  1  0.64641695  0.30428379  0.28904480  1.0
  C  C41  1  0.63473040  0.40421597  0.23647971  1.0
  C  C42  1  0.48336253  0.45736203  0.27447349  1.0
  C  C43  1  0.73985064  0.70432559  0.77019394  1.0
  C  C44  1  0.72407613  0.02559200  0.20615589  1.0
  C  C45  1  0.20972557  0.25962864  0.51977138  1.0
  O  O46  1  0.75393460  0.97791524  0.60872793  1.0
  O  O47  1  0.75652425  0.91585071  0.47824093  1.0
  O  O48  1  0.75255340  0.10726259  0.41445380  1.0
  O  O49  1  0.28468565  0.90632430  0.60470672  1.0
  O  O50  1  0.28247419  0.10260798  0.49187331  1.0
  O  O51  1  0.28205801  0.99031785  0.40667375  1.0
  O  O52  1  0.91053527  0.74493611  0.68665854  1.0
  O  O53  1  0.66786302  0.61943061  0.81033295  1.0
  O  O54  1  0.89260857  0.06949089  0.24564815  1.0
  O  O55  1  0.64138225  0.07002332  0.12208791  1.0
  O  O56  1  0.38611077  0.20370041  0.59640680  1.0
  O  O57  1  0.91998119  0.27743211  0.52764670  1.0
