# generated using pymatgen
data_Zn2H45C47N7O23
_symmetry_space_group_name_H-M   'P 1'
_cell_length_a   9.86698500
_cell_length_b   11.03780466
_cell_length_c   17.66000551
_cell_angle_alpha   88.86768142
_cell_angle_beta   87.79941960
_cell_angle_gamma   84.56306893
_symmetry_Int_Tables_number   1
_chemical_formula_structural   Zn2H45C47N7O23
_chemical_formula_sum   'Zn2 H45 C47 N7 O23'
_cell_volume   1913.03228697
_cell_formula_units_Z   1
loop_
 _symmetry_equiv_pos_site_id
 _symmetry_equiv_pos_as_xyz
  1  'x, y, z'
loop_
 _atom_site_type_symbol
 _atom_site_label
 _atom_site_symmetry_multiplicity
 _atom_site_fract_x
 _atom_site_fract_y
 _atom_site_fract_z
 _atom_site_occupancy
  Zn  Zn0  1  0.64677290  0.49578619  0.49341831  1.0
  Zn  Zn1  1  0.35569008  0.50211335  0.50061749  1.0
  H  H2  1  0.69515421  0.33983892  0.12352454  1.0
  H  H3  1  0.29032291  0.52983404  0.12100808  1.0
  H  H4  1  0.68236753  0.34152170  0.87824074  1.0
  H  H5  1  0.35933602  0.90824153  0.39684505  1.0
  H  H6  1  0.73222774  0.81461025  0.60384124  1.0
  H  H7  1  0.80680928  0.01444693  0.55464476  1.0
  H  H8  1  0.12766513  0.66912049  0.45236873  1.0
  H  H9  1  0.87335166  0.68114738  0.44209764  1.0
  H  H10  1  0.85594012  0.29881220  0.61299039  1.0
  H  H11  1  0.86079767  0.23217453  0.52122293  1.0
  H  H12  1  0.61622819  0.71658468  0.70253001  1.0
  H  H13  1  0.44567474  0.78624832  0.70173813  1.0
  H  H14  1  0.65969056  0.82385188  0.81911423  1.0
  H  H15  1  0.50404727  0.91468652  0.81343918  1.0
  H  H16  1  0.37552812  0.73035351  0.84245509  1.0
  H  H17  1  0.48849743  0.75693979  0.91512240  1.0
  H  H18  1  0.53242976  0.63911174  0.84980977  1.0
  H  H19  1  0.86780178  0.16345402  0.71682546  1.0
  H  H20  1  0.93841837  0.07503362  0.63917221  1.0
  H  H21  1  0.79456907  0.97542221  0.78088755  1.0
  H  H22  1  0.85988440  0.88682427  0.70354433  1.0
  H  H23  1  0.09623785  0.94592866  0.72363272  1.0
  H  H24  1  0.03020548  0.87208953  0.80466113  1.0
  H  H25  1  0.03351221  0.03269395  0.80343808  1.0
  H  H26  1  0.30453180  0.30321760  0.62770755  1.0
  H  H27  1  0.29986783  0.14607559  0.60613262  1.0
  H  H28  1  0.22955724  0.26580740  0.75894710  1.0
  H  H29  1  0.20644161  0.11268644  0.73998516  1.0
  H  H30  1  0.45589929  0.06262600  0.71708614  1.0
  H  H31  1  0.42853959  0.13533001  0.80585029  1.0
  H  H32  1  0.48652691  0.21580972  0.72510895  1.0
  H  H33  1  0.94248978  0.39772988  0.74226489  1.0
  H  H34  1  0.85603461  0.39187860  0.83202554  1.0
  H  H35  1  0.86283807  0.60880505  0.72196269  1.0
  H  H36  1  0.72506945  0.59934525  0.78788111  1.0
  H  H37  1  0.88137414  0.58664970  0.89597463  1.0
  H  H38  1  0.89531879  0.72132716  0.84121354  1.0
  H  H39  1  0.02378815  0.59867278  0.83213662  1.0
  H  H40  1  0.07600915  0.47966415  0.95306408  1.0
  H  H41  1  0.23142927  0.40430721  0.98512955  1.0
  H  H42  1  0.08107011  0.32086528  0.84972815  1.0
  H  H43  1  0.22047165  0.23944739  0.89337272  1.0
  H  H44  1  0.07459573  0.22010676  0.01444943  1.0
  H  H45  1  0.00236617  0.15564418  0.93594120  1.0
  H  H46  1  0.93532647  0.30090679  0.96906935  1.0
  C  C47  1  0.52953257  0.26184029  0.48589048  1.0
  C  C48  1  0.50797432  0.47824151  0.64336983  1.0
  C  C49  1  0.46940221  0.73495535  0.50054855  1.0
  C  C50  1  0.50948470  0.50507975  0.35154859  1.0
  C  C51  1  0.60910263  0.39145562  0.15203933  1.0
  C  C52  1  0.61508915  0.42062882  0.22786892  1.0
  C  C53  1  0.50828369  0.48689818  0.26764736  1.0
  C  C54  1  0.39403164  0.52625404  0.22568081  1.0
  C  C55  1  0.38190899  0.49750533  0.15057679  1.0
  C  C56  1  0.49094060  0.42909860  0.11248611  1.0
  C  C57  1  0.48269460  0.40655919  0.03447323  1.0
  C  C58  1  0.47083058  0.39931762  0.96622165  1.0
  C  C59  1  0.59586025  0.37991519  0.84636979  1.0
  C  C60  1  0.61353941  0.40711426  0.76945148  1.0
  C  C61  1  0.50013200  0.45611993  0.72773650  1.0
  C  C62  1  0.37502946  0.47814838  0.76852958  1.0
  C  C63  1  0.35613681  0.45488281  0.84633096  1.0
  C  C64  1  0.47114884  0.40598248  0.88636507  1.0
  C  C65  1  0.59047929  0.04629203  0.53727187  1.0
  C  C66  1  0.52792148  0.12510083  0.48307950  1.0
  C  C67  1  0.44815722  0.06653273  0.43253482  1.0
  C  C68  1  0.42137993  0.94439342  0.43921710  1.0
  C  C69  1  0.47885751  0.86958361  0.49679106  1.0
  C  C70  1  0.56310669  0.92437083  0.54466515  1.0
  C  C71  1  0.65863466  0.89596555  0.60953042  1.0
  C  C72  1  0.71123892  0.02629705  0.59002349  1.0
  C  C73  1  0.07058618  0.40645335  0.52586663  1.0
  C  C74  1  0.07067050  0.59406269  0.47240134  1.0
  C  C75  1  0.92893272  0.60119707  0.46713881  1.0
  C  C76  1  0.92924960  0.41601499  0.52179107  1.0
  C  C77  1  0.90837595  0.29494339  0.55702946  1.0
  C  C78  1  0.06874743  0.27535668  0.56094529  1.0
  C  C79  1  0.54970734  0.79861749  0.71911314  1.0
  C  C80  1  0.55266835  0.82209489  0.80401715  1.0
  C  C81  1  0.48324382  0.73213466  0.85541528  1.0
  C  C82  1  0.85708954  0.08140845  0.68411459  1.0
  C  C83  1  0.87441547  0.96864224  0.73564294  1.0
  C  C84  1  0.01608879  0.95430468  0.76874907  1.0
  C  C85  1  0.25648973  0.22011550  0.64301836  1.0
  C  C86  1  0.27045393  0.18672811  0.72587489  1.0
  C  C87  1  0.41789551  0.14806629  0.74439511  1.0
  C  C88  1  0.85016914  0.43214586  0.77447517  1.0
  C  C89  1  0.83382206  0.57075996  0.77762029  1.0
  C  C90  1  0.91371148  0.62170657  0.84000526  1.0
  C  C91  1  0.16716544  0.42038120  0.93584667  1.0
  C  C92  1  0.12827001  0.30167427  0.90456864  1.0
  C  C93  1  0.02999374  0.24123758  0.95908740  1.0
  N  N94  1  0.14527325  0.49533164  0.50205182  1.0
  N  N95  1  0.85483263  0.51028641  0.49249595  1.0
  N  N96  1  0.74304530  0.37643884  0.26559528  1.0
  N  N97  1  0.11878060  0.17948580  0.49840703  1.0
  N  N98  1  0.28283991  0.60931238  0.26030483  1.0
  N  N99  1  0.25225749  0.54085870  0.73292688  1.0
  N  N100  1  0.40132535  0.13198166  0.36271601  1.0
  O  O101  1  0.64156261  0.30878821  0.47772659  1.0
  O  O102  1  0.41374344  0.31710858  0.50319720  1.0
  O  O103  1  0.62277434  0.46477590  0.60866091  1.0
  O  O104  1  0.39364443  0.50685939  0.61309156  1.0
  O  O105  1  0.58349665  0.67394603  0.51188747  1.0
  O  O106  1  0.35633733  0.69195879  0.49192754  1.0
  O  O107  1  0.62304727  0.52108285  0.37911518  1.0
  O  O108  1  0.39600404  0.49828666  0.38651524  1.0
  O  O109  1  0.59799188  0.90453836  0.68293002  1.0
  O  O110  1  0.72664693  0.10464136  0.64962920  1.0
  O  O111  1  0.11061548  0.24130201  0.63064675  1.0
  O  O112  1  0.74079559  0.28618466  0.30757488  1.0
  O  O113  1  0.84300447  0.43228591  0.24848820  1.0
  O  O114  1  0.13337222  0.07206073  0.51933447  1.0
  O  O115  1  0.13215704  0.21905058  0.43314712  1.0
  O  O116  1  0.31681200  0.70167919  0.29021780  1.0
  O  O117  1  0.16504513  0.58262099  0.25387999  1.0
  O  O118  1  0.73964128  0.38641396  0.73479558  1.0
  O  O119  1  0.16224684  0.47772948  0.71471237  1.0
  O  O120  1  0.24466186  0.65301626  0.72984151  1.0
  O  O121  1  0.23324947  0.49449834  0.87899781  1.0
  O  O122  1  0.33040321  0.07978836  0.31980214  1.0
  O  O123  1  0.44163748  0.23379254  0.34993309  1.0
