# generated using pymatgen
data_ZnH12C21NO6
_symmetry_space_group_name_H-M   'P 1'
_cell_length_a   10.95677462
_cell_length_b   14.80298308
_cell_length_c   16.16752155
_cell_angle_alpha   89.49498984
_cell_angle_beta   88.34880618
_cell_angle_gamma   89.90069018
_symmetry_Int_Tables_number   1
_chemical_formula_structural   ZnH12C21NO6
_chemical_formula_sum   'Zn2 H24 C42 N2 O12'
_cell_volume   2621.06447107
_cell_formula_units_Z   2
loop_
 _symmetry_equiv_pos_site_id
 _symmetry_equiv_pos_as_xyz
  1  'x, y, z'
loop_
 _atom_site_type_symbol
 _atom_site_label
 _atom_site_symmetry_multiplicity
 _atom_site_fract_x
 _atom_site_fract_y
 _atom_site_fract_z
 _atom_site_occupancy
  Zn  Zn0  1  0.49508654  0.59595239  0.49855177  1.0
  Zn  Zn1  1  0.49709451  0.40713437  0.50145017  1.0
  H  H2  1  0.29975394  0.23937139  0.21497547  1.0
  H  H3  1  0.69911022  0.72368876  0.81218976  1.0
  H  H4  1  0.31314923  0.40727283  0.20457176  1.0
  H  H5  1  0.80122729  0.57615115  0.83902522  1.0
  H  H6  1  0.20168601  0.50287679  0.30671584  1.0
  H  H7  1  0.91048457  0.49625098  0.72425249  1.0
  H  H8  1  0.05713069  0.26505560  0.42852042  1.0
  H  H9  1  0.81353082  0.70853124  0.55526077  1.0
  H  H10  1  0.17055182  0.16839567  0.32739439  1.0
  H  H11  1  0.70556055  0.78985879  0.66986637  1.0
  H  H12  1  0.56105652  0.64174390  0.91510910  1.0
  H  H13  1  0.48729138  0.36288167  0.08315419  1.0
  H  H14  1  0.58081485  0.64532053  0.06825158  1.0
  H  H15  1  0.46677782  0.35966620  0.93020523  1.0
  H  H16  1  0.50954280  0.09462289  0.62556708  1.0
  H  H17  1  0.48264755  0.90982636  0.37020424  1.0
  H  H18  1  0.51554526  0.95389005  0.69511719  1.0
  H  H19  1  0.47658588  0.05088130  0.30070860  1.0
  H  H20  1  0.92804764  0.44401267  0.27451947  1.0
  H  H21  1  0.80281048  0.50725083  0.31977305  1.0
  H  H22  1  0.77676414  0.39647623  0.28068859  1.0
  H  H23  1  0.06258300  0.71521152  0.62384129  1.0
  H  H24  1  0.19340673  0.69578923  0.55535775  1.0
  H  H25  1  0.21073345  0.69385557  0.66523975  1.0
  C  C26  1  0.48091106  0.49679515  0.66157484  1.0
  C  C27  1  0.52108410  0.51428862  0.33833275  1.0
  C  C28  1  0.86824630  0.49921404  0.50485362  1.0
  C  C29  1  0.12356628  0.49691555  0.49551951  1.0
  C  C30  1  0.93347566  0.54787859  0.56351715  1.0
  C  C31  1  0.05827884  0.44636242  0.43827030  1.0
  C  C32  1  0.55607128  0.58297860  0.03759350  1.0
  C  C33  1  0.49188470  0.42194188  0.96082637  1.0
  C  C34  1  0.53396104  0.50462399  0.08613638  1.0
  C  C35  1  0.51154708  0.50071605  0.91241027  1.0
  C  C36  1  0.50326220  0.42374129  0.04599659  1.0
  C  C37  1  0.54505942  0.58103044  0.95240903  1.0
  C  C38  1  0.53722688  0.50771528  0.17353146  1.0
  C  C39  1  0.49782209  0.49939951  0.82565774  1.0
  C  C40  1  0.48660857  0.49889019  0.75089767  1.0
  C  C41  1  0.53361485  0.51070601  0.24892007  1.0
  C  C42  1  0.50410366  0.95922275  0.57640449  1.0
  C  C43  1  0.48786685  0.04520826  0.41940170  1.0
  C  C44  1  0.49619720  0.90852904  0.50298154  1.0
  C  C45  1  0.49564516  0.09582820  0.49288496  1.0
  C  C46  1  0.48834010  0.95129831  0.42537884  1.0
  C  C47  1  0.50360751  0.05309553  0.57043332  1.0
  C  C48  1  0.26070898  0.49719681  0.49299881  1.0
  C  C49  1  0.73095848  0.49868221  0.50695138  1.0
  C  C50  1  0.49583468  0.81287002  0.50693965  1.0
  C  C51  1  0.49631328  0.19148170  0.48913383  1.0
  C  C52  1  0.25689629  0.37549979  0.25330798  1.0
  C  C53  1  0.80497298  0.60606708  0.77706278  1.0
  C  C54  1  0.19408175  0.42944570  0.31079057  1.0
  C  C55  1  0.86588534  0.56086424  0.71259831  1.0
  C  C56  1  0.12215751  0.39019106  0.37451999  1.0
  C  C57  1  0.86965469  0.59738196  0.63224305  1.0
  C  C58  1  0.11312007  0.29575834  0.37904322  1.0
  C  C59  1  0.81218443  0.68059285  0.61787450  1.0
  C  C60  1  0.17694200  0.24184639  0.32220833  1.0
  C  C61  1  0.75161978  0.72593011  0.68229306  1.0
  C  C62  1  0.24919684  0.28154715  0.25920038  1.0
  C  C63  1  0.74770669  0.68868696  0.76199533  1.0
  C  C64  1  0.93012977  0.44812015  0.44393573  1.0
  C  C65  1  0.06174662  0.54507492  0.55853053  1.0
  C  C66  1  0.84241950  0.43931574  0.31177092  1.0
  C  C67  1  0.14910215  0.67796887  0.61517218  1.0
  N  N68  1  0.49809842  0.26978451  0.48963191  1.0
  N  N69  1  0.49478962  0.73448813  0.50740902  1.0
  O  O70  1  0.48665806  0.57310807  0.62439250  1.0
  O  O71  1  0.52587598  0.43887329  0.37660682  1.0
  O  O72  1  0.47254498  0.41921977  0.62910213  1.0
  O  O73  1  0.50586929  0.59229718  0.36949545  1.0
  O  O74  1  0.31241333  0.57415448  0.48969646  1.0
  O  O75  1  0.67845679  0.42360993  0.52102924  1.0
  O  O76  1  0.31369594  0.42086537  0.49388323  1.0
  O  O77  1  0.67909288  0.57421134  0.49327532  1.0
  O  O78  1  0.51191951  0.91252304  0.64872055  1.0
  O  O79  1  0.48054850  0.09203495  0.34723512  1.0
  O  O80  1  0.86279388  0.39720782  0.39053975  1.0
  O  O81  1  0.12959900  0.58219514  0.62037584  1.0
