# generated using pymatgen
data_ZnH20C22(NO)4
_symmetry_space_group_name_H-M   'P 1'
_cell_length_a   9.97387298
_cell_length_b   15.20257843
_cell_length_c   22.55147695
_cell_angle_alpha   89.99994091
_cell_angle_beta   89.99990362
_cell_angle_gamma   87.32677684
_symmetry_Int_Tables_number   1
_chemical_formula_structural   ZnH20C22(NO)4
_chemical_formula_sum   'Zn4 H80 C88 N16 O16'
_cell_volume   3415.72745770
_cell_formula_units_Z   4
loop_
 _symmetry_equiv_pos_site_id
 _symmetry_equiv_pos_as_xyz
  1  'x, y, z'
loop_
 _atom_site_type_symbol
 _atom_site_label
 _atom_site_symmetry_multiplicity
 _atom_site_fract_x
 _atom_site_fract_y
 _atom_site_fract_z
 _atom_site_occupancy
  Zn  Zn0  1  0.15283145  0.55120060  0.21195950  1.0
  Zn  Zn1  1  0.34717010  0.94879910  0.71195935  1.0
  Zn  Zn2  1  0.84717006  0.44880006  0.78804083  1.0
  Zn  Zn3  1  0.65282849  0.05120025  0.28804142  1.0
  H  H4  1  0.94442216  0.47206561  0.12857888  1.0
  H  H5  1  0.55558095  0.02793558  0.62857969  1.0
  H  H6  1  0.05557734  0.52793506  0.87142012  1.0
  H  H7  1  0.44441755  0.97206509  0.37142064  1.0
  H  H8  1  0.83053524  0.51837792  0.03621644  1.0
  H  H9  1  0.66946819  0.98162379  0.53621685  1.0
  H  H10  1  0.16946522  0.48162340  0.96378256  1.0
  H  H11  1  0.33053026  0.01837754  0.46378348  1.0
  H  H12  1  0.10255535  0.73406718  0.02862911  1.0
  H  H13  1  0.39744679  0.76593411  0.52862906  1.0
  H  H14  1  0.89744511  0.26593415  0.97137167  1.0
  H  H15  1  0.60255381  0.23406524  0.47137261  1.0
  H  H16  1  0.20468142  0.67548265  0.11942758  1.0
  H  H17  1  0.29531938  0.82451851  0.61942756  1.0
  H  H18  1  0.79531713  0.32451736  0.88057320  1.0
  H  H19  1  0.70467912  0.17548216  0.38057410  1.0
  H  H20  1  0.85557204  0.80014138  0.97130365  1.0
  H  H21  1  0.64442992  0.69985773  0.47130458  1.0
  H  H22  1  0.14442856  0.19985796  0.02869491  1.0
  H  H23  1  0.35557068  0.30014161  0.52869619  1.0
  H  H24  1  0.02431683  0.76414195  0.95547707  1.0
  H  H25  1  0.47568378  0.73585807  0.45547773  1.0
  H  H26  1  0.97568272  0.23585805  0.04452282  1.0
  H  H27  1  0.52431582  0.26414128  0.54452304  1.0
  H  H28  1  0.68160742  0.66520017  0.97643159  1.0
  H  H29  1  0.81839644  0.83480025  0.47643096  1.0
  H  H30  1  0.31839414  0.33479983  0.02356830  1.0
  H  H31  1  0.18160402  0.16520107  0.52356848  1.0
  H  H32  1  0.75979890  0.55948953  0.96227465  1.0
  H  H33  1  0.74020200  0.94051091  0.46227401  1.0
  H  H34  1  0.24020061  0.44051113  0.03772568  1.0
  H  H35  1  0.25979654  0.05948909  0.53772588  1.0
  H  H36  1  0.81541628  0.59479564  0.86208384  1.0
  H  H37  1  0.68458504  0.90520429  0.36208371  1.0
  H  H38  1  0.18458236  0.40520305  0.13791649  1.0
  H  H39  1  0.31541351  0.09479572  0.63791662  1.0
  H  H40  1  0.64313093  0.61677132  0.87432611  1.0
  H  H41  1  0.85687130  0.88322925  0.37432587  1.0
  H  H42  1  0.35686958  0.38322934  0.12567422  1.0
  H  H43  1  0.14312620  0.11677142  0.62567491  1.0
  H  H44  1  0.90922043  0.82389422  0.86700934  1.0
  H  H45  1  0.59078191  0.67610504  0.36701033  1.0
  H  H46  1  0.09078121  0.17610447  0.13298966  1.0
  H  H47  1  0.40921668  0.32389430  0.63299044  1.0
  H  H48  1  0.96929930  0.71308417  0.85725967  1.0
  H  H49  1  0.53070199  0.78691642  0.35725974  1.0
  H  H50  1  0.03070225  0.28691583  0.14274022  1.0
  H  H51  1  0.46929756  0.21308358  0.64274060  1.0
  H  H52  1  0.52864642  0.67331858  0.81858788  1.0
  H  H53  1  0.97135305  0.82668141  0.31858803  1.0
  H  H54  1  0.47135327  0.32667945  0.18141113  1.0
  H  H55  1  0.02864536  0.17332057  0.68141274  1.0
  H  H56  1  0.37016197  0.76688941  0.76069901  1.0
  H  H57  1  0.12984032  0.73311154  0.26069993  1.0
  H  H58  1  0.62983863  0.23310993  0.23930088  1.0
  H  H59  1  0.87016110  0.26689044  0.73930173  1.0
  H  H60  1  0.61844106  0.97763865  0.76470568  1.0
  H  H61  1  0.88155961  0.52236142  0.26470611  1.0
  H  H62  1  0.38155962  0.02235938  0.23529465  1.0
  H  H63  1  0.11844299  0.47763793  0.73529466  1.0
  H  H64  1  0.78730273  0.89631144  0.82421571  1.0
  H  H65  1  0.71269877  0.60368788  0.32421711  1.0
  H  H66  1  0.21269591  0.10368725  0.17578373  1.0
  H  H67  1  0.28730397  0.39630948  0.67578544  1.0
  H  H68  1  0.30805960  0.33092506  0.31569552  1.0
  H  H69  1  0.19193835  0.16907740  0.81569480  1.0
  H  H70  1  0.69194200  0.66907428  0.68430526  1.0
  H  H71  1  0.80806002  0.83092524  0.18430598  1.0
  H  H72  1  0.33419109  0.19093419  0.37354321  1.0
  H  H73  1  0.16581079  0.30906621  0.87354197  1.0
  H  H74  1  0.66580459  0.80906384  0.62645845  1.0
  H  H75  1  0.83419669  0.69093510  0.12645881  1.0
  H  H76  1  0.14812791  0.08520959  0.37363998  1.0
  H  H77  1  0.35187178  0.41479345  0.87363986  1.0
  H  H78  1  0.85186553  0.91479174  0.62635991  1.0
  H  H79  1  0.64813470  0.58520787  0.12636003  1.0
  H  H80  1  0.92007396  0.25721146  0.25645884  1.0
  H  H81  1  0.57992380  0.24278757  0.75645948  1.0
  H  H82  1  0.07992750  0.74278986  0.74353839  1.0
  H  H83  1  0.42007370  0.75721310  0.24353775  1.0
  C  C84  1  0.60199531  0.91030909  0.77883205  1.0
  C  C85  1  0.89800435  0.58969030  0.27883288  1.0
  C  C86  1  0.39800323  0.08969092  0.22116916  1.0
  C  C87  1  0.10199916  0.41031036  0.72116790  1.0
  C  C88  1  0.97672931  0.52888604  0.10369223  1.0
  C  C89  1  0.52327396  0.97111425  0.60369276  1.0
  C  C90  1  0.02327224  0.47111396  0.89630721  1.0
  C  C91  1  0.47672454  0.02888641  0.39630890  1.0
  C  C92  1  0.91344505  0.55597799  0.05185750  1.0
  C  C93  1  0.58655947  0.94402172  0.55185756  1.0
  C  C94  1  0.08655651  0.44402201  0.94814194  1.0
  C  C95  1  0.41344008  0.05597829  0.44814233  1.0
  C  C96  1  0.95419415  0.63204233  0.02142753  1.0
  C  C97  1  0.54580938  0.86795874  0.52142722  1.0
  C  C98  1  0.04580731  0.36795899  0.97857236  1.0
  C  C99  1  0.45419017  0.13204126  0.47857311  1.0
  C  C100  1  0.06343254  0.67468582  0.04741328  1.0
  C  C101  1  0.43657158  0.82531478  0.54741316  1.0
  C  C102  1  0.93656902  0.32531419  0.95258705  1.0
  C  C103  1  0.56342897  0.17468523  0.45258762  1.0
  C  C104  1  0.12178325  0.64235552  0.09895978  1.0
  C  C105  1  0.37821963  0.85764566  0.59896012  1.0
  C  C106  1  0.87821626  0.35764514  0.90104010  1.0
  C  C107  1  0.62178193  0.14235435  0.40104154  1.0
  C  C108  1  0.91923278  0.74988440  0.94767947  1.0
  C  C109  1  0.58076913  0.75011672  0.44768042  1.0
  C  C110  1  0.08076878  0.25011560  0.05231953  1.0
  C  C111  1  0.41923042  0.24988328  0.55232080  1.0
  C  C112  1  0.76362643  0.62965600  0.95198128  1.0
  C  C113  1  0.73637350  0.87034446  0.45198247  1.0
  C  C114  1  0.23637407  0.37034466  0.04801860  1.0
  C  C115  1  0.26362505  0.12965555  0.54801919  1.0
  C  C116  1  0.74256389  0.63898978  0.88532845  1.0
  C  C117  1  0.75743734  0.86101012  0.38532785  1.0
  C  C118  1  0.25743675  0.36100891  0.11467233  1.0
  C  C119  1  0.24256125  0.13898923  0.61467159  1.0
  C  C120  1  0.89501001  0.75616724  0.88102664  1.0
  C  C121  1  0.60499219  0.74383332  0.38102757  1.0
  C  C122  1  0.10499154  0.24383276  0.11897281  1.0
  C  C123  1  0.39500832  0.25616734  0.61897365  1.0
  C  C124  1  0.67346431  0.77625981  0.83075240  1.0
  C  C125  1  0.82653617  0.72373951  0.33075362  1.0
  C  C126  1  0.32653419  0.22374085  0.16924749  1.0
  C  C127  1  0.17346434  0.27626116  0.66924804  1.0
  C  C128  1  0.55263154  0.74117321  0.80994229  1.0
  C  C129  1  0.94736791  0.75882745  0.30994296  1.0
  C  C130  1  0.44736609  0.25882547  0.19005893  1.0
  C  C131  1  0.05262963  0.24117256  0.69005738  1.0
  C  C132  1  0.46388727  0.79283379  0.77650724  1.0
  C  C133  1  0.03611299  0.70716649  0.27650737  1.0
  C  C134  1  0.53611123  0.20716688  0.22349353  1.0
  C  C135  1  0.96388638  0.29283615  0.72349385  1.0
  C  C136  1  0.69620693  0.86377978  0.81263913  1.0
  C  C137  1  0.80379456  0.63622022  0.31263999  1.0
  C  C138  1  0.30379166  0.13621956  0.18736208  1.0
  C  C139  1  0.19620603  0.36377913  0.68736123  1.0
  C  C140  1  0.09624723  0.38578849  0.24750891  1.0
  C  C141  1  0.40375211  0.11421209  0.74750807  1.0
  C  C142  1  0.90375638  0.61421085  0.75249009  1.0
  C  C143  1  0.59624639  0.88578858  0.25249270  1.0
  C  C144  1  0.11267543  0.30241052  0.28263790  1.0
  C  C145  1  0.38732054  0.19759330  0.78263879  1.0
  C  C146  1  0.88732316  0.69758882  0.71735977  1.0
  C  C147  1  0.61268083  0.80240933  0.21736066  1.0
  C  C148  1  0.22921312  0.28371493  0.31598379  1.0
  C  C149  1  0.27078196  0.21628556  0.81598209  1.0
  C  C150  1  0.77078757  0.71628310  0.68401565  1.0
  C  C151  1  0.72921850  0.78371576  0.18401779  1.0
  C  C152  1  0.24281145  0.20564960  0.34832272  1.0
  C  C153  1  0.25718360  0.29434953  0.84832142  1.0
  C  C154  1  0.75718327  0.79434777  0.65167762  1.0
  C  C155  1  0.74282083  0.70565245  0.15167936  1.0
  C  C156  1  0.14002148  0.14638116  0.34830060  1.0
  C  C157  1  0.35997457  0.35361796  0.84829830  1.0
  C  C158  1  0.85997520  0.85361687  0.65169928  1.0
  C  C159  1  0.64002894  0.64638270  0.15170115  1.0
  C  C160  1  0.02297660  0.16461227  0.31526866  1.0
  C  C161  1  0.47702153  0.33538756  0.81526850  1.0
  C  C162  1  0.97702095  0.83538774  0.68472946  1.0
  C  C163  1  0.52298002  0.66461244  0.18473006  1.0
  C  C164  1  0.01055228  0.24253383  0.28228277  1.0
  C  C165  1  0.48944679  0.25746868  0.78228088  1.0
  C  C166  1  0.98945032  0.75746552  0.71771535  1.0
  C  C167  1  0.51055362  0.74253330  0.21771724  1.0
  C  C168  1  0.91027880  0.10216735  0.31649621  1.0
  C  C169  1  0.58971778  0.39783093  0.81649407  1.0
  C  C170  1  0.08972002  0.89782870  0.68350280  1.0
  C  C171  1  0.41028150  0.60217302  0.18350315  1.0
  N  N172  1  0.48534235  0.87697351  0.76106121  1.0
  N  N173  1  0.01465902  0.62302613  0.26106229  1.0
  N  N174  1  0.51465725  0.12302584  0.23894045  1.0
  N  N175  1  0.98534550  0.37697453  0.73893848  1.0
  N  N176  1  0.08001097  0.57083800  0.12783909  1.0
  N  N177  1  0.41998980  0.92916314  0.62783934  1.0
  N  N178  1  0.91998858  0.42916201  0.87216125  1.0
  N  N179  1  0.58000765  0.07083818  0.37216143  1.0
  N  N180  1  0.89309010  0.66223660  0.97051571  1.0
  N  N181  1  0.60691277  0.83776384  0.47051613  1.0
  N  N182  1  0.10691045  0.33776341  0.02948418  1.0
  N  N183  1  0.39308669  0.16223749  0.52948465  1.0
  N  N184  1  0.76137388  0.72892927  0.86599132  1.0
  N  N185  1  0.73862747  0.77107000  0.36599169  1.0
  N  N186  1  0.23862781  0.27106876  0.13400857  1.0
  N  N187  1  0.26137113  0.22892935  0.63400865  1.0
  O  O188  1  0.19265831  0.43965308  0.25280962  1.0
  O  O189  1  0.30734220  0.06034486  0.75281022  1.0
  O  O190  1  0.80734129  0.56034627  0.74718983  1.0
  O  O191  1  0.69265836  0.93965514  0.24719056  1.0
  O  O192  1  0.99487195  0.40028532  0.21503354  1.0
  O  O193  1  0.50512883  0.09971574  0.71503345  1.0
  O  O194  1  0.00512965  0.59971402  0.78496591  1.0
  O  O195  1  0.49486972  0.90028427  0.28496600  1.0
  O  O196  1  0.80662736  0.12743268  0.28440610  1.0
  O  O197  1  0.69337030  0.37256631  0.78440568  1.0
  O  O198  1  0.19337128  0.87256601  0.71559024  1.0
  O  O199  1  0.30662916  0.62743501  0.21558889  1.0
  O  O200  1  0.91816820  0.03381735  0.34733234  1.0
  O  O201  1  0.58183533  0.46618023  0.84733106  1.0
  O  O202  1  0.08182606  0.96618661  0.65266621  1.0
  O  O203  1  0.41817352  0.53381582  0.15266573  1.0
