# generated using pymatgen
data_Zn4H24C48O13
_symmetry_space_group_name_H-M   'P 1'
_cell_length_a   27.77869980
_cell_length_b   28.03460422
_cell_length_c   28.03758146
_cell_angle_alpha   60.90753803
_cell_angle_beta   60.72613794
_cell_angle_gamma   60.71768870
_symmetry_Int_Tables_number   1
_chemical_formula_structural   Zn4H24C48O13
_chemical_formula_sum   'Zn8 H48 C96 O26'
_cell_volume   15712.32028888
_cell_formula_units_Z   2
loop_
 _symmetry_equiv_pos_site_id
 _symmetry_equiv_pos_as_xyz
  1  'x, y, z'
loop_
 _atom_site_type_symbol
 _atom_site_label
 _atom_site_symmetry_multiplicity
 _atom_site_fract_x
 _atom_site_fract_y
 _atom_site_fract_z
 _atom_site_occupancy
  Zn  Zn0  1  0.97115455  0.09426426  0.96913172  1.0
  Zn  Zn1  1  0.97113861  0.98158084  0.96484195  1.0
  Zn  Zn2  1  0.96955661  0.98152883  0.07998420  1.0
  Zn  Zn3  1  0.08504936  0.98171000  0.96744579  1.0
  Zn  Zn4  1  0.52741248  0.42445869  0.52385016  1.0
  Zn  Zn5  1  0.52976365  0.53832620  0.52289096  1.0
  Zn  Zn6  1  0.41371005  0.53844835  0.52396405  1.0
  Zn  Zn7  1  0.52706861  0.53596621  0.41090690  1.0
  H  H8  1  0.85023921  0.07058022  0.87800476  1.0
  H  H9  1  0.78618688  0.13407700  0.81620293  1.0
  H  H10  1  0.67959010  0.39112825  0.70654759  1.0
  H  H11  1  0.61748279  0.45308470  0.64279508  1.0
  H  H12  1  0.65077417  0.30484785  0.60764801  1.0
  H  H13  1  0.71367332  0.24237412  0.67058750  1.0
  H  H14  1  0.82917107  0.27960564  0.77964144  1.0
  H  H15  1  0.89215066  0.21570108  0.84249237  1.0
  H  H16  1  0.87474903  0.06484800  0.20405427  1.0
  H  H17  1  0.81147131  0.12656811  0.26772533  1.0
  H  H18  1  0.71486563  0.38460284  0.23044844  1.0
  H  H19  1  0.65169320  0.44765880  0.29278321  1.0
  H  H20  1  0.60645201  0.30338377  0.43789974  1.0
  H  H21  1  0.66835504  0.23991099  0.37595622  1.0
  H  H22  1  0.79171378  0.27784563  0.11753804  1.0
  H  H23  1  0.85465062  0.21533228  0.05468405  1.0
  H  H24  1  0.20466401  0.07031481  0.84423762  1.0
  H  H25  1  0.26617479  0.13477617  0.77977520  1.0
  H  H26  1  0.22493513  0.39354910  0.69149166  1.0
  H  H27  1  0.28915924  0.45541075  0.62856795  1.0
  H  H28  1  0.44153759  0.30358501  0.63405954  1.0
  H  H29  1  0.37795480  0.24108722  0.69658730  1.0
  H  H30  1  0.11874893  0.27816280  0.82874679  1.0
  H  H31  1  0.05761597  0.21330430  0.89231113  1.0
  H  H32  1  0.84877440  0.89668010  0.19657915  1.0
  H  H33  1  0.78490331  0.83448166  0.25886492  1.0
  H  H34  1  0.68186904  0.71133560  0.22183830  1.0
  H  H35  1  0.62066212  0.64671493  0.28762378  1.0
  H  H36  1  0.63725260  0.64109478  0.43486548  1.0
  H  H37  1  0.69826081  0.70599131  0.36968730  1.0
  H  H38  1  0.81066965  0.80695329  0.10838769  1.0
  H  H39  1  0.87426355  0.86945295  0.04668494  1.0
  H  H40  1  0.20885901  0.87288542  0.87015728  1.0
  H  H41  1  0.27330771  0.81046408  0.80727201  1.0
  H  H42  1  0.23077037  0.70821729  0.68631113  1.0
  H  H43  1  0.29303933  0.64576788  0.62337039  1.0
  H  H44  1  0.44761220  0.64084126  0.62822121  1.0
  H  H45  1  0.38613514  0.70300049  0.69145941  1.0
  H  H46  1  0.12104882  0.82046945  0.79207412  1.0
  H  H47  1  0.05736875  0.88288687  0.85498241  1.0
  H  H48  1  0.20509461  0.89368416  0.05536556  1.0
  H  H49  1  0.26777840  0.83105189  0.11850723  1.0
  H  H50  1  0.22578158  0.70893594  0.37795432  1.0
  H  H51  1  0.28930706  0.64479826  0.44023962  1.0
  H  H52  1  0.44156296  0.63166789  0.28922204  1.0
  H  H53  1  0.37879928  0.69605780  0.22620854  1.0
  H  H54  1  0.11645888  0.79826359  0.26514493  1.0
  H  H55  1  0.05430991  0.86169731  0.20150176  1.0
  C  C56  1  0.91206205  0.10144647  0.90165108  1.0
  C  C57  1  0.87487065  0.13943744  0.86384234  1.0
  C  C58  1  0.84520642  0.11639513  0.85619367  1.0
  C  C59  1  0.80976102  0.15165809  0.82180307  1.0
  C  C60  1  0.80348966  0.21104086  0.79381494  1.0
  C  C61  1  0.76748527  0.24692315  0.75862529  1.0
  C  C62  1  0.73640337  0.27746952  0.72823934  1.0
  C  C63  1  0.70078893  0.31269351  0.69266319  1.0
  C  C64  1  0.67335215  0.37253460  0.68455882  1.0
  C  C65  1  0.63881827  0.40692685  0.64925216  1.0
  C  C66  1  0.63054549  0.38262424  0.62144461  1.0
  C  C67  1  0.65748941  0.32314670  0.62952181  1.0
  C  C68  1  0.69230321  0.28849381  0.66454443  1.0
  C  C69  1  0.59323263  0.41974707  0.58370172  1.0
  C  C70  1  0.83371409  0.23387900  0.80147885  1.0
  C  C71  1  0.86879898  0.19840639  0.83625158  1.0
  C  C72  1  0.90634088  0.09937227  0.08775634  1.0
  C  C73  1  0.86843775  0.13641208  0.12562289  1.0
  C  C74  1  0.85614114  0.11149549  0.18573132  1.0
  C  C75  1  0.82097033  0.14588446  0.22106929  1.0
  C  C76  1  0.79732476  0.20642262  0.19692480  1.0
  C  C77  1  0.76173205  0.24169285  0.23275469  1.0
  C  C78  1  0.73116666  0.27225016  0.26357514  1.0
  C  C79  1  0.69581651  0.30797181  0.29896641  1.0
  C  C80  1  0.69082212  0.36699938  0.27579271  1.0
  C  C81  1  0.65584233  0.40209073  0.31042585  1.0
  C  C82  1  0.62540623  0.37923056  0.36898381  1.0
  C  C83  1  0.63036502  0.32058299  0.39241269  1.0
  C  C84  1  0.66491220  0.28531911  0.35793522  1.0
  C  C85  1  0.58814350  0.41709783  0.40597504  1.0
  C  C86  1  0.80993864  0.23120360  0.13637699  1.0
  C  C87  1  0.84493762  0.19649467  0.10136454  1.0
  C  C88  1  0.09080851  0.09993799  0.90951907  1.0
  C  C89  1  0.12760777  0.13811898  0.87194453  1.0
  C  C90  1  0.18646921  0.11586207  0.84039912  1.0
  C  C91  1  0.22053856  0.15157043  0.80474657  1.0
  C  C92  1  0.19638473  0.21059844  0.80015505  1.0
  C  C93  1  0.23117004  0.24693120  0.76420911  1.0
  C  C94  1  0.26152804  0.27801766  0.73343197  1.0
  C  C95  1  0.29737163  0.31333042  0.69802438  1.0
  C  C96  1  0.27238455  0.37417275  0.67875914  1.0
  C  C97  1  0.30793063  0.40847307  0.64391173  1.0
  C  C98  1  0.36900063  0.38308097  0.62769627  1.0
  C  C99  1  0.39409900  0.32264998  0.64689525  1.0
  C  C100  1  0.35887184  0.28804068  0.68152504  1.0
  C  C101  1  0.40706360  0.42005457  0.58982204  1.0
  C  C102  1  0.13716076  0.23268144  0.83217944  1.0
  C  C103  1  0.10331840  0.19674935  0.86747742  1.0
  C  C104  1  0.90442808  0.92247487  0.08165423  1.0
  C  C105  1  0.86543766  0.88640695  0.11812374  1.0
  C  C106  1  0.84007685  0.87671322  0.17792993  1.0
  C  C107  1  0.80472587  0.84225242  0.21240169  1.0
  C  C108  1  0.79397135  0.81645820  0.18764077  1.0
  C  C109  1  0.75876871  0.78053713  0.22311487  1.0
  C  C110  1  0.72867910  0.74921836  0.25468485  1.0
  C  C111  1  0.69403103  0.71280356  0.29155169  1.0
  C  C112  1  0.67191267  0.69580556  0.26850336  1.0
  C  C113  1  0.63802352  0.65997996  0.30492914  1.0
  C  C114  1  0.62544640  0.64014746  0.36500827  1.0
  C  C115  1  0.64727450  0.65687153  0.38819804  1.0
  C  C116  1  0.68109097  0.69282425  0.35206108  1.0
  C  C117  1  0.58918931  0.60141187  0.40363158  1.0
  C  C118  1  0.81914404  0.82683048  0.12735657  1.0
  C  C119  1  0.85440440  0.86143854  0.09315599  1.0
  C  C120  1  0.09115958  0.91894792  0.90392624  1.0
  C  C121  1  0.12929989  0.88162789  0.86631978  1.0
  C  C122  1  0.19023426  0.86110499  0.85273949  1.0
  C  C123  1  0.22601914  0.82636795  0.81777978  1.0
  C  C124  1  0.20155984  0.81118677  0.79537001  1.0
  C  C125  1  0.23780762  0.77576634  0.75973835  1.0
  C  C126  1  0.26891412  0.74519661  0.72892158  1.0
  C  C127  1  0.30422995  0.70986096  0.69318317  1.0
  C  C128  1  0.27825118  0.69337286  0.67357160  1.0
  C  C129  1  0.31279160  0.65868853  0.63855170  1.0
  C  C130  1  0.37396229  0.63963338  0.62206916  1.0
  C  C131  1  0.40010825  0.65587895  0.64129380  1.0
  C  C132  1  0.36584933  0.69046864  0.67644725  1.0
  C  C133  1  0.41076351  0.60222269  0.58455519  1.0
  C  C134  1  0.14017149  0.83201460  0.80922439  1.0
  C  C135  1  0.10468434  0.86674213  0.84422388  1.0
  C  C136  1  0.08881511  0.91893270  0.08690861  1.0
  C  C137  1  0.12605409  0.88136179  0.12472736  1.0
  C  C138  1  0.18628295  0.87257924  0.10134638  1.0
  C  C139  1  0.22106161  0.83772168  0.13642772  1.0
  C  C140  1  0.19628417  0.81043349  0.19601562  1.0
  C  C141  1  0.23173322  0.77451394  0.23175621  1.0
  C  C142  1  0.26246334  0.74323578  0.26248076  1.0
  C  C143  1  0.29813377  0.70681916  0.29795250  1.0
  C  C144  1  0.27305121  0.69190100  0.35875788  1.0
  C  C145  1  0.30825775  0.65627685  0.39336515  1.0
  C  C146  1  0.36912813  0.63449753  0.36837076  1.0
  C  C147  1  0.39429753  0.64895324  0.30801761  1.0
  C  C148  1  0.35942832  0.68472186  0.27308796  1.0
  C  C149  1  0.40692374  0.59666321  0.40562605  1.0
  C  C150  1  0.13562409  0.81943966  0.21924415  1.0
  C  C151  1  0.10109542  0.85457410  0.18392653  1.0
  O  O152  1  0.99930465  0.00946375  0.99524102  1.0
  O  O153  1  0.92038437  0.04729796  0.92058768  1.0
  O  O154  1  0.93239009  0.12617348  0.91224087  1.0
  O  O155  1  0.57491545  0.47426532  0.57351304  1.0
  O  O156  1  0.58258364  0.39402990  0.56456144  1.0
  O  O157  1  0.92651411  0.04504517  0.11260087  1.0
  O  O158  1  0.91569898  0.12493813  0.03342918  1.0
  O  O159  1  0.58005849  0.47123937  0.38042887  1.0
  O  O160  1  0.56729448  0.39245613  0.46021552  1.0
  O  O161  1  0.11651839  0.04601282  0.91576568  1.0
  O  O162  1  0.03631003  0.12422916  0.93244448  1.0
  O  O163  1  0.38144093  0.47465694  0.57279023  1.0
  O  O164  1  0.46225238  0.39412066  0.57731349  1.0
  O  O165  1  0.91474986  0.94124126  0.10795194  1.0
  O  O166  1  0.92458132  0.93154428  0.02721412  1.0
  O  O167  1  0.57064378  0.58865538  0.37909699  1.0
  O  O168  1  0.57956962  0.58409595  0.45793395  1.0
  O  O169  1  0.11670984  0.93029187  0.92274549  1.0
  O  O170  1  0.03608025  0.93656529  0.91428938  1.0
  O  O171  1  0.38378979  0.58782630  0.57022699  1.0
  O  O172  1  0.46615658  0.58759562  0.56983951  1.0
  O  O173  1  0.11494635  0.93879743  0.03283261  1.0
  O  O174  1  0.03379796  0.92822672  0.11166878  1.0
  O  O175  1  0.38127260  0.58551391  0.46020555  1.0
  O  O176  1  0.46198922  0.57854460  0.37996758  1.0
  O  O177  1  0.49944264  0.50933703  0.49565223  1.0
