# generated using pymatgen
data_ZnH12C15SN3O4
_symmetry_space_group_name_H-M   'P 1'
_cell_length_a   12.29723647
_cell_length_b   20.10457796
_cell_length_c   20.10460994
_cell_angle_alpha   102.61771765
_cell_angle_beta   94.88550064
_cell_angle_gamma   94.88546652
_symmetry_Int_Tables_number   1
_chemical_formula_structural   ZnH12C15SN3O4
_chemical_formula_sum   'Zn8 H96 C120 S8 N24 O32'
_cell_volume   4805.21318366
_cell_formula_units_Z   8
loop_
 _symmetry_equiv_pos_site_id
 _symmetry_equiv_pos_as_xyz
  1  'x, y, z'
loop_
 _atom_site_type_symbol
 _atom_site_label
 _atom_site_symmetry_multiplicity
 _atom_site_fract_x
 _atom_site_fract_y
 _atom_site_fract_z
 _atom_site_occupancy
  Zn  Zn0  1  0.90415625  0.52928393  0.01708626  1.0
  Zn  Zn1  1  0.59584156  0.98291270  0.47071677  1.0
  Zn  Zn2  1  0.09584254  0.47071779  0.98291338  1.0
  Zn  Zn3  1  0.40415660  0.01708543  0.52928305  1.0
  Zn  Zn4  1  0.70296561  0.79062011  0.05922756  1.0
  Zn  Zn5  1  0.79703495  0.94077089  0.20937859  1.0
  Zn  Zn6  1  0.29703437  0.20937905  0.94077208  1.0
  Zn  Zn7  1  0.20296675  0.05922878  0.79062076  1.0
  H  H8  1  0.85368311  0.67499050  0.07485289  1.0
  H  H9  1  0.64631727  0.92514723  0.32500902  1.0
  H  H10  1  0.14631696  0.32500917  0.92514637  1.0
  H  H11  1  0.35368370  0.07485295  0.67499041  1.0
  H  H12  1  0.78817378  0.65420739  0.98914682  1.0
  H  H13  1  0.71182566  0.01085350  0.34579226  1.0
  H  H14  1  0.21182556  0.34579279  0.01085301  1.0
  H  H15  1  0.28817539  0.98914719  0.65420778  1.0
  H  H16  1  0.67273630  0.54623930  0.94780886  1.0
  H  H17  1  0.82726360  0.05219111  0.45376101  1.0
  H  H18  1  0.32726394  0.45376139  0.05219113  1.0
  H  H19  1  0.17273646  0.94780856  0.54623924  1.0
  H  H20  1  0.64996047  0.48980099  0.00418639  1.0
  H  H21  1  0.85004002  0.99581387  0.51019868  1.0
  H  H22  1  0.35004041  0.51019867  0.99581341  1.0
  H  H23  1  0.14995923  0.00418580  0.48980103  1.0
  H  H24  1  0.73868519  0.51925432  0.11980097  1.0
  H  H25  1  0.76131660  0.88019955  0.48074612  1.0
  H  H26  1  0.26131587  0.48074637  0.88019906  1.0
  H  H27  1  0.23868356  0.11980063  0.51925375  1.0
  H  H28  1  0.82428056  0.59835658  0.15022309  1.0
  H  H29  1  0.67571979  0.84977697  0.40164310  1.0
  H  H30  1  0.17572032  0.40164309  0.84977671  1.0
  H  H31  1  0.32427955  0.15022321  0.59835673  1.0
  H  H32  1  0.51206279  0.67565776  0.03718851  1.0
  H  H33  1  0.98793745  0.96281162  0.32434196  1.0
  H  H34  1  0.48793727  0.32434191  0.96281224  1.0
  H  H35  1  0.01206433  0.03718856  0.67565850  1.0
  H  H36  1  0.59397115  0.65416225  0.96742913  1.0
  H  H37  1  0.90602913  0.03257062  0.34583705  1.0
  H  H38  1  0.40602882  0.34583691  0.03257101  1.0
  H  H39  1  0.09397166  0.96742854  0.65416313  1.0
  H  H40  1  0.54343017  0.51950716  0.09683746  1.0
  H  H41  1  0.95657089  0.90316354  0.48049259  1.0
  H  H42  1  0.45657070  0.48049251  0.90316383  1.0
  H  H43  1  0.04342917  0.09683613  0.51950767  1.0
  H  H44  1  0.48472027  0.59941846  0.11175016  1.0
  H  H45  1  0.01528070  0.88824995  0.40058176  1.0
  H  H46  1  0.51528061  0.40058121  0.88825014  1.0
  H  H47  1  0.98471936  0.11174972  0.59941849  1.0
  H  H48  1  0.74406574  0.70469893  0.17011577  1.0
  H  H49  1  0.75593521  0.82988418  0.29530121  1.0
  H  H50  1  0.25593523  0.29530125  0.82988415  1.0
  H  H51  1  0.24406322  0.17011549  0.70469797  1.0
  H  H52  1  0.59906296  0.70518145  0.15338173  1.0
  H  H53  1  0.90093717  0.84661796  0.29481856  1.0
  H  H54  1  0.40093719  0.29481873  0.84661815  1.0
  H  H55  1  0.09906208  0.15338171  0.70518066  1.0
  H  H56  1  0.77382515  0.39266333  0.13806603  1.0
  H  H57  1  0.72617490  0.86193400  0.60733665  1.0
  H  H58  1  0.22617229  0.60733532  0.86193286  1.0
  H  H59  1  0.27382770  0.13806618  0.39266386  1.0
  H  H60  1  0.72005108  0.29777008  0.19462500  1.0
  H  H61  1  0.77994989  0.80537509  0.70222981  1.0
  H  H62  1  0.27994808  0.70222908  0.80537460  1.0
  H  H63  1  0.22005298  0.19462662  0.29777104  1.0
  H  H64  1  0.75719086  0.18703839  0.22372609  1.0
  H  H65  1  0.74281064  0.77627431  0.81296160  1.0
  H  H66  1  0.24281020  0.81296230  0.77627345  1.0
  H  H67  1  0.25719114  0.22372586  0.18703886  1.0
  H  H68  1  0.04010512  0.09061720  0.15597772  1.0
  H  H69  1  0.45989567  0.84402274  0.90938272  1.0
  H  H70  1  0.95989602  0.90938401  0.84402293  1.0
  H  H71  1  0.54010657  0.15598000  0.09061683  1.0
  H  H72  1  0.09981284  0.18962773  0.10710997  1.0
  H  H73  1  0.40018834  0.89289081  0.81037152  1.0
  H  H74  1  0.90018740  0.81037297  0.89289051  1.0
  H  H75  1  0.59981535  0.10711091  0.18962689  1.0
  H  H76  1  0.06615533  0.30065751  0.08149424  1.0
  H  H77  1  0.43384441  0.91850384  0.69934155  1.0
  H  H78  1  0.93384329  0.69934318  0.91850367  1.0
  H  H79  1  0.56615648  0.08149583  0.30065726  1.0
  H  H80  1  0.32843194  0.60150744  0.13280644  1.0
  H  H81  1  0.17156714  0.86719376  0.39849139  1.0
  H  H82  1  0.67156812  0.39849222  0.86719282  1.0
  H  H83  1  0.82843283  0.13280540  0.60150974  1.0
  H  H84  1  0.03818950  0.68102242  0.20629058  1.0
  H  H85  1  0.46180884  0.79371107  0.31897549  1.0
  H  H86  1  0.96180984  0.31897776  0.79371025  1.0
  H  H87  1  0.53818968  0.20628911  0.68102529  1.0
  H  H88  1  0.44682802  0.69072043  0.22273164  1.0
  H  H89  1  0.05317310  0.77726780  0.30928041  1.0
  H  H90  1  0.55317295  0.30927975  0.77726828  1.0
  H  H91  1  0.94682777  0.22273186  0.69072088  1.0
  H  H92  1  0.02675787  0.74550104  0.03658948  1.0
  H  H93  1  0.47324232  0.96341043  0.25449780  1.0
  H  H94  1  0.97324519  0.25449709  0.96341109  1.0
  H  H95  1  0.52675620  0.03658975  0.74550299  1.0
  H  H96  1  0.08183234  0.91476783  0.21291982  1.0
  H  H97  1  0.41816847  0.78708110  0.08523118  1.0
  H  H98  1  0.91816682  0.08523132  0.78707928  1.0
  H  H99  1  0.58183441  0.21292062  0.91476868  1.0
  H  H100  1  0.22774004  0.74044362  0.03549794  1.0
  H  H101  1  0.27225958  0.96450116  0.25955676  1.0
  H  H102  1  0.77226175  0.25955656  0.96450153  1.0
  H  H103  1  0.72773884  0.03549851  0.74044391  1.0
  C  C104  1  0.77911708  0.65025073  0.04193987  1.0
  C  C105  1  0.72088251  0.95806025  0.34974889  1.0
  C  C106  1  0.22088225  0.34974946  0.95805996  1.0
  C  C107  1  0.27911764  0.04193993  0.65025098  1.0
  C  C108  1  0.66170092  0.54364738  0.00083966  1.0
  C  C109  1  0.83829955  0.99916074  0.45635229  1.0
  C  C110  1  0.33829914  0.45635228  0.99916059  1.0
  C  C111  1  0.16170061  0.00083944  0.54364808  1.0
  C  C112  1  0.74909639  0.57347380  0.11784967  1.0
  C  C113  1  0.75090583  0.88215078  0.42652602  1.0
  C  C114  1  0.25090540  0.42652638  0.88215029  1.0
  C  C115  1  0.24909433  0.11784940  0.57347386  1.0
  C  C116  1  0.58301403  0.64958015  0.01993399  1.0
  C  C117  1  0.91698573  0.98006656  0.35041943  1.0
  C  C118  1  0.41698521  0.35041952  0.98006623  1.0
  C  C119  1  0.08301524  0.01993362  0.64958049  1.0
  C  C120  1  0.55598777  0.57371884  0.09466455  1.0
  C  C121  1  0.94401356  0.90533579  0.42628090  1.0
  C  C122  1  0.44401319  0.42628134  0.90533636  1.0
  C  C123  1  0.05598651  0.09466388  0.57371886  1.0
  C  C124  1  0.66999214  0.67881908  0.13695531  1.0
  C  C125  1  0.83000795  0.86304389  0.32118067  1.0
  C  C126  1  0.33000793  0.32118059  0.86304444  1.0
  C  C127  1  0.16999211  0.13695578  0.67881959  1.0
  C  C128  1  0.95222383  0.40798427  0.07043366  1.0
  C  C129  1  0.54776723  0.92956954  0.59201942  1.0
  C  C130  1  0.04776706  0.59201900  0.92956988  1.0
  C  C131  1  0.45222076  0.07043118  0.40798340  1.0
  C  C132  1  0.92315584  0.35197865  0.10608564  1.0
  C  C133  1  0.57684156  0.89391134  0.64802075  1.0
  C  C134  1  0.07684024  0.64802153  0.89391203  1.0
  C  C135  1  0.42315833  0.10608731  0.35197877  1.0
  C  C136  1  0.82492165  0.35107908  0.13856895  1.0
  C  C137  1  0.67507809  0.86143006  0.64892073  1.0
  C  C138  1  0.17507524  0.64892110  0.86143025  1.0
  C  C139  1  0.32492279  0.13856961  0.35107957  1.0
  C  C140  1  0.79548598  0.29875851  0.16973772  1.0
  C  C141  1  0.70451637  0.83026212  0.70124087  1.0
  C  C142  1  0.20451409  0.70124116  0.83026154  1.0
  C  C143  1  0.29548723  0.16973909  0.29875942  1.0
  C  C144  1  0.86200423  0.24424368  0.16920782  1.0
  C  C145  1  0.63799674  0.83079230  0.75575636  1.0
  C  C146  1  0.13799583  0.75575598  0.83079094  1.0
  C  C147  1  0.36200712  0.16921044  0.24424477  1.0
  C  C148  1  0.83224063  0.18846413  0.19857029  1.0
  C  C149  1  0.66776146  0.80143033  0.81153603  1.0
  C  C150  1  0.16775962  0.81153656  0.80142970  1.0
  C  C151  1  0.33224222  0.19857138  0.18846388  1.0
  C  C152  1  0.89507358  0.13391881  0.19352361  1.0
  C  C153  1  0.60492777  0.80647743  0.86608044  1.0
  C  C154  1  0.10492593  0.86608240  0.80647745  1.0
  C  C155  1  0.39507437  0.19352480  0.13391999  1.0
  C  C156  1  0.99280285  0.13445950  0.16048942  1.0
  C  C157  1  0.50719822  0.83951133  0.86554038  1.0
  C  C158  1  0.00719748  0.86554170  0.83951069  1.0
  C  C159  1  0.49280637  0.16049090  0.13445968  1.0
  C  C160  1  0.02551951  0.18904768  0.13313763  1.0
  C  C161  1  0.47448121  0.86686243  0.81095227  1.0
  C  C162  1  0.97448001  0.81095352  0.86686194  1.0
  C  C163  1  0.52552375  0.13313723  0.18904576  1.0
  C  C164  1  0.96096562  0.24478157  0.13618324  1.0
  C  C165  1  0.53903587  0.86381516  0.75521815  1.0
  C  C166  1  0.03903373  0.75521861  0.86381461  1.0
  C  C167  1  0.46097036  0.13618706  0.24478150  1.0
  C  C168  1  0.99021250  0.29994266  0.10577200  1.0
  C  C169  1  0.50978402  0.89422511  0.70005737  1.0
  C  C170  1  0.00978367  0.70005804  0.89422479  1.0
  C  C171  1  0.49021541  0.10577559  0.29994407  1.0
  C  C172  1  0.85275668  0.07234242  0.21761730  1.0
  C  C173  1  0.64724471  0.78238232  0.92765698  1.0
  C  C174  1  0.14724447  0.92765878  0.78238285  1.0
  C  C175  1  0.35275717  0.21761837  0.07234260  1.0
  C  C176  1  0.10983579  0.58564752  0.10733803  1.0
  C  C177  1  0.39015788  0.89266364  0.41435557  1.0
  C  C178  1  0.89016055  0.41435420  0.89266198  1.0
  C  C179  1  0.60983183  0.10733758  0.58564795  1.0
  C  C180  1  0.17698992  0.63711647  0.16434190  1.0
  C  C181  1  0.32300743  0.83565700  0.36288108  1.0
  C  C182  1  0.82301006  0.36288268  0.83565675  1.0
  C  C183  1  0.67698893  0.16434011  0.63711742  1.0
  C  C184  1  0.29307040  0.63953052  0.16955258  1.0
  C  C185  1  0.20692743  0.83044849  0.36046973  1.0
  C  C186  1  0.70692976  0.36046966  0.83044730  1.0
  C  C187  1  0.79306927  0.16955067  0.63953173  1.0
  C  C188  1  0.12750980  0.68325243  0.21061086  1.0
  C  C189  1  0.37248779  0.78939034  0.31674731  1.0
  C  C190  1  0.87249035  0.31674775  0.78939051  1.0
  C  C191  1  0.62750891  0.21060882  0.68325465  1.0
  C  C192  1  0.19120014  0.73354093  0.26279707  1.0
  C  C193  1  0.30879922  0.73720281  0.26645883  1.0
  C  C194  1  0.80879992  0.26645873  0.73720468  1.0
  C  C195  1  0.69120401  0.26279634  0.73354298  1.0
  C  C196  1  0.35739101  0.68848872  0.21896880  1.0
  C  C197  1  0.14260698  0.78103104  0.31151154  1.0
  C  C198  1  0.64260832  0.31151146  0.78103153  1.0
  C  C199  1  0.85739127  0.21896761  0.68848890  1.0
  C  C200  1  0.92322167  0.83262820  0.12664213  1.0
  C  C201  1  0.57677657  0.87335582  0.16736777  1.0
  C  C202  1  0.07677786  0.16736839  0.87335494  1.0
  C  C203  1  0.42322368  0.12664488  0.83263123  1.0
  C  C204  1  0.04346811  0.82998111  0.12608629  1.0
  C  C205  1  0.45653245  0.87391652  0.17001612  1.0
  C  C206  1  0.95653322  0.17001651  0.87391507  1.0
  C  C207  1  0.54346825  0.12608674  0.82998247  1.0
  C  C208  1  0.08449520  0.78094911  0.07484290  1.0
  C  C209  1  0.41550538  0.92515815  0.21904805  1.0
  C  C210  1  0.91550768  0.21904799  0.92515744  1.0
  C  C211  1  0.58449423  0.07484357  0.78095164  1.0
  C  C212  1  0.11470647  0.87641059  0.17495209  1.0
  C  C213  1  0.38529139  0.82504829  0.12358679  1.0
  C  C214  1  0.88529187  0.12358857  0.82504846  1.0
  C  C215  1  0.61470895  0.17495291  0.87641133  1.0
  C  C216  1  0.19573466  0.77835744  0.07443321  1.0
  C  C217  1  0.30426641  0.92556581  0.22164149  1.0
  C  C218  1  0.80426776  0.22164171  0.92556656  1.0
  C  C219  1  0.69573283  0.07443386  0.77835872  1.0
  C  C220  1  0.22931333  0.87617054  0.17457590  1.0
  C  C221  1  0.27068511  0.82542365  0.12382835  1.0
  C  C222  1  0.77068510  0.12382913  0.82542427  1.0
  C  C223  1  0.72931586  0.17457653  0.87617107  1.0
  S  S224  1  0.86140405  0.96203685  0.03680904  1.0
  S  S225  1  0.63859593  0.96319074  0.03796291  1.0
  S  S226  1  0.13859611  0.03796333  0.96319083  1.0
  S  S227  1  0.36140414  0.03680893  0.96203685  1.0
  S  S228  1  0.72952693  0.96818365  0.92205475  1.0
  S  S229  1  0.77047310  0.07794509  0.03181629  1.0
  S  S230  1  0.27047322  0.03181654  0.07794563  1.0
  S  S231  1  0.22952851  0.92205406  0.96818394  1.0
  N  N232  1  0.76448947  0.57692027  0.04523902  1.0
  N  N233  1  0.73551075  0.95476125  0.42308022  1.0
  N  N234  1  0.23550996  0.42308042  0.95476092  1.0
  N  N235  1  0.26448940  0.04523893  0.57691966  1.0
  N  N236  1  0.68343943  0.68582495  0.06527177  1.0
  N  N237  1  0.81656108  0.93472796  0.31417436  1.0
  N  N238  1  0.31656063  0.31417472  0.93472799  1.0
  N  N239  1  0.18343980  0.06527171  0.68582495  1.0
  N  N240  1  0.56617014  0.57759360  0.02295027  1.0
  N  N241  1  0.93382952  0.97705052  0.42240592  1.0
  N  N242  1  0.43382992  0.42240607  0.97705048  1.0
  N  N243  1  0.06616891  0.02294915  0.57759375  1.0
  N  N244  1  0.65417671  0.60716150  0.14078820  1.0
  N  N245  1  0.84582346  0.85921245  0.39283848  1.0
  N  N246  1  0.34582344  0.39283868  0.85921267  1.0
  N  N247  1  0.15417579  0.14078722  0.60716074  1.0
  N  N248  1  0.75000000  0.93409917  0.06590068  1.0
  N  N249  1  0.25000015  0.06590101  0.93409920  1.0
  N  N250  1  0.83660918  0.93849050  0.95386059  1.0
  N  N251  1  0.66338983  0.04613847  0.06150926  1.0
  N  N252  1  0.16339098  0.06150969  0.04613879  1.0
  N  N253  1  0.33661023  0.95386120  0.93849050  1.0
  N  N254  1  0.75000006  0.05084091  0.94915899  1.0
  N  N255  1  0.25000172  0.94915927  0.05084197  1.0
  O  O256  1  0.88555994  0.45330801  0.07048215  1.0
  O  O257  1  0.61443873  0.92951797  0.54668991  1.0
  O  O258  1  0.11443260  0.54669064  0.92951798  1.0
  O  O259  1  0.38556144  0.07048221  0.45330698  1.0
  O  O260  1  0.04058701  0.40593957  0.04145506  1.0
  O  O261  1  0.45940886  0.95854375  0.59406518  1.0
  O  O262  1  0.95940669  0.59406575  0.95854509  1.0
  O  O263  1  0.54059075  0.04145335  0.40593648  1.0
  O  O264  1  0.89516426  0.01576762  0.19243284  1.0
  O  O265  1  0.60483538  0.80756706  0.98423196  1.0
  O  O266  1  0.10483607  0.98423359  0.80756776  1.0
  O  O267  1  0.39516478  0.19243312  0.01576792  1.0
  O  O268  1  0.77857602  0.07454810  0.25684168  1.0
  O  O269  1  0.72142407  0.74315817  0.92545095  1.0
  O  O270  1  0.22142422  0.92545259  0.74315881  1.0
  O  O271  1  0.27857527  0.25684201  0.07454788  1.0
  O  O272  1  0.00680741  0.58949671  0.09970332  1.0
  O  O273  1  0.49319937  0.90029521  0.41050313  1.0
  O  O274  1  0.99319746  0.41050243  0.90029658  1.0
  O  O275  1  0.50680686  0.09970240  0.58949551  1.0
  O  O276  1  0.16183074  0.54226056  0.06985450  1.0
  O  O277  1  0.33817149  0.93014387  0.45773947  1.0
  O  O278  1  0.83817141  0.45774167  0.93014394  1.0
  O  O279  1  0.66182741  0.06985375  0.54225630  1.0
  O  O280  1  0.86327003  0.80263109  0.07135160  1.0
  O  O281  1  0.63673146  0.92864663  0.19736571  1.0
  O  O282  1  0.13673123  0.19736602  0.92864518  1.0
  O  O283  1  0.36326969  0.07135457  0.80263444  1.0
  O  O284  1  0.88725296  0.86305083  0.18161313  1.0
  O  O285  1  0.61274114  0.81838628  0.13694626  1.0
  O  O286  1  0.11274177  0.13694628  0.81838479  1.0
  O  O287  1  0.38725765  0.18161544  0.86305438  1.0
