# generated using pymatgen
data_AlH15(C3O)9
_symmetry_space_group_name_H-M   'P 1'
_cell_length_a   4.02154513
_cell_length_b   15.99123165
_cell_length_c   16.01132977
_cell_angle_alpha   60.20344442
_cell_angle_beta   89.17177319
_cell_angle_gamma   89.52226568
_symmetry_Int_Tables_number   1
_chemical_formula_structural   AlH15(C3O)9
_chemical_formula_sum   'Al1 H15 C27 O9'
_cell_volume   893.45731927
_cell_formula_units_Z   1
loop_
 _symmetry_equiv_pos_site_id
 _symmetry_equiv_pos_as_xyz
  1  'x, y, z'
loop_
 _atom_site_type_symbol
 _atom_site_label
 _atom_site_symmetry_multiplicity
 _atom_site_fract_x
 _atom_site_fract_y
 _atom_site_fract_z
 _atom_site_occupancy
  Al  Al0  1  0.01773968  0.49957529  0.49883316  1.0
  H  H1  1  0.50440006  0.07584609  0.07781198  1.0
  H  H2  1  0.50499293  0.07902440  0.34451569  1.0
  H  H3  1  0.49315734  0.34602380  0.07521451  1.0
  H  H4  1  0.81157407  0.25474197  0.76691961  1.0
  H  H5  1  0.80682404  0.16562211  0.94489929  1.0
  H  H6  1  0.16514104  0.38432729  0.94435134  1.0
  H  H7  1  0.19949145  0.94244793  0.17108058  1.0
  H  H8  1  0.82017785  0.76964270  0.47714212  1.0
  H  H9  1  0.82188639  0.94787735  0.38646841  1.0
  H  H10  1  0.81778375  0.16852627  0.38364095  1.0
  H  H11  1  0.20762177  0.47857937  0.25757374  1.0
  H  H12  1  0.19723480  0.39032840  0.16683392  1.0
  H  H13  1  0.01761077  0.49316819  0.70316210  1.0
  H  H14  1  0.04216862  0.70171358  0.30476945  1.0
  H  H15  1  0.87846993  0.29586713  0.50822382  1.0
  C  C16  1  0.51530499  0.64918525  0.42930326  1.0
  C  C17  1  0.51950946  0.42863843  0.42173078  1.0
  C  C18  1  0.50476820  0.42284268  0.64888321  1.0
  C  C19  1  0.51062321  0.06525220  0.21727758  1.0
  C  C20  1  0.50300299  0.11592622  0.11646591  1.0
  C  C21  1  0.49247255  0.21687658  0.06443913  1.0
  C  C22  1  0.49043650  0.26741767  0.11519216  1.0
  C  C23  1  0.50133502  0.21872089  0.21605322  1.0
  C  C24  1  0.51006056  0.11769227  0.26604874  1.0
  C  C25  1  0.66447046  0.28142835  0.80659885  1.0
  C  C26  1  0.66074913  0.23137102  0.90662309  1.0
  C  C27  1  0.48929630  0.26880166  0.95803641  1.0
  C  C28  1  0.31403630  0.35556592  0.90692912  1.0
  C  C29  1  0.30534965  0.40441062  0.80651214  1.0
  C  C30  1  0.48932116  0.36810407  0.75603410  1.0
  C  C31  1  0.34320269  0.90613645  0.23696058  1.0
  C  C32  1  0.33123714  0.80566557  0.28940569  1.0
  C  C33  1  0.50606743  0.75650003  0.37626312  1.0
  C  C34  1  0.67920712  0.80838471  0.41089216  1.0
  C  C35  1  0.67906335  0.90851819  0.35988217  1.0
  C  C36  1  0.51280174  0.95865898  0.27162686  1.0
  C  C37  1  0.67825022  0.23567655  0.35531645  1.0
  C  C38  1  0.69507190  0.28653916  0.40527714  1.0
  C  C39  1  0.52253222  0.37557641  0.36960135  1.0
  C  C40  1  0.34393556  0.41118753  0.28326566  1.0
  C  C41  1  0.34093276  0.36217243  0.23255992  1.0
  C  C42  1  0.50673640  0.27261316  0.26881677  1.0
  O  O43  1  0.27661597  0.40808675  0.60340365  1.0
  O  O44  1  0.28218140  0.60372664  0.48898482  1.0
  O  O45  1  0.29062903  0.49079269  0.40565451  1.0
  O  O46  1  0.74726412  0.48175119  0.60863414  1.0
  O  O47  1  0.75130528  0.40924605  0.48503461  1.0
  O  O48  1  0.75995810  0.60867400  0.41053876  1.0
  O  O49  1  0.12257807  0.48735391  0.76105142  1.0
  O  O50  1  0.15388784  0.75888477  0.25276637  1.0
  O  O51  1  0.87334139  0.24718287  0.48701790  1.0
