# generated using pymatgen
data_AlH5C16I4N4O5
_symmetry_space_group_name_H-M   'P 1'
_cell_length_a   6.70984008
_cell_length_b   25.43972662
_cell_length_c   28.17547139
_cell_angle_alpha   89.99982996
_cell_angle_beta   89.99973971
_cell_angle_gamma   89.99994244
_symmetry_Int_Tables_number   1
_chemical_formula_structural   AlH5C16I4N4O5
_chemical_formula_sum   'Al4 H20 C64 I16 N16 O20'
_cell_volume   4809.45427595
_cell_formula_units_Z   4
loop_
 _symmetry_equiv_pos_site_id
 _symmetry_equiv_pos_as_xyz
  1  'x, y, z'
loop_
 _atom_site_type_symbol
 _atom_site_label
 _atom_site_symmetry_multiplicity
 _atom_site_fract_x
 _atom_site_fract_y
 _atom_site_fract_z
 _atom_site_occupancy
  Al  Al0  1  0.21537445  0.75182288  0.25000001  1.0
  Al  Al1  1  0.78461510  0.24817819  0.75000016  1.0
  Al  Al2  1  0.71537445  0.74817850  0.25000009  1.0
  Al  Al3  1  0.28461659  0.25181943  0.74999973  1.0
  H  H4  1  0.24742721  0.60889059  0.45143745  1.0
  H  H5  1  0.75258469  0.39110813  0.54856343  1.0
  H  H6  1  0.75256611  0.39111100  0.95143584  1.0
  H  H7  1  0.24742940  0.60888771  0.04856540  1.0
  H  H8  1  0.74742158  0.89111039  0.04856403  1.0
  H  H9  1  0.25257989  0.10888754  0.95143721  1.0
  H  H10  1  0.25259103  0.10889213  0.54856125  1.0
  H  H11  1  0.74740746  0.89111051  0.45143750  1.0
  H  H12  1  0.69158637  0.61954451  0.33641161  1.0
  H  H13  1  0.30842255  0.38045617  0.66358892  1.0
  H  H14  1  0.30840755  0.38045549  0.83640946  1.0
  H  H15  1  0.69159391  0.61954558  0.16359143  1.0
  H  H16  1  0.19157719  0.88045963  0.16359100  1.0
  H  H17  1  0.80841832  0.11954262  0.83641024  1.0
  H  H18  1  0.80841841  0.11953976  0.66358970  1.0
  H  H19  1  0.19157412  0.88045896  0.33641047  1.0
  H  H20  1  0.45628490  0.68058701  0.24999997  1.0
  H  H21  1  0.54371060  0.31941288  0.75000127  1.0
  H  H22  1  0.95628621  0.81941507  0.25000163  1.0
  H  H23  1  0.04370930  0.18058679  0.74999996  1.0
  C  C24  1  0.46830976  0.81200027  0.31517208  1.0
  C  C25  1  0.53167532  0.18799963  0.68483023  1.0
  C  C26  1  0.53167860  0.18800059  0.81516984  1.0
  C  C27  1  0.46831095  0.81199969  0.18482892  1.0
  C  C28  1  0.96832005  0.68800063  0.18482880  1.0
  C  C29  1  0.03167993  0.31200005  0.81517208  1.0
  C  C30  1  0.03169006  0.31200222  0.68482892  1.0
  C  C31  1  0.96831736  0.68800003  0.31517338  1.0
  C  C32  1  0.12885857  0.64962228  0.39067539  1.0
  C  C33  1  0.87115483  0.35037604  0.60932691  1.0
  C  C34  1  0.87113884  0.35037794  0.89067588  1.0
  C  C35  1  0.12886263  0.64962117  0.10932713  1.0
  C  C36  1  0.62885640  0.85038306  0.10932693  1.0
  C  C37  1  0.37114060  0.14961722  0.89067360  1.0
  C  C38  1  0.37115360  0.14961926  0.60932462  1.0
  C  C39  1  0.62885085  0.85038182  0.39067342  1.0
  C  C40  1  0.12564361  0.61115915  0.42595578  1.0
  C  C41  1  0.87436382  0.38883720  0.57404404  1.0
  C  C42  1  0.87435762  0.38884292  0.92595545  1.0
  C  C43  1  0.12564534  0.61115697  0.07404720  1.0
  C  C44  1  0.62562262  0.88884226  0.07404229  1.0
  C  C45  1  0.37437885  0.11115606  0.92595859  1.0
  C  C46  1  0.37438058  0.11115742  0.57404043  1.0
  C  C47  1  0.62561642  0.88884286  0.42595761  1.0
  C  C48  1  0.96857579  0.57515271  0.42957091  1.0
  C  C49  1  0.03142419  0.42484679  0.57042891  1.0
  C  C50  1  0.03142240  0.42484895  0.92957144  1.0
  C  C51  1  0.96857758  0.57515173  0.07043158  1.0
  C  C52  1  0.46855925  0.92484779  0.07042926  1.0
  C  C53  1  0.53144073  0.07515092  0.92957162  1.0
  C  C54  1  0.53144550  0.07515230  0.57042839  1.0
  C  C55  1  0.46855596  0.92484878  0.42957037  1.0
  C  C56  1  0.80871086  0.57873499  0.39754030  1.0
  C  C57  1  0.19128762  0.42126451  0.60245881  1.0
  C  C58  1  0.19127598  0.42126560  0.89753746  1.0
  C  C59  1  0.80872101  0.57873429  0.10246378  1.0
  C  C60  1  0.30869822  0.92126636  0.10245970  1.0
  C  C61  1  0.69130176  0.07873589  0.89754119  1.0
  C  C62  1  0.69130744  0.07873755  0.60245970  1.0
  C  C63  1  0.30869403  0.92126352  0.39754047  1.0
  C  C64  1  0.81318219  0.61659551  0.36185033  1.0
  C  C65  1  0.18683419  0.38340516  0.63814948  1.0
  C  C66  1  0.18681426  0.38340362  0.86184902  1.0
  C  C67  1  0.81319019  0.61659509  0.13815363  1.0
  C  C68  1  0.31317644  0.88340780  0.13815320  1.0
  C  C69  1  0.68681907  0.11659445  0.86184875  1.0
  C  C70  1  0.68682409  0.11659482  0.63815063  1.0
  C  C71  1  0.31317141  0.88340625  0.36184884  1.0
  C  C72  1  0.97323816  0.65183211  0.35713333  1.0
  C  C73  1  0.02677374  0.34816778  0.64286755  1.0
  C  C74  1  0.02675986  0.34816861  0.85713194  1.0
  C  C75  1  0.97324161  0.65183129  0.14287036  1.0
  C  C76  1  0.47323689  0.84817035  0.14287003  1.0
  C  C77  1  0.52675862  0.15182914  0.85713086  1.0
  C  C78  1  0.52675760  0.15183028  0.64286825  1.0
  C  C79  1  0.47323195  0.84817158  0.35713122  1.0
  C  C80  1  0.01767006  0.46534296  0.53291148  1.0
  C  C81  1  0.98233737  0.53465693  0.46708870  1.0
  C  C82  1  0.98233538  0.53465568  0.03291353  1.0
  C  C83  1  0.01766012  0.46534461  0.96708842  1.0
  C  C84  1  0.51767111  0.03465475  0.96708765  1.0
  C  C85  1  0.48232589  0.96534396  0.03291359  1.0
  C  C86  1  0.48232341  0.96534404  0.46708698  1.0
  C  C87  1  0.51767359  0.03465664  0.53291107  1.0
  I  I88  1  0.36984333  0.70271557  0.39524973  1.0
  I  I89  1  0.63017900  0.29727764  0.60474867  1.0
  I  I90  1  0.63014654  0.29728424  0.89524993  1.0
  I  I91  1  0.36988027  0.70270661  0.10475628  1.0
  I  I92  1  0.86986524  0.79729362  0.10475622  1.0
  I  I93  1  0.13012580  0.20270706  0.89524679  1.0
  I  I94  1  0.13016422  0.20271657  0.60474837  1.0
  I  I95  1  0.86986407  0.79729472  0.39524542  1.0
  I  I96  1  0.56116996  0.52843338  0.40253527  1.0
  I  I97  1  0.43884194  0.47156337  0.59746348  1.0
  I  I98  1  0.43882276  0.47156601  0.90252883  1.0
  I  I99  1  0.56116530  0.52843702  0.09747134  1.0
  I  I100  1  0.06114982  0.97156569  0.09746322  1.0
  I  I101  1  0.93886208  0.02844088  0.90253766  1.0
  I  I102  1  0.93885890  0.02844256  0.59746166  1.0
  I  I103  1  0.06112915  0.97155851  0.40253780  1.0
  N  N104  1  0.83826061  0.53300083  0.50047491  1.0
  N  N105  1  0.16174533  0.46699749  0.49952420  1.0
  N  N106  1  0.16175287  0.46700224  0.00046990  1.0
  N  N107  1  0.83824413  0.53299844  0.99953062  1.0
  N  N108  1  0.33826443  0.96699769  0.99952500  1.0
  N  N109  1  0.66173704  0.03300102  0.00047446  1.0
  N  N110  1  0.66174440  0.03299903  0.49952485  1.0
  N  N111  1  0.33826005  0.96700086  0.50047532  1.0
  N  N112  1  0.85683456  0.49730267  0.53440340  1.0
  N  N113  1  0.14317138  0.50269565  0.46559571  1.0
  N  N114  1  0.14318724  0.50269911  0.03439973  1.0
  N  N115  1  0.85681273  0.49730157  0.96560044  1.0
  N  N116  1  0.35683276  0.00269493  0.96559464  1.0
  N  N117  1  0.64316871  0.99730339  0.03440518  1.0
  N  N118  1  0.64316924  0.99730112  0.46559583  1.0
  N  N119  1  0.35683521  0.00269760  0.53440363  1.0
  O  O120  1  0.63504654  0.79688902  0.20123780  1.0
  O  O121  1  0.36494450  0.20310812  0.79876096  1.0
  O  O122  1  0.36494390  0.20310907  0.70123819  1.0
  O  O123  1  0.63504564  0.79689043  0.29876163  1.0
  O  O124  1  0.13505919  0.70311121  0.29876310  1.0
  O  O125  1  0.86494079  0.29689065  0.70123601  1.0
  O  O126  1  0.86493543  0.29688734  0.79876410  1.0
  O  O127  1  0.13506008  0.70311255  0.20123820  1.0
  O  O128  1  0.29750556  0.80084730  0.29817371  1.0
  O  O129  1  0.70247952  0.19915338  0.70182859  1.0
  O  O130  1  0.70248311  0.19915244  0.79817196  1.0
  O  O131  1  0.29750942  0.80084942  0.20182892  1.0
  O  O132  1  0.79751700  0.69915524  0.20182665  1.0
  O  O133  1  0.20247404  0.30084426  0.79817317  1.0
  O  O134  1  0.20248684  0.30084364  0.70182696  1.0
  O  O135  1  0.79751314  0.69915508  0.29817428  1.0
  O  O136  1  0.46291988  0.71858349  0.25000027  1.0
  O  O137  1  0.53707711  0.28141601  0.75000026  1.0
  O  O138  1  0.96290936  0.78141898  0.25000026  1.0
  O  O139  1  0.03707720  0.21858170  0.74999991  1.0
