# generated using pymatgen
data_Zn4H34C36O25
_symmetry_space_group_name_H-M   'P 1'
_cell_length_a   13.90249635
_cell_length_b   15.17121023
_cell_length_c   16.45218690
_cell_angle_alpha   89.83851140
_cell_angle_beta   89.77549037
_cell_angle_gamma   92.37823705
_symmetry_Int_Tables_number   1
_chemical_formula_structural   Zn4H34C36O25
_chemical_formula_sum   'Zn8 H68 C72 O50'
_cell_volume   3467.02640094
_cell_formula_units_Z   2
loop_
 _symmetry_equiv_pos_site_id
 _symmetry_equiv_pos_as_xyz
  1  'x, y, z'
loop_
 _atom_site_type_symbol
 _atom_site_label
 _atom_site_symmetry_multiplicity
 _atom_site_fract_x
 _atom_site_fract_y
 _atom_site_fract_z
 _atom_site_occupancy
  Zn  Zn0  1  0.47910159  0.39728968  0.91398955  1.0
  Zn  Zn1  1  0.50423078  0.39133540  0.10615271  1.0
  Zn  Zn2  1  0.00576686  0.45453445  0.41201528  1.0
  Zn  Zn3  1  0.98367028  0.44170850  0.59807922  1.0
  Zn  Zn4  1  0.37471070  0.54002465  0.02620397  1.0
  Zn  Zn5  1  0.87414015  0.59317487  0.50224185  1.0
  Zn  Zn6  1  0.59768435  0.55422852  0.00013880  1.0
  Zn  Zn7  1  0.10513353  0.61116956  0.51533751  1.0
  H  H8  1  0.35231374  0.79499680  0.08382700  1.0
  H  H9  1  0.78624368  0.75980654  0.69704157  1.0
  H  H10  1  0.69850890  0.84145058  0.69154042  1.0
  H  H11  1  0.20744786  0.85529604  0.33104961  1.0
  H  H12  1  0.11847703  0.93648294  0.32224970  1.0
  H  H13  1  0.08232721  0.73591651  0.33249532  1.0
  H  H14  1  0.98927274  0.81264427  0.33338999  1.0
  H  H15  1  0.04284208  0.86831129  0.19473140  1.0
  H  H16  1  0.01056986  0.75449761  0.19301233  1.0
  H  H17  1  0.13423831  0.78931127  0.19373408  1.0
  H  H18  1  0.73116622  0.98291700  0.77051825  1.0
  H  H19  1  0.82532210  0.85571478  0.53433033  1.0
  H  H20  1  0.73521156  0.09181850  0.81117306  1.0
  H  H21  1  0.55617395  0.98952786  0.74726898  1.0
  H  H22  1  0.55375186  0.09397502  0.79495398  1.0
  H  H23  1  0.66033671  0.16173119  0.68772125  1.0
  H  H24  1  0.55815348  0.10866167  0.64215437  1.0
  H  H25  1  0.67108631  0.05791883  0.63982755  1.0
  H  H26  1  0.33796981  0.02081904  0.37212273  1.0
  H  H27  1  0.32625109  0.12641895  0.41738923  1.0
  H  H28  1  0.21630217  0.05557743  0.26837610  1.0
  H  H29  1  0.19830261  0.15944038  0.31348649  1.0
  H  H30  1  0.40579438  0.10322402  0.08000824  1.0
  H  H31  1  0.37467059  0.20314232  0.28781115  1.0
  H  H32  1  0.30946484  0.18160765  0.19768723  1.0
  H  H33  1  0.38753591  0.10137871  0.23593605  1.0
  H  H34  1  0.19546829  0.95498076  0.15518134  1.0
  H  H35  1  0.22109164  0.89223019  0.06708957  1.0
  H  H36  1  0.22271209  0.09460542  0.07634403  1.0
  H  H37  1  0.24918401  0.03377073  0.98800312  1.0
  H  H38  1  0.08036673  0.96473446  0.98940185  1.0
  H  H39  1  0.07708508  0.08163226  0.98742165  1.0
  H  H40  1  0.05409937  0.02344373  0.07948589  1.0
  H  H41  1  0.88473639  0.16274581  0.52183783  1.0
  H  H42  1  0.72697672  0.97437309  0.41614930  1.0
  H  H43  1  0.78676788  0.08033143  0.40647994  1.0
  H  H44  1  0.60063176  0.04021404  0.50325123  1.0
  H  H45  1  0.65974538  0.14514223  0.49427059  1.0
  H  H46  1  0.63364491  0.14115511  0.34121981  1.0
  H  H47  1  0.52317080  0.13055914  0.39500374  1.0
  H  H48  1  0.57367622  0.03612838  0.35130294  1.0
  H  H49  1  0.79494340  0.21438249  0.89585576  1.0
  H  H50  1  0.77787414  0.12554326  0.96725339  1.0
  H  H51  1  0.71332331  0.31517919  0.98975078  1.0
  H  H52  1  0.58585511  0.86044272  0.81148498  1.0
  H  H53  1  0.69773751  0.22977222  0.06300538  1.0
  H  H54  1  0.87905175  0.22054843  0.07304484  1.0
  H  H55  1  0.84207449  0.32866151  0.09547033  1.0
  H  H56  1  0.89303634  0.30664299  0.99943237  1.0
  H  H57  1  0.26673504  0.14842570  0.55850411  1.0
  H  H58  1  0.19909330  0.24056845  0.58826108  1.0
  H  H59  1  0.38825455  0.25324029  0.49051236  1.0
  H  H60  1  0.32361291  0.34372153  0.52554817  1.0
  H  H61  1  0.34922341  0.29726946  0.67084440  1.0
  H  H62  1  0.46111409  0.31130638  0.61962399  1.0
  H  H63  1  0.56284193  0.74718651  0.83916790  1.0
  H  H64  1  0.41064101  0.20351410  0.63716314  1.0
  H  H65  1  0.42023048  0.68519850  0.23141590  1.0
  H  H66  1  0.46651474  0.58886327  0.73127533  1.0
  H  H67  1  0.95211899  0.52120579  0.83994379  1.0
  H  H68  1  0.97636762  0.59251703  0.20848602  1.0
  H  H69  1  0.49802412  0.48521650  0.62597980  1.0
  H  H70  1  0.70879038  0.33195312  0.31914955  1.0
  H  H71  1  0.21610675  0.31367042  0.39375277  1.0
  H  H72  1  0.14180379  0.34304190  0.82155142  1.0
  H  H73  1  0.76496148  0.83373184  0.83332179  1.0
  H  H74  1  0.73462583  0.71947390  0.83843051  1.0
  H  H75  1  0.66215155  0.72779668  0.69621687  1.0
  C  C76  1  0.33932004  0.46064340  0.18872291  1.0
  C  C77  1  0.05255406  0.91284163  0.46609047  1.0
  C  C78  1  0.40454320  0.84035134  0.05470927  1.0
  C  C79  1  0.88666249  0.89857891  0.51662768  1.0
  C  C80  1  0.40145105  0.92931359  0.06737230  1.0
  C  C81  1  0.87726476  0.98786404  0.51028065  1.0
  C  C82  1  0.73295527  0.47603555  0.78331755  1.0
  C  C83  1  0.76287343  0.50282213  0.20950660  1.0
  C  C84  1  0.25904427  0.54561416  0.29778400  1.0
  C  C85  1  0.24470658  0.50961188  0.72650302  1.0
  C  C86  1  0.27872391  0.46733312  0.26418472  1.0
  C  C87  1  0.29789901  0.47557646  0.86842638  1.0
  C  C88  1  0.22298905  0.48495738  0.80330169  1.0
  C  C89  1  0.71226943  0.49595678  0.70573102  1.0
  C  C90  1  0.74472889  0.48172859  0.28778091  1.0
  C  C91  1  0.65757064  0.47374360  0.84838202  1.0
  C  C92  1  0.68457142  0.49068199  0.14781631  1.0
  C  C93  1  0.18032096  0.55094130  0.36031023  1.0
  C  C94  1  0.16788584  0.51709144  0.66341047  1.0
  C  C95  1  0.48044110  0.70727466  0.00454587  1.0
  C  C96  1  0.97997186  0.76308891  0.50531813  1.0
  C  C97  1  0.50360021  0.23421126  0.00424415  1.0
  C  C98  1  0.78972394  0.50256007  0.64288419  1.0
  C  C99  1  0.02278300  0.28920487  0.49688473  1.0
  C  C100  1  0.47863601  0.80497589  0.00648044  1.0
  C  C101  1  0.97529973  0.86055889  0.49705783  1.0
  C  C102  1  0.52205376  0.13864745  0.99856945  1.0
  C  C103  1  0.03224077  0.19205696  0.48843033  1.0
  C  C104  1  0.60538678  0.01858447  0.93407698  1.0
  C  C105  1  0.13014644  0.06723782  0.45234089  1.0
  C  C106  1  0.59610860  0.10908575  0.94747554  1.0
  C  C107  1  0.12129267  0.15772964  0.46520016  1.0
  C  C108  1  0.46165891  0.07988279  0.04001464  1.0
  C  C109  1  0.81782913  0.49508896  0.35391918  1.0
  C  C110  1  0.95256311  0.13665120  0.50170259  1.0
  C  C111  1  0.61447223  0.80401370  0.84465453  1.0
  C  C112  1  0.71301213  0.78230859  0.81192669  1.0
  C  C113  1  0.71486279  0.77754738  0.71905898  1.0
  C  C114  1  0.13298681  0.87035807  0.34627988  1.0
  C  C115  1  0.06237428  0.80127364  0.31083767  1.0
  C  C116  1  0.06284019  0.80350682  0.21794906  1.0
  C  C117  1  0.68976921  0.03147910  0.80378490  1.0
  C  C118  1  0.59848717  0.05139552  0.75792436  1.0
  C  C119  1  0.62347195  0.09722806  0.67737594  1.0
  C  C120  1  0.46961384  0.98865432  0.02864033  1.0
  C  C121  1  0.28810621  0.07395096  0.38289045  1.0
  C  C122  1  0.25210442  0.10965191  0.30277659  1.0
  C  C123  1  0.33586286  0.15091318  0.25332419  1.0
  C  C124  1  0.23570177  0.95605153  0.09751256  1.0
  C  C125  1  0.20577551  0.03236923  0.04418345  1.0
  C  C126  1  0.09852403  0.02505923  0.02394874  1.0
  C  C127  1  0.73953795  0.03870070  0.44648745  1.0
  C  C128  1  0.64518753  0.08240179  0.46227716  1.0
  C  C129  1  0.59110683  0.09836490  0.38318118  1.0
  C  C130  1  0.74916995  0.18814304  0.94568514  1.0
  C  C131  1  0.95921614  0.04474210  0.49244895  1.0
  C  C132  1  0.74534010  0.25537908  0.01396675  1.0
  C  C133  1  0.84552757  0.27884347  0.04739312  1.0
  C  C134  1  0.25025285  0.21684666  0.54250603  1.0
  C  C135  1  0.34116113  0.27536861  0.53973470  1.0
  C  C136  1  0.39339214  0.27157502  0.62133476  1.0
  C  C137  1  0.30384762  0.63190712  0.27068207  1.0
  C  C138  1  0.34684342  0.52918478  0.70018844  1.0
  C  C139  1  0.83182745  0.45841120  0.81510245  1.0
  C  C140  1  0.85895968  0.53418145  0.17752553  1.0
  C  C141  1  0.61209493  0.52073782  0.68424445  1.0
  C  C142  1  0.54271718  0.95518026  0.97614381  1.0
  C  C143  1  0.64873633  0.44382712  0.31785598  1.0
  C  C144  1  0.23506530  0.38042577  0.29364681  1.0
  C  C145  1  0.12179560  0.46665001  0.83278676  1.0
  C  C146  1  0.04832632  0.00752404  0.46797879  1.0
  C  C147  1  0.54833515  0.86102521  0.96824043  1.0
  O  O148  1  0.48765411  0.46884663  0.01196650  1.0
  O  O149  1  0.09550549  0.46295525  0.67037968  1.0
  O  O150  1  0.28809109  0.52213851  0.93130956  1.0
  O  O151  1  0.31058027  0.50467548  0.12833367  1.0
  O  O152  1  0.80645509  0.56012481  0.39996560  1.0
  O  O153  1  0.77859856  0.55858881  0.58625868  1.0
  O  O154  1  0.67659902  0.55429140  0.09837981  1.0
  O  O155  1  0.68163052  0.51490073  0.91264989  1.0
  O  O156  1  0.18250593  0.57715687  0.61069226  1.0
  O  O157  1  0.19738674  0.59409879  0.42479902  1.0
  O  O158  1  0.40737302  0.66529149  0.03692712  1.0
  O  O159  1  0.99280540  0.52747466  0.50903244  1.0
  O  O160  1  0.89947660  0.71940629  0.49771589  1.0
  O  O161  1  0.50171725  0.26753676  0.07527905  1.0
  O  O162  1  0.48772284  0.27306532  0.93715458  1.0
  O  O163  1  0.98789644  0.31758072  0.56323729  1.0
  O  O164  1  0.04851260  0.33604527  0.43536444  1.0
  O  O165  1  0.55249594  0.66976925  0.97350657  1.0
  O  O166  1  0.06079715  0.73050314  0.52168042  1.0
  O  O167  1  0.62530634  0.82756622  0.92937070  1.0
  O  O168  1  0.12991797  0.87216891  0.43447202  1.0
  O  O169  1  0.67269919  0.98841218  0.88205886  1.0
  O  O170  1  0.40934131  0.40989698  0.19229145  1.0
  O  O171  1  0.21438873  0.03029354  0.43343039  1.0
  O  O172  1  0.33602024  0.96456690  0.12009053  1.0
  O  O173  1  0.78868919  0.02427525  0.52283624  1.0
  O  O174  1  0.65545804  0.17061692  0.90860106  1.0
  O  O175  1  0.20229250  0.21509988  0.46343585  1.0
  O  O176  1  0.26012760  0.70007633  0.26783741  1.0
  O  O177  1  0.39810304  0.62669430  0.25111961  1.0
  O  O178  1  0.38010404  0.49244205  0.63972477  1.0
  O  O179  1  0.39466519  0.58500057  0.74804641  1.0
  O  O180  1  0.85232087  0.38552196  0.83966928  1.0
  O  O181  1  0.35978975  0.41851033  0.85340807  1.0
  O  O182  1  0.88680606  0.53240104  0.81686382  1.0
  O  O183  1  0.88772651  0.51501186  0.11005728  1.0
  O  O184  1  0.91188858  0.58251219  0.23211713  1.0
  O  O185  1  0.57531829  0.58398365  0.71853027  1.0
  O  O186  1  0.56868662  0.46995922  0.62952457  1.0
  O  O187  1  0.57965108  0.48803207  0.32981166  1.0
  O  O188  1  0.64814997  0.35643706  0.33691490  1.0
  O  O189  1  0.19796926  0.32606943  0.24764333  1.0
  O  O190  1  0.24570760  0.37090832  0.37424498  1.0
  O  O191  1  0.06990585  0.52636940  0.85144373  1.0
  O  O192  1  0.85992085  0.45257014  0.65295017  1.0
  O  O193  1  0.09391788  0.38161011  0.84430817  1.0
  O  O194  1  0.88062646  0.43632626  0.35794718  1.0
  O  O195  1  0.57918024  0.43086955  0.83363463  1.0
  O  O196  1  0.63250404  0.41988804  0.15287873  1.0
  O  O197  1  0.10110840  0.51152526  0.33987014  1.0
