# generated using pymatgen
data_TbH18C28S3N3O8
_symmetry_space_group_name_H-M   'P 1'
_cell_length_a   8.48789778
_cell_length_b   15.07038321
_cell_length_c   28.88371875
_cell_angle_alpha   89.99976214
_cell_angle_beta   88.09855020
_cell_angle_gamma   89.99525027
_symmetry_Int_Tables_number   1
_chemical_formula_structural   TbH18C28S3N3O8
_chemical_formula_sum   'Tb4 H72 C112 S12 N12 O32'
_cell_volume   3692.65168301
_cell_formula_units_Z   4
loop_
 _symmetry_equiv_pos_site_id
 _symmetry_equiv_pos_as_xyz
  1  'x, y, z'
loop_
 _atom_site_type_symbol
 _atom_site_label
 _atom_site_symmetry_multiplicity
 _atom_site_fract_x
 _atom_site_fract_y
 _atom_site_fract_z
 _atom_site_occupancy
  Tb  Tb0  1  0.77592985  0.00166202  0.28382614  1.0
  Tb  Tb1  1  0.27584660  0.49835628  0.78386942  1.0
  Tb  Tb2  1  0.72414861  0.50164091  0.21613153  1.0
  Tb  Tb3  1  0.22408182  0.99833849  0.71617390  1.0
  H  H4  1  0.56695533  0.15478938  0.41965837  1.0
  H  H5  1  0.44240171  0.28609248  0.46046685  1.0
  H  H6  1  0.28766424  0.38506632  0.33021083  1.0
  H  H7  1  0.40612706  0.25246809  0.28963035  1.0
  H  H8  1  0.43808175  0.40255495  0.54243554  1.0
  H  H9  1  0.45977466  0.41290538  0.62892740  1.0
  H  H10  1  0.08310015  0.60339131  0.63414380  1.0
  H  H11  1  0.07760180  0.60282528  0.54740618  1.0
  H  H12  1  0.07787963  0.71288407  0.45563334  1.0
  H  H13  1  0.96369789  0.84094031  0.41198081  1.0
  H  H14  1  0.00280955  0.68993711  0.28558327  1.0
  H  H15  1  0.11122972  0.56223894  0.32940810  1.0
  H  H16  1  0.18570649  0.91547023  0.26468537  1.0
  H  H17  1  0.37106399  0.97181777  0.25026874  1.0
  H  H18  1  0.19152848  0.00108020  0.22158307  1.0
  H  H19  1  0.23615984  0.05253152  0.37648375  1.0
  H  H20  1  0.36939953  0.98019461  0.34414857  1.0
  H  H21  1  0.16380968  0.95039166  0.35304135  1.0
  H  H22  1  0.06680204  0.34521869  0.91966547  1.0
  H  H23  1  0.94225319  0.21391032  0.96046167  1.0
  H  H24  1  0.78777308  0.11492436  0.83018673  1.0
  H  H25  1  0.90626067  0.24751447  0.78961469  1.0
  H  H26  1  0.93812219  0.09740725  0.04239753  1.0
  H  H27  1  0.95984858  0.08703691  0.12889033  1.0
  H  H28  1  0.58308233  0.89664247  0.13412374  1.0
  H  H29  1  0.57756956  0.89721642  0.04738217  1.0
  H  H30  1  0.57782885  0.78715140  0.95563951  1.0
  H  H31  1  0.46360461  0.65910438  0.91200298  1.0
  H  H32  1  0.50283874  0.81003141  0.78558416  1.0
  H  H33  1  0.61128692  0.93773351  0.82939385  1.0
  H  H34  1  0.68559756  0.58456538  0.76475050  1.0
  H  H35  1  0.87095531  0.52821970  0.75033015  1.0
  H  H36  1  0.69143108  0.49897047  0.72164528  1.0
  H  H37  1  0.73605846  0.44750337  0.87654367  1.0
  H  H38  1  0.86936864  0.51978608  0.84420617  1.0
  H  H39  1  0.66380672  0.54966775  0.85308779  1.0
  H  H40  1  0.93315553  0.65479044  0.08033807  1.0
  H  H41  1  0.05772078  0.78609417  0.03953923  1.0
  H  H42  1  0.21227385  0.88506222  0.16981040  1.0
  H  H43  1  0.09378165  0.75247476  0.21038493  1.0
  H  H44  1  0.06188828  0.90259127  0.95760183  1.0
  H  H45  1  0.04014303  0.91296029  0.87110928  1.0
  H  H46  1  0.41687042  0.10337928  0.86587744  1.0
  H  H47  1  0.42241140  0.10280068  0.95261690  1.0
  H  H48  1  0.42215124  0.21284048  0.04436649  1.0
  H  H49  1  0.53637300  0.34089149  0.08800029  1.0
  H  H50  1  0.49718477  0.18995716  0.21441675  1.0
  H  H51  1  0.38872733  0.06225041  0.17061099  1.0
  H  H52  1  0.31440469  0.41542849  0.23524966  1.0
  H  H53  1  0.12904944  0.47177616  0.24967344  1.0
  H  H54  1  0.30857729  0.50101610  0.27836000  1.0
  H  H55  1  0.26393609  0.55253496  0.12346906  1.0
  H  H56  1  0.13064307  0.48023367  0.15579456  1.0
  H  H57  1  0.33620360  0.45036726  0.14690846  1.0
  H  H58  1  0.43306223  0.84521445  0.58034124  1.0
  H  H59  1  0.55759931  0.71390803  0.53953229  1.0
  H  H60  1  0.71232253  0.61492225  0.66978608  1.0
  H  H61  1  0.59387390  0.74752114  0.71036741  1.0
  H  H62  1  0.56191340  0.59743693  0.45756438  1.0
  H  H63  1  0.54021342  0.58709115  0.37107261  1.0
  H  H64  1  0.91689005  0.39660920  0.36585064  1.0
  H  H65  1  0.92240141  0.39717191  0.45258912  1.0
  H  H66  1  0.92217426  0.28711909  0.54436128  1.0
  H  H67  1  0.03636082  0.15906816  0.58801616  1.0
  H  H68  1  0.99719724  0.31006937  0.71441302  1.0
  H  H69  1  0.88875933  0.43776024  0.67058705  1.0
  H  H70  1  0.81431579  0.08452431  0.73531451  1.0
  H  H71  1  0.62895260  0.02818805  0.74973573  1.0
  H  H72  1  0.80849155  0.99892163  0.77841927  1.0
  H  H73  1  0.76382493  0.94745705  0.62352115  1.0
  H  H74  1  0.63060537  0.01980458  0.65585813  1.0
  H  H75  1  0.83620328  0.04959425  0.64696109  1.0
  C  C76  1  0.57187605  0.11871375  0.32936150  1.0
  C  C77  1  0.49128632  0.19543276  0.35259786  1.0
  C  C78  1  0.50280557  0.20492700  0.40070665  1.0
  C  C79  1  0.43526087  0.27757417  0.42316226  1.0
  C  C80  1  0.35779442  0.34288626  0.39763067  1.0
  C  C81  1  0.34636757  0.33340065  0.34950469  1.0
  C  C82  1  0.41161970  0.25966133  0.32707822  1.0
  C  C83  1  0.29286198  0.42170905  0.42185742  1.0
  C  C84  1  0.24633368  0.49710923  0.48915728  1.0
  C  C85  1  0.17302002  0.55656895  0.42073511  1.0
  C  C86  1  0.25704819  0.50239190  0.53998814  1.0
  C  C87  1  0.36373858  0.44777498  0.56288859  1.0
  C  C88  1  0.37448335  0.45272456  0.61068246  1.0
  C  C89  1  0.27332057  0.50898667  0.63642527  1.0
  C  C90  1  0.16470400  0.56218894  0.61370235  1.0
  C  C91  1  0.15950567  0.56079124  0.56566989  1.0
  C  C92  1  0.28032912  0.51019321  0.68787546  1.0
  C  C93  1  0.10415841  0.63076318  0.39487308  1.0
  C  C94  1  0.06126092  0.70909710  0.41846608  1.0
  C  C95  1  0.99900715  0.77980714  0.39436931  1.0
  C  C96  1  0.97985743  0.77384716  0.34635297  1.0
  C  C97  1  0.02081547  0.69544199  0.32270567  1.0
  C  C98  1  0.08188708  0.62417819  0.34699411  1.0
  C  C99  1  0.91363065  0.85230531  0.32220985  1.0
  C  C100  1  0.24249613  0.97781582  0.25380806  1.0
  C  C101  1  0.24823279  0.00483920  0.34795568  1.0
  C  C102  1  0.66727681  0.66873935  0.23478299  1.0
  C  C103  1  0.61128142  0.74428664  0.25909721  1.0
  C  C104  1  0.07180834  0.38130580  0.82937568  1.0
  C  C105  1  0.99125744  0.30456450  0.85259990  1.0
  C  C106  1  0.00270815  0.29507619  0.90070891  1.0
  C  C107  1  0.93516053  0.22243139  0.92315606  1.0
  C  C108  1  0.85775895  0.15711774  0.89761054  1.0
  C  C109  1  0.84642511  0.16659183  0.84948709  1.0
  C  C110  1  0.91166018  0.24032719  0.82706522  1.0
  C  C111  1  0.79281968  0.07829822  0.92183509  1.0
  C  C112  1  0.74628652  0.00291258  0.98913584  1.0
  C  C113  1  0.67300443  0.94344213  0.92072150  1.0
  C  C114  1  0.75703111  0.99761801  0.03996306  1.0
  C  C115  1  0.86378041  0.05220556  0.06285790  1.0
  C  C116  1  0.87452944  0.04725161  0.11065103  1.0
  C  C117  1  0.77335022  0.99102201  0.13639402  1.0
  C  C118  1  0.66471611  0.93783149  0.11367593  1.0
  C  C119  1  0.65948103  0.93923531  0.06564397  1.0
  C  C120  1  0.78035633  0.98982118  0.18783836  1.0
  C  C121  1  0.60413811  0.86923536  0.89486762  1.0
  C  C122  1  0.56121086  0.79092761  0.91847501  1.0
  C  C123  1  0.49895012  0.72022026  0.89438396  1.0
  C  C124  1  0.47980889  0.72616840  0.84636715  1.0
  C  C125  1  0.52081246  0.80454387  0.82270597  1.0
  C  C126  1  0.58190098  0.87580598  0.84698506  1.0
  C  C127  1  0.41352188  0.64771216  0.82224194  1.0
  C  C128  1  0.74240012  0.52222668  0.75386827  1.0
  C  C129  1  0.74818058  0.49518686  0.84801346  1.0
  C  C130  1  0.16728380  0.83123108  0.73484471  1.0
  C  C131  1  0.11128808  0.75568003  0.75915491  1.0
  C  C132  1  0.92819281  0.61869803  0.17062657  1.0
  C  C133  1  0.00873901  0.69543335  0.14740242  1.0
  C  C134  1  0.99726823  0.70492764  0.09929299  1.0
  C  C135  1  0.06482882  0.77757111  0.07684601  1.0
  C  C136  1  0.14224789  0.84288012  0.10238679  1.0
  C  C137  1  0.15360533  0.83340006  0.15051061  1.0
  C  C138  1  0.08835847  0.75966403  0.17293264  1.0
  C  C139  1  0.20718368  0.92169699  0.07816367  1.0
  C  C140  1  0.25370045  0.99708992  0.01086557  1.0
  C  C141  1  0.32698849  0.05655373  0.07928122  1.0
  C  C142  1  0.24295702  0.00238781  0.96003799  1.0
  C  C143  1  0.13622311  0.94779960  0.93714432  1.0
  C  C144  1  0.12545758  0.95275819  0.88935176  1.0
  C  C145  1  0.22662608  0.00899641  0.86360615  1.0
  C  C146  1  0.33525545  0.06218892  0.88632396  1.0
  C  C147  1  0.34048933  0.06078179  0.93435525  1.0
  C  C148  1  0.21961634  0.01019459  0.81215978  1.0
  C  C149  1  0.39585716  0.13076117  0.10513471  1.0
  C  C150  1  0.43877026  0.20906693  0.08152752  1.0
  C  C151  1  0.50104033  0.27977163  0.10561636  1.0
  C  C152  1  0.52018400  0.27382548  0.15363487  1.0
  C  C153  1  0.47920176  0.19544868  0.17729818  1.0
  C  C154  1  0.41810962  0.12418723  0.15301742  1.0
  C  C155  1  0.58644872  0.35228570  0.17776281  1.0
  C  C156  1  0.25760699  0.47776719  0.24613529  1.0
  C  C157  1  0.25181930  0.50483488  0.15198674  1.0
  C  C158  1  0.83271453  0.16876677  0.26514720  1.0
  C  C159  1  0.88870326  0.24432513  0.24083883  1.0
  C  C160  1  0.42812971  0.88128610  0.67063827  1.0
  C  C161  1  0.50873010  0.80456111  0.64740281  1.0
  C  C162  1  0.49720246  0.79507152  0.59929101  1.0
  C  C163  1  0.56474711  0.72242302  0.57683436  1.0
  C  C164  1  0.64219587  0.65710827  0.60236585  1.0
  C  C165  1  0.65362515  0.66659190  0.65049352  1.0
  C  C166  1  0.58838717  0.74032989  0.67291980  1.0
  C  C167  1  0.70712480  0.57828350  0.57813983  1.0
  C  C168  1  0.75366374  0.50288664  0.51084052  1.0
  C  C169  1  0.82697732  0.44342559  0.57926097  1.0
  C  C170  1  0.74294088  0.49760596  0.46000770  1.0
  C  C171  1  0.63625178  0.55222155  0.43710966  1.0
  C  C172  1  0.62550235  0.54727131  0.38931689  1.0
  C  C173  1  0.72666986  0.49101185  0.36357437  1.0
  C  C174  1  0.83528391  0.43781157  0.38629385  1.0
  C  C175  1  0.84048579  0.43920596  0.43432661  1.0
  C  C176  1  0.71965655  0.48980862  0.31212320  1.0
  C  C177  1  0.89585901  0.36923402  0.60512376  1.0
  C  C178  1  0.93878239  0.29090540  0.58152937  1.0
  C  C179  1  0.00103973  0.22019867  0.60562678  1.0
  C  C180  1  0.02017064  0.22616131  0.65364442  1.0
  C  C181  1  0.97919961  0.30456449  0.67729155  1.0
  C  C182  1  0.91812203  0.37582232  0.65300146  1.0
  C  C183  1  0.08637392  0.14769785  0.67778959  1.0
  C  C184  1  0.75752037  0.02218270  0.74619433  1.0
  C  C185  1  0.75176729  0.99515268  0.65204867  1.0
  C  C186  1  0.33274420  0.33125055  0.76521484  1.0
  C  C187  1  0.38875040  0.25569596  0.74090497  1.0
  S  S188  1  0.19773094  0.06277480  0.29584274  1.0
  S  S189  1  0.55162494  0.78884991  0.30846717  1.0
  S  S190  1  0.67922372  0.76946597  0.20419703  1.0
  S  S191  1  0.69767826  0.43725281  0.79590132  1.0
  S  S192  1  0.05154556  0.71112081  0.80850464  1.0
  S  S193  1  0.17933168  0.73052221  0.70427071  1.0
  S  S194  1  0.30232335  0.56275433  0.20411097  1.0
  S  S195  1  0.94845981  0.28889031  0.19148648  1.0
  S  S196  1  0.82063357  0.26948228  0.29571992  1.0
  S  S197  1  0.80227388  0.93721974  0.70416223  1.0
  S  S198  1  0.44840336  0.21112871  0.69153541  1.0
  S  S199  1  0.32078323  0.23052924  0.79580272  1.0
  N  N200  1  0.30511586  0.42423664  0.46813462  1.0
  N  N201  1  0.17910599  0.56507131  0.46705853  1.0
  N  N202  1  0.22750773  0.48601095  0.39655255  1.0
  N  N203  1  0.80505504  0.07577019  0.96811151  1.0
  N  N204  1  0.67905635  0.93494758  0.96704540  1.0
  N  N205  1  0.72750131  0.01398759  0.89653088  1.0
  N  N206  1  0.19496012  0.92422634  0.03188744  1.0
  N  N207  1  0.32093068  0.06505293  0.03295740  1.0
  N  N208  1  0.27249506  0.98600562  0.10346971  1.0
  N  N209  1  0.69487329  0.57575458  0.53186295  1.0
  N  N210  1  0.82089960  0.43492655  0.53293744  1.0
  N  N211  1  0.77247316  0.51397961  0.60344479  1.0
  O  O212  1  0.68207237  0.07985482  0.35048852  1.0
  O  O213  1  0.53528557  0.09452498  0.28843065  1.0
  O  O214  1  0.40256754  0.48100731  0.70736699  1.0
  O  O215  1  0.16142023  0.53979881  0.71205767  1.0
  O  O216  1  0.85994312  0.91625098  0.34713010  1.0
  O  O217  1  0.91094409  0.85594191  0.27778396  1.0
  O  O218  1  0.01700263  0.06717949  0.29993912  1.0
  O  O219  1  0.55380307  0.88903910  0.30531706  1.0
  O  O220  1  0.18193123  0.42018279  0.85052406  1.0
  O  O221  1  0.03525885  0.40549868  0.78844250  1.0
  O  O222  1  0.90257524  0.01902816  0.20732920  1.0
  O  O223  1  0.66146663  0.96021462  0.21203109  1.0
  O  O224  1  0.35984567  0.58377256  0.84716873  1.0
  O  O225  1  0.41079806  0.64406361  0.77781415  1.0
  O  O226  1  0.51695427  0.43285281  0.80000008  1.0
  O  O227  1  0.05375015  0.61093289  0.80536370  1.0
  O  O228  1  0.81807001  0.57982038  0.14947992  1.0
  O  O229  1  0.96474230  0.59450582  0.21155940  1.0
  O  O230  1  0.09741275  0.98097898  0.79266873  1.0
  O  O231  1  0.33850736  0.03981177  0.78797015  1.0
  O  O232  1  0.64010491  0.41622928  0.15283664  1.0
  O  O233  1  0.58918323  0.35593027  0.22219219  1.0
  O  O234  1  0.48304827  0.56715633  0.20000666  1.0
  O  O235  1  0.94622827  0.38907957  0.19463125  1.0
  O  O236  1  0.31793328  0.92014237  0.64950883  1.0
  O  O237  1  0.46472251  0.90547420  0.71156805  1.0
  O  O238  1  0.59743474  0.51900913  0.29263387  1.0
  O  O239  1  0.83855369  0.46019241  0.28794219  1.0
  O  O240  1  0.14002384  0.08374024  0.65287228  1.0
  O  O241  1  0.08908528  0.14407055  0.72221618  1.0
  O  O242  1  0.98299973  0.93281173  0.70006346  1.0
  O  O243  1  0.44619919  0.11093951  0.69468345  1.0
