# generated using pymatgen
data_Hf3H10(C9O8)2
_symmetry_space_group_name_H-M   'P 1'
_cell_length_a   12.87452395
_cell_length_b   15.05367292
_cell_length_c   15.08907118
_cell_angle_alpha   90.02310560
_cell_angle_beta   89.90191151
_cell_angle_gamma   89.94669822
_symmetry_Int_Tables_number   1
_chemical_formula_structural   Hf3H10(C9O8)2
_chemical_formula_sum   'Hf6 H20 C36 O32'
_cell_volume   2924.39008256
_cell_formula_units_Z   2
loop_
 _symmetry_equiv_pos_site_id
 _symmetry_equiv_pos_as_xyz
  1  'x, y, z'
loop_
 _atom_site_type_symbol
 _atom_site_label
 _atom_site_symmetry_multiplicity
 _atom_site_fract_x
 _atom_site_fract_y
 _atom_site_fract_z
 _atom_site_occupancy
  Hf  Hf0  1  0.00705084  0.98872026  0.83611218  1.0
  Hf  Hf1  1  0.00736804  0.83187631  0.00695679  1.0
  Hf  Hf2  1  0.00969150  0.16535919  0.98881923  1.0
  Hf  Hf3  1  0.00365192  0.00651175  0.16132350  1.0
  Hf  Hf4  1  0.81286360  0.99862607  0.99723183  1.0
  Hf  Hf5  1  0.20051576  0.99704395  0.99860992  1.0
  H  H6  1  0.15591736  0.86057074  0.86756655  1.0
  H  H7  1  0.85558283  0.87004799  0.13382744  1.0
  H  H8  1  0.15607206  0.13267515  0.12862857  1.0
  H  H9  1  0.86995895  0.13496349  0.85675916  1.0
  H  H10  1  0.95390552  0.71093705  0.13308571  1.0
  H  H11  1  0.00601293  0.82407687  0.19949461  1.0
  H  H12  1  0.95189671  0.13006365  0.27724613  1.0
  H  H13  1  0.00425495  0.20076572  0.16960725  1.0
  H  H14  1  0.05338336  0.28831518  0.87264011  1.0
  H  H15  1  0.95012571  0.07037291  0.67673941  1.0
  H  H16  1  0.95441091  0.86517501  0.71897965  1.0
  H  H17  1  0.00319766  0.79666432  0.82553457  1.0
  H  H18  1  0.93958403  0.27562752  0.11408278  1.0
  H  H19  1  0.07312775  0.07698360  0.69165846  1.0
  H  H20  1  0.93567970  0.72128683  0.87948550  1.0
  H  H21  1  0.07324665  0.87931488  0.27261610  1.0
  H  H22  1  0.69930366  0.99835077  0.49559852  1.0
  H  H23  1  0.31374966  0.99801648  0.49895072  1.0
  H  H24  1  0.69899724  0.49717223  0.99905478  1.0
  H  H25  1  0.31301635  0.49716813  0.99734236  1.0
  C  C26  1  0.75787365  0.98699914  0.78910038  1.0
  C  C27  1  0.25420900  0.78975113  0.00722399  1.0
  C  C28  1  0.75663008  0.79008531  0.99700573  1.0
  C  C29  1  0.25887313  0.00166686  0.79192995  1.0
  C  C30  1  0.25904164  0.20240947  0.98810579  1.0
  C  C31  1  0.75627630  0.00964395  0.20430709  1.0
  C  C32  1  0.25408510  0.99365421  0.20602105  1.0
  C  C33  1  0.75427146  0.20260148  0.00260918  1.0
  C  C34  1  0.56274822  0.99691317  0.57827769  1.0
  C  C35  1  0.45194461  0.99838882  0.57921496  1.0
  C  C36  1  0.39836762  0.99817988  0.49831999  1.0
  C  C37  1  0.45031638  0.99825449  0.41647125  1.0
  C  C38  1  0.56113385  0.00002209  0.41557681  1.0
  C  C39  1  0.61469607  0.99842667  0.49649894  1.0
  C  C40  1  0.56129298  0.57870475  0.99890016  1.0
  C  C41  1  0.45041354  0.57866978  0.99969257  1.0
  C  C42  1  0.39764169  0.49713814  0.99773359  1.0
  C  C43  1  0.45079269  0.41575247  0.99635441  1.0
  C  C44  1  0.56155503  0.41576789  0.99832096  1.0
  C  C45  1  0.61437236  0.49721959  0.99883387  1.0
  C  C46  1  0.39296841  0.33622355  0.99306071  1.0
  C  C47  1  0.33662908  0.27141189  0.98936264  1.0
  C  C48  1  0.67617599  0.27141093  0.00233833  1.0
  C  C49  1  0.61968767  0.33628190  0.99994522  1.0
  C  C50  1  0.39120893  0.65764801  0.00263926  1.0
  C  C51  1  0.33187845  0.72061634  0.00605946  1.0
  C  C52  1  0.67890749  0.72126284  0.99656469  1.0
  C  C53  1  0.62024448  0.65780785  0.99801665  1.0
  C  C54  1  0.39058064  0.99640110  0.33807090  1.0
  C  C55  1  0.33147017  0.99386807  0.27518453  1.0
  C  C56  1  0.61960517  0.00363642  0.33637058  1.0
  C  C57  1  0.67846843  0.00794405  0.27324408  1.0
  C  C58  1  0.33634896  0.00254516  0.72278372  1.0
  C  C59  1  0.39391622  0.00015057  0.65868827  1.0
  C  C60  1  0.68046792  0.98941602  0.72016972  1.0
  C  C61  1  0.62219020  0.99362260  0.65678701  1.0
  O  O62  1  0.85206730  0.98355246  0.76104106  1.0
  O  O63  1  0.72817922  0.98952854  0.86914499  1.0
  O  O64  1  0.16044658  0.76273073  0.00841494  1.0
  O  O65  1  0.28542653  0.87023546  0.00558019  1.0
  O  O66  1  0.85085903  0.76196289  0.99623089  1.0
  O  O67  1  0.72671684  0.87057174  0.99941254  1.0
  O  O68  1  0.16480109  0.00681624  0.76465213  1.0
  O  O69  1  0.28877458  0.99400454  0.87169717  1.0
  O  O70  1  0.01124089  0.87024946  0.76098456  1.0
  O  O71  1  0.00449078  0.08699317  0.71846541  1.0
  O  O72  1  0.00194635  0.75250486  0.88044597  1.0
  O  O73  1  0.00333846  0.75884019  0.12522085  1.0
  O  O74  1  0.92442936  0.92613957  0.93206063  1.0
  O  O75  1  0.11502464  0.89931472  0.90550015  1.0
  O  O76  1  0.16575938  0.23046897  0.98364963  1.0
  O  O77  1  0.28907034  0.12175438  0.99278693  1.0
  O  O78  1  0.85004700  0.01372266  0.23193652  1.0
  O  O79  1  0.72593689  0.00557086  0.12413608  1.0
  O  O80  1  0.15993741  0.99009984  0.23282375  1.0
  O  O81  1  0.28549259  0.99844403  0.12614996  1.0
  O  O82  1  0.84693110  0.22965969  0.01234212  1.0
  O  O83  1  0.72477841  0.12225558  0.99149398  1.0
  O  O84  1  0.00640936  0.24494163  0.11563685  1.0
  O  O85  1  0.99437478  0.25209642  0.88950019  1.0
  O  O86  1  0.00841140  0.12485693  0.23478171  1.0
  O  O87  1  0.00622877  0.87945977  0.24253443  1.0
  O  O88  1  0.11463589  0.09517950  0.09006542  1.0
  O  O89  1  0.92456533  0.06801193  0.06115889  1.0
  O  O90  1  0.09112968  0.06395083  0.92615997  1.0
  O  O91  1  0.89667699  0.90787224  0.09537841  1.0
  O  O92  1  0.90340873  0.09186851  0.89534664  1.0
  O  O93  1  0.08748248  0.93093841  0.06831125  1.0
