# generated using pymatgen
data_MgH6C15NO5
_symmetry_space_group_name_H-M   'P 1'
_cell_length_a   6.84344736
_cell_length_b   39.59122756
_cell_length_c   39.59151589
_cell_angle_alpha   119.67248439
_cell_angle_beta   93.29968950
_cell_angle_gamma   93.29937957
_symmetry_Int_Tables_number   1
_chemical_formula_structural   MgH6C15NO5
_chemical_formula_sum   'Mg6 H36 C90 N6 O30'
_cell_volume   9258.96720849
_cell_formula_units_Z   6
loop_
 _symmetry_equiv_pos_site_id
 _symmetry_equiv_pos_as_xyz
  1  'x, y, z'
loop_
 _atom_site_type_symbol
 _atom_site_label
 _atom_site_symmetry_multiplicity
 _atom_site_fract_x
 _atom_site_fract_y
 _atom_site_fract_z
 _atom_site_occupancy
  Mg  Mg0  1  0.20422375  0.67017111  0.30867256  1.0
  Mg  Mg1  1  0.89554801  0.69138953  0.36152245  1.0
  Mg  Mg2  1  0.53413233  0.63853763  0.32988774  1.0
  Mg  Mg3  1  0.79577723  0.32982905  0.69132762  1.0
  Mg  Mg4  1  0.10445283  0.30861034  0.63847783  1.0
  Mg  Mg5  1  0.46586836  0.36146195  0.67011215  1.0
  H  H6  1  0.98806037  0.06454750  0.55381749  1.0
  H  H7  1  0.22468826  0.97254261  0.45282454  1.0
  H  H8  1  0.51223816  0.01774801  0.46191030  1.0
  H  H9  1  0.88244277  0.14829357  0.58400420  1.0
  H  H10  1  0.05258235  0.21446370  0.62427184  1.0
  H  H11  1  0.33835148  0.19833620  0.58370646  1.0
  H  H12  1  0.43429034  0.44618710  0.51074423  1.0
  H  H13  1  0.77203493  0.54713726  0.51971291  1.0
  H  H14  1  0.05036016  0.53807300  0.55587603  1.0
  H  H15  1  0.29842559  0.41599321  0.56432570  1.0
  H  H16  1  0.42825702  0.37571798  0.59022929  1.0
  H  H17  1  0.75442259  0.41625612  0.61460383  1.0
  H  H18  1  0.92356708  0.48924937  0.93542932  1.0
  H  H19  1  0.25224122  0.48027502  0.02741438  1.0
  H  H20  1  0.49454083  0.44414968  0.98221124  1.0
  H  H21  1  0.73408540  0.43568168  0.85163384  1.0
  H  H22  1  0.83801877  0.40976924  0.78544248  1.0
  H  H23  1  0.13989311  0.38537735  0.80164486  1.0
  H  H24  1  0.01193900  0.93545237  0.44618278  1.0
  H  H25  1  0.77531418  0.02745755  0.54717565  1.0
  H  H26  1  0.48776560  0.98225186  0.53809002  1.0
  H  H27  1  0.11755821  0.85170659  0.41599548  1.0
  H  H28  1  0.94741849  0.78553617  0.37572820  1.0
  H  H29  1  0.66164935  0.80166367  0.41629257  1.0
  H  H30  1  0.56570875  0.55381219  0.48925474  1.0
  H  H31  1  0.22796459  0.45286290  0.48028802  1.0
  H  H32  1  0.94963921  0.46192687  0.44412576  1.0
  H  H33  1  0.70157349  0.58400608  0.43567378  1.0
  H  H34  1  0.57174235  0.62428189  0.40977073  1.0
  H  H35  1  0.24557342  0.58374288  0.38539572  1.0
  H  H36  1  0.07642937  0.51075050  0.06457041  1.0
  H  H37  1  0.74776005  0.51972573  0.97258559  1.0
  H  H38  1  0.50546044  0.55585107  0.01778872  1.0
  H  H39  1  0.26591719  0.56431878  0.14836625  1.0
  H  H40  1  0.16198221  0.59023093  0.21455770  1.0
  H  H41  1  0.86010685  0.61462369  0.19835549  1.0
  C  C42  1  0.31309670  0.11974150  0.56786922  1.0
  C  C43  1  0.26194514  0.07794942  0.53794602  1.0
  C  C44  1  0.09979057  0.05318445  0.53354259  1.0
  C  C45  1  0.08440896  0.01401250  0.50270702  1.0
  C  C46  1  0.23421793  0.00236537  0.47714871  1.0
  C  C47  1  0.39791968  0.02764012  0.48183883  1.0
  C  C48  1  0.41077629  0.06563710  0.51293953  1.0
  C  C49  1  0.56483356  0.09887113  0.52640142  1.0
  C  C50  1  0.59701657  0.16877147  0.58127266  1.0
  C  C51  1  0.79957106  0.17349533  0.59260910  1.0
  C  C52  1  0.89567719  0.21067074  0.61532924  1.0
  C  C53  1  0.79536596  0.24447515  0.62834337  1.0
  C  C54  1  0.58914579  0.23931077  0.61630836  1.0
  C  C55  1  0.49466290  0.20138570  0.59265056  1.0
  C  C56  1  0.46766204  0.27218317  0.62747628  1.0
  C  C57  1  0.74520277  0.43213566  0.55191277  1.0
  C  C58  1  0.72410145  0.46203169  0.53999935  1.0
  C  C59  1  0.56633652  0.46643910  0.51963935  1.0
  C  C60  1  0.58174422  0.49727283  0.51129449  1.0
  C  C61  1  0.75718662  0.52281334  0.52520860  1.0
  C  C62  1  0.91617118  0.51813422  0.54581500  1.0
  C  C63  1  0.89792563  0.48703175  0.55269857  1.0
  C  C64  1  0.03847755  0.47359084  0.57249375  1.0
  C  C65  1  0.01576239  0.41872000  0.58753483  1.0
  C  C66  1  0.20692939  0.40737751  0.58091105  1.0
  C  C67  1  0.28023269  0.38463989  0.59535546  1.0
  C  C68  1  0.16684208  0.37159294  0.61610254  1.0
  C  C69  1  0.97262327  0.38362320  0.62296406  1.0
  C  C70  1  0.90184413  0.40732019  0.60873300  1.0
  C  C71  1  0.84008823  0.37246341  0.64468605  1.0
  C  C72  1  0.19338239  0.44808968  0.88020857  1.0
  C  C73  1  0.18415939  0.45999099  0.92201511  1.0
  C  C74  1  0.04675005  0.48036020  0.94679191  1.0
  C  C75  1  0.07048807  0.48870985  0.98597466  1.0
  C  C76  1  0.23201853  0.47480070  0.99760164  1.0
  C  C77  1  0.37043468  0.45420566  0.97231640  1.0
  C  C78  1  0.34533803  0.44729921  0.93432054  1.0
  C  C79  1  0.46604940  0.42750216  0.90107623  1.0
  C  C80  1  0.42825535  0.41243820  0.83116316  1.0
  C  C81  1  0.62603911  0.41907675  0.82642817  1.0
  C  C82  1  0.68489136  0.40463562  0.78924698  1.0
  C  C83  1  0.55073002  0.38384920  0.75545872  1.0
  C  C84  1  0.34965963  0.37700122  0.76063474  1.0
  C  C85  1  0.29318106  0.39123929  0.79856520  1.0
  C  C86  1  0.19538530  0.35528191  0.72776097  1.0
  C  C87  1  0.68689886  0.88025954  0.43213134  1.0
  C  C88  1  0.73805116  0.92205016  0.46205333  1.0
  C  C89  1  0.90020880  0.94681543  0.46645693  1.0
  C  C90  1  0.91559158  0.98598679  0.49729297  1.0
  C  C91  1  0.76578583  0.99763450  0.52285160  1.0
  C  C92  1  0.60208087  0.97235917  0.51816092  1.0
  C  C93  1  0.58922176  0.93436307  0.48706037  1.0
  C  C94  1  0.43517328  0.90112903  0.47359781  1.0
  C  C95  1  0.40298441  0.83122870  0.41872651  1.0
  C  C96  1  0.20042992  0.82650483  0.40739007  1.0
  C  C97  1  0.10432218  0.78932913  0.38467028  1.0
  C  C98  1  0.20463341  0.75552472  0.37165640  1.0
  C  C99  1  0.41085373  0.76068939  0.38369156  1.0
  C  C100  1  0.50533662  0.79861447  0.40734834  1.0
  C  C101  1  0.53233894  0.72781699  0.37252364  1.0
  C  C102  1  0.25479427  0.56786246  0.44808686  1.0
  C  C103  1  0.27589485  0.53796789  0.46000075  1.0
  C  C104  1  0.43366256  0.53356018  0.48036013  1.0
  C  C105  1  0.41825516  0.50272704  0.48870553  1.0
  C  C106  1  0.24281422  0.47718653  0.47479244  1.0
  C  C107  1  0.08382498  0.48186507  0.45418571  1.0
  C  C108  1  0.10207242  0.51296841  0.44730209  1.0
  C  C109  1  0.96151539  0.52640786  0.42750614  1.0
  C  C110  1  0.98423494  0.58127870  0.41246485  1.0
  C  C111  1  0.79306823  0.59262177  0.41908841  1.0
  C  C112  1  0.71976814  0.61535998  0.40464483  1.0
  C  C113  1  0.83315861  0.62840664  0.38389735  1.0
  C  C114  1  0.02737581  0.61637609  0.37703592  1.0
  C  C115  1  0.09815495  0.59267910  0.39126673  1.0
  C  C116  1  0.15991246  0.62753617  0.35531409  1.0
  C  C117  1  0.80662064  0.55191165  0.11979171  1.0
  C  C118  1  0.81584203  0.54001005  0.07798500  1.0
  C  C119  1  0.95324801  0.51963996  0.05320799  1.0
  C  C120  1  0.92950998  0.51129031  0.01402499  1.0
  C  C121  1  0.76797982  0.52520004  0.00239855  1.0
  C  C122  1  0.62956820  0.54579538  0.02768347  1.0
  C  C123  1  0.65466354  0.55270212  0.06567947  1.0
  C  C124  1  0.53394910  0.57249888  0.09892385  1.0
  C  C125  1  0.57174461  0.58756284  0.16883719  1.0
  C  C126  1  0.37396202  0.58092371  0.17357191  1.0
  C  C127  1  0.31510962  0.59536455  0.21075346  1.0
  C  C128  1  0.44927242  0.61615097  0.24454148  1.0
  C  C129  1  0.65034150  0.62299924  0.23936584  1.0
  C  C130  1  0.70681582  0.60876146  0.20143472  1.0
  C  C131  1  0.80461568  0.64471825  0.27223922  1.0
  N  N132  1  0.49526602  0.13080996  0.55907867  1.0
  N  N133  1  0.93620523  0.44091638  0.57175968  1.0
  N  N134  1  0.36447175  0.42822032  0.86913292  1.0
  N  N135  1  0.50473350  0.86919020  0.44092125  1.0
  N  N136  1  0.06379532  0.55908291  0.42824032  1.0
  N  N137  1  0.63552996  0.57178130  0.13086724  1.0
  O  O138  1  0.71177009  0.73348328  0.38610110  1.0
  O  O139  1  0.45222546  0.69291310  0.34802681  1.0
  O  O140  1  0.10268648  0.72054774  0.34872203  1.0
  O  O141  1  0.22146834  0.14080757  0.59504340  1.0
  O  O142  1  0.72158050  0.09955095  0.51328620  1.0
  O  O143  1  0.32576801  0.61395584  0.34738480  1.0
  O  O144  1  0.10417742  0.65201246  0.34488783  1.0
  O  O145  1  0.75408959  0.65134533  0.37185801  1.0
  O  O146  1  0.62633278  0.40499392  0.54584566  1.0
  O  O147  1  0.20827750  0.48671155  0.58629924  1.0
  O  O148  1  0.97840521  0.65261327  0.26656532  1.0
  O  O149  1  0.75936528  0.65516125  0.30714810  1.0
  O  O150  1  0.38233339  0.62823458  0.27952751  1.0
  O  O151  1  0.08059135  0.45418344  0.85914516  1.0
  O  O152  1  0.62211183  0.41369848  0.90038779  1.0
  O  O153  1  0.28823075  0.26651659  0.61389894  1.0
  O  O154  1  0.54777684  0.30708677  0.65197324  1.0
  O  O155  1  0.89731289  0.27945213  0.65127825  1.0
  O  O156  1  0.77853528  0.85919201  0.40495576  1.0
  O  O157  1  0.27841609  0.90044921  0.48671444  1.0
  O  O158  1  0.67423283  0.38604403  0.65261523  1.0
  O  O159  1  0.89582342  0.34798742  0.65511245  1.0
  O  O160  1  0.24591271  0.34865454  0.62814229  1.0
  O  O161  1  0.37367787  0.59500508  0.45415252  1.0
  O  O162  1  0.79171997  0.51328745  0.41370058  1.0
  O  O163  1  0.02159548  0.34738631  0.73343482  1.0
  O  O164  1  0.24063541  0.34483833  0.69285204  1.0
  O  O165  1  0.61766745  0.37176529  0.72047253  1.0
  O  O166  1  0.91941022  0.54581789  0.14085485  1.0
  O  O167  1  0.37788813  0.58630256  0.09961256  1.0
