# generated using pymatgen
data_AlH7C16Cl2O5
_symmetry_space_group_name_H-M   'P 1'
_cell_length_a   6.63485691
_cell_length_b   17.72566459
_cell_length_c   17.74653746
_cell_angle_alpha   90.58785676
_cell_angle_beta   98.70722540
_cell_angle_gamma   98.76672432
_symmetry_Int_Tables_number   1
_chemical_formula_structural   AlH7C16Cl2O5
_chemical_formula_sum   'Al2 H14 C32 Cl4 O10'
_cell_volume   2037.77706703
_cell_formula_units_Z   2
loop_
 _symmetry_equiv_pos_site_id
 _symmetry_equiv_pos_as_xyz
  1  'x, y, z'
loop_
 _atom_site_type_symbol
 _atom_site_label
 _atom_site_symmetry_multiplicity
 _atom_site_fract_x
 _atom_site_fract_y
 _atom_site_fract_z
 _atom_site_occupancy
  Al  Al0  1  0.99620029  0.49780240  0.50088189  1.0
  Al  Al1  1  0.49705823  0.49851730  0.50232534  1.0
  H  H2  1  0.68639145  0.45072152  0.41267034  1.0
  H  H3  1  0.30109550  0.58826008  0.54709369  1.0
  H  H4  1  0.10192798  0.72190873  0.44518650  1.0
  H  H5  1  0.18544314  0.86356776  0.44035907  1.0
  H  H6  1  0.66681349  0.88434904  0.55557673  1.0
  H  H7  1  0.33376317  0.11577606  0.44603532  1.0
  H  H8  1  0.88891106  0.27532349  0.55502640  1.0
  H  H9  1  0.80418495  0.13334332  0.55620248  1.0
  H  H10  1  0.89281174  0.55561777  0.27582845  1.0
  H  H11  1  0.81746956  0.56129531  0.13426802  1.0
  H  H12  1  0.32893839  0.44108766  0.11730644  1.0
  H  H13  1  0.68129350  0.55807017  0.88477913  1.0
  H  H14  1  0.11416731  0.44471180  0.72396620  1.0
  H  H15  1  0.20033112  0.44261255  0.86561801  1.0
  C  C16  1  0.18650415  0.49876695  0.36230504  1.0
  C  C17  1  0.20028704  0.36107086  0.50588285  1.0
  C  C18  1  0.80934383  0.49649672  0.63878768  1.0
  C  C19  1  0.79590905  0.63747204  0.49875772  1.0
  C  C20  1  0.83531971  0.72280304  0.49963411  1.0
  C  C21  1  0.00591502  0.75845470  0.46797422  1.0
  C  C22  1  0.05320106  0.83721676  0.46558766  1.0
  C  C23  1  0.93050605  0.88389881  0.49704301  1.0
  C  C24  1  0.76056357  0.84905721  0.52984626  1.0
  C  C25  1  0.71335155  0.76981277  0.53085368  1.0
  C  C26  1  0.97746964  0.96446073  0.49762777  1.0
  C  C27  1  0.01723955  0.03406849  0.49975110  1.0
  C  C28  1  0.06468282  0.11468175  0.50191511  1.0
  C  C29  1  0.23794542  0.15033597  0.47158196  1.0
  C  C30  1  0.28640222  0.22968926  0.47284797  1.0
  C  C31  1  0.16159059  0.27572497  0.50388215  1.0
  C  C32  1  0.98746476  0.23934112  0.53295580  1.0
  C  C33  1  0.93932947  0.16045501  0.53310835  1.0
  C  C34  1  0.15464807  0.49824302  0.27704355  1.0
  C  C35  1  0.98899134  0.53185973  0.24006416  1.0
  C  C36  1  0.94627240  0.53472897  0.16138925  1.0
  C  C37  1  0.06937891  0.50206490  0.11577114  1.0
  C  C38  1  0.23459445  0.46758881  0.15172074  1.0
  C  C39  1  0.27722885  0.46583667  0.23096490  1.0
  C  C40  1  0.02734503  0.50211211  0.03523970  1.0
  C  C41  1  0.99091236  0.50072645  0.96566849  1.0
  C  C42  1  0.94507526  0.49955926  0.88513844  1.0
  C  C43  1  0.77508696  0.53184425  0.84990062  1.0
  C  C44  1  0.72612945  0.53154478  0.77065917  1.0
  C  C45  1  0.84752842  0.49907019  0.72404927  1.0
  C  C46  1  0.01860997  0.46797921  0.76030303  1.0
  C  C47  1  0.06744943  0.46724660  0.83897578  1.0
  Cl  Cl48  1  0.50767271  0.73392099  0.57666759  1.0
  Cl  Cl49  1  0.49675159  0.26763088  0.43104324  1.0
  Cl  Cl50  1  0.47901012  0.41820640  0.26672745  1.0
  Cl  Cl51  1  0.51781190  0.57548070  0.73527189  1.0
  O  O52  1  0.03017896  0.50655746  0.39397385  1.0
  O  O53  1  0.38582487  0.39463817  0.51664949  1.0
  O  O54  1  0.63121544  0.50444763  0.60529041  1.0
  O  O55  1  0.95532810  0.60440542  0.50580763  1.0
  O  O56  1  0.96087652  0.48648235  0.60551913  1.0
  O  O57  1  0.60938779  0.60479851  0.49040115  1.0
  O  O58  1  0.36467979  0.49185752  0.39680059  1.0
  O  O59  1  0.04052915  0.39373573  0.49666945  1.0
  O  O60  1  0.71850804  0.46612164  0.46635050  1.0
  O  O61  1  0.27317736  0.53422349  0.53277575  1.0
