# generated using pymatgen
data_Al2H17C35(NO2)5
_symmetry_space_group_name_H-M   'P 1'
_cell_length_a   6.74958251
_cell_length_b   21.60376385
_cell_length_c   25.11222781
_cell_angle_alpha   83.69821033
_cell_angle_beta   89.99967140
_cell_angle_gamma   89.99915601
_symmetry_Int_Tables_number   1
_chemical_formula_structural   Al2H17C35(NO2)5
_chemical_formula_sum   'Al4 H34 C70 N10 O20'
_cell_volume   3639.64814793
_cell_formula_units_Z   2
loop_
 _symmetry_equiv_pos_site_id
 _symmetry_equiv_pos_as_xyz
  1  'x, y, z'
loop_
 _atom_site_type_symbol
 _atom_site_label
 _atom_site_symmetry_multiplicity
 _atom_site_fract_x
 _atom_site_fract_y
 _atom_site_fract_z
 _atom_site_occupancy
  Al  Al0  1  0.90377541  0.50050035  0.50103859  1.0
  Al  Al1  1  0.40377267  0.49950454  0.49896153  1.0
  Al  Al2  1  0.30154612  0.99949463  0.99911644  1.0
  Al  Al3  1  0.80155228  0.00050253  0.00088627  1.0
  H  H4  1  0.76428469  0.19245932  0.18895332  1.0
  H  H5  1  0.26429503  0.80752145  0.81106351  1.0
  H  H6  1  0.40176333  0.17955112  0.18759733  1.0
  H  H7  1  0.90176081  0.82048415  0.81237427  1.0
  H  H8  1  0.45748943  0.37749691  0.38365843  1.0
  H  H9  1  0.95747864  0.62250145  0.61633641  1.0
  H  H10  1  0.77431209  0.19238710  0.76378047  1.0
  H  H11  1  0.27431035  0.80761294  0.23621866  1.0
  H  H12  1  0.95521030  0.15893486  0.72483243  1.0
  H  H13  1  0.45521230  0.84106255  0.27516642  1.0
  H  H14  1  0.89304585  0.28013267  0.81199710  1.0
  H  H15  1  0.39305647  0.71986515  0.18800065  1.0
  H  H16  1  0.29280184  0.33278921  0.77053663  1.0
  H  H17  1  0.79281400  0.66721126  0.22946207  1.0
  H  H18  1  0.43471801  0.26250549  0.70179759  1.0
  H  H19  1  0.93471835  0.73748850  0.29819970  1.0
  H  H20  1  0.74668140  0.12169963  0.11647057  1.0
  H  H21  1  0.24669022  0.87827255  0.88355272  1.0
  H  H22  1  0.05207517  0.36414868  0.76011597  1.0
  H  H23  1  0.55209312  0.63584711  0.23988074  1.0
  H  H24  1  0.38118651  0.10937444  0.11480163  1.0
  H  H25  1  0.88117359  0.89065276  0.88517603  1.0
  H  H26  1  0.80218525  0.32030363  0.31234064  1.0
  H  H27  1  0.30219175  0.67969948  0.68767006  1.0
  H  H28  1  0.82300504  0.39067312  0.38493191  1.0
  H  H29  1  0.32299676  0.60932021  0.61508600  1.0
  H  H30  1  0.43934982  0.30650385  0.31140868  1.0
  H  H31  1  0.93935823  0.69350166  0.68858137  1.0
  H  H32  1  0.26115017  0.21204789  0.67616642  1.0
  H  H33  1  0.76115213  0.78794762  0.32383236  1.0
  H  H34  1  0.65590277  0.41767877  0.50640844  1.0
  H  H35  1  0.15589910  0.58232721  0.49359568  1.0
  H  H36  1  0.54975839  0.08235454  0.99103022  1.0
  H  H37  1  0.04976368  0.91764012  0.00896449  1.0
  C  C38  1  0.65587144  0.57655742  0.42247968  1.0
  C  C39  1  0.15586672  0.42344658  0.57752164  1.0
  C  C40  1  0.65032642  0.57130171  0.56739889  1.0
  C  C41  1  0.15033550  0.42869873  0.43260525  1.0
  C  C42  1  0.89876320  0.17403236  0.17258497  1.0
  C  C43  1  0.39876797  0.82596003  0.82742280  1.0
  C  C44  1  0.88884235  0.13490995  0.13237605  1.0
  C  C45  1  0.38884611  0.86507731  0.86763616  1.0
  C  C46  1  0.06302606  0.11199207  0.11121722  1.0
  C  C47  1  0.56302358  0.88800539  0.88878427  1.0
  C  C48  1  0.24769027  0.12802466  0.13147607  1.0
  C  C49  1  0.74768591  0.87199267  0.86851144  1.0
  C  C50  1  0.25881269  0.16689687  0.17177306  1.0
  C  C51  1  0.75881228  0.83312532  0.82820842  1.0
  C  C52  1  0.08420115  0.19100357  0.19270560  1.0
  C  C53  1  0.58420666  0.80900590  0.80728781  1.0
  C  C54  1  0.09569539  0.23185826  0.23286437  1.0
  C  C55  1  0.59570348  0.76814831  0.76712582  1.0
  C  C56  1  0.10785503  0.26755657  0.26722071  1.0
  C  C57  1  0.60786979  0.73245775  0.73277384  1.0
  C  C58  1  0.94520849  0.33282357  0.32821418  1.0
  C  C59  1  0.44520990  0.66717630  0.67179509  1.0
  C  C60  1  0.95654277  0.37182257  0.36842908  1.0
  C  C61  1  0.45653925  0.62817361  0.63158339  1.0
  C  C62  1  0.14125625  0.38780326  0.38875538  1.0
  C  C63  1  0.64124307  0.61219639  0.61124798  1.0
  C  C64  1  0.31515069  0.36446527  0.36773038  1.0
  C  C65  1  0.81514792  0.63553464  0.63226829  1.0
  C  C66  1  0.30497649  0.32519344  0.32762565  1.0
  C  C67  1  0.80498160  0.67481015  0.67236983  1.0
  C  C68  1  0.11953743  0.30840237  0.30736150  1.0
  C  C69  1  0.61954883  0.69160316  0.69263627  1.0
  C  C70  1  0.28636175  0.19883126  0.76381286  1.0
  C  C71  1  0.78636588  0.80116580  0.23618747  1.0
  C  C72  1  0.92066036  0.19965844  0.74568933  1.0
  C  C73  1  0.42065130  0.80033953  0.25430999  1.0
  C  C74  1  0.92218970  0.25953619  0.70416749  1.0
  C  C75  1  0.42218585  0.74046182  0.29583141  1.0
  C  C76  1  0.15762904  0.37857097  0.62482187  1.0
  C  C77  1  0.65762193  0.62142998  0.37517785  1.0
  C  C78  1  0.07470829  0.20575857  0.79034009  1.0
  C  C79  1  0.57470723  0.79423872  0.20965857  1.0
  C  C80  1  0.28950061  0.24089572  0.70871426  1.0
  C  C81  1  0.78950001  0.75910064  0.29128407  1.0
  C  C82  1  0.13186295  0.29253895  0.70861927  1.0
  C  C83  1  0.63186039  0.70745778  0.29137810  1.0
  C  C84  1  0.13819855  0.32093940  0.76266545  1.0
  C  C85  1  0.63820705  0.67905823  0.23733192  1.0
  C  C86  1  0.05389785  0.27321550  0.80763003  1.0
  C  C87  1  0.55390622  0.72678244  0.19236787  1.0
  C  C88  1  0.15619847  0.33987369  0.66363230  1.0
  C  C89  1  0.65619899  0.66012582  0.33636423  1.0
  C  C90  1  0.05029424  0.15872626  0.83541945  1.0
  C  C91  1  0.55029604  0.84127063  0.16457965  1.0
  C  C92  1  0.04875699  0.12048060  0.87451966  1.0
  C  C93  1  0.54875607  0.87951707  0.12548065  1.0
  C  C94  1  0.55453434  0.92863841  0.93283680  1.0
  C  C95  1  0.05449350  0.07135997  0.06716509  1.0
  C  C96  1  0.55013766  0.92399969  0.07788807  1.0
  C  C97  1  0.05009853  0.07599751  0.92211224  1.0
  C  C98  1  0.32208115  0.13385765  0.75443803  1.0
  C  C99  1  0.82208054  0.86613894  0.24556104  1.0
  C  C100  1  0.89004929  0.24173089  0.65009422  1.0
  C  C101  1  0.39004525  0.75826541  0.34990475  1.0
  C  C102  1  0.76858644  0.30486077  0.71451908  1.0
  C  C103  1  0.26859233  0.69513734  0.28548088  1.0
  C  C104  1  0.13787728  0.28086603  0.85997094  1.0
  C  C105  1  0.63789273  0.71913510  0.14002802  1.0
  C  C106  1  0.44225218  0.21644082  0.80007130  1.0
  C  C107  1  0.94225326  0.78355228  0.19992919  1.0
  N  N108  1  0.35219245  0.08323299  0.74462495  1.0
  N  N109  1  0.85218185  0.91676451  0.25537688  1.0
  N  N110  1  0.86417135  0.22567617  0.60784096  1.0
  N  N111  1  0.36414665  0.77432285  0.39215564  1.0
  N  N112  1  0.65062560  0.34168238  0.72350771  1.0
  N  N113  1  0.15064229  0.65831168  0.27649565  1.0
  N  N114  1  0.19913538  0.28873008  0.90207295  1.0
  N  N115  1  0.69915777  0.71127121  0.09792631  1.0
  N  N116  1  0.56983285  0.23093612  0.82734328  1.0
  N  N117  1  0.06983985  0.76905360  0.17266062  1.0
  O  O118  1  0.48487079  0.55523132  0.54852499  1.0
  O  O119  1  0.98488881  0.44476984  0.45147981  1.0
  O  O120  1  0.82385243  0.56048797  0.44204956  1.0
  O  O121  1  0.32385910  0.43951308  0.55794709  1.0
  O  O122  1  0.82113007  0.55586540  0.55130011  1.0
  O  O123  1  0.32114853  0.44414101  0.44869813  1.0
  O  O124  1  0.98556515  0.44113150  0.56050069  1.0
  O  O125  1  0.48555601  0.55887712  0.43950369  1.0
  O  O126  1  0.65436088  0.46277597  0.50222118  1.0
  O  O127  1  0.15435487  0.53723019  0.49777773  1.0
  O  O128  1  0.72016419  0.94146527  0.06063123  1.0
  O  O129  1  0.22018786  0.05852260  0.93936723  1.0
  O  O130  1  0.38393071  0.94380517  0.94919911  1.0
  O  O131  1  0.88393640  0.05618540  0.05081269  1.0
  O  O132  1  0.38187072  0.94004174  0.05849128  1.0
  O  O133  1  0.88190429  0.05996428  0.94151168  1.0
  O  O134  1  0.22028206  0.05537524  0.04845727  1.0
  O  O135  1  0.72027444  0.94462696  0.95153754  1.0
  O  O136  1  0.55102617  0.03731777  0.99755009  1.0
  O  O137  1  0.05103828  0.96267768  0.00244942  1.0
