# generated using pymatgen
data_Zn4H15C44S5N16(O3F)5
_symmetry_space_group_name_H-M   'P 1'
_cell_length_a   16.24961904
_cell_length_b   16.25841483
_cell_length_c   18.29852225
_cell_angle_alpha   106.67171946
_cell_angle_beta   104.63446280
_cell_angle_gamma   111.91957870
_symmetry_Int_Tables_number   1
_chemical_formula_structural   Zn4H15C44S5N16(O3F)5
_chemical_formula_sum   'Zn4 H15 C44 S5 N16 O15 F5'
_cell_volume   3928.59863683
_cell_formula_units_Z   1
loop_
 _symmetry_equiv_pos_site_id
 _symmetry_equiv_pos_as_xyz
  1  'x, y, z'
loop_
 _atom_site_type_symbol
 _atom_site_label
 _atom_site_symmetry_multiplicity
 _atom_site_fract_x
 _atom_site_fract_y
 _atom_site_fract_z
 _atom_site_occupancy
  Zn  Zn0  1  0.37132945  0.37881831  0.51358091  1.0
  Zn  Zn1  1  0.66411255  0.67129208  0.53000447  1.0
  Zn  Zn2  1  0.35109268  0.43155604  0.33622329  1.0
  Zn  Zn3  1  0.63204972  0.52255289  0.63460492  1.0
  H  H4  1  0.78155847  0.70551889  0.82560200  1.0
  H  H5  1  0.23460945  0.46601101  0.56849040  1.0
  H  H6  1  0.60853215  0.65150830  0.78814555  1.0
  H  H7  1  0.34795388  0.66989340  0.42084707  1.0
  H  H8  1  0.83664426  0.91478604  0.07237793  1.0
  H  H9  1  0.80116400  0.61369405  0.44719490  1.0
  H  H10  1  0.65772525  0.52676075  0.29715789  1.0
  H  H11  1  0.38230445  0.17856270  0.43065078  1.0
  H  H12  1  0.70712764  0.38675575  0.53314753  1.0
  H  H13  1  0.31320649  0.41661796  0.68059172  1.0
  H  H14  1  0.68568680  0.86790764  0.37560574  1.0
  H  H15  1  0.99484449  0.31450656  0.22134248  1.0
  H  H16  1  0.28836615  0.62696852  0.94818368  1.0
  H  H17  1  0.76338215  0.72295919  0.17334475  1.0
  H  H18  1  0.68409012  0.27380178  0.74706349  1.0
  C  C19  1  0.18616340  0.20466773  0.36719008  1.0
  C  C20  1  0.77832267  0.48331971  0.47682977  1.0
  C  C21  1  0.54024893  0.56042871  0.24066582  1.0
  C  C22  1  0.51991574  0.21678641  0.53322611  1.0
  C  C23  1  0.38656789  0.46815192  0.69331140  1.0
  C  C24  1  0.58087830  0.77340118  0.46727301  1.0
  C  C25  1  0.19151809  0.44545673  0.37768038  1.0
  C  C26  1  0.75569265  0.72821699  0.77822006  1.0
  C  C27  1  0.71081515  0.80360498  0.70731916  1.0
  C  C28  1  0.23128036  0.46021043  0.50710619  1.0
  C  C29  1  0.53818702  0.58805343  0.74764542  1.0
  C  C30  1  0.76816789  0.56462906  0.47317961  1.0
  C  C31  1  0.42462288  0.69355236  0.43661834  1.0
  C  C32  1  0.45742215  0.55133343  0.76740485  1.0
  C  C33  1  0.49789795  0.78600589  0.45115230  1.0
  C  C34  1  0.15458725  0.44803789  0.44005075  1.0
  C  C35  1  0.75218700  0.81656135  0.78990993  1.0
  C  C36  1  0.51999231  0.12736968  0.51669819  1.0
  C  C37  1  0.51111214  0.04467335  0.49579154  1.0
  C  C38  1  0.50224211  0.95443846  0.47473613  1.0
  C  C39  1  0.49523325  0.87280733  0.45859031  1.0
  C  C40  1  0.84295306  0.45438448  0.45486663  1.0
  C  C41  1  0.45080215  0.52838075  0.24803882  1.0
  C  C42  1  0.90875586  0.44117198  0.44242206  1.0
  C  C43  1  0.98810766  0.43649394  0.43682051  1.0
  C  C44  1  0.06476368  0.44002382  0.43629669  1.0
  C  C45  1  0.56360135  0.60687751  0.19015141  1.0
  C  C46  1  0.56466797  0.65433805  0.06619467  1.0
  C  C47  1  0.47946951  0.62400749  0.00085993  1.0
  C  C48  1  0.46825408  0.61138521  0.91998398  1.0
  C  C49  1  0.57032860  0.64017507  0.13826606  1.0
  C  C50  1  0.45746876  0.58482698  0.84688384  1.0
  C  C51  1  0.78285464  0.89375400  0.86640169  1.0
  C  C52  1  0.58574398  0.31185711  0.59825988  1.0
  C  C53  1  0.87056877  0.01863260  0.02287211  1.0
  C  C54  1  0.88470965  0.99054273  0.08639900  1.0
  C  C55  1  0.96526470  0.05127825  0.16245286  1.0
  C  C56  1  0.81657077  0.95406552  0.93850379  1.0
  C  C57  1  0.04304879  0.10280288  0.22296295  1.0
  C  C58  1  0.58700701  0.52187517  0.28763149  1.0
  C  C59  1  0.44773551  0.23182444  0.48628551  1.0
  C  C60  1  0.71918434  0.44846477  0.51743004  1.0
  C  C61  1  0.21538393  0.22458537  0.26284373  1.0
  C  C62  1  0.13889242  0.16850891  0.28010605  1.0
  S  S63  1  0.70074959  0.84800288  0.48826253  1.0
  S  S64  1  0.14306370  0.42673203  0.27383098  1.0
  S  S65  1  0.36967139  0.57862721  0.01909364  1.0
  S  S66  1  0.67635288  0.69815236  0.05149520  1.0
  S  S67  1  0.69802193  0.36408423  0.68166127  1.0
  N  N68  1  0.27818059  0.27376670  0.39757631  1.0
  N  N69  1  0.55723979  0.68278699  0.46418101  1.0
  N  N70  1  0.28123731  0.45584925  0.40671518  1.0
  N  N71  1  0.71907030  0.66969784  0.69672889  1.0
  N  N72  1  0.69118104  0.71735266  0.65198945  1.0
  N  N73  1  0.30589315  0.46397228  0.48541277  1.0
  N  N74  1  0.51805664  0.53129078  0.66909466  1.0
  N  N75  1  0.46157456  0.63380030  0.44568063  1.0
  N  N76  1  0.70936242  0.57665133  0.50990830  1.0
  N  N77  1  0.44567339  0.47655168  0.29327188  1.0
  N  N78  1  0.55375853  0.37496439  0.58928268  1.0
  N  N79  1  0.53119859  0.47233530  0.31875374  1.0
  N  N80  1  0.46992329  0.32672294  0.52089613  1.0
  N  N81  1  0.67885027  0.50555835  0.53756710  1.0
  N  N82  1  0.29766299  0.28809608  0.33082035  1.0
  N  N83  1  0.42417923  0.45663531  0.63596321  1.0
  O  O84  1  0.73098581  0.94946156  0.53210511  1.0
  O  O85  1  0.75434595  0.80245272  0.52136829  1.0
  O  O86  1  0.70579222  0.82759812  0.39862551  1.0
  O  O87  1  0.10397775  0.49089015  0.26549614  1.0
  O  O88  1  0.21697997  0.42370368  0.24390231  1.0
  O  O89  1  0.05727331  0.31611576  0.22786262  1.0
  O  O90  1  0.34316500  0.48165367  0.01286878  1.0
  O  O91  1  0.37947608  0.65494174  0.09002473  1.0
  O  O92  1  0.29028600  0.56520554  0.93662909  1.0
  O  O93  1  0.69102050  0.61600180  0.01685471  1.0
  O  O94  1  0.68232892  0.76604092  0.01472564  1.0
  O  O95  1  0.75508845  0.76551600  0.14685366  1.0
  O  O96  1  0.75770089  0.32564826  0.65635694  1.0
  O  O97  1  0.73058022  0.46832054  0.71667385  1.0
  O  O98  1  0.67185437  0.32915032  0.75019797  1.0
  F  F99  1  0.14951899  0.17737553  0.41936148  1.0
  F  F100  1  0.69241536  0.86613808  0.68125297  1.0
  F  F101  1  0.92241439  0.11501114  0.03890968  1.0
  F  F102  1  0.37862133  0.54567304  0.21731308  1.0
  F  F103  1  0.21136081  0.22089021  0.18824644  1.0
