# generated using pymatgen
data_ZnH11C22NCl2O4F
_symmetry_space_group_name_H-M   'P 1'
_cell_length_a   16.56869294
_cell_length_b   17.94709268
_cell_length_c   17.96333690
_cell_angle_alpha   90.45484465
_cell_angle_beta   95.26438806
_cell_angle_gamma   92.22752714
_symmetry_Int_Tables_number   1
_chemical_formula_structural   ZnH11C22NCl2O4F
_chemical_formula_sum   'Zn2 H22 C44 N2 Cl4 O8 F2'
_cell_volume   5314.66971630
_cell_formula_units_Z   2
loop_
 _symmetry_equiv_pos_site_id
 _symmetry_equiv_pos_as_xyz
  1  'x, y, z'
loop_
 _atom_site_type_symbol
 _atom_site_label
 _atom_site_symmetry_multiplicity
 _atom_site_fract_x
 _atom_site_fract_y
 _atom_site_fract_z
 _atom_site_occupancy
  Zn  Zn0  1  0.58487443  0.50322874  0.50352010  1.0
  Zn  Zn1  1  0.41512059  0.49678157  0.49645561  1.0
  H  H2  1  0.29019095  0.57439807  0.57385394  1.0
  H  H3  1  0.14313251  0.57448102  0.57370428  1.0
  H  H4  1  0.12946678  0.40155617  0.40278681  1.0
  H  H5  1  0.27830185  0.40972730  0.41076689  1.0
  H  H6  1  0.87052102  0.59847026  0.59717612  1.0
  H  H7  1  0.85685926  0.42553875  0.42626507  1.0
  H  H8  1  0.70980124  0.42561724  0.42611765  1.0
  H  H9  1  0.72168699  0.59028022  0.58921217  1.0
  H  H10  1  0.38389226  0.49580391  0.73358945  1.0
  H  H11  1  0.38781002  0.49548152  0.86870884  1.0
  H  H12  1  0.64967646  0.50538989  0.88260683  1.0
  H  H13  1  0.64326732  0.50556863  0.74642083  1.0
  H  H14  1  0.35029767  0.49453900  0.11737561  1.0
  H  H15  1  0.61216433  0.50443839  0.13125632  1.0
  H  H16  1  0.61609705  0.50412605  0.26637201  1.0
  H  H17  1  0.35672651  0.49439764  0.25356012  1.0
  H  H18  1  0.62996234  0.26652329  0.50521138  1.0
  H  H19  1  0.63015770  0.12671497  0.50525240  1.0
  H  H20  1  0.36949027  0.25683358  0.49560815  1.0
  H  H21  1  0.63054016  0.74318159  0.50448023  1.0
  H  H22  1  0.37008354  0.73348230  0.49502355  1.0
  H  H23  1  0.36987328  0.87329536  0.49508929  1.0
  C  C24  1  0.50923197  0.50157350  0.64653719  1.0
  C  C25  1  0.50009651  0.64636578  0.50063131  1.0
  C  C26  1  0.49076382  0.49841117  0.35344068  1.0
  C  C27  1  0.49991639  0.35365092  0.49942053  1.0
  C  C28  1  0.25185681  0.53674177  0.53658994  1.0
  C  C29  1  0.16791934  0.53624703  0.53598792  1.0
  C  C30  1  0.11829571  0.48741571  0.48767435  1.0
  C  C31  1  0.16116886  0.44126858  0.44208317  1.0
  C  C32  1  0.24523204  0.44518289  0.44596846  1.0
  C  C33  1  0.02784175  0.48122594  0.48144664  1.0
  C  C34  1  0.97214638  0.51880884  0.51851247  1.0
  C  C35  1  0.83881997  0.55875340  0.55788316  1.0
  C  C36  1  0.88169348  0.51261518  0.51228482  1.0
  C  C37  1  0.83207188  0.46377440  0.46397861  1.0
  C  C38  1  0.74813543  0.46327465  0.46337943  1.0
  C  C39  1  0.75475880  0.55482909  0.55400745  1.0
  C  C40  1  0.51304995  0.50123926  0.73014243  1.0
  C  C41  1  0.44230555  0.49820616  0.76692554  1.0
  C  C42  1  0.44503740  0.49795256  0.84448762  1.0
  C  C43  1  0.51947939  0.50071326  0.89041591  1.0
  C  C44  1  0.59032976  0.50341679  0.85147566  1.0
  C  C45  1  0.58732522  0.50365564  0.77399298  1.0
  C  C46  1  0.52809911  0.50095517  0.97380972  1.0
  C  C47  1  0.47186998  0.49898427  0.02616011  1.0
  C  C48  1  0.40964719  0.49652211  0.14849873  1.0
  C  C49  1  0.48049504  0.49922340  0.10955268  1.0
  C  C50  1  0.55493988  0.50197963  0.15547785  1.0
  C  C51  1  0.55767834  0.50173943  0.23304278  1.0
  C  C52  1  0.48693853  0.49872978  0.26983530  1.0
  C  C53  1  0.41266253  0.49631005  0.22598411  1.0
  C  C54  1  0.50014270  0.27006223  0.49990763  1.0
  C  C55  1  0.57346156  0.23315725  0.50289647  1.0
  C  C56  1  0.57353544  0.15585752  0.50304934  1.0
  C  C57  1  0.50014695  0.11254152  0.50029297  1.0
  C  C58  1  0.42771739  0.15152342  0.49767276  1.0
  C  C59  1  0.42655623  0.22851322  0.49745242  1.0
  C  C60  1  0.49946931  0.03398406  0.50021372  1.0
  C  C61  1  0.50057092  0.96602973  0.50015827  1.0
  C  C62  1  0.49988474  0.88747109  0.50006160  1.0
  C  C63  1  0.57231236  0.84848727  0.50260036  1.0
  C  C64  1  0.57347463  0.77149661  0.50271613  1.0
  C  C65  1  0.49989016  0.72995201  0.50024552  1.0
  C  C66  1  0.42657729  0.76685394  0.49735014  1.0
  C  C67  1  0.42649363  0.84415057  0.49728550  1.0
  N  N68  1  0.29057385  0.49224455  0.49257280  1.0
  N  N69  1  0.70941580  0.50776797  0.50740135  1.0
  Cl  Cl70  1  0.99018402  0.41421089  0.41527042  1.0
  Cl  Cl71  1  0.00980330  0.58581888  0.58468970  1.0
  Cl  Cl72  1  0.63017583  0.50451118  0.00940866  1.0
  Cl  Cl73  1  0.36979107  0.49543383  0.99056157  1.0
  O  O74  1  0.57646759  0.50426371  0.61719839  1.0
  O  O75  1  0.43888329  0.49903889  0.61109303  1.0
  O  O76  1  0.43136368  0.61160468  0.49799073  1.0
  O  O77  1  0.56896383  0.61677994  0.50353881  1.0
  O  O78  1  0.42353186  0.49589942  0.38278569  1.0
  O  O79  1  0.56111361  0.50078016  0.38887908  1.0
  O  O80  1  0.56864921  0.38842468  0.50219422  1.0
  O  O81  1  0.43103314  0.38322051  0.49630452  1.0
  F  F82  1  0.35600443  0.11140096  0.49529166  1.0
  F  F83  1  0.64401454  0.88862760  0.50499735  1.0
