# generated using pymatgen
data_ZnH2C12(NO3)4
_symmetry_space_group_name_H-M   'P 1'
_cell_length_a   10.14689004
_cell_length_b   18.32317192
_cell_length_c   18.38871594
_cell_angle_alpha   89.53697192
_cell_angle_beta   84.25706820
_cell_angle_gamma   83.93879695
_symmetry_Int_Tables_number   1
_chemical_formula_structural   ZnH2C12(NO3)4
_chemical_formula_sum   'Zn4 H8 C48 N16 O48'
_cell_volume   3382.70180786
_cell_formula_units_Z   4
loop_
 _symmetry_equiv_pos_site_id
 _symmetry_equiv_pos_as_xyz
  1  'x, y, z'
loop_
 _atom_site_type_symbol
 _atom_site_label
 _atom_site_symmetry_multiplicity
 _atom_site_fract_x
 _atom_site_fract_y
 _atom_site_fract_z
 _atom_site_occupancy
  Zn  Zn0  1  0.61181223  0.00174283  0.48483472  1.0
  Zn  Zn1  1  0.33406840  0.02717206  0.50445135  1.0
  Zn  Zn2  1  0.38793735  0.51633473  0.99854989  1.0
  Zn  Zn3  1  0.66589873  0.49570901  0.97405161  1.0
  H  H4  1  0.78809458  0.33578348  0.14185988  1.0
  H  H5  1  0.22613007  0.17568053  0.32661582  1.0
  H  H6  1  0.77405763  0.67360234  0.82594350  1.0
  H  H7  1  0.21176402  0.85931338  0.66396424  1.0
  H  H8  1  0.72722007  0.62997379  0.13245184  1.0
  H  H9  1  0.27222949  0.86803661  0.37071273  1.0
  H  H10  1  0.24252985  0.35434918  0.86754135  1.0
  H  H11  1  0.75765973  0.13282059  0.64654940  1.0
  C  C12  1  0.53857942  0.09966315  0.59038035  1.0
  C  C13  1  0.42811600  0.10921137  0.39508505  1.0
  C  C14  1  0.50001230  0.90773639  0.40375677  1.0
  C  C15  1  0.41295628  0.92910183  0.60160439  1.0
  C  C16  1  0.49934303  0.59690185  0.09292136  1.0
  C  C17  1  0.58675665  0.39835653  0.07147920  1.0
  C  C18  1  0.46140606  0.41064593  0.90074903  1.0
  C  C19  1  0.57212922  0.60588389  0.89221046  1.0
  C  C20  1  0.46204755  0.30797002  0.14875548  1.0
  C  C21  1  0.69565738  0.31240742  0.15908234  1.0
  C  C22  1  0.68984459  0.26228453  0.21482645  1.0
  C  C23  1  0.57058463  0.23198757  0.24160160  1.0
  C  C24  1  0.56030089  0.18007940  0.29962650  1.0
  C  C25  1  0.32204133  0.18997841  0.30177620  1.0
  C  C26  1  0.32900012  0.23280010  0.24025271  1.0
  C  C27  1  0.45039921  0.25757529  0.20788856  1.0
  C  C28  1  0.58079105  0.33644497  0.12532054  1.0
  C  C29  1  0.43881425  0.16098175  0.33159329  1.0
  C  C30  1  0.43988443  0.70162587  0.82083643  1.0
  C  C31  1  0.67812677  0.69868941  0.81135185  1.0
  C  C32  1  0.67111969  0.76016745  0.76828077  1.0
  C  C33  1  0.54968466  0.79273430  0.74305362  1.0
  C  C34  1  0.53792421  0.85175247  0.69239346  1.0
  C  C35  1  0.30422278  0.84200681  0.68763230  1.0
  C  C36  1  0.31023048  0.78637510  0.73796539  1.0
  C  C37  1  0.42954954  0.75943948  0.76860898  1.0
  C  C38  1  0.56140944  0.66931088  0.84025550  1.0
  C  C39  1  0.41908098  0.87539824  0.66362529  1.0
  C  C40  1  0.41036960  0.68083452  0.20221836  1.0
  C  C41  1  0.64519815  0.65772418  0.16783380  1.0
  C  C42  1  0.67102474  0.70191344  0.22322524  1.0
  C  C43  1  0.56792115  0.74379628  0.26825628  1.0
  C  C44  1  0.58933802  0.79836991  0.31964254  1.0
  C  C45  1  0.35440356  0.83269254  0.34291051  1.0
  C  C46  1  0.32867754  0.77716901  0.29878928  1.0
  C  C47  1  0.43173262  0.73219584  0.25679600  1.0
  C  C48  1  0.51413572  0.64600096  0.15613948  1.0
  C  C49  1  0.48544505  0.84444699  0.35458459  1.0
  C  C50  1  0.57058823  0.29939003  0.82703508  1.0
  C  C51  1  0.33214011  0.32296790  0.84216926  1.0
  C  C52  1  0.32176197  0.26385058  0.79873483  1.0
  C  C53  1  0.43522921  0.22404338  0.75934453  1.0
  C  C54  1  0.42985386  0.17325854  0.70146643  1.0
  C  C55  1  0.66817395  0.15825339  0.67786713  1.0
  C  C56  1  0.67868835  0.20184881  0.73674999  1.0
  C  C57  1  0.56517932  0.24130313  0.77642970  1.0
  C  C58  1  0.45726784  0.34292258  0.85600851  1.0
  C  C59  1  0.54301830  0.14435718  0.65798013  1.0
  N  N60  1  0.19953646  0.24946936  0.20973526  1.0
  N  N61  1  0.34335185  0.33315296  0.11043518  1.0
  N  N62  1  0.81560537  0.24780646  0.24993549  1.0
  N  N63  1  0.68459439  0.14193016  0.32469028  1.0
  N  N64  1  0.18447831  0.75158566  0.75241187  1.0
  N  N65  1  0.31556534  0.67721764  0.85878530  1.0
  N  N66  1  0.80047977  0.79029562  0.75142775  1.0
  N  N67  1  0.65639563  0.88990919  0.66732212  1.0
  N  N68  1  0.18509999  0.76666078  0.30280577  1.0
  N  N69  1  0.27297959  0.66620828  0.19028993  1.0
  N  N70  1  0.81484628  0.69795884  0.23350135  1.0
  N  N71  1  0.72677418  0.81041218  0.33412074  1.0
  N  N72  1  0.81677158  0.19903928  0.75764779  1.0
  N  N73  1  0.70161259  0.31729168  0.84713392  1.0
  N  N74  1  0.18403218  0.24274315  0.80150846  1.0
  N  N75  1  0.29898976  0.15276164  0.68380760  1.0
  O  O76  1  0.65017525  0.06848878  0.56044923  1.0
  O  O77  1  0.42659583  0.09647645  0.56660947  1.0
  O  O78  1  0.31142409  0.09991475  0.42527628  1.0
  O  O79  1  0.53603192  0.07791901  0.41436330  1.0
  O  O80  1  0.39141687  0.94174555  0.43156693  1.0
  O  O81  1  0.61708393  0.92330214  0.41339704  1.0
  O  O82  1  0.52258451  0.93775568  0.56518642  1.0
  O  O83  1  0.29894082  0.96013219  0.58774840  1.0
  O  O84  1  0.38220892  0.58773806  0.07699883  1.0
  O  O85  1  0.60789371  0.56868620  0.05928924  1.0
  O  O86  1  0.70077115  0.41196805  0.04094045  1.0
  O  O87  1  0.47701115  0.43500013  0.06231331  1.0
  O  O88  1  0.57328977  0.43423233  0.90435890  1.0
  O  O89  1  0.34975026  0.44088056  0.93154836  1.0
  O  O90  1  0.46422931  0.58716057  0.92336432  1.0
  O  O91  1  0.68880910  0.57517339  0.90178749  1.0
  O  O92  1  0.19098537  0.22223822  0.14924179  1.0
  O  O93  1  0.11057728  0.28582736  0.24834468  1.0
  O  O94  1  0.34273299  0.30988462  0.04783341  1.0
  O  O95  1  0.25588532  0.37487842  0.14475925  1.0
  O  O96  1  0.89285586  0.19433232  0.22764362  1.0
  O  O97  1  0.83209950  0.29259825  0.29695891  1.0
  O  O98  1  0.72812280  0.08487703  0.29165278  1.0
  O  O99  1  0.73324976  0.17049295  0.37479207  1.0
  O  O100  1  0.10705728  0.77469553  0.80519778  1.0
  O  O101  1  0.16811817  0.70404425  0.70811345  1.0
  O  O102  1  0.27217983  0.71115833  0.91514675  1.0
  O  O103  1  0.26669248  0.62681662  0.83077141  1.0
  O  O104  1  0.80930986  0.85115994  0.77809961  1.0
  O  O105  1  0.88897227  0.75111474  0.71531311  1.0
  O  O106  1  0.65695586  0.95277524  0.69041174  1.0
  O  O107  1  0.74371802  0.85524682  0.62590090  1.0
  O  O108  1  0.15612918  0.70630701  0.32615963  1.0
  O  O109  1  0.10746845  0.81972074  0.28801154  1.0
  O  O110  1  0.23755238  0.60709648  0.21199764  1.0
  O  O111  1  0.20814547  0.71526618  0.15856035  1.0
  O  O112  1  0.84513417  0.67411474  0.29337833  1.0
  O  O113  1  0.89140160  0.71336006  0.18069791  1.0
  O  O114  1  0.76344924  0.78818018  0.39275067  1.0
  O  O115  1  0.79042221  0.84264837  0.28541156  1.0
  O  O116  1  0.82989811  0.18226281  0.82204525  1.0
  O  O117  1  0.90612210  0.20775018  0.70888799  1.0
  O  O118  1  0.72796978  0.30234418  0.90971194  1.0
  O  O119  1  0.77216206  0.34594696  0.79870633  1.0
  O  O120  1  0.17193498  0.17801278  0.81804486  1.0
  O  O121  1  0.09397032  0.29164895  0.79292337  1.0
  O  O122  1  0.27436974  0.08972194  0.69848063  1.0
  O  O123  1  0.22688114  0.20120330  0.65552666  1.0
