# generated using pymatgen
data_ZnH6C25N6(O7F)2
_symmetry_space_group_name_H-M   'P 1'
_cell_length_a   9.58545879
_cell_length_b   10.84896745
_cell_length_c   28.20442188
_cell_angle_alpha   91.85011934
_cell_angle_beta   89.52266339
_cell_angle_gamma   89.88285945
_symmetry_Int_Tables_number   1
_chemical_formula_structural   ZnH6C25N6(O7F)2
_chemical_formula_sum   'Zn2 H12 C50 N12 O28 F4'
_cell_volume   2931.40498105
_cell_formula_units_Z   2
loop_
 _symmetry_equiv_pos_site_id
 _symmetry_equiv_pos_as_xyz
  1  'x, y, z'
loop_
 _atom_site_type_symbol
 _atom_site_label
 _atom_site_symmetry_multiplicity
 _atom_site_fract_x
 _atom_site_fract_y
 _atom_site_fract_z
 _atom_site_occupancy
  Zn  Zn0  1  0.36303132  0.49903762  0.50074398  1.0
  Zn  Zn1  1  0.65117331  0.49843212  0.49899751  1.0
  H  H2  1  0.42492435  0.20307441  0.87068849  1.0
  H  H3  1  0.43128966  0.80036491  0.12937452  1.0
  H  H4  1  0.48972040  0.18613223  0.02684659  1.0
  H  H5  1  0.49730147  0.81579084  0.97291249  1.0
  H  H6  1  0.72572370  0.11301469  0.48645673  1.0
  H  H7  1  0.28538803  0.88466631  0.51627824  1.0
  H  H8  1  0.72443043  0.88086984  0.48475828  1.0
  H  H9  1  0.28471000  0.11654441  0.51484227  1.0
  H  H10  1  0.87016055  0.63733989  0.55204410  1.0
  H  H11  1  0.14380729  0.35854147  0.44840095  1.0
  H  H12  1  0.87737104  0.36186865  0.44613073  1.0
  H  H13  1  0.13678895  0.63971239  0.55251446  1.0
  C  C14  1  0.50489955  0.26371231  0.50022574  1.0
  C  C15  1  0.50421405  0.73368934  0.50009105  1.0
  C  C16  1  0.50998929  0.48705149  0.40623098  1.0
  C  C17  1  0.51140476  0.51148250  0.59347759  1.0
  C  C18  1  0.48905417  0.37238547  0.17619633  1.0
  C  C19  1  0.49184611  0.62979598  0.82352251  1.0
  C  C20  1  0.45792594  0.60258006  0.18162067  1.0
  C  C21  1  0.45544258  0.40039196  0.81825664  1.0
  C  C22  1  0.59707439  0.54011582  0.27565503  1.0
  C  C23  1  0.59784099  0.46002737  0.72369981  1.0
  C  C24  1  0.60540624  0.53886208  0.32509205  1.0
  C  C25  1  0.60687522  0.46078179  0.67421864  1.0
  C  C26  1  0.39336570  0.42507311  0.32823371  1.0
  C  C27  1  0.39675163  0.57814452  0.67185992  1.0
  C  C28  1  0.38268391  0.42603452  0.27894406  1.0
  C  C29  1  0.38550057  0.57798807  0.72120201  1.0
  C  C30  1  0.48522409  0.48371997  0.25195206  1.0
  C  C31  1  0.48655963  0.51853071  0.74780740  1.0
  C  C32  1  0.46758762  0.49226039  0.10136102  1.0
  C  C33  1  0.46760002  0.51029916  0.89843151  1.0
  C  C34  1  0.48260653  0.37807920  0.12416757  1.0
  C  C35  1  0.48532680  0.62415261  0.87557187  1.0
  C  C36  1  0.49235314  0.27162556  0.09571362  1.0
  C  C37  1  0.49771183  0.73034008  0.90396604  1.0
  C  C38  1  0.45567584  0.60279582  0.12934687  1.0
  C  C39  1  0.45317131  0.40007679  0.87053101  1.0
  C  C40  1  0.50377058  0.48137357  0.35247772  1.0
  C  C41  1  0.50634141  0.51942903  0.64723091  1.0
  C  C42  1  0.45650167  0.38842237  0.97143368  1.0
  C  C43  1  0.45918013  0.61433194  0.02843121  1.0
  C  C44  1  0.47065285  0.61817859  0.97681111  1.0
  C  C45  1  0.46803397  0.38430716  0.02297968  1.0
  C  C46  1  0.46485443  0.50513017  0.94910692  1.0
  C  C47  1  0.46497794  0.49745133  0.05070267  1.0
  C  C48  1  0.43916176  0.28430359  0.94118033  1.0
  C  C49  1  0.44398847  0.71878707  0.05879876  1.0
  C  C50  1  0.43695866  0.28802157  0.89198002  1.0
  C  C51  1  0.44175004  0.71519712  0.10801842  1.0
  C  C52  1  0.48355297  0.27345513  0.04646760  1.0
  C  C53  1  0.48878097  0.72870728  0.95326535  1.0
  C  C54  1  0.62997178  0.06177708  0.49248058  1.0
  C  C55  1  0.38043537  0.93594335  0.50921346  1.0
  C  C56  1  0.62949345  0.93380658  0.49185490  1.0
  C  C57  1  0.38023375  0.06378964  0.50859780  1.0
  C  C58  1  0.50482124  0.87071258  0.50043304  1.0
  C  C59  1  0.50514031  0.12681137  0.50046601  1.0
  C  C60  1  0.93274450  0.57685881  0.52869859  1.0
  C  C61  1  0.08168143  0.42123470  0.47106341  1.0
  C  C62  1  0.93662123  0.42223775  0.47009499  1.0
  C  C63  1  0.07779467  0.57744069  0.52917581  1.0
  N  N64  1  0.47716689  0.48609206  0.20157958  1.0
  N  N65  1  0.47769545  0.51640667  0.79822281  1.0
  N  N66  1  0.15014979  0.49921548  0.50047564  1.0
  N  N67  1  0.86415201  0.49957102  0.49906349  1.0
  N  N68  1  0.28157090  0.36646032  0.35644425  1.0
  N  N69  1  0.28679283  0.63888977  0.64397534  1.0
  N  N70  1  0.26363025  0.36359328  0.25538663  1.0
  N  N71  1  0.26746141  0.64297640  0.74523400  1.0
  N  N72  1  0.51275959  0.14738453  0.11523179  1.0
  N  N73  1  0.52096889  0.85407386  0.88431692  1.0
  N  N74  1  0.70807317  0.39663839  0.75015583  1.0
  N  N75  1  0.70893723  0.60130545  0.24877462  1.0
  O  O76  1  0.38860773  0.31670249  0.49289611  1.0
  O  O77  1  0.61896950  0.67819452  0.49026949  1.0
  O  O78  1  0.38899771  0.68088127  0.50947889  1.0
  O  O79  1  0.62096768  0.31835391  0.50740438  1.0
  O  O80  1  0.39610455  0.51596713  0.42682272  1.0
  O  O81  1  0.62700537  0.53323077  0.57373259  1.0
  O  O82  1  0.39673434  0.48213226  0.57429124  1.0
  O  O83  1  0.62626382  0.46377740  0.42462355  1.0
  O  O84  1  0.50311310  0.27616260  0.19736983  1.0
  O  O85  1  0.50799989  0.72573960  0.80228943  1.0
  O  O86  1  0.44147756  0.30775980  0.79272528  1.0
  O  O87  1  0.44625026  0.69563140  0.20716443  1.0
  O  O88  1  0.16411044  0.41280907  0.35411335  1.0
  O  O89  1  0.31588455  0.27861730  0.38038216  1.0
  O  O90  1  0.16810454  0.59549118  0.64683537  1.0
  O  O91  1  0.32384965  0.72562268  0.61977831  1.0
  O  O92  1  0.23297787  0.26073924  0.26958854  1.0
  O  O93  1  0.20498075  0.41951630  0.22363878  1.0
  O  O94  1  0.23934659  0.74641054  0.73111189  1.0
  O  O95  1  0.20711637  0.58841596  0.77725651  1.0
  O  O96  1  0.63459742  0.11358819  0.11990289  1.0
  O  O97  1  0.40667635  0.08558871  0.12154848  1.0
  O  O98  1  0.64350850  0.88523420  0.87888375  1.0
  O  O99  1  0.41615989  0.91808570  0.87872780  1.0
  O  O100  1  0.73830958  0.29102815  0.73647925  1.0
  O  O101  1  0.76067326  0.45571726  0.78378483  1.0
  O  O102  1  0.74093430  0.70632737  0.26232510  1.0
  O  O103  1  0.76112899  0.54114281  0.21499584  1.0
  F  F104  1  0.71433384  0.40363572  0.65223624  1.0
  F  F105  1  0.71356439  0.59404232  0.34660129  1.0
  F  F106  1  0.42283746  0.17041083  0.95916952  1.0
  F  F107  1  0.42985198  0.83297341  0.04085186  1.0
