# generated using pymatgen
data_ZnH14C18I2(N2O)2
_symmetry_space_group_name_H-M   'P 1'
_cell_length_a   12.93271582
_cell_length_b   13.74616351
_cell_length_c   16.04326156
_cell_angle_alpha   101.41622224
_cell_angle_beta   113.75108435
_cell_angle_gamma   90.00595852
_symmetry_Int_Tables_number   1
_chemical_formula_structural   ZnH14C18I2(N2O)2
_chemical_formula_sum   'Zn4 H56 C72 I8 N16 O8'
_cell_volume   2548.73594198
_cell_formula_units_Z   4
loop_
 _symmetry_equiv_pos_site_id
 _symmetry_equiv_pos_as_xyz
  1  'x, y, z'
loop_
 _atom_site_type_symbol
 _atom_site_label
 _atom_site_symmetry_multiplicity
 _atom_site_fract_x
 _atom_site_fract_y
 _atom_site_fract_z
 _atom_site_occupancy
  Zn  Zn0  1  0.18912187  0.28213927  0.55183512  1.0
  Zn  Zn1  1  0.63720762  0.21781012  0.44824698  1.0
  Zn  Zn2  1  0.81087817  0.71786050  0.44816475  1.0
  Zn  Zn3  1  0.36279122  0.78218964  0.55175255  1.0
  H  H4  1  0.02310438  0.34032195  0.13226106  1.0
  H  H5  1  0.89093271  0.15972739  0.86778035  1.0
  H  H6  1  0.97689573  0.65967856  0.86773897  1.0
  H  H7  1  0.10906725  0.84027163  0.13221937  1.0
  H  H8  1  0.74560396  0.41488638  0.78772551  1.0
  H  H9  1  0.95789684  0.08512783  0.21232190  1.0
  H  H10  1  0.25439602  0.58511339  0.21227347  1.0
  H  H11  1  0.04210382  0.91487194  0.78767860  1.0
  H  H12  1  0.35499828  0.27473214  0.46145346  1.0
  H  H13  1  0.89336436  0.22543175  0.53853493  1.0
  H  H14  1  0.64500056  0.72526762  0.53854607  1.0
  H  H15  1  0.10663498  0.77456727  0.46146417  1.0
  H  H16  1  0.35437884  0.31160704  0.31568186  1.0
  H  H17  1  0.03853953  0.18850385  0.68418589  1.0
  H  H18  1  0.64562204  0.68839496  0.68431909  1.0
  H  H19  1  0.96145996  0.81149666  0.31581351  1.0
  H  H20  1  0.04055823  0.44761874  0.27471219  1.0
  H  H21  1  0.76586883  0.05237278  0.72538672  1.0
  H  H22  1  0.95944123  0.55238103  0.72528797  1.0
  H  H23  1  0.23413071  0.94762773  0.27461359  1.0
  H  H24  1  0.05955509  0.41413240  0.42710331  1.0
  H  H25  1  0.63246000  0.08576626  0.57298730  1.0
  H  H26  1  0.94044432  0.58586737  0.57289595  1.0
  H  H27  1  0.36754003  0.91423350  0.42701257  1.0
  H  H28  1  0.87793867  0.35430632  0.99974950  1.0
  H  H29  1  0.87824351  0.14563199  0.00030275  1.0
  H  H30  1  0.12206087  0.64569419  0.00025080  1.0
  H  H31  1  0.12175715  0.85436778  0.99969775  1.0
  H  H32  1  0.22182914  0.39865620  0.02911286  1.0
  H  H33  1  0.19269759  0.10140060  0.97078482  1.0
  H  H34  1  0.77817019  0.60134282  0.97088624  1.0
  H  H35  1  0.80730315  0.89859991  0.02921583  1.0
  H  H36  1  0.14900208  0.40679755  0.86111706  1.0
  H  H37  1  0.28784132  0.09319407  0.13875750  1.0
  H  H38  1  0.85099668  0.59320147  0.13888232  1.0
  H  H39  1  0.71215929  0.90680570  0.86124210  1.0
  H  H40  1  0.94187708  0.38629394  0.76232546  1.0
  H  H41  1  0.17952912  0.11373443  0.23764350  1.0
  H  H42  1  0.05812287  0.61370508  0.23767426  1.0
  H  H43  1  0.82047267  0.88626534  0.76235644  1.0
  H  H44  1  0.38202188  0.43534522  0.66260856  1.0
  H  H45  1  0.71951014  0.06455354  0.33754212  1.0
  H  H46  1  0.61797698  0.56465529  0.33739022  1.0
  H  H47  1  0.28048925  0.93544548  0.66245788  1.0
  H  H48  1  0.58718705  0.44534464  0.76449211  1.0
  H  H49  1  0.82278691  0.05460490  0.23559854  1.0
  H  H50  1  0.41281369  0.55465587  0.23550854  1.0
  H  H51  1  0.17721250  0.94539486  0.76440072  1.0
  H  H52  1  0.55382584  0.12330671  0.72304381  1.0
  H  H53  1  0.83063926  0.37662769  0.27693607  1.0
  H  H54  1  0.44617484  0.87669380  0.27695594  1.0
  H  H55  1  0.16936132  0.62337133  0.72306428  1.0
  H  H56  1  0.34866826  0.12708383  0.61738121  1.0
  H  H57  1  0.73115751  0.37278491  0.38268057  1.0
  H  H58  1  0.65133115  0.87291594  0.38261805  1.0
  H  H59  1  0.26884252  0.62721486  0.61731930  1.0
  C  C60  1  0.28743125  0.31402601  0.41879176  1.0
  C  C61  1  0.86852522  0.18606773  0.58120409  1.0
  C  C62  1  0.71256956  0.68597524  0.58120904  1.0
  C  C63  1  0.13147474  0.81393129  0.41879564  1.0
  C  C64  1  0.28615573  0.33362665  0.33678687  1.0
  C  C65  1  0.94925782  0.16645584  0.66316587  1.0
  C  C66  1  0.71384446  0.66637461  0.66321331  1.0
  C  C67  1  0.05074157  0.83354318  0.33683413  1.0
  C  C68  1  0.19447841  0.37879320  0.28139984  1.0
  C  C69  1  0.91301406  0.12122598  0.71856997  1.0
  C  C70  1  0.80552178  0.62120805  0.71860034  1.0
  C  C71  1  0.08698359  0.87877379  0.28142921  1.0
  C  C72  1  0.11171187  0.40931786  0.31385314  1.0
  C  C73  1  0.79784469  0.09067920  0.68619875  1.0
  C  C74  1  0.88828705  0.59068265  0.68614654  1.0
  C  C75  1  0.20215534  0.90932057  0.31380112  1.0
  C  C76  1  0.12112151  0.39030132  0.39826347  1.0
  C  C77  1  0.72282130  0.10967375  0.60179579  1.0
  C  C78  1  0.87887803  0.60969919  0.60173683  1.0
  C  C79  1  0.27717689  0.89032527  0.39820386  1.0
  C  C80  1  0.18938871  0.39613766  0.19065896  1.0
  C  C81  1  0.99865778  0.10380099  0.80925296  1.0
  C  C82  1  0.81061140  0.60386285  0.80934107  1.0
  C  C83  1  0.00134163  0.89619878  0.19074629  1.0
  C  C84  1  0.93761495  0.36530989  0.96938691  1.0
  C  C85  1  0.96825495  0.13468318  0.03063239  1.0
  C  C86  1  0.06238446  0.63468987  0.03061235  1.0
  C  C87  1  0.03174579  0.86531733  0.96936826  1.0
  C  C88  1  0.05441212  0.37608393  0.02494204  1.0
  C  C89  1  0.02948060  0.12394479  0.97503052  1.0
  C  C90  1  0.94558729  0.62391584  0.97505722  1.0
  C  C91  1  0.97052070  0.87605572  0.02496986  1.0
  C  C92  1  0.13133386  0.39090116  0.98594725  1.0
  C  C93  1  0.14536162  0.10910037  0.01396195  1.0
  C  C94  1  0.86866618  0.60909860  0.01405263  1.0
  C  C95  1  0.85463961  0.89089940  0.98603828  1.0
  C  C96  1  0.08995859  0.39569976  0.89209834  1.0
  C  C97  1  0.19783396  0.10433326  0.10781054  1.0
  C  C98  1  0.91004082  0.60430001  0.10790091  1.0
  C  C99  1  0.80216726  0.89566650  0.89218968  1.0
  C  C100  1  0.97378566  0.38499409  0.83618865  1.0
  C  C101  1  0.13760095  0.11502144  0.16377906  1.0
  C  C102  1  0.02621305  0.61500494  0.16380983  1.0
  C  C103  1  0.86240033  0.88497833  0.83622206  1.0
  C  C104  1  0.89829838  0.36940090  0.87568991  1.0
  C  C105  1  0.02262425  0.13059046  0.12432079  1.0
  C  C106  1  0.10170047  0.63059886  0.12430962  1.0
  C  C107  1  0.97737584  0.86940931  0.87567999  1.0
  C  C108  1  0.71064534  0.27929881  0.81098618  1.0
  C  C109  1  0.89970179  0.22072047  0.18909684  1.0
  C  C110  1  0.28935477  0.72070170  0.18901385  1.0
  C  C111  1  0.10029832  0.77928004  0.81090319  1.0
  C  C112  1  0.42385416  0.36803125  0.67775427  1.0
  C  C113  1  0.74614263  0.13187173  0.32234986  1.0
  C  C114  1  0.57614596  0.63196926  0.32224576  1.0
  C  C115  1  0.25385684  0.86812803  0.67765030  1.0
  C  C116  1  0.53867073  0.37265010  0.73485870  1.0
  C  C117  1  0.80387745  0.12729605  0.26523926  1.0
  C  C118  1  0.46132931  0.62734966  0.26514118  1.0
  C  C119  1  0.19612258  0.87270371  0.73476061  1.0
  C  C120  1  0.58737920  0.28365351  0.75206401  1.0
  C  C121  1  0.83527883  0.21631422  0.24798049  1.0
  C  C122  1  0.41262161  0.71634774  0.24793679  1.0
  C  C123  1  0.16472121  0.78368555  0.75201938  1.0
  C  C124  1  0.51873263  0.19384427  0.71107992  1.0
  C  C125  1  0.80757024  0.30610543  0.28896490  1.0
  C  C126  1  0.48126748  0.80615624  0.28892011  1.0
  C  C127  1  0.19243105  0.69389434  0.71103622  1.0
  C  C128  1  0.40522357  0.19534911  0.65329446  1.0
  C  C129  1  0.75184436  0.30455744  0.34677000  1.0
  C  C130  1  0.59477709  0.80465065  0.34670604  1.0
  C  C131  1  0.24815567  0.69544232  0.65322987  1.0
  I  I132  1  0.09995970  0.40854913  0.63857984  1.0
  I  I133  1  0.46144972  0.09134900  0.36140699  1.0
  I  I134  1  0.90003976  0.59145064  0.36142032  1.0
  I  I135  1  0.53854912  0.90865077  0.63859254  1.0
  I  I136  1  0.09619183  0.10525606  0.47824466  1.0
  I  I137  1  0.61794895  0.39467931  0.52195146  1.0
  I  I138  1  0.90380758  0.89474370  0.52175459  1.0
  I  I139  1  0.38205063  0.60531671  0.47805601  1.0
  N  N140  1  0.20550075  0.34068647  0.44833241  1.0
  N  N141  1  0.75710615  0.15936514  0.55173111  1.0
  N  N142  1  0.79449921  0.65931255  0.55166732  1.0
  N  N143  1  0.24289500  0.84063388  0.44826897  1.0
  N  N144  1  0.08662679  0.36936162  0.11821365  1.0
  N  N145  1  0.96844691  0.13066708  0.88177275  1.0
  N  N146  1  0.91337340  0.63063964  0.88178653  1.0
  N  N147  1  0.03155312  0.86933268  0.11822712  1.0
  N  N148  1  0.77971052  0.35825093  0.81993836  1.0
  N  N149  1  0.95980640  0.14177728  0.18011977  1.0
  N  N150  1  0.22028896  0.64174958  0.18006105  1.0
  N  N151  1  0.04019490  0.85822323  0.81988061  1.0
  N  N152  1  0.35848099  0.28113594  0.63751510  1.0
  N  N153  1  0.72093218  0.21875288  0.36256407  1.0
  N  N154  1  0.64151856  0.71886457  0.36248521  1.0
  N  N155  1  0.27906786  0.78124688  0.63743581  1.0
  O  O156  1  0.27455330  0.43306008  0.18610382  1.0
  O  O157  1  0.08828828  0.06679549  0.81370657  1.0
  O  O158  1  0.72544673  0.56693968  0.81389606  1.0
  O  O159  1  0.91171119  0.93320428  0.18629359  1.0
  O  O160  1  0.74499413  0.20559820  0.84569602  1.0
  O  O161  1  0.89934514  0.29442166  0.15438040  1.0
  O  O162  1  0.25500492  0.79440305  0.15430471  1.0
  O  O163  1  0.10065559  0.70557885  0.84562025  1.0
