# generated using pymatgen
data_Zn4H7C24S4ClO17
_symmetry_space_group_name_H-M   'P 1'
_cell_length_a   19.67103728
_cell_length_b   19.72716117
_cell_length_c   33.37033332
_cell_angle_alpha   79.07424179
_cell_angle_beta   79.24083343
_cell_angle_gamma   63.98717408
_symmetry_Int_Tables_number   1
_chemical_formula_structural   Zn4H7C24S4ClO17
_chemical_formula_sum   'Zn16 H28 C96 S16 Cl4 O68'
_cell_volume   11347.73828543
_cell_formula_units_Z   4
loop_
 _symmetry_equiv_pos_site_id
 _symmetry_equiv_pos_as_xyz
  1  'x, y, z'
loop_
 _atom_site_type_symbol
 _atom_site_label
 _atom_site_symmetry_multiplicity
 _atom_site_fract_x
 _atom_site_fract_y
 _atom_site_fract_z
 _atom_site_occupancy
  Zn  Zn0  1  0.05558728  0.40005825  0.47804113  1.0
  Zn  Zn1  1  0.98511416  0.48346943  0.56082961  1.0
  Zn  Zn2  1  0.05862629  0.56059071  0.48198348  1.0
  Zn  Zn3  1  0.90082109  0.55528898  0.48013115  1.0
  Zn  Zn4  1  0.69340770  0.34885593  0.27158511  1.0
  Zn  Zn5  1  0.69075128  0.18772819  0.26635048  1.0
  Zn  Zn6  1  0.76940490  0.26656457  0.19045027  1.0
  Zn  Zn7  1  0.84860967  0.19523924  0.27249545  1.0
  Zn  Zn8  1  0.26640479  0.76627855  0.68986682  1.0
  Zn  Zn9  1  0.34980774  0.69634697  0.77151190  1.0
  Zn  Zn10  1  0.19223914  0.84831164  0.77081452  1.0
  Zn  Zn11  1  0.19104918  0.68772713  0.76709488  1.0
  Zn  Zn12  1  0.55880182  0.06147106  0.98300096  1.0
  Zn  Zn13  1  0.40177147  0.05425156  0.97791602  1.0
  Zn  Zn14  1  0.55649623  0.90052474  0.97858901  1.0
  Zn  Zn15  1  0.48188298  0.98423873  0.06041493  1.0
  H  H16  1  0.95356496  0.24983057  0.35159508  1.0
  H  H17  1  0.74656903  0.45443908  0.35010551  1.0
  H  H18  1  0.99871144  0.30057670  0.39973097  1.0
  H  H19  1  0.09629037  0.59579070  0.69976827  1.0
  H  H20  1  0.20181103  0.70122308  0.59909735  1.0
  H  H21  1  0.05018789  0.55084678  0.64920506  1.0
  H  H22  1  0.54978187  0.05085555  0.15355843  1.0
  H  H23  1  0.65079792  0.15192495  0.04843146  1.0
  H  H24  1  0.60110475  0.09972981  0.19948876  1.0
  H  H25  1  0.50184617  0.79354040  0.89782370  1.0
  H  H26  1  0.29859849  0.00177459  0.90023888  1.0
  H  H27  1  0.44860178  0.75108889  0.84967474  1.0
  H  H28  1  0.32742733  0.54001033  0.39806950  1.0
  H  H29  1  0.42276798  0.20916511  0.35242462  1.0
  H  H30  1  0.75432259  0.54065491  0.68467750  1.0
  H  H31  1  0.49581011  0.70843696  0.56584413  1.0
  H  H32  1  0.04139739  0.25406659  0.68379193  1.0
  H  H33  1  0.20900135  0.99502118  0.56618364  1.0
  H  H34  1  0.74366077  0.81698769  0.38720670  1.0
  H  H35  1  0.00569466  0.93196207  0.36289478  1.0
  H  H36  1  0.70848503  0.49550677  0.06626556  1.0
  H  H37  1  0.54097195  0.75437425  0.18410994  1.0
  H  H38  1  0.14965727  0.07561379  0.21945371  1.0
  H  H39  1  0.10087154  0.17342260  0.03069804  1.0
  H  H40  1  0.50671576  0.43248568  0.86268478  1.0
  H  H41  1  0.24444732  0.31754937  0.88714984  1.0
  H  H42  1  0.92186871  0.70913378  0.85258179  1.0
  H  H43  1  0.82787917  0.04020853  0.89775632  1.0
  C  C44  1  0.06183520  0.31622546  0.56182716  1.0
  C  C45  1  0.06909473  0.57049392  0.56867727  1.0
  C  C46  1  0.18365008  0.43993530  0.43833489  1.0
  C  C47  1  0.93585671  0.68399204  0.43882545  1.0
  C  C48  1  0.93107127  0.43017032  0.43117799  1.0
  C  C49  1  0.81718622  0.56097112  0.56282968  1.0
  C  C50  1  0.56597463  0.30956431  0.31104408  1.0
  C  C51  1  0.68251400  0.17962582  0.18066720  1.0
  C  C52  1  0.68971064  0.43335198  0.18823384  1.0
  C  C53  1  0.93558550  0.18832876  0.18986144  1.0
  C  C54  1  0.81847949  0.32036195  0.31935668  1.0
  C  C55  1  0.81326801  0.06555720  0.31150257  1.0
  C  C56  1  0.43321983  0.68954236  0.68778935  1.0
  C  C57  1  0.31814886  0.82043020  0.81880962  1.0
  C  C58  1  0.18802973  0.93312243  0.68799074  1.0
  C  C59  1  0.06535798  0.80910689  0.81099162  1.0
  C  C60  1  0.18038761  0.67926312  0.68143702  1.0
  C  C61  1  0.31426105  0.56598449  0.81122252  1.0
  C  C62  1  0.43695653  0.18406017  0.93845502  1.0
  C  C63  1  0.43292794  0.92830666  0.93063673  1.0
  C  C64  1  0.68378884  0.94063256  0.93878469  1.0
  C  C65  1  0.56077365  0.81679797  0.06213617  1.0
  C  C66  1  0.56761349  0.07022012  0.06966609  1.0
  C  C67  1  0.31498810  0.06200973  0.06037323  1.0
  C  C68  1  0.89892876  0.40534847  0.40220549  1.0
  C  C69  1  0.84712137  0.34926995  0.34798643  1.0
  C  C70  1  0.82701836  0.44893318  0.38776187  1.0
  C  C71  1  0.91861563  0.30540506  0.36188765  1.0
  C  C72  1  0.80200022  0.42057107  0.36096750  1.0
  C  C73  1  0.94340436  0.33364980  0.38851104  1.0
  C  C74  1  0.09951030  0.60022091  0.59602033  1.0
  C  C75  1  0.15183716  0.65134197  0.65232387  1.0
  C  C76  1  0.14293513  0.64313311  0.58196803  1.0
  C  C77  1  0.10899668  0.60878017  0.66679233  1.0
  C  C78  1  0.16846231  0.66820218  0.61010880  1.0
  C  C79  1  0.08359241  0.58400635  0.63877659  1.0
  C  C80  1  0.30481194  0.45431640  0.40072166  1.0
  C  C81  1  0.44524573  0.29502636  0.34924256  1.0
  C  C82  1  0.25835086  0.41549786  0.41384439  1.0
  C  C83  1  0.49167715  0.33379230  0.33594178  1.0
  C  C84  1  0.37722365  0.33910430  0.37295354  1.0
  C  C85  1  0.37308535  0.41010908  0.37716335  1.0
  C  C86  1  0.72587682  0.57580241  0.63035455  1.0
  C  C87  1  0.52436142  0.67360683  0.62018758  1.0
  C  C88  1  0.74303684  0.58509242  0.58773319  1.0
  C  C89  1  0.50731939  0.66461220  0.66285987  1.0
  C  C90  1  0.60427450  0.64105704  0.60840700  1.0
  C  C91  1  0.64597769  0.60816366  0.64209156  1.0
  C  C92  1  0.07658297  0.22529860  0.62961693  1.0
  C  C93  1  0.17393496  0.02399063  0.62032774  1.0
  C  C94  1  0.08611728  0.24215911  0.58693314  1.0
  C  C95  1  0.16415471  0.00718126  0.66299388  1.0
  C  C96  1  0.14186709  0.10370407  0.60825190  1.0
  C  C97  1  0.10872085  0.14558014  0.64169954  1.0
  C  C98  1  0.84228479  0.80122124  0.39723466  1.0
  C  C99  1  0.90681019  0.94821298  0.35307010  1.0
  C  C100  1  0.91079906  0.75816451  0.41397330  1.0
  C  C101  1  0.83826635  0.99129773  0.33630762  1.0
  C  C102  1  0.90820409  0.87868421  0.37516321  1.0
  C  C103  1  0.84114743  0.87048283  0.37488495  1.0
  C  C104  1  0.65460863  0.15309539  0.15038840  1.0
  C  C105  1  0.59728972  0.09852624  0.09809777  1.0
  C  C106  1  0.66833976  0.16778802  0.10716568  1.0
  C  C107  1  0.58301415  0.08355624  0.14085579  1.0
  C  C108  1  0.63980540  0.14044278  0.08162929  1.0
  C  C109  1  0.61151683  0.11066064  0.16619113  1.0
  C  C110  1  0.67411503  0.52440269  0.12046973  1.0
  C  C111  1  0.57569075  0.72567540  0.12989872  1.0
  C  C112  1  0.66476356  0.50744997  0.16314862  1.0
  C  C113  1  0.58515312  0.74272207  0.08722967  1.0
  C  C114  1  0.60812713  0.64592793  0.14191598  1.0
  C  C115  1  0.64144757  0.60415748  0.10843080  1.0
  C  C116  1  0.08246967  0.12369207  0.17801735  1.0
  C  C117  1  0.16806089  0.12579820  0.07216922  1.0
  C  C118  1  0.00998570  0.16294295  0.16523094  1.0
  C  C119  1  0.24057350  0.08689518  0.08497753  1.0
  C  C120  1  0.11043151  0.13911003  0.10623365  1.0
  C  C121  1  0.14005713  0.11018635  0.14394234  1.0
  C  C122  1  0.34434468  0.85152804  0.84767614  1.0
  C  C123  1  0.40324339  0.90051800  0.90193944  1.0
  C  C124  1  0.30193600  0.92300327  0.86235800  1.0
  C  C125  1  0.44601354  0.82945336  0.88776200  1.0
  C  C126  1  0.33159312  0.94665897  0.88915357  1.0
  C  C127  1  0.41643719  0.80605927  0.86110926  1.0
  C  C128  1  0.40785681  0.44863747  0.85287932  1.0
  C  C129  1  0.34331751  0.30154606  0.89695556  1.0
  C  C130  1  0.33944697  0.49168602  0.83604907  1.0
  C  C131  1  0.41182373  0.25842981  0.91374742  1.0
  C  C132  1  0.34203778  0.37100536  0.87476839  1.0
  C  C133  1  0.40905092  0.37925151  0.87512769  1.0
  C  C134  1  0.94459823  0.79488453  0.84937978  1.0
  C  C135  1  0.80492082  0.95463773  0.90076499  1.0
  C  C136  1  0.99114403  0.83347448  0.83594708  1.0
  C  C137  1  0.75821757  0.91613927  0.91407766  1.0
  C  C138  1  0.87291628  0.91019783  0.87713052  1.0
  C  C139  1  0.87667557  0.83926892  0.87305858  1.0
  S  S140  1  0.29825217  0.32539698  0.39758017  1.0
  S  S141  1  0.45198729  0.42381038  0.35235579  1.0
  S  S142  1  0.66180784  0.63300786  0.56217002  1.0
  S  S143  1  0.58859030  0.61651431  0.68835600  1.0
  S  S144  1  0.13423831  0.16083989  0.56182921  1.0
  S  S145  1  0.11609797  0.08847552  0.68812265  1.0
  S  S146  1  0.97341634  0.80215239  0.40240970  1.0
  S  S147  1  0.77594379  0.94699318  0.34761919  1.0
  S  S148  1  0.61606979  0.58866873  0.18830562  1.0
  S  S149  1  0.63361471  0.66147915  0.06204855  1.0
  S  S150  1  0.01234529  0.18302247  0.11183439  1.0
  S  S151  1  0.23814745  0.06667268  0.13837258  1.0
  S  S152  1  0.27695159  0.44753648  0.84743014  1.0
  S  S153  1  0.47417243  0.30274449  0.90244870  1.0
  S  S154  1  0.95188837  0.92357095  0.85218096  1.0
  S  S155  1  0.79758247  0.82599482  0.89788366  1.0
  Cl  Cl156  1  0.76471260  0.53818725  0.40086252  1.0
  Cl  Cl157  1  0.16862037  0.66787498  0.53076387  1.0
  Cl  Cl158  1  0.71946335  0.21906643  0.08210017  1.0
  Cl  Cl159  1  0.21264543  0.98658481  0.84933504  1.0
  O  O160  1  0.00090593  0.49816300  0.50034127  1.0
  O  O161  1  0.07816970  0.31496452  0.52277745  1.0
  O  O162  1  0.03299296  0.53057567  0.58662670  1.0
  O  O163  1  0.15477589  0.50660080  0.44902928  1.0
  O  O164  1  0.02698624  0.37473910  0.58081984  1.0
  O  O165  1  0.15409343  0.39160269  0.44666460  1.0
  O  O166  1  0.08107982  0.58705539  0.53014005  1.0
  O  O167  1  0.00348161  0.65688437  0.44903711  1.0
  O  O168  1  0.88973147  0.49390945  0.44422125  1.0
  O  O169  1  0.88912161  0.65307240  0.44814627  1.0
  O  O170  1  0.99779355  0.38487721  0.44057351  1.0
  O  O171  1  0.87631956  0.52631075  0.58160551  1.0
  O  O172  1  0.81530269  0.57750230  0.52380731  1.0
  O  O173  1  0.74966435  0.24972184  0.25068311  1.0
  O  O174  1  0.59541070  0.35803967  0.30304837  1.0
  O  O175  1  0.66486501  0.16143829  0.21876336  1.0
  O  O176  1  0.72689840  0.37479770  0.16939771  1.0
  O  O177  1  0.59463903  0.24346155  0.29962474  1.0
  O  O178  1  0.67166579  0.43445412  0.22721778  1.0
  O  O179  1  0.72125988  0.21791353  0.16635427  1.0
  O  O180  1  0.87785030  0.22376233  0.16953344  1.0
  O  O181  1  0.86244748  0.25476976  0.30874336  1.0
  O  O182  1  0.93438281  0.17339903  0.22879602  1.0
  O  O183  1  0.75287773  0.36353940  0.30809208  1.0
  O  O184  1  0.74694521  0.09158854  0.29964494  1.0
  O  O185  1  0.85902738  0.09758895  0.30391448  1.0
  O  O186  1  0.25020410  0.74904274  0.75020711  1.0
  O  O187  1  0.37440162  0.72404797  0.66873773  1.0
  O  O188  1  0.36473298  0.75548240  0.80786220  1.0
  O  O189  1  0.17049487  0.93422980  0.72700261  1.0
  O  O190  1  0.43459262  0.67411637  0.72688123  1.0
  O  O191  1  0.22373927  0.87452344  0.66909327  1.0
  O  O192  1  0.25236638  0.86032599  0.80753258  1.0
  O  O193  1  0.09433931  0.85791065  0.80241138  1.0
  O  O194  1  0.16501722  0.66136607  0.71972905  1.0
  O  O195  1  0.09444888  0.74256463  0.80011142  1.0
  O  O196  1  0.21766453  0.71865391  0.66532044  1.0
  O  O197  1  0.35994173  0.59812740  0.80299940  1.0
  O  O198  1  0.24744306  0.59180989  0.80004680  1.0
  O  O199  1  0.50043982  0.99928949  0.00003615  1.0
  O  O200  1  0.50337749  0.15812620  0.95018653  1.0
  O  O201  1  0.38963542  0.99377699  0.94160479  1.0
  O  O202  1  0.65424065  0.89226545  0.94694314  1.0
  O  O203  1  0.39144491  0.15174456  0.94610244  1.0
  O  O204  1  0.65506502  0.00699629  0.94988419  1.0
  O  O205  1  0.49861706  0.88447590  0.94161073  1.0
  O  O206  1  0.57836281  0.81542026  0.02313922  1.0
  O  O207  1  0.52898458  0.03233251  0.08629225  1.0
  O  O208  1  0.52459291  0.87552740  0.08092349  1.0
  O  O209  1  0.58355391  0.08646112  0.03125304  1.0
  O  O210  1  0.31599086  0.07651395  0.02141825  1.0
  O  O211  1  0.37286376  0.02746598  0.08065343  1.0
  O  O212  1  0.28605068  0.52503163  0.40966880  1.0
  O  O213  1  0.46380550  0.22433814  0.34026929  1.0
  O  O214  1  0.77955496  0.54026142  0.65661187  1.0
  O  O215  1  0.47069805  0.70912758  0.59394705  1.0
  O  O216  1  0.04097180  0.27900932  0.65563026  1.0
  O  O217  1  0.20953490  0.97020748  0.59437561  1.0
  O  O218  1  0.78504597  0.77863548  0.40206510  1.0
  O  O219  1  0.96396637  0.97086373  0.34846206  1.0
  O  O220  1  0.70993336  0.47070961  0.09447315  1.0
  O  O221  1  0.54002774  0.77933681  0.15594281  1.0
  O  O222  1  0.09496817  0.10192154  0.21798699  1.0
  O  O223  1  0.15557142  0.14762368  0.03220910  1.0
  O  O224  1  0.46505141  0.47127821  0.84817533  1.0
  O  O225  1  0.28621760  0.27883217  0.90161835  1.0
  O  O226  1  0.96299047  0.72419858  0.84046812  1.0
  O  O227  1  0.78656143  0.02530629  0.90965318  1.0
