# generated using pymatgen
data_Zn2H36C49(NO4)2
_symmetry_space_group_name_H-M   'P 1'
_cell_length_a   16.48313564
_cell_length_b   17.91832258
_cell_length_c   33.31370820
_cell_angle_alpha   90.25257936
_cell_angle_beta   89.95813869
_cell_angle_gamma   89.87440337
_symmetry_Int_Tables_number   1
_chemical_formula_structural   Zn2H36C49(NO4)2
_chemical_formula_sum   'Zn4 H72 C98 N4 O16'
_cell_volume   9839.08649137
_cell_formula_units_Z   2
loop_
 _symmetry_equiv_pos_site_id
 _symmetry_equiv_pos_as_xyz
  1  'x, y, z'
loop_
 _atom_site_type_symbol
 _atom_site_label
 _atom_site_symmetry_multiplicity
 _atom_site_fract_x
 _atom_site_fract_y
 _atom_site_fract_z
 _atom_site_occupancy
  Zn  Zn0  1  0.58621311  0.50131083  0.49858240  1.0
  Zn  Zn1  1  0.41864245  0.50145865  0.50182520  1.0
  Zn  Zn2  1  0.41421985  0.50485664  0.96467473  1.0
  Zn  Zn3  1  0.58174001  0.50450965  0.96152158  1.0
  H  H4  1  0.28808271  0.57206360  0.55191691  1.0
  H  H5  1  0.13507587  0.57333243  0.55317865  1.0
  H  H6  1  0.29225163  0.42541023  0.45594330  1.0
  H  H7  1  0.71273591  0.59321142  0.53585829  1.0
  H  H8  1  0.71713176  0.41132481  0.45931325  1.0
  H  H9  1  0.87007088  0.40679367  0.46023427  1.0
  H  H10  1  0.63325144  0.74259985  0.50382043  1.0
  H  H11  1  0.62877569  0.88228155  0.50404849  1.0
  H  H12  1  0.37360209  0.73630587  0.50005078  1.0
  H  H13  1  0.63548872  0.26071434  0.49523726  1.0
  H  H14  1  0.37615519  0.26556411  0.50343153  1.0
  H  H15  1  0.37363793  0.12580731  0.50435922  1.0
  H  H16  1  0.63160176  0.48459720  0.70506185  1.0
  H  H17  1  0.36913583  0.48508687  0.75803833  1.0
  H  H18  1  0.62090460  0.51005865  0.83652797  1.0
  H  H19  1  0.62901390  0.51046279  0.76271310  1.0
  H  H20  1  0.37942053  0.51052342  0.62696390  1.0
  H  H21  1  0.37173150  0.51138140  0.70077740  1.0
  H  H22  1  0.37791554  0.51014999  0.09016727  1.0
  H  H23  1  0.37591787  0.50616083  0.16529703  1.0
  H  H24  1  0.63761668  0.50079358  0.09164833  1.0
  H  H25  1  0.36228710  0.49703740  0.37188711  1.0
  H  H26  1  0.62202853  0.50444873  0.37295343  1.0
  H  H27  1  0.62340569  0.50251637  0.29777201  1.0
  H  H28  1  0.71163847  0.57451897  0.91123508  1.0
  H  H29  1  0.86462836  0.57559459  0.90965567  1.0
  H  H30  1  0.70878577  0.42870505  0.00687721  1.0
  H  H31  1  0.28728827  0.59609023  0.92735805  1.0
  H  H32  1  0.28356938  0.41570607  0.00407148  1.0
  H  H33  1  0.13069851  0.41088231  0.00287438  1.0
  H  H34  1  0.36664186  0.74566955  0.95724632  1.0
  H  H35  1  0.37034513  0.88530325  0.95616615  1.0
  H  H36  1  0.62621356  0.73972349  0.96259396  1.0
  H  H37  1  0.36494104  0.26519471  0.96798754  1.0
  H  H38  1  0.62413123  0.26771088  0.95862616  1.0
  H  H39  1  0.62572463  0.12795847  0.95648170  1.0
  H  H40  1  0.13767191  0.34318047  0.45276912  1.0
  H  H41  1  0.06457941  0.41370615  0.44268019  1.0
  H  H42  1  0.15726490  0.40999584  0.41501107  1.0
  H  H43  1  0.87415909  0.59183984  0.58194399  1.0
  H  H44  1  0.93874960  0.61943229  0.54206086  1.0
  H  H45  1  0.84305908  0.66447015  0.54942821  1.0
  H  H46  1  0.30866283  0.87327443  0.52839687  1.0
  H  H47  1  0.34960179  0.94627953  0.49868215  1.0
  H  H48  1  0.30662640  0.86588275  0.47539118  1.0
  H  H49  1  0.69167305  0.11763783  0.52560793  1.0
  H  H50  1  0.64925360  0.05059495  0.49235748  1.0
  H  H51  1  0.69777922  0.13178032  0.47310613  1.0
  H  H52  1  0.69879954  0.54629144  0.16509838  1.0
  H  H53  1  0.65168161  0.49709709  0.20507864  1.0
  H  H54  1  0.69590659  0.44749493  0.16416042  1.0
  H  H55  1  0.30104405  0.54516429  0.29860492  1.0
  H  H56  1  0.34734714  0.49504975  0.25843800  1.0
  H  H57  1  0.30280587  0.44634171  0.29929661  1.0
  H  H58  1  0.86301712  0.34644138  0.00983659  1.0
  H  H59  1  0.93650315  0.41662243  0.01968841  1.0
  H  H60  1  0.84414526  0.41405071  0.04762103  1.0
  H  H61  1  0.12572561  0.59330346  0.88101510  1.0
  H  H62  1  0.06135264  0.62221112  0.92090409  1.0
  H  H63  1  0.15701849  0.66666667  0.91328247  1.0
  H  H64  1  0.68878212  0.87927002  0.93242979  1.0
  H  H65  1  0.64932414  0.94925017  0.96499334  1.0
  H  H66  1  0.69398039  0.86671702  0.98506402  1.0
  H  H67  1  0.30887920  0.12059227  0.93586782  1.0
  H  H68  1  0.34992327  0.05546105  0.97035402  1.0
  H  H69  1  0.30091850  0.13813226  0.98810956  1.0
  H  H70  1  0.71057291  0.48549007  0.65175331  1.0
  H  H71  1  0.67062682  0.43711411  0.60901292  1.0
  H  H72  1  0.67636553  0.53472212  0.60833976  1.0
  H  H73  1  0.28987863  0.48654762  0.81119721  1.0
  H  H74  1  0.32954146  0.43840541  0.85390815  1.0
  H  H75  1  0.32375445  0.53606604  0.85477032  1.0
  C  C76  1  0.50500922  0.64776611  0.50165300  1.0
  C  C77  1  0.50517491  0.50027536  0.57897535  1.0
  C  C78  1  0.50785840  0.35478127  0.49868344  1.0
  C  C79  1  0.49174511  0.50129144  0.42167574  1.0
  C  C80  1  0.49526139  0.65098670  0.96078041  1.0
  C  C81  1  0.49488425  0.50135676  0.88432104  1.0
  C  C82  1  0.49304686  0.35812455  0.96471636  1.0
  C  C83  1  0.50850994  0.50631701  0.04162011  1.0
  C  C84  1  0.25205026  0.53940994  0.53079663  1.0
  C  C85  1  0.16805477  0.53950789  0.53136837  1.0
  C  C86  1  0.12527713  0.49543719  0.50332724  1.0
  C  C87  1  0.16969119  0.45178001  0.47533414  1.0
  C  C88  1  0.25418122  0.45638676  0.47710174  1.0
  C  C89  1  0.03942970  0.49617629  0.50319433  1.0
  C  C90  1  0.96542343  0.49818145  0.50281264  1.0
  C  C91  1  0.87965559  0.50037727  0.50156661  1.0
  C  C92  1  0.83516000  0.55431244  0.52375631  1.0
  C  C93  1  0.75081181  0.55250711  0.52016506  1.0
  C  C94  1  0.75308173  0.45087240  0.47672010  1.0
  C  C95  1  0.83705779  0.44849354  0.47764469  1.0
  C  C96  1  0.50325562  0.73140060  0.50213243  1.0
  C  C97  1  0.57562108  0.77244227  0.50329927  1.0
  C  C98  1  0.57298680  0.84974064  0.50339162  1.0
  C  C99  1  0.49796993  0.88827612  0.50256033  1.0
  C  C100  1  0.42444667  0.84719625  0.50156930  1.0
  C  C101  1  0.42904027  0.76939917  0.50120987  1.0
  C  C102  1  0.49814816  0.96723722  0.50235021  1.0
  C  C103  1  0.50082469  0.03540210  0.50179369  1.0
  C  C104  1  0.50392793  0.11427944  0.50088804  1.0
  C  C105  1  0.57929389  0.15229112  0.49833644  1.0
  C  C106  1  0.57845568  0.23016992  0.49731537  1.0
  C  C107  1  0.50620101  0.27115619  0.49917680  1.0
  C  C108  1  0.43205584  0.23316268  0.50183557  1.0
  C  C109  1  0.43094385  0.15586216  0.50247492  1.0
  C  C110  1  0.50843228  0.49911716  0.62398956  1.0
  C  C111  1  0.49187605  0.49953177  0.83929808  1.0
  C  C112  1  0.58101531  0.49236137  0.64643353  1.0
  C  C113  1  0.57519165  0.49118822  0.68835652  1.0
  C  C114  1  0.41940786  0.49294511  0.81674728  1.0
  C  C115  1  0.42544972  0.49155980  0.77483333  1.0
  C  C116  1  0.56590507  0.50497741  0.81865147  1.0
  C  C117  1  0.57003560  0.50451665  0.77708358  1.0
  C  C118  1  0.43452365  0.50517992  0.64473807  1.0
  C  C119  1  0.43061017  0.50496469  0.68630817  1.0
  C  C120  1  0.50158143  0.49762648  0.70941364  1.0
  C  C121  1  0.49914967  0.49760272  0.75387344  1.0
  C  C122  1  0.50804701  0.50519765  0.08659913  1.0
  C  C123  1  0.43395930  0.50709325  0.10735276  1.0
  C  C124  1  0.43311843  0.50505482  0.14888425  1.0
  C  C125  1  0.50631844  0.50176477  0.17094177  1.0
  C  C126  1  0.58165205  0.50045042  0.15024073  1.0
  C  C127  1  0.58058213  0.50191743  0.10831617  1.0
  C  C128  1  0.50245998  0.50022880  0.21335052  1.0
  C  C129  1  0.49651287  0.49942713  0.24991540  1.0
  C  C130  1  0.49294822  0.49933866  0.29234041  1.0
  C  C131  1  0.41777222  0.49777709  0.31316690  1.0
  C  C132  1  0.41917230  0.49817110  0.35509962  1.0
  C  C133  1  0.49188699  0.50055648  0.37670298  1.0
  C  C134  1  0.56583229  0.50230361  0.35583793  1.0
  C  C135  1  0.56633020  0.50136094  0.31429365  1.0
  C  C136  1  0.74795334  0.54200269  0.93220912  1.0
  C  C137  1  0.83195993  0.54200625  0.93147280  1.0
  C  C138  1  0.87514548  0.49821261  0.95937836  1.0
  C  C139  1  0.83107145  0.45485495  0.98734623  1.0
  C  C140  1  0.74655983  0.45950147  0.98572386  1.0
  C  C141  1  0.96099402  0.49902778  0.95945535  1.0
  C  C142  1  0.03498973  0.50116930  0.95996171  1.0
  C  C143  1  0.12073247  0.50356613  0.96141086  1.0
  C  C144  1  0.16503356  0.55716958  0.93926873  1.0
  C  C145  1  0.24937274  0.55562251  0.94302410  1.0
  C  C146  1  0.24749466  0.45484819  0.98655749  1.0
  C  C147  1  0.16353945  0.45228284  0.98547340  1.0
  C  C148  1  0.49661330  0.73461847  0.95972716  1.0
  C  C149  1  0.42408557  0.77559296  0.95786178  1.0
  C  C150  1  0.42632187  0.85288380  0.95729090  1.0
  C  C151  1  0.50108794  0.89150164  0.95833485  1.0
  C  C152  1  0.57479417  0.85047324  0.95998157  1.0
  C  C153  1  0.57060500  0.77269162  0.96084011  1.0
  C  C154  1  0.50061120  0.97048279  0.95829907  1.0
  C  C155  1  0.49809174  0.03866457  0.95900281  1.0
  C  C156  1  0.49544436  0.11758190  0.96042501  1.0
  C  C157  1  0.42037931  0.15628020  0.96364772  1.0
  C  C158  1  0.42173700  0.23412836  0.96536971  1.0
  C  C159  1  0.49421693  0.27448128  0.96354905  1.0
  C  C160  1  0.56805319  0.23581727  0.96020398  1.0
  C  C161  1  0.56865246  0.15850646  0.95887554  1.0
  C  C162  1  0.12980752  0.40230180  0.44476727  1.0
  C  C163  1  0.87515630  0.61075641  0.55052901  1.0
  C  C164  1  0.34317610  0.88555530  0.50091710  1.0
  C  C165  1  0.65854288  0.11054851  0.49715835  1.0
  C  C166  1  0.66103971  0.49767631  0.17248590  1.0
  C  C167  1  0.33821058  0.49596943  0.29104717  1.0
  C  C168  1  0.87122318  0.40564008  0.01778753  1.0
  C  C169  1  0.12490106  0.61306039  0.91237460  1.0
  C  C170  1  0.65587095  0.88881874  0.96077063  1.0
  C  C171  1  0.34094920  0.11516052  0.96470771  1.0
  C  C172  1  0.66433390  0.48699449  0.62802768  1.0
  C  C173  1  0.33595162  0.48809166  0.83501123  1.0
  N  N174  1  0.29413060  0.49866466  0.50385232  1.0
  N  N175  1  0.71092142  0.50227345  0.49769736  1.0
  N  N176  1  0.70621299  0.50158085  0.95916725  1.0
  N  N177  1  0.28946962  0.50589874  0.96560036  1.0
  O  O178  1  0.57377844  0.61601876  0.50599939  1.0
  O  O179  1  0.43738250  0.61454094  0.49686419  1.0
  O  O180  1  0.43592288  0.51159306  0.56292392  1.0
  O  O181  1  0.57097430  0.48967806  0.55959397  1.0
  O  O182  1  0.44054856  0.38828384  0.50468040  1.0
  O  O183  1  0.57601410  0.38623232  0.49253178  1.0
  O  O184  1  0.56017773  0.51100588  0.43878070  1.0
  O  O185  1  0.42411878  0.49230258  0.43953550  1.0
  O  O186  1  0.42666874  0.61909790  0.95647354  1.0
  O  O187  1  0.56294822  0.61789820  0.96600711  1.0
  O  O188  1  0.56396711  0.51319561  0.90043582  1.0
  O  O189  1  0.42912836  0.49079501  0.90365478  1.0
  O  O190  1  0.56042749  0.39114612  0.95875617  1.0
  O  O191  1  0.42509797  0.39006568  0.97130193  1.0
  O  O192  1  0.44025315  0.51667705  0.02445689  1.0
  O  O193  1  0.57618616  0.49673249  0.02379601  1.0
