# generated using pymatgen
data_Zn4H12C24O25
_symmetry_space_group_name_H-M   'P 1'
_cell_length_a   18.49735728
_cell_length_b   18.49737000
_cell_length_c   18.49737012
_cell_angle_alpha   89.99999214
_cell_angle_beta   119.99991265
_cell_angle_gamma   119.99988851
_symmetry_Int_Tables_number   1
_chemical_formula_structural   Zn4H12C24O25
_chemical_formula_sum   'Zn8 H24 C48 O50'
_cell_volume   4475.23651688
_cell_formula_units_Z   2
loop_
 _symmetry_equiv_pos_site_id
 _symmetry_equiv_pos_as_xyz
  1  'x, y, z'
loop_
 _atom_site_type_symbol
 _atom_site_label
 _atom_site_symmetry_multiplicity
 _atom_site_fract_x
 _atom_site_fract_y
 _atom_site_fract_z
 _atom_site_occupancy
  Zn  Zn0  1  0.58603514  0.95698963  0.54301667  1.0
  Zn  Zn1  1  0.41396403  0.95698224  0.54300816  1.0
  Zn  Zn2  1  0.41397028  0.95698670  0.37095655  1.0
  Zn  Zn3  1  0.58602744  0.12904153  0.54301133  1.0
  Zn  Zn4  1  0.41396451  0.54300908  0.95698098  1.0
  Zn  Zn5  1  0.58602831  0.54301203  0.12904189  1.0
  Zn  Zn6  1  0.58603439  0.54301632  0.95698858  1.0
  Zn  Zn7  1  0.41397071  0.37095654  0.95698526  1.0
  H  H8  1  0.82664143  0.28698273  0.66332140  1.0
  H  H9  1  0.17335786  0.21301731  0.83667823  1.0
  H  H10  1  0.17335684  0.46034071  0.83667738  1.0
  H  H11  1  0.82664138  0.03965867  0.66331901  1.0
  H  H12  1  0.17335704  0.83667882  0.21301560  1.0
  H  H13  1  0.82664156  0.66331907  0.28698285  1.0
  H  H14  1  0.82664012  0.66331952  0.03965778  1.0
  H  H15  1  0.17335793  0.83668036  0.46033986  1.0
  H  H16  1  0.37633915  0.83667959  0.21301575  1.0
  H  H17  1  0.62366050  0.66331912  0.28698135  1.0
  H  H18  1  0.37633489  0.66331834  0.03965749  1.0
  H  H19  1  0.62366219  0.83667839  0.46033941  1.0
  H  H20  1  0.62366038  0.28698262  0.66331853  1.0
  H  H21  1  0.37633572  0.21301527  0.83667543  1.0
  H  H22  1  0.62366405  0.46033924  0.83668028  1.0
  H  H23  1  0.37633741  0.03965733  0.66332014  1.0
  H  H24  1  0.37633755  0.83667859  0.66332006  1.0
  H  H25  1  0.62365960  0.66331927  0.83667581  1.0
  H  H26  1  0.37633782  0.66332069  0.83667821  1.0
  H  H27  1  0.62366341  0.83668049  0.66332185  1.0
  H  H28  1  0.62366199  0.28698384  0.46034020  1.0
  H  H29  1  0.37633705  0.21301556  0.03965792  1.0
  H  H30  1  0.62366208  0.46034041  0.28698169  1.0
  H  H31  1  0.37633633  0.03965898  0.21301612  1.0
  C  C32  1  0.49999853  0.85997652  0.64002263  1.0
  C  C33  1  0.21995168  0.85997779  0.35997533  1.0
  C  C34  1  0.50000126  0.85997654  0.35997499  1.0
  C  C35  1  0.49999937  0.14002509  0.35997643  1.0
  C  C36  1  0.78004747  0.14002383  0.64002328  1.0
  C  C37  1  0.49999880  0.14002176  0.64002082  1.0
  C  C38  1  0.49999777  0.64002217  0.14002235  1.0
  C  C39  1  0.78004717  0.64002142  0.14002379  1.0
  C  C40  1  0.49999756  0.64002069  0.85997486  1.0
  C  C41  1  0.50000053  0.35997349  0.85997637  1.0
  C  C42  1  0.21995119  0.35997621  0.85997279  1.0
  C  C43  1  0.50000055  0.35997563  0.14002376  1.0
  C  C44  1  0.89168512  0.19584284  0.69584201  1.0
  C  C45  1  0.10831435  0.30415654  0.80415501  1.0
  C  C46  1  0.94632651  0.29003427  0.72316325  1.0
  C  C47  1  0.05367046  0.20996510  0.77683360  1.0
  C  C48  1  0.05366979  0.34370622  0.77683445  1.0
  C  C49  1  0.94632869  0.15629448  0.72316315  1.0
  C  C50  1  0.10831358  0.80415811  0.30415529  1.0
  C  C51  1  0.89168314  0.69583978  0.19584168  1.0
  C  C52  1  0.05366909  0.77683537  0.20996251  1.0
  C  C53  1  0.94632808  0.72316319  0.29003469  1.0
  C  C54  1  0.94632769  0.72316343  0.15629116  1.0
  C  C55  1  0.05367117  0.77683579  0.34370688  1.0
  C  C56  1  0.50000056  0.80415881  0.30415747  1.0
  C  C57  1  0.49999758  0.69583857  0.19583942  1.0
  C  C58  1  0.43313011  0.77683607  0.20996557  1.0
  C  C59  1  0.56686928  0.72316131  0.29003357  1.0
  C  C60  1  0.43312640  0.72316095  0.15629063  1.0
  C  C61  1  0.56687192  0.77683577  0.34370743  1.0
  C  C62  1  0.49999851  0.19584081  0.69583947  1.0
  C  C63  1  0.49999902  0.30415641  0.80415791  1.0
  C  C64  1  0.56686906  0.29003424  0.72316252  1.0
  C  C65  1  0.43312899  0.20996564  0.77683512  1.0
  C  C66  1  0.56686993  0.34370604  0.77683549  1.0
  C  C67  1  0.43312742  0.15629185  0.72316234  1.0
  C  C68  1  0.49999969  0.80415793  0.69584137  1.0
  C  C69  1  0.49999827  0.69583928  0.80415652  1.0
  C  C70  1  0.43312803  0.77683629  0.72316181  1.0
  C  C71  1  0.56687001  0.72316291  0.77683450  1.0
  C  C72  1  0.43312814  0.72316230  0.77683432  1.0
  C  C73  1  0.56687070  0.77683623  0.72316347  1.0
  C  C74  1  0.49999707  0.19584104  0.30415658  1.0
  C  C75  1  0.49999966  0.30415770  0.19584148  1.0
  C  C76  1  0.56687035  0.29003576  0.34370651  1.0
  C  C77  1  0.43312726  0.20996430  0.15629199  1.0
  C  C78  1  0.56687079  0.34370777  0.29003373  1.0
  C  C79  1  0.43312744  0.15629229  0.20996561  1.0
  O  O80  1  0.49999854  0.00000071  0.50000014  1.0
  O  O81  1  0.56121258  0.88394122  0.61606022  1.0
  O  O82  1  0.26787641  0.88394031  0.44514581  1.0
  O  O83  1  0.43879151  0.88393933  0.32272927  1.0
  O  O84  1  0.43878724  0.88393795  0.61605802  1.0
  O  O85  1  0.56121094  0.88394039  0.44514699  1.0
  O  O86  1  0.26788000  0.88394185  0.32273020  1.0
  O  O87  1  0.43878760  0.05485172  0.32272907  1.0
  O  O88  1  0.73212126  0.17726932  0.61606026  1.0
  O  O89  1  0.56120741  0.17726903  0.44514599  1.0
  O  O90  1  0.73212400  0.05485307  0.61606154  1.0
  O  O91  1  0.43879119  0.05484902  0.61605905  1.0
  O  O92  1  0.56120817  0.17726853  0.61605824  1.0
  O  O93  1  0.49999894  0.50000046  0.99999805  1.0
  O  O94  1  0.43878684  0.61605833  0.05484972  1.0
  O  O95  1  0.73212179  0.61605802  0.17727039  1.0
  O  O96  1  0.56120520  0.61605660  0.88393602  1.0
  O  O97  1  0.56121046  0.61606005  0.17727008  1.0
  O  O98  1  0.43879221  0.61606062  0.88393784  1.0
  O  O99  1  0.73212314  0.61606089  0.05485311  1.0
  O  O100  1  0.56121375  0.44514622  0.88394257  1.0
  O  O101  1  0.26787883  0.32273005  0.88393652  1.0
  O  O102  1  0.43878928  0.32272671  0.88393639  1.0
  O  O103  1  0.26787591  0.44514697  0.88393516  1.0
  O  O104  1  0.56121001  0.44514835  0.17727051  1.0
  O  O105  1  0.43878942  0.32272706  0.05484832  1.0
  O  O106  1  0.90115329  0.33314811  0.70057727  1.0
  O  O107  1  0.09884316  0.16684861  0.79941986  1.0
  O  O108  1  0.09884203  0.43199489  0.79942167  1.0
  O  O109  1  0.90115663  0.06800515  0.70057711  1.0
  O  O110  1  0.09883999  0.79942092  0.16684723  1.0
  O  O111  1  0.90115593  0.70057764  0.33315097  1.0
  O  O112  1  0.90115808  0.70057877  0.06800732  1.0
  O  O113  1  0.09884059  0.79942110  0.43199225  1.0
  O  O114  1  0.36742829  0.79942431  0.16684951  1.0
  O  O115  1  0.63257081  0.70057638  0.33315002  1.0
  O  O116  1  0.36742555  0.70057498  0.06800482  1.0
  O  O117  1  0.63257127  0.79942042  0.43199141  1.0
  O  O118  1  0.63257227  0.33315002  0.70057700  1.0
  O  O119  1  0.36742765  0.16684986  0.79942103  1.0
  O  O120  1  0.63257122  0.43199273  0.79942250  1.0
  O  O121  1  0.36742649  0.06800384  0.70057713  1.0
  O  O122  1  0.36742771  0.79942118  0.70057645  1.0
  O  O123  1  0.63257220  0.70057802  0.79942079  1.0
  O  O124  1  0.36742646  0.70057612  0.79942115  1.0
  O  O125  1  0.63257256  0.79942174  0.70057727  1.0
  O  O126  1  0.63256999  0.33315002  0.43199227  1.0
  O  O127  1  0.36742611  0.16684871  0.06800331  1.0
  O  O128  1  0.63257116  0.43199309  0.33314753  1.0
  O  O129  1  0.36742655  0.06800432  0.16685101  1.0
