# generated using pymatgen
data_AlH12C33(NO4)3
_symmetry_space_group_name_H-M   'P 1'
_cell_length_a   3.97738214
_cell_length_b   20.42237267
_cell_length_c   20.47653909
_cell_angle_alpha   60.12763113
_cell_angle_beta   89.90979855
_cell_angle_gamma   87.18404626
_symmetry_Int_Tables_number   1
_chemical_formula_structural   AlH12C33(NO4)3
_chemical_formula_sum   'Al1 H12 C33 N3 O12'
_cell_volume   1440.02916853
_cell_formula_units_Z   1
loop_
 _symmetry_equiv_pos_site_id
 _symmetry_equiv_pos_as_xyz
  1  'x, y, z'
loop_
 _atom_site_type_symbol
 _atom_site_label
 _atom_site_symmetry_multiplicity
 _atom_site_fract_x
 _atom_site_fract_y
 _atom_site_fract_z
 _atom_site_occupancy
  Al  Al0  1  0.97146107  0.00057212  0.49995159  1.0
  H  H1  1  0.18037178  0.98674370  0.70600865  1.0
  H  H2  1  0.19689081  0.91890065  0.84696511  1.0
  H  H3  1  0.76126662  0.98459561  0.30640353  1.0
  H  H4  1  0.75413544  0.91551208  0.23405839  1.0
  H  H5  1  0.72684107  0.20677165  0.48532180  1.0
  H  H6  1  0.70281071  0.34826301  0.41718336  1.0
  H  H7  1  0.22266158  0.80855204  0.48454325  1.0
  H  H8  1  0.24307225  0.73538912  0.41619313  1.0
  H  H9  1  0.79392508  0.80549776  0.70971622  1.0
  H  H10  1  0.78166455  0.73343148  0.85057246  1.0
  H  H11  1  0.13434488  0.21185276  0.30727328  1.0
  H  H12  1  0.13702852  0.35312663  0.23502853  1.0
  C  C13  1  0.48373192  0.94215083  0.61601760  1.0
  C  C14  1  0.44463638  0.11712843  0.44185928  1.0
  C  C15  1  0.48569875  0.94252883  0.44155450  1.0
  C  C16  1  0.31669919  0.93198433  0.73834740  1.0
  C  C17  1  0.32382833  0.89419126  0.81650368  1.0
  C  C18  1  0.64389324  0.93065956  0.32916545  1.0
  C  C19  1  0.64191648  0.89218592  0.28924304  1.0
  C  C20  1  0.59250194  0.23954788  0.43130156  1.0
  C  C21  1  0.58076545  0.31796538  0.39339743  1.0
  C  C22  1  0.34392941  0.83053945  0.43041468  1.0
  C  C23  1  0.35355319  0.79015407  0.39240298  1.0
  C  C24  1  0.65926588  0.82906615  0.74037151  1.0
  C  C25  1  0.65451365  0.78926984  0.81851143  1.0
  C  C26  1  0.26272191  0.24231510  0.33006254  1.0
  C  C27  1  0.26217352  0.32069361  0.29018002  1.0
  C  C28  1  0.48744995  0.90019467  0.69982390  1.0
  C  C29  1  0.48985764  0.82186609  0.85751410  1.0
  C  C30  1  0.48955340  0.78226164  0.93698173  1.0
  C  C31  1  0.48828861  0.74770405  0.00562702  1.0
  C  C32  1  0.48331976  0.70782158  0.08481403  1.0
  C  C33  1  0.49194605  0.90050404  0.39951396  1.0
  C  C34  1  0.49953782  0.82100656  0.32084740  1.0
  C  C35  1  0.50089507  0.78109622  0.28107731  1.0
  C  C36  1  0.49982876  0.74686576  0.24647035  1.0
  C  C37  1  0.49098107  0.70754350  0.20652549  1.0
  C  C38  1  0.43166380  0.20123815  0.40027566  1.0
  C  C39  1  0.41968577  0.35944476  0.32170551  1.0
  C  C40  1  0.42222567  0.43904830  0.28137897  1.0
  C  C41  1  0.43089872  0.50771723  0.24570850  1.0
  C  C42  1  0.44952915  0.58675117  0.20576644  1.0
  C  C43  1  0.50400152  0.74526680  0.12698713  1.0
  C  C44  1  0.46587897  0.62832249  0.24382825  1.0
  C  C45  1  0.45526543  0.62848151  0.12609965  1.0
  N  N46  1  0.45548088  0.58702005  0.32659058  1.0
  N  N47  1  0.42978529  0.58733189  0.08455386  1.0
  N  N48  1  0.54310892  0.82733971  0.08654677  1.0
  O  O49  1  0.71034736  0.99016198  0.42713916  1.0
  O  O50  1  0.72438743  0.92745717  0.58313473  1.0
  O  O51  1  0.68606936  0.08298432  0.49002585  1.0
  O  O52  1  0.25514908  0.92811526  0.48964152  1.0
  O  O53  1  0.21603118  0.08431920  0.42710312  1.0
  O  O54  1  0.23857232  0.99056374  0.58223081  1.0
  O  O55  1  0.24769764  0.61128977  0.35552299  1.0
  O  O56  1  0.65479713  0.53144754  0.36062240  1.0
  O  O57  1  0.22815019  0.53652109  0.10810212  1.0
  O  O58  1  0.60989659  0.60630267  0.02936841  1.0
  O  O59  1  0.36188936  0.86661539  0.02994335  1.0
  O  O60  1  0.75767267  0.85078169  0.11252222  1.0
