# generated using pymatgen
data_Zn8H42C70I3N3O26
_symmetry_space_group_name_H-M   'P 1'
_cell_length_a   18.23762792
_cell_length_b   18.25652312
_cell_length_c   18.26112468
_cell_angle_alpha   119.69568572
_cell_angle_beta   90.59985552
_cell_angle_gamma   119.45072522
_symmetry_Int_Tables_number   1
_chemical_formula_structural   Zn8H42C70I3N3O26
_chemical_formula_sum   'Zn8 H42 C70 I3 N3 O26'
_cell_volume   4331.99860083
_cell_formula_units_Z   1
loop_
 _symmetry_equiv_pos_site_id
 _symmetry_equiv_pos_as_xyz
  1  'x, y, z'
loop_
 _atom_site_type_symbol
 _atom_site_label
 _atom_site_symmetry_multiplicity
 _atom_site_fract_x
 _atom_site_fract_y
 _atom_site_fract_z
 _atom_site_occupancy
  Zn  Zn0  1  0.55286845  0.09458706  0.13679765  1.0
  Zn  Zn1  1  0.53270500  0.08332645  0.95661641  1.0
  Zn  Zn2  1  0.36722731  0.91391278  0.96904371  1.0
  Zn  Zn3  1  0.54191469  0.91475128  0.95839936  1.0
  Zn  Zn4  1  0.96224588  0.91436339  0.37169463  1.0
  Zn  Zn5  1  0.13129569  0.09445566  0.55130610  1.0
  Zn  Zn6  1  0.95265765  0.91271050  0.54438507  1.0
  Zn  Zn7  1  0.95310726  0.08591556  0.54288216  1.0
  H  H8  1  0.74862630  0.92617917  0.08880068  1.0
  H  H9  1  0.21848480  0.60038796  0.87324254  1.0
  H  H10  1  0.65371916  0.83986667  0.09777441  1.0
  H  H11  1  0.42753601  0.69740161  0.73083404  1.0
  H  H12  1  0.43398432  0.60858450  0.57791932  1.0
  H  H13  1  0.32694778  0.41899265  0.47142620  1.0
  H  H14  1  0.77284595  0.03464006  0.96699757  1.0
  H  H15  1  0.90727596  0.04321633  0.00499457  1.0
  H  H16  1  0.00014530  0.03611432  0.90500341  1.0
  H  H17  1  0.95605102  0.02100381  0.76740662  1.0
  H  H18  1  0.74376989  0.83893559  0.18857749  1.0
  H  H19  1  0.75262538  0.05316263  0.39557116  1.0
  H  H20  1  0.73098827  0.02692479  0.63877315  1.0
  H  H21  1  0.21026095  0.98034206  0.86530549  1.0
  H  H22  1  0.39456374  0.84702753  0.54354556  1.0
  H  H23  1  0.33788677  0.90529781  0.47407130  1.0
  H  H24  1  0.24083046  0.96206241  0.53354718  1.0
  H  H25  1  0.11893262  0.98840238  0.76976482  1.0
  H  H26  1  0.76138081  0.40376148  0.28311790  1.0
  H  H27  1  0.53325373  0.31417141  0.05811421  1.0
  H  H28  1  0.49215366  0.41212241  0.03381837  1.0
  H  H29  1  0.83885292  0.92273396  0.17757649  1.0
  H  H30  1  0.78816827  0.16542872  0.28992720  1.0
  H  H31  1  0.58588633  0.60448896  0.13617878  1.0
  H  H32  1  0.72079156  0.69633150  0.25924785  1.0
  H  H33  1  0.85745450  0.59565743  0.38173699  1.0
  H  H34  1  0.82712732  0.11928115  0.20060695  1.0
  H  H35  1  0.91889795  0.11428465  0.28510756  1.0
  H  H36  1  0.65021033  0.03947275  0.30302094  1.0
  H  H37  1  0.59989772  0.90631802  0.22642568  1.0
  H  H38  1  0.19108964  0.24670375  0.51266127  1.0
  H  H39  1  0.20877315  0.27320313  0.43640502  1.0
  H  H40  1  0.05052019  0.32932364  0.73765415  1.0
  H  H41  1  0.88477949  0.16663129  0.37683584  1.0
  H  H42  1  0.09235985  0.44847515  0.83610142  1.0
  H  H43  1  0.61918535  0.04568027  0.68051845  1.0
  H  H44  1  0.59312182  0.05426926  0.77482812  1.0
  H  H45  1  0.34477758  0.13740608  0.25153012  1.0
  H  H46  1  0.27180436  0.70653405  0.19513599  1.0
  H  H47  1  0.16569968  0.70413750  0.27935473  1.0
  H  H48  1  0.13383895  0.83598112  0.33492750  1.0
  H  H49  1  0.24647955  0.13808479  0.34535701  1.0
  C  C50  1  0.64657001  0.01670646  0.87487595  1.0
  C  C51  1  0.17990942  0.83643916  0.29748608  1.0
  C  C52  1  0.22162863  0.91400297  0.28183976  1.0
  C  C53  1  0.37501845  0.00241294  0.15624814  1.0
  C  C54  1  0.28261720  0.91594282  0.23123479  1.0
  C  C55  1  0.32298422  0.99688126  0.21877442  1.0
  C  C56  1  0.31106983  0.07556522  0.26073801  1.0
  C  C57  1  0.25492014  0.07543649  0.31250133  1.0
  C  C58  1  0.20798477  0.99415539  0.31989056  1.0
  C  C59  1  0.38016083  0.61472277  0.68324246  1.0
  C  C60  1  0.38436744  0.56505463  0.59854467  1.0
  C  C61  1  0.66424907  0.98192007  0.26350280  1.0
  C  C62  1  0.32435252  0.45827417  0.53892195  1.0
  C  C63  1  0.26002418  0.39903846  0.56220898  1.0
  C  C64  1  0.25413724  0.44818052  0.65043993  1.0
  C  C65  1  0.62504957  0.27884953  0.13659403  1.0
  C  C66  1  0.31471243  0.55853108  0.70969819  1.0
  C  C67  1  0.30105096  0.61030847  0.79230205  1.0
  C  C68  1  0.22932470  0.55758229  0.81206641  1.0
  C  C69  1  0.16973211  0.44890723  0.75580866  1.0
  C  C70  1  0.18597723  0.39398965  0.67810636  1.0
  C  C71  1  0.81213272  0.03138624  0.92257353  1.0
  C  C72  1  0.70606806  0.99966086  0.19564070  1.0
  C  C73  1  0.88779458  0.03595125  0.94380937  1.0
  C  C74  1  0.94024848  0.03210340  0.88770931  1.0
  C  C75  1  0.91576275  0.02395612  0.81090658  1.0
  C  C76  1  0.83864175  0.01953967  0.78732141  1.0
  C  C77  1  0.36032206  0.72450869  0.85912888  1.0
  C  C78  1  0.78466697  0.02321954  0.84413222  1.0
  C  C79  1  0.70903621  0.02445561  0.82351267  1.0
  C  C80  1  0.69209744  0.03077074  0.75190536  1.0
  C  C81  1  0.74577510  0.02570196  0.69607506  1.0
  C  C82  1  0.81449458  0.01745454  0.71095943  1.0
  C  C83  1  0.80971166  0.99947051  0.29516057  1.0
  C  C84  1  0.34332776  0.88895305  0.65163525  1.0
  C  C85  1  0.35883307  0.88092716  0.57481897  1.0
  C  C86  1  0.32471909  0.91158619  0.53437227  1.0
  C  C87  1  0.27083261  0.94352304  0.56755664  1.0
  C  C88  1  0.25333260  0.95245875  0.64615226  1.0
  C  C89  1  0.34629543  0.97064664  0.84886552  1.0
  C  C90  1  0.29578172  0.93186686  0.69387598  1.0
  C  C91  1  0.28369941  0.95117542  0.77735894  1.0
  C  C92  1  0.21974436  0.96902366  0.80263837  1.0
  C  C93  1  0.17055037  0.97664424  0.75059247  1.0
  C  C94  1  0.86003377  0.10391444  0.30575312  1.0
  C  C95  1  0.19019306  0.97471777  0.67694524  1.0
  C  C96  1  0.57449737  0.39760564  0.10245488  1.0
  C  C97  1  0.55178821  0.45273314  0.08888684  1.0
  C  C98  1  0.60478998  0.56110627  0.14618388  1.0
  C  C99  1  0.68046689  0.61282607  0.21555599  1.0
  C  C100  1  0.70651812  0.55886304  0.23144375  1.0
  C  C101  1  0.64432802  0.00104161  0.14010295  1.0
  C  C102  1  0.65158697  0.44794144  0.17378016  1.0
  C  C103  1  0.67482246  0.39350666  0.19331139  1.0
  C  C104  1  0.74656822  0.44695894  0.26838737  1.0
  C  C105  1  0.72897835  0.98923953  0.32563034  1.0
  C  C106  1  0.80038403  0.55467680  0.32390319  1.0
  C  C107  1  0.78285680  0.61042337  0.30510704  1.0
  C  C108  1  0.13482404  0.28167496  0.63358494  1.0
  C  C109  1  0.84835898  0.72466501  0.36310553  1.0
  C  C110  1  0.14411574  0.99538421  0.37052182  1.0
  C  C111  1  0.86247828  0.00701964  0.64436095  1.0
  C  C112  1  0.13877899  0.99223509  0.63072364  1.0
  C  C113  1  0.71924339  0.91402623  0.13729031  1.0
  C  C114  1  0.87300762  0.00609834  0.35713342  1.0
  C  C115  1  0.77943988  0.91288622  0.19646279  1.0
  C  C116  1  0.29866116  0.83787880  0.20097402  1.0
  C  C117  1  0.79785489  0.10453081  0.24813390  1.0
  C  C118  1  0.25720647  0.76394268  0.21819368  1.0
  C  C119  1  0.19730005  0.76294769  0.26634511  1.0
  I  I120  1  0.39072329  0.82736875  0.13335914  1.0
  I  I121  1  0.37321223  0.80960012  0.68681500  1.0
  I  I122  1  0.65952956  0.85737550  0.33546487  1.0
  N  N123  1  0.19714144  0.29421687  0.49554954  1.0
  N  N124  1  0.10311087  0.40284678  0.78380532  1.0
  N  N125  1  0.62376520  0.03568256  0.72961888  1.0
  O  O126  1  0.49789813  0.00221306  0.00616802  1.0
  O  O127  1  0.88288646  0.94288481  0.62072410  1.0
  O  O128  1  0.18051823  0.05136821  0.60580370  1.0
  O  O129  1  0.62826412  0.95835508  0.90102889  1.0
  O  O130  1  0.88860846  0.06479838  0.44060334  1.0
  O  O131  1  0.05616809  0.94745332  0.62247640  1.0
  O  O132  1  0.90624422  0.95514311  0.32131022  1.0
  O  O133  1  0.06299005  0.91677762  0.33131245  1.0
  O  O134  1  0.87757363  0.06207905  0.61512958  1.0
  O  O135  1  0.17831060  0.24017333  0.61453396  1.0
  O  O136  1  0.88202063  0.76634114  0.44625380  1.0
  O  O137  1  0.62279644  0.23880714  0.17814976  1.0
  O  O138  1  0.45846044  0.07266261  0.19182376  1.0
  O  O139  1  0.59076390  0.22998142  0.05213851  1.0
  O  O140  1  0.32114399  0.76796471  0.89541395  1.0
  O  O141  1  0.42921535  0.03453240  0.86702847  1.0
  O  O142  1  0.60818435  0.93026016  0.05659333  1.0
  O  O143  1  0.31183832  0.93061690  0.89066713  1.0
  O  O144  1  0.63349637  0.07346335  0.18241214  1.0
  O  O145  1  0.44461525  0.76906678  0.87598115  1.0
  O  O146  1  0.61278413  0.06802732  0.88840393  1.0
  O  O147  1  0.32790336  0.94159682  0.07362076  1.0
  O  O148  1  0.00059337  0.00215560  0.50290683  1.0
  O  O149  1  0.05093135  0.23279584  0.62248517  1.0
  O  O150  1  0.86789800  0.77139030  0.32514651  1.0
  O  O151  1  0.17595821  0.07736709  0.44854411  1.0
