# generated using pymatgen
data_Al4H27C60N5(Cl2O15)2
_symmetry_space_group_name_H-M   'P 1'
_cell_length_a   6.70791444
_cell_length_b   17.47731775
_cell_length_c   19.16058870
_cell_angle_alpha   109.27872182
_cell_angle_beta   91.53805804
_cell_angle_gamma   91.25399885
_symmetry_Int_Tables_number   1
_chemical_formula_structural   Al4H27C60N5(Cl2O15)2
_chemical_formula_sum   'Al4 H27 C60 N5 Cl4 O30'
_cell_volume   2118.46270333
_cell_formula_units_Z   1
loop_
 _symmetry_equiv_pos_site_id
 _symmetry_equiv_pos_as_xyz
  1  'x, y, z'
loop_
 _atom_site_type_symbol
 _atom_site_label
 _atom_site_symmetry_multiplicity
 _atom_site_fract_x
 _atom_site_fract_y
 _atom_site_fract_z
 _atom_site_occupancy
  Al  Al0  1  0.09635577  0.50136676  0.49950027  1.0
  Al  Al1  1  0.59459243  0.49788005  0.49690302  1.0
  Al  Al2  1  0.68978506  0.99806202  0.00229353  1.0
  Al  Al3  1  0.18903656  0.00441970  0.99767870  1.0
  H  H4  1  0.12767921  0.36472803  0.78095794  1.0
  H  H5  1  0.11393129  0.43534398  0.68853196  1.0
  H  H6  1  0.62675921  0.21093757  0.66538604  1.0
  H  H7  1  0.57080210  0.21009852  0.78024619  1.0
  H  H8  1  0.22814244  0.16794753  0.88286252  1.0
  H  H9  1  0.20907580  0.25276739  0.80097788  1.0
  H  H10  1  0.49382113  0.30186908  0.05884450  1.0
  H  H11  1  0.23237997  0.18091424  0.43986023  1.0
  H  H12  1  0.97559422  0.27880082  0.43537150  1.0
  H  H13  1  0.57290316  0.41783622  0.29371105  1.0
  H  H14  1  0.74422168  0.20182886  0.06074864  1.0
  H  H15  1  0.97353746  0.55569910  0.80639497  1.0
  H  H16  1  0.57001931  0.70692236  0.56821671  1.0
  H  H17  1  0.76924494  0.82794417  0.57214458  1.0
  H  H18  1  0.81575468  0.94435197  0.69055411  1.0
  H  H19  1  0.65568732  0.93991662  0.80294733  1.0
  H  H20  1  0.20686276  0.79400475  0.92809505  1.0
  H  H21  1  0.14326822  0.55971515  0.69384488  1.0
  H  H22  1  0.68814622  0.74897712  0.31702870  1.0
  H  H23  1  0.64817742  0.66776807  0.40030915  1.0
  H  H24  1  0.08254294  0.68126056  0.23457270  1.0
  H  H25  1  0.13207845  0.83275019  0.26125315  1.0
  H  H26  1  0.67928793  0.80799678  0.08739936  1.0
  H  H27  1  0.33233531  0.39228373  0.46306784  1.0
  H  H28  1  0.84925601  0.60464045  0.51204572  1.0
  H  H29  1  0.45284083  0.09938830  0.99371743  1.0
  H  H30  1  0.94738026  0.91114125  0.01789232  1.0
  C  C31  1  0.36630982  0.61142403  0.61309214  1.0
  C  C32  1  0.34039336  0.58180167  0.41799422  1.0
  C  C33  1  0.82995829  0.38391349  0.38481464  1.0
  C  C34  1  0.85270752  0.41864054  0.57869767  1.0
  C  C35  1  0.01431742  0.34646059  0.73625177  1.0
  C  C36  1  0.00415025  0.38745735  0.68551476  1.0
  C  C37  1  0.85416967  0.36938982  0.62938731  1.0
  C  C38  1  0.71572798  0.30578134  0.62413086  1.0
  C  C39  1  0.72946181  0.26258847  0.67362874  1.0
  C  C40  1  0.87680250  0.28264347  0.73058472  1.0
  C  C41  1  0.71821386  0.20044386  0.80052356  1.0
  C  C42  1  0.73619952  0.15504996  0.84742562  1.0
  C  C43  1  0.91915856  0.13872752  0.87526294  1.0
  C  C44  1  0.08727620  0.17656936  0.85807413  1.0
  C  C45  1  0.07400166  0.22455581  0.81323431  1.0
  C  C46  1  0.88988269  0.23564088  0.78171597  1.0
  C  C47  1  0.23620351  0.15504131  0.25531359  1.0
  C  C48  1  0.29169282  0.14921429  0.32351271  1.0
  C  C49  1  0.18961237  0.19059327  0.38832533  1.0
  C  C50  1  0.04796362  0.24419786  0.38512409  1.0
  C  C51  1  0.98561290  0.25335743  0.31631209  1.0
  C  C52  1  0.05768743  0.19817131  0.24805857  1.0
  C  C53  1  0.84987925  0.31350339  0.31474863  1.0
  C  C54  1  0.75815416  0.31275548  0.24736439  1.0
  C  C55  1  0.80500664  0.24907174  0.18017858  1.0
  C  C56  1  0.95007299  0.19160995  0.18130805  1.0
  C  C57  1  0.61426581  0.37024443  0.24388441  1.0
  C  C58  1  0.52113602  0.36333229  0.17736492  1.0
  C  C59  1  0.56825028  0.30312849  0.11034515  1.0
  C  C60  1  0.70710967  0.24764625  0.11244041  1.0
  C  C61  1  0.58971113  0.75714086  0.62001513  1.0
  C  C62  1  0.70084342  0.82483301  0.62219779  1.0
  C  C63  1  0.72604976  0.89104982  0.68919266  1.0
  C  C64  1  0.63665495  0.88880624  0.75208527  1.0
  C  C65  1  0.51775966  0.81999261  0.75228344  1.0
  C  C66  1  0.49686612  0.75157737  0.68451440  1.0
  C  C67  1  0.41579420  0.81759094  0.81518045  1.0
  C  C68  1  0.29719261  0.74881029  0.81302169  1.0
  C  C69  1  0.27899670  0.67996168  0.74560634  1.0
  C  C70  1  0.38033388  0.68272818  0.68304726  1.0
  C  C71  1  0.19785047  0.74396721  0.87626169  1.0
  C  C72  1  0.08592444  0.67600236  0.87229042  1.0
  C  C73  1  0.06497035  0.60797816  0.80665127  1.0
  C  C74  1  0.16036776  0.61064773  0.74516069  1.0
  C  C75  1  0.54678224  0.71728186  0.31728422  1.0
  C  C76  1  0.52395566  0.67245431  0.36442029  1.0
  C  C77  1  0.34497857  0.63013146  0.36679057  1.0
  C  C78  1  0.18471789  0.63500880  0.31936810  1.0
  C  C79  1  0.20687381  0.68022177  0.27193708  1.0
  C  C80  1  0.38692418  0.72143359  0.27003926  1.0
  C  C81  1  0.25159045  0.82595146  0.22243900  1.0
  C  C82  1  0.25427868  0.87288613  0.17657678  1.0
  C  C83  1  0.40986927  0.86934833  0.12817910  1.0
  C  C84  1  0.55832278  0.81338025  0.12527569  1.0
  C  C85  1  0.55245113  0.76384401  0.16925599  1.0
  C  C86  1  0.40049986  0.77021789  0.22014530  1.0
  C  C87  1  0.42412383  0.92166154  0.08061658  1.0
  C  C88  1  0.43005679  0.88862000  0.88553694  1.0
  C  C89  1  0.93801273  0.08356914  0.92025372  1.0
  C  C90  1  0.95021993  0.11798964  0.11157299  1.0
  N  N91  1  0.46876205  0.10540114  0.33415683  1.0
  N  N92  1  0.36452864  0.42056124  0.17573888  1.0
  N  N93  1  0.98251232  0.67454215  0.93862563  1.0
  N  N94  1  0.08144702  0.92571848  0.18327605  1.0
  N  N95  1  0.55027276  0.12732138  0.87091747  1.0
  Cl  Cl96  1  0.40044722  0.12707891  0.18567024  1.0
  Cl  Cl97  1  0.95821260  0.58419516  0.31303449  1.0
  Cl  Cl98  1  0.53432529  0.27306137  0.55428468  1.0
  Cl  Cl99  1  0.73227499  0.69165261  0.15704905  1.0
  O  O100  1  0.51015233  0.56582831  0.44135645  1.0
  O  O101  1  0.19325826  0.58982353  0.58324587  1.0
  O  O102  1  0.02282138  0.44456803  0.56639727  1.0
  O  O103  1  0.17211633  0.56132493  0.43639502  1.0
  O  O104  1  0.99684195  0.41200073  0.41734538  1.0
  O  O105  1  0.52890966  0.57887974  0.58856656  1.0
  O  O106  1  0.34112869  0.45033896  0.48854612  1.0
  O  O107  1  0.65972148  0.41125799  0.40608008  1.0
  O  O108  1  0.68554040  0.43105350  0.55255598  1.0
  O  O109  1  0.84692647  0.54753523  0.50653629  1.0
  O  O110  1  0.26586106  0.91475824  0.91475019  1.0
  O  O111  1  0.59296026  0.93003394  0.05494144  1.0
  O  O112  1  0.78181520  0.07998312  0.09525023  1.0
  O  O113  1  0.60387339  0.91574009  0.91101386  1.0
  O  O114  1  0.77764311  0.06526137  0.94602574  1.0
  O  O115  1  0.26383129  0.95327361  0.06814321  1.0
  O  O116  1  0.44648795  0.05085224  0.00810059  1.0
  O  O117  1  0.10991152  0.05905809  0.92930649  1.0
  O  O118  1  0.10467949  0.10117907  0.07370174  1.0
  O  O119  1  0.93929297  0.95222115  0.99382285  1.0
  O  O120  1  0.56363651  0.13549426  0.39428387  1.0
  O  O121  1  0.51099893  0.04193727  0.28544711  1.0
  O  O122  1  0.28846022  0.41557248  0.11452558  1.0
  O  O123  1  0.31649388  0.46986730  0.23553256  1.0
  O  O124  1  0.88880745  0.61112418  0.93489736  1.0
  O  O125  1  0.99315443  0.73655604  0.99439459  1.0
  O  O126  1  0.94822233  0.90306515  0.13448614  1.0
  O  O127  1  0.07581474  0.98594675  0.23953282  1.0
  O  O128  1  0.49250867  0.17068367  0.93228684  1.0
  O  O129  1  0.45999379  0.06738471  0.82818534  1.0
