# generated using pymatgen
data_ZnH2C20N4Cl3O10
_symmetry_space_group_name_H-M   'P 1'
_cell_length_a   14.30464602
_cell_length_b   14.72987168
_cell_length_c   15.05262239
_cell_angle_alpha   89.97524580
_cell_angle_beta   88.69925315
_cell_angle_gamma   89.95602696
_symmetry_Int_Tables_number   1
_chemical_formula_structural   ZnH2C20N4Cl3O10
_chemical_formula_sum   'Zn2 H4 C40 N8 Cl6 O20'
_cell_volume   3170.85333329
_cell_formula_units_Z   2
loop_
 _symmetry_equiv_pos_site_id
 _symmetry_equiv_pos_as_xyz
  1  'x, y, z'
loop_
 _atom_site_type_symbol
 _atom_site_label
 _atom_site_symmetry_multiplicity
 _atom_site_fract_x
 _atom_site_fract_y
 _atom_site_fract_z
 _atom_site_occupancy
  Zn  Zn0  1  0.50033613  0.40111201  0.50001122  1.0
  Zn  Zn1  1  0.49981969  0.59651103  0.50016743  1.0
  H  H2  1  0.36314465  0.49832779  0.23483997  1.0
  H  H3  1  0.63656080  0.49451328  0.76539911  1.0
  H  H4  1  0.26850934  0.46997928  0.10152605  1.0
  H  H5  1  0.73057437  0.46464626  0.89891175  1.0
  C  C6  1  0.48348876  0.51152785  0.66827857  1.0
  C  C7  1  0.51643939  0.51207512  0.33195358  1.0
  C  C8  1  0.67731848  0.48599073  0.51827325  1.0
  C  C9  1  0.32290438  0.48523695  0.48187047  1.0
  C  C10  1  0.77791267  0.48602213  0.51730455  1.0
  C  C11  1  0.22230023  0.48512076  0.48252055  1.0
  C  C12  1  0.86358996  0.48703832  0.51121330  1.0
  C  C13  1  0.13661813  0.48643727  0.48847455  1.0
  C  C14  1  0.95706464  0.48750547  0.50363000  1.0
  C  C15  1  0.04313564  0.48731774  0.49595809  1.0
  C  C16  1  0.59597934  0.49435591  0.18111766  1.0
  C  C17  1  0.40369938  0.49539146  0.81912674  1.0
  C  C18  1  0.51341364  0.50183965  0.23266507  1.0
  C  C19  1  0.48637378  0.50117867  0.76757906  1.0
  C  C20  1  0.42673443  0.49459969  0.19357896  1.0
  C  C21  1  0.57289298  0.49223864  0.80665736  1.0
  C  C22  1  0.42021555  0.48420921  0.10140809  1.0
  C  C23  1  0.57921742  0.48201053  0.89888137  1.0
  C  C24  1  0.50342687  0.47868366  0.04747232  1.0
  C  C25  1  0.49592379  0.47852923  0.95286365  1.0
  C  C26  1  0.59310533  0.47780321  0.08861843  1.0
  C  C27  1  0.40621538  0.47931329  0.91174818  1.0
  C  C28  1  0.33193693  0.47563216  0.06036253  1.0
  C  C29  1  0.66726114  0.47179930  0.94003046  1.0
  C  C30  1  0.32596445  0.46922838  0.97026307  1.0
  C  C31  1  0.67312753  0.46575697  0.03018242  1.0
  C  C32  1  0.54882231  0.19797643  0.43852065  1.0
  C  C33  1  0.44973833  0.81306182  0.55980477  1.0
  C  C34  1  0.45142102  0.19799504  0.56138753  1.0
  C  C35  1  0.54999822  0.81297842  0.43985316  1.0
  C  C36  1  0.44171891  0.10262415  0.56230715  1.0
  C  C37  1  0.56009407  0.90836942  0.43944820  1.0
  C  C38  1  0.55830602  0.10255892  0.43739907  1.0
  C  C39  1  0.43967903  0.90845933  0.56015632  1.0
  C  C40  1  0.49997368  0.05401000  0.49982768  1.0
  C  C41  1  0.49990732  0.95724202  0.49979651  1.0
  C  C42  1  0.37666842  0.05251763  0.61808005  1.0
  C  C43  1  0.62604508  0.95830090  0.38482486  1.0
  C  C44  1  0.62322266  0.05236117  0.38150962  1.0
  C  C45  1  0.37371046  0.95847716  0.61471261  1.0
  N  N46  1  0.50019984  0.24445691  0.50000960  1.0
  N  N47  1  0.49986668  0.76622337  0.49985340  1.0
  N  N48  1  0.23434972  0.43893765  0.93813985  1.0
  N  N49  1  0.76407371  0.43361492  0.06241807  1.0
  N  N50  1  0.59030879  0.25532046  0.36626624  1.0
  N  N51  1  0.40720703  0.75728836  0.63250257  1.0
  N  N52  1  0.41006980  0.25523646  0.63379050  1.0
  N  N53  1  0.59237097  0.75716985  0.36710370  1.0
  Cl  Cl54  1  0.69953585  0.51332081  0.23389866  1.0
  Cl  Cl55  1  0.30054802  0.51574250  0.76603090  1.0
  Cl  Cl56  1  0.29686168  0.10650736  0.68518175  1.0
  Cl  Cl57  1  0.71343783  0.90399890  0.32710341  1.0
  Cl  Cl58  1  0.70298980  0.10625973  0.31434294  1.0
  Cl  Cl59  1  0.28616183  0.90431801  0.67228730  1.0
  O  O60  1  0.46702908  0.43902743  0.62623852  1.0
  O  O61  1  0.49854333  0.58958586  0.36532111  1.0
  O  O62  1  0.53361386  0.43962154  0.37391772  1.0
  O  O63  1  0.50071719  0.58922915  0.63505196  1.0
  O  O64  1  0.63694364  0.41006676  0.53354994  1.0
  O  O65  1  0.36112590  0.56129909  0.49777527  1.0
  O  O66  1  0.36368631  0.40953356  0.46631885  1.0
  O  O67  1  0.63872285  0.56204132  0.50275211  1.0
  O  O68  1  0.16375626  0.48059308  0.96410681  1.0
  O  O69  1  0.23532526  0.36977883  0.89122613  1.0
  O  O70  1  0.83559436  0.47321595  0.03573498  1.0
  O  O71  1  0.76157846  0.36504649  0.11019438  1.0
  O  O72  1  0.66277509  0.29615673  0.38170703  1.0
  O  O73  1  0.54474644  0.25595093  0.29763074  1.0
  O  O74  1  0.34130798  0.70811699  0.61370446  1.0
  O  O75  1  0.44441362  0.76655769  0.70507030  1.0
  O  O76  1  0.33765040  0.29633365  0.61851764  1.0
  O  O77  1  0.45567089  0.25548854  0.70240559  1.0
  O  O78  1  0.65832889  0.70788959  0.38570047  1.0
  O  O79  1  0.55491394  0.76650563  0.29464747  1.0
