# generated using pymatgen
data_ZnH21C35N3O4
_symmetry_space_group_name_H-M   'P 1'
_cell_length_a   16.67537025
_cell_length_b   16.67536682
_cell_length_c   23.19661665
_cell_angle_alpha   99.84616991
_cell_angle_beta   99.84591772
_cell_angle_gamma   114.36357896
_symmetry_Int_Tables_number   1
_chemical_formula_structural   ZnH21C35N3O4
_chemical_formula_sum   'Zn4 H84 C140 N12 O16'
_cell_volume   5575.68294183
_cell_formula_units_Z   4
loop_
 _symmetry_equiv_pos_site_id
 _symmetry_equiv_pos_as_xyz
  1  'x, y, z'
loop_
 _atom_site_type_symbol
 _atom_site_label
 _atom_site_symmetry_multiplicity
 _atom_site_fract_x
 _atom_site_fract_y
 _atom_site_fract_z
 _atom_site_occupancy
  Zn  Zn0  1  0.91209722  0.39455282  0.65879260  1.0
  Zn  Zn1  1  0.60544611  0.08790377  0.84120815  1.0
  Zn  Zn2  1  0.08790335  0.60544644  0.34120808  1.0
  Zn  Zn3  1  0.39455234  0.91209617  0.15879192  1.0
  H  H4  1  0.26687691  0.92830873  0.43396487  1.0
  H  H5  1  0.07169374  0.73312284  0.06603540  1.0
  H  H6  1  0.73312185  0.07169189  0.56603403  1.0
  H  H7  1  0.92830987  0.26687642  0.93396608  1.0
  H  H8  1  0.43121284  0.14794287  0.59611223  1.0
  H  H9  1  0.85205752  0.56878703  0.90388892  1.0
  H  H10  1  0.56878620  0.85205571  0.40388774  1.0
  H  H11  1  0.14794490  0.43121496  0.09611232  1.0
  H  H12  1  0.01776333  0.57396735  0.51509105  1.0
  H  H13  1  0.42603005  0.98223678  0.98490891  1.0
  H  H14  1  0.98223633  0.42603259  0.48491004  1.0
  H  H15  1  0.57396778  0.01776315  0.01508763  1.0
  H  H16  1  0.09190757  0.72598010  0.49727696  1.0
  H  H17  1  0.27401761  0.90809178  0.00272264  1.0
  H  H18  1  0.90809362  0.27402053  0.50272439  1.0
  H  H19  1  0.72598083  0.09190815  0.99727528  1.0
  H  H20  1  0.05060841  0.92975217  0.61008458  1.0
  H  H21  1  0.07024560  0.94939064  0.88991493  1.0
  H  H22  1  0.94939125  0.07024777  0.38991564  1.0
  H  H23  1  0.92975194  0.05060999  0.11008511  1.0
  H  H24  1  0.25152337  0.13463452  0.55058766  1.0
  H  H25  1  0.86536465  0.74847606  0.94941355  1.0
  H  H26  1  0.74847569  0.86536541  0.44941162  1.0
  H  H27  1  0.13463623  0.25152388  0.05058855  1.0
  H  H28  1  0.12552047  0.31243062  0.64145286  1.0
  H  H29  1  0.68757079  0.87448086  0.85854717  1.0
  H  H30  1  0.87447889  0.68756864  0.35854724  1.0
  H  H31  1  0.31243041  0.12552113  0.14145349  1.0
  H  H32  1  0.79953891  0.32315874  0.53390503  1.0
  H  H33  1  0.67683942  0.20046070  0.96609595  1.0
  H  H34  1  0.20046044  0.67684051  0.46609507  1.0
  H  H35  1  0.32316054  0.79953855  0.03390508  1.0
  H  H36  1  0.63758490  0.20760299  0.47707263  1.0
  H  H37  1  0.79239548  0.36241491  0.02292806  1.0
  H  H38  1  0.36241506  0.79239626  0.52292755  1.0
  H  H39  1  0.20760509  0.63758434  0.97707261  1.0
  H  H40  1  0.57320747  0.21783943  0.64979071  1.0
  H  H41  1  0.78216266  0.42679123  0.85020997  1.0
  H  H42  1  0.42679251  0.78216119  0.35020963  1.0
  H  H43  1  0.21783881  0.57320734  0.14979031  1.0
  H  H44  1  0.73611749  0.32876960  0.69873936  1.0
  H  H45  1  0.67123148  0.26388140  0.80126114  1.0
  H  H46  1  0.26388279  0.67123170  0.30126154  1.0
  H  H47  1  0.32876938  0.73611717  0.19873863  1.0
  H  H48  1  0.03129244  0.69883496  0.69744811  1.0
  H  H49  1  0.30116486  0.96870663  0.80255132  1.0
  H  H50  1  0.96870509  0.30116430  0.30255305  1.0
  H  H51  1  0.69883237  0.03129330  0.19744558  1.0
  H  H52  1  0.87638788  0.06150253  0.57952323  1.0
  H  H53  1  0.93849825  0.12361305  0.92047642  1.0
  H  H54  1  0.12361240  0.93849878  0.42047637  1.0
  H  H55  1  0.06150266  0.87638963  0.07952386  1.0
  H  H56  1  0.54796540  0.03981895  0.38717740  1.0
  H  H57  1  0.96018104  0.45203338  0.11282107  1.0
  H  H58  1  0.45203424  0.96017962  0.61282179  1.0
  H  H59  1  0.03981861  0.54796519  0.88717812  1.0
  H  H60  1  0.10494042  0.85296127  0.67931912  1.0
  H  H61  1  0.14703806  0.89505861  0.82068037  1.0
  H  H62  1  0.89505771  0.14703799  0.32068169  1.0
  H  H63  1  0.85295978  0.10494269  0.17931807  1.0
  H  H64  1  0.24768177  0.87213132  0.53807865  1.0
  H  H65  1  0.12786734  0.75231867  0.96192117  1.0
  H  H66  1  0.75231759  0.12786794  0.46192188  1.0
  H  H67  1  0.87213387  0.24768332  0.03807819  1.0
  H  H68  1  0.21460804  0.22622611  0.62383599  1.0
  H  H69  1  0.77377398  0.78539271  0.87616483  1.0
  H  H70  1  0.78539223  0.77377383  0.37616344  1.0
  H  H71  1  0.22622600  0.21460929  0.12383740  1.0
  H  H72  1  0.96315316  0.97517753  0.55732785  1.0
  H  H73  1  0.02482244  0.03684712  0.94267203  1.0
  H  H74  1  0.03684589  0.02482241  0.44267186  1.0
  H  H75  1  0.97517784  0.96315419  0.05732930  1.0
  H  H76  1  0.53698697  0.98505749  0.27641373  1.0
  H  H77  1  0.01494095  0.46301015  0.22358496  1.0
  H  H78  1  0.46301145  0.01493972  0.72358600  1.0
  H  H79  1  0.98505870  0.53698842  0.77641466  1.0
  H  H80  1  0.25259293  0.90686376  0.33956157  1.0
  H  H81  1  0.09313569  0.74740626  0.16043825  1.0
  H  H82  1  0.74740610  0.09313344  0.66043738  1.0
  H  H83  1  0.90686488  0.25259299  0.83956199  1.0
  H  H84  1  0.25466938  0.86339319  0.23126628  1.0
  H  H85  1  0.13660607  0.74532904  0.26873336  1.0
  H  H86  1  0.74533087  0.13660538  0.76873298  1.0
  H  H87  1  0.86339327  0.25466885  0.73126700  1.0
  C  C88  1  0.49791017  0.13077798  0.52531192  1.0
  C  C89  1  0.86922415  0.50209031  0.97468853  1.0
  C  C90  1  0.50209071  0.86922196  0.47468845  1.0
  C  C91  1  0.13077887  0.49791032  0.02531132  1.0
  C  C92  1  0.40715108  0.01801556  0.43613034  1.0
  C  C93  1  0.98198664  0.59284751  0.06386985  1.0
  C  C94  1  0.59284949  0.98198369  0.56387033  1.0
  C  C95  1  0.01801666  0.40715107  0.93613064  1.0
  C  C96  1  0.33154914  0.98725510  0.46014212  1.0
  C  C97  1  0.01274682  0.66844969  0.03985752  1.0
  C  C98  1  0.66844960  0.01274415  0.53985660  1.0
  C  C99  1  0.98725711  0.33155025  0.96014365  1.0
  C  C100  1  0.42381539  0.10925450  0.55094602  1.0
  C  C101  1  0.89074703  0.57618443  0.94905479  1.0
  C  C102  1  0.57618426  0.89074407  0.44905403  1.0
  C  C103  1  0.10925599  0.42381619  0.05094592  1.0
  C  C104  1  0.33927534  0.03535095  0.51823345  1.0
  C  C105  1  0.96464987  0.66072441  0.98176685  1.0
  C  C106  1  0.66072309  0.96464762  0.48176516  1.0
  C  C107  1  0.03535223  0.33927553  0.01823410  1.0
  C  C108  1  0.99546693  0.19203729  0.61288414  1.0
  C  C109  1  0.80796466  0.00453390  0.88711522  1.0
  C  C110  1  0.00453551  0.80796743  0.38711571  1.0
  C  C111  1  0.19203532  0.99546672  0.11288512  1.0
  C  C112  1  0.03698805  0.63473438  0.55135234  1.0
  C  C113  1  0.36526289  0.96301249  0.94864729  1.0
  C  C114  1  0.96301254  0.36526624  0.44864808  1.0
  C  C115  1  0.63473371  0.03698607  0.05135023  1.0
  C  C116  1  0.08004368  0.72069131  0.54162246  1.0
  C  C117  1  0.27930630  0.91995655  0.95837724  1.0
  C  C118  1  0.91995751  0.27930932  0.45837976  1.0
  C  C119  1  0.72069091  0.08004202  0.04161992  1.0
  C  C120  1  0.10921725  0.95181574  0.59118574  1.0
  C  C121  1  0.04818471  0.89078006  0.90881512  1.0
  C  C122  1  0.89078210  0.04818351  0.40881478  1.0
  C  C123  1  0.95181555  0.10921851  0.09118544  1.0
  C  C124  1  0.22257689  0.06743179  0.55916063  1.0
  C  C125  1  0.93256824  0.77742305  0.94084025  1.0
  C  C126  1  0.77742277  0.93256815  0.44083873  1.0
  C  C127  1  0.06743296  0.22257758  0.05916153  1.0
  C  C128  1  0.09076291  0.23827511  0.62364241  1.0
  C  C129  1  0.76172537  0.90923895  0.87635707  1.0
  C  C130  1  0.90923767  0.76172551  0.37635671  1.0
  C  C131  1  0.23827432  0.09076372  0.12364478  1.0
  C  C132  1  0.74666505  0.29652960  0.55720936  1.0
  C  C133  1  0.70346788  0.25333384  0.94279063  1.0
  C  C134  1  0.25333430  0.70346966  0.44278988  1.0
  C  C135  1  0.29653238  0.74666474  0.05720949  1.0
  C  C136  1  0.65737269  0.23379689  0.52625813  1.0
  C  C137  1  0.76620192  0.34262755  0.97374266  1.0
  C  C138  1  0.34262666  0.76620236  0.47374240  1.0
  C  C139  1  0.23379926  0.65737171  0.02625723  1.0
  C  C140  1  0.62015594  0.23907377  0.62171138  1.0
  C  C141  1  0.76092716  0.37984446  0.87828975  1.0
  C  C142  1  0.37984434  0.76092617  0.37828934  1.0
  C  C143  1  0.23907494  0.62015548  0.12171077  1.0
  C  C144  1  0.71118848  0.30093103  0.64949607  1.0
  C  C145  1  0.69907112  0.28881218  0.85050434  1.0
  C  C146  1  0.28881212  0.69907096  0.35050365  1.0
  C  C147  1  0.30093159  0.71118776  0.14949582  1.0
  C  C148  1  0.04428532  0.70575716  0.65364919  1.0
  C  C149  1  0.29424129  0.95571535  0.84634983  1.0
  C  C150  1  0.95571403  0.29424209  0.34635047  1.0
  C  C151  1  0.70575533  0.04428458  0.15364743  1.0
  C  C152  1  0.25949602  0.00744070  0.54384350  1.0
  C  C153  1  0.99255856  0.74050432  0.95615719  1.0
  C  C154  1  0.74050363  0.99255788  0.45615698  1.0
  C  C155  1  0.00744385  0.25949630  0.04384388  1.0
  C  C156  1  0.95049913  0.09697772  0.58906703  1.0
  C  C157  1  0.90302307  0.04950156  0.91093210  1.0
  C  C158  1  0.04950025  0.90302427  0.41093298  1.0
  C  C159  1  0.09697814  0.95050043  0.08906899  1.0
  C  C160  1  0.48192044  0.99931326  0.35384392  1.0
  C  C161  1  0.00068720  0.51807767  0.14615525  1.0
  C  C162  1  0.51807860  0.00068531  0.64615606  1.0
  C  C163  1  0.99931306  0.48192090  0.85384444  1.0
  C  C164  1  0.97305587  0.53459303  0.61790915  1.0
  C  C165  1  0.46540578  0.02694670  0.88209104  1.0
  C  C166  1  0.02694501  0.46540691  0.38209165  1.0
  C  C167  1  0.53459021  0.97305187  0.11790554  1.0
  C  C168  1  0.01888540  0.62666650  0.60748051  1.0
  C  C169  1  0.37333286  0.98111624  0.89252039  1.0
  C  C170  1  0.98111427  0.37333344  0.39252101  1.0
  C  C171  1  0.62666437  0.01888369  0.10747737  1.0
  C  C172  1  0.10388597  0.80002343  0.58721737  1.0
  C  C173  1  0.19997489  0.89611380  0.91278158  1.0
  C  C174  1  0.89611463  0.19997856  0.41278450  1.0
  C  C175  1  0.80002264  0.10388682  0.08721501  1.0
  C  C176  1  0.08532192  0.79145605  0.64336235  1.0
  C  C177  1  0.20854487  0.91468017  0.85663679  1.0
  C  C178  1  0.91467745  0.20854458  0.35663835  1.0
  C  C179  1  0.79145329  0.08532182  0.14336091  1.0
  C  C180  1  0.14521494  0.89119593  0.57630513  1.0
  C  C181  1  0.10880192  0.85478452  0.92369467  1.0
  C  C182  1  0.85478595  0.10880401  0.42369654  1.0
  C  C183  1  0.89119713  0.14521542  0.07630418  1.0
  C  C184  1  0.14454122  0.03873526  0.58096926  1.0
  C  C185  1  0.96126338  0.85545858  0.91903108  1.0
  C  C186  1  0.85545902  0.96126195  0.41903026  1.0
  C  C187  1  0.03873781  0.14454204  0.08097071  1.0
  C  C188  1  0.21927260  0.91879071  0.55078849  1.0
  C  C189  1  0.08120917  0.78072712  0.94921108  1.0
  C  C190  1  0.78072675  0.08120855  0.44921204  1.0
  C  C191  1  0.91879172  0.21927419  0.05078860  1.0
  C  C192  1  0.09545973  0.09397524  0.59068792  1.0
  C  C193  1  0.90602356  0.90454003  0.90931260  1.0
  C  C194  1  0.90453962  0.90602401  0.40931131  1.0
  C  C195  1  0.09397612  0.09546128  0.09068995  1.0
  C  C196  1  0.14015555  0.18971368  0.61305034  1.0
  C  C197  1  0.81028685  0.85984455  0.88695051  1.0
  C  C198  1  0.85984291  0.81028762  0.38694947  1.0
  C  C199  1  0.18971285  0.14015813  0.11305221  1.0
  C  C200  1  0.99946033  0.04884657  0.57753416  1.0
  C  C201  1  0.95115401  0.00053979  0.92246515  1.0
  C  C202  1  0.00053842  0.95115405  0.42246474  1.0
  C  C203  1  0.04884720  0.99946221  0.07753680  1.0
  C  C204  1  0.40149993  0.97929720  0.37232869  1.0
  C  C205  1  0.02070492  0.59849959  0.12767095  1.0
  C  C206  1  0.59850125  0.02070206  0.62767163  1.0
  C  C207  1  0.97929718  0.40150035  0.87232957  1.0
  C  C208  1  0.94077443  0.24124448  0.62767280  1.0
  C  C209  1  0.75875703  0.05922659  0.87232799  1.0
  C  C210  1  0.05922677  0.75875751  0.37232613  1.0
  C  C211  1  0.24124356  0.94077403  0.12767286  1.0
  C  C212  1  0.59171437  0.20237096  0.55845631  1.0
  C  C213  1  0.79763018  0.40828572  0.94154394  1.0
  C  C214  1  0.40828559  0.79762829  0.44154343  1.0
  C  C215  1  0.20237467  0.59171490  0.05845700  1.0
  C  C216  1  0.47634697  0.96928460  0.29305546  1.0
  C  C217  1  0.03071459  0.52365103  0.20694307  1.0
  C  C218  1  0.52365207  0.03071397  0.70694323  1.0
  C  C219  1  0.96928506  0.47634755  0.79305697  1.0
  C  C220  1  0.31764704  0.92662495  0.32804575  1.0
  C  C221  1  0.07337549  0.68235212  0.17195455  1.0
  C  C222  1  0.68235322  0.07337362  0.67195438  1.0
  C  C223  1  0.92662569  0.31764714  0.82804620  1.0
  C  C224  1  0.31787699  0.90035614  0.26791824  1.0
  C  C225  1  0.09964234  0.68212142  0.23208126  1.0
  C  C226  1  0.68212358  0.09964312  0.73208158  1.0
  C  C227  1  0.90035731  0.31787715  0.76791879  1.0
  N  N228  1  0.48868577  0.08681143  0.46860963  1.0
  N  N229  1  0.91319116  0.51131362  0.03139069  1.0
  N  N230  1  0.51131511  0.91318851  0.53139117  1.0
  N  N231  1  0.08681216  0.48868632  0.96860911  1.0
  N  N232  1  0.77389425  0.32853169  0.61824468  1.0
  N  N233  1  0.67146882  0.22610544  0.88175621  1.0
  N  N234  1  0.22610634  0.67147031  0.38175634  1.0
  N  N235  1  0.32853144  0.77389313  0.11824305  1.0
  N  N236  1  0.39550809  0.92146874  0.25037240  1.0
  N  N237  1  0.07853087  0.60449050  0.24962717  1.0
  N  N238  1  0.60449125  0.07852915  0.74962710  1.0
  N  N239  1  0.92146939  0.39550807  0.75037252  1.0
  O  O240  1  0.97252885  0.53115142  0.67346703  1.0
  O  O241  1  0.46884820  0.02747094  0.82653248  1.0
  O  O242  1  0.02747234  0.46884920  0.32653389  1.0
  O  O243  1  0.53114871  0.97252831  0.17346430  1.0
  O  O244  1  0.93658543  0.46300002  0.57449340  1.0
  O  O245  1  0.53699840  0.06341586  0.92550653  1.0
  O  O246  1  0.06341424  0.53700128  0.42550699  1.0
  O  O247  1  0.46299729  0.93658203  0.07449122  1.0
  O  O248  1  0.98387999  0.32957901  0.64061294  1.0
  O  O249  1  0.67042146  0.01611942  0.85938673  1.0
  O  O250  1  0.01612090  0.67042229  0.35938544  1.0
  O  O251  1  0.32957851  0.98388121  0.14061318  1.0
  O  O252  1  0.85866308  0.19639031  0.62754682  1.0
  O  O253  1  0.80360980  0.14133627  0.87245710  1.0
  O  O254  1  0.14133628  0.80361031  0.37245172  1.0
  O  O255  1  0.19638926  0.85866367  0.12754477  1.0
