# generated using pymatgen
data_Zn2H23C42N11O6
_symmetry_space_group_name_H-M   'P 1'
_cell_length_a   19.07044079
_cell_length_b   19.99308943
_cell_length_c   20.49586550
_cell_angle_alpha   105.86122313
_cell_angle_beta   104.73075935
_cell_angle_gamma   113.19907021
_symmetry_Int_Tables_number   1
_chemical_formula_structural   Zn2H23C42N11O6
_chemical_formula_sum   'Zn4 H46 C84 N22 O12'
_cell_volume   6303.79583054
_cell_formula_units_Z   2
loop_
 _symmetry_equiv_pos_site_id
 _symmetry_equiv_pos_as_xyz
  1  'x, y, z'
loop_
 _atom_site_type_symbol
 _atom_site_label
 _atom_site_symmetry_multiplicity
 _atom_site_fract_x
 _atom_site_fract_y
 _atom_site_fract_z
 _atom_site_occupancy
  Zn  Zn0  1  0.36404022  0.37963396  0.47579966  1.0
  Zn  Zn1  1  0.60517895  0.63649729  0.51489003  1.0
  Zn  Zn2  1  0.38785528  0.54000503  0.39050142  1.0
  Zn  Zn3  1  0.58347334  0.50374875  0.58556770  1.0
  H  H4  1  0.81925047  0.71711888  0.55747779  1.0
  H  H5  1  0.63675799  0.50315965  0.39169097  1.0
  H  H6  1  0.37736325  0.22139522  0.46348119  1.0
  H  H7  1  0.74064359  0.48658391  0.56793735  1.0
  H  H8  1  0.32028396  0.30863261  0.21076322  1.0
  H  H9  1  0.31546388  0.31492745  0.59994313  1.0
  H  H10  1  0.63530965  0.81290742  0.58033145  1.0
  H  H11  1  0.24794421  0.56184833  0.42535188  1.0
  H  H12  1  0.74934153  0.62793888  0.74062637  1.0
  H  H13  1  0.70408074  0.79051549  0.65740379  1.0
  H  H14  1  0.34506549  0.49869332  0.59927187  1.0
  H  H15  1  0.57290522  0.50430264  0.73388635  1.0
  H  H16  1  0.37098470  0.69588934  0.44509007  1.0
  H  H17  1  0.36644752  0.80433308  0.51111571  1.0
  H  H18  1  0.63610552  0.93525532  0.62316886  1.0
  H  H19  1  0.71283481  0.20934468  0.69166815  1.0
  H  H20  1  0.63895277  0.27064300  0.63364011  1.0
  H  H21  1  0.36949225  0.14088454  0.52279003  1.0
  H  H22  1  0.28874920  0.00338151  0.51312117  1.0
  H  H23  1  0.28739653  0.87814299  0.50887322  1.0
  H  H24  1  0.27216059  0.67962254  0.53518942  1.0
  H  H25  1  0.20870246  0.49832424  0.61914370  1.0
  H  H26  1  0.10828894  0.48131527  0.67873785  1.0
  H  H27  1  0.98631700  0.49395145  0.68590593  1.0
  H  H28  1  0.88415702  0.53739209  0.64372371  1.0
  H  H29  1  0.94546589  0.71692514  0.55727877  1.0
  H  H30  1  0.56059064  0.36582215  0.75972642  1.0
  H  H31  1  0.50968654  0.51960026  0.18575095  1.0
  H  H32  1  0.56593406  0.35129395  0.24792929  1.0
  H  H33  1  0.58046448  0.32113505  0.00288957  1.0
  H  H34  1  0.34950599  0.32916416  0.86494656  1.0
  H  H35  1  0.51635683  0.46586869  0.06598413  1.0
  H  H36  1  0.43203685  0.35023057  0.96848196  1.0
  H  H37  1  0.57274412  0.29726274  0.12701335  1.0
  H  H38  1  0.33041811  0.21097209  0.14987042  1.0
  H  H39  1  0.88340868  0.70438520  0.77720774  1.0
  H  H40  1  0.14357788  0.02048573  0.92505963  1.0
  H  H41  1  0.11694568  0.94415232  0.10949862  1.0
  H  H42  1  0.03076305  0.79633183  0.86071212  1.0
  H  H43  1  0.17447146  0.06011929  0.22865773  1.0
  H  H44  1  0.08944919  0.89023965  0.98329574  1.0
  H  H45  1  0.27068314  0.09674843  0.03063432  1.0
  H  H46  1  0.71176675  0.08419717  0.68752927  1.0
  H  H47  1  0.08492373  0.77989306  0.55313554  1.0
  H  H48  1  0.20611169  0.76634930  0.54495575  1.0
  H  H49  1  0.63776700  0.38112242  0.61142420  1.0
  C  C50  1  0.27659477  0.24123634  0.33118219  1.0
  C  C51  1  0.78671502  0.65812738  0.55642849  1.0
  C  C52  1  0.45912380  0.48556331  0.29825633  1.0
  C  C53  1  0.57338327  0.35165299  0.57136568  1.0
  C  C54  1  0.57720162  0.50002134  0.36796004  1.0
  C  C55  1  0.44056067  0.27132409  0.49545415  1.0
  C  C56  1  0.74647574  0.54102990  0.56284475  1.0
  C  C57  1  0.31163837  0.29576266  0.25716747  1.0
  C  C58  1  0.27747900  0.21997700  0.25921433  1.0
  C  C59  1  0.81827843  0.60990186  0.57493134  1.0
  C  C60  1  0.52428119  0.46972581  0.29290325  1.0
  C  C61  1  0.50687665  0.27486733  0.54875456  1.0
  C  C62  1  0.37829422  0.36579761  0.62347785  1.0
  C  C63  1  0.57028392  0.77188617  0.54224355  1.0
  C  C64  1  0.27863014  0.54156613  0.46130470  1.0
  C  C65  1  0.72551774  0.65764635  0.71170715  1.0
  C  C66  1  0.70223288  0.74071525  0.66980779  1.0
  C  C67  1  0.32764042  0.50892675  0.54976791  1.0
  C  C68  1  0.51039978  0.46164282  0.69067892  1.0
  C  C69  1  0.43563072  0.71243448  0.47366947  1.0
  C  C70  1  0.44482343  0.39811921  0.69243444  1.0
  C  C71  1  0.50276723  0.78615808  0.52982389  1.0
  C  C72  1  0.28423776  0.54899085  0.53251988  1.0
  C  C73  1  0.76536491  0.73766741  0.72034408  1.0
  C  C74  1  0.42554918  0.86090041  0.54222219  1.0
  C  C75  1  0.50170203  0.86076221  0.56111240  1.0
  C  C76  1  0.57645420  0.93407666  0.60523043  1.0
  C  C77  1  0.57731836  0.00732654  0.62255602  1.0
  C  C78  1  0.50031374  0.00678719  0.59458472  1.0
  C  C79  1  0.42316743  0.93250193  0.55787483  1.0
  C  C80  1  0.65354404  0.08321723  0.66174879  1.0
  C  C81  1  0.65413617  0.15235177  0.66399809  1.0
  C  C82  1  0.57864976  0.15144631  0.62725686  1.0
  C  C83  1  0.50095951  0.07853477  0.59690372  1.0
  C  C84  1  0.42455690  0.07662690  0.56254224  1.0
  C  C85  1  0.34725297  0.00336288  0.53506951  1.0
  C  C86  1  0.34662821  0.93421085  0.53282475  1.0
  C  C87  1  0.57892535  0.21682994  0.61441272  1.0
  C  C88  1  0.50479642  0.21201673  0.57266042  1.0
  C  C89  1  0.42796296  0.14373654  0.55153232  1.0
  C  C90  1  0.23570767  0.64750367  0.56089828  1.0
  C  C91  1  0.24317729  0.58340567  0.57091651  1.0
  C  C92  1  0.20155985  0.54676142  0.60942139  1.0
  C  C93  1  0.14402111  0.56547440  0.62886282  1.0
  C  C94  1  0.12858330  0.62337689  0.60958757  1.0
  C  C95  1  0.17894592  0.66829765  0.57934110  1.0
  C  C96  1  0.09357464  0.52248027  0.66056781  1.0
  C  C97  1  0.02623738  0.52955628  0.66452942  1.0
  C  C98  1  0.00376752  0.58050823  0.63747717  1.0
  C  C99  1  0.05893706  0.63109037  0.61413120  1.0
  C  C100  1  0.03942425  0.68427150  0.58916478  1.0
  C  C101  1  0.09721025  0.73592473  0.56795953  1.0
  C  C102  1  0.16410857  0.72830939  0.56334833  1.0
  C  C103  1  0.92743136  0.57835902  0.62834310  1.0
  C  C104  1  0.90382402  0.62411250  0.59628302  1.0
  C  C105  1  0.96218426  0.67973025  0.58079631  1.0
  C  C106  1  0.44839194  0.37174246  0.75207401  1.0
  C  C107  1  0.51459053  0.35994674  0.78340400  1.0
  C  C108  1  0.52314203  0.33973615  0.84367735  1.0
  C  C109  1  0.46726206  0.33241046  0.87913656  1.0
  C  C110  1  0.39654291  0.33646185  0.84225426  1.0
  C  C111  1  0.38793352  0.35552355  0.78182790  1.0
  C  C112  1  0.52476249  0.43894948  0.10483946  1.0
  C  C113  1  0.52169985  0.46964750  0.17251160  1.0
  C  C114  1  0.55514710  0.37665939  0.20807753  1.0
  C  C115  1  0.55870654  0.34599243  0.13976730  1.0
  C  C116  1  0.54037309  0.37442381  0.08561564  1.0
  C  C117  1  0.47832481  0.33792689  0.95371471  1.0
  C  C118  1  0.53629963  0.34093925  0.01073640  1.0
  C  C119  1  0.53453333  0.43770599  0.22469402  1.0
  C  C120  1  0.25176940  0.14614490  0.19672097  1.0
  C  C121  1  0.28147373  0.15306367  0.14069425  1.0
  C  C122  1  0.24840356  0.08833020  0.07338563  1.0
  C  C123  1  0.18457088  0.01246546  0.05908608  1.0
  C  C124  1  0.16369829  0.00320762  0.11842805  1.0
  C  C125  1  0.19544074  0.06850753  0.18548411  1.0
  C  C126  1  0.99233751  0.82009633  0.83880142  1.0
  C  C127  1  0.90854516  0.76843681  0.79295221  1.0
  C  C128  1  0.89320482  0.87726849  0.78027986  1.0
  C  C129  1  0.97911479  0.92895974  0.82220803  1.0
  C  C130  1  0.03012478  0.90330713  0.85854740  1.0
  C  C131  1  0.12879521  0.94858978  0.98512983  1.0
  C  C132  1  0.10914618  0.96096285  0.92267673  1.0
  C  C133  1  0.85407483  0.79549872  0.76538310  1.0
  N  N134  1  0.31027464  0.32218293  0.36614274  1.0
  N  N135  1  0.70339057  0.62037238  0.53577203  1.0
  N  N136  1  0.47364391  0.52067323  0.36980648  1.0
  N  N137  1  0.54704367  0.39034749  0.53507599  1.0
  N  N138  1  0.54524106  0.53094821  0.41308372  1.0
  N  N139  1  0.46395173  0.34088663  0.48819036  1.0
  N  N140  1  0.67781469  0.54786886  0.53952918  1.0
  N  N141  1  0.33132675  0.35551364  0.32092975  1.0
  N  N142  1  0.40392177  0.40649745  0.58407432  1.0
  N  N143  1  0.54502241  0.69557129  0.49723258  1.0
  N  N144  1  0.31580814  0.50045596  0.43789350  1.0
  N  N145  1  0.64714081  0.61731524  0.65938328  1.0
  N  N146  1  0.63205076  0.66800904  0.63195535  1.0
  N  N147  1  0.34754989  0.48083692  0.49343053  1.0
  N  N148  1  0.48507323  0.46655820  0.62529369  1.0
  N  N149  1  0.46082750  0.65887789  0.45459519  1.0
  N  N150  1  0.24961795  0.19796304  0.37243724  1.0
  N  N151  1  0.38303157  0.46989494  0.24628176  1.0
  N  N152  1  0.31444930  0.36465377  0.75312236  1.0
  N  N153  1  0.59442765  0.32719493  0.86875290  1.0
  N  N154  1  0.84133011  0.90871083  0.74832268  1.0
  N  N155  1  0.01522061  0.01354057  0.83405573  1.0
  O  O156  1  0.25945534  0.23809516  0.43725508  1.0
  O  O157  1  0.21888139  0.12391592  0.34610278  1.0
  O  O158  1  0.34051292  0.49719953  0.27232912  1.0
  O  O159  1  0.35887255  0.43126216  0.17919641  1.0
  O  O160  1  0.32762023  0.42941706  0.75051093  1.0
  O  O161  1  0.24500761  0.30689861  0.73490851  1.0
  O  O162  1  0.58629659  0.27831978  0.89676427  1.0
  O  O163  1  0.65744760  0.36455586  0.85888413  1.0
  O  O164  1  0.84751534  0.92132126  0.69348882  1.0
  O  O165  1  0.79282279  0.91572340  0.77583828  1.0
  O  O166  1  0.97582586  0.04805973  0.84824585  1.0
  O  O167  1  0.08312182  0.04438447  0.82919871  1.0
