# generated using pymatgen
data_AlH2C9BrNO7
_symmetry_space_group_name_H-M   'P 1'
_cell_length_a   6.64010311
_cell_length_b   16.23999786
_cell_length_c   18.10377751
_cell_angle_alpha   90.00015696
_cell_angle_beta   90.00091838
_cell_angle_gamma   92.46238190
_symmetry_Int_Tables_number   1
_chemical_formula_structural   AlH2C9BrNO7
_chemical_formula_sum   'Al4 H8 C36 Br4 N4 O28'
_cell_volume   1950.42296261
_cell_formula_units_Z   4
loop_
 _symmetry_equiv_pos_site_id
 _symmetry_equiv_pos_as_xyz
  1  'x, y, z'
loop_
 _atom_site_type_symbol
 _atom_site_label
 _atom_site_symmetry_multiplicity
 _atom_site_fract_x
 _atom_site_fract_y
 _atom_site_fract_z
 _atom_site_occupancy
  Al  Al0  1  0.73913939  0.28431488  0.75164872  1.0
  Al  Al1  1  0.26085084  0.71568107  0.25164846  1.0
  Al  Al2  1  0.23931414  0.28118985  0.75183464  1.0
  Al  Al3  1  0.76067900  0.71880427  0.25183263  1.0
  H  H4  1  0.20220822  0.17159191  0.95017754  1.0
  H  H5  1  0.72684859  0.80441110  0.02877146  1.0
  H  H6  1  0.79781487  0.82841732  0.45016992  1.0
  H  H7  1  0.27313100  0.19558583  0.52876737  1.0
  H  H8  1  0.49456466  0.38678586  0.72549122  1.0
  H  H9  1  0.50541527  0.61320991  0.22549367  1.0
  H  H10  1  0.97232673  0.18050052  0.72172728  1.0
  H  H11  1  0.02765449  0.81949463  0.22172603  1.0
  C  C12  1  0.49103372  0.18437338  0.85062949  1.0
  C  C13  1  0.52726681  0.81984058  0.15412435  1.0
  C  C14  1  0.50896923  0.81563041  0.35062196  1.0
  C  C15  1  0.47271416  0.18015433  0.65412514  1.0
  C  C16  1  0.99478087  0.38064737  0.65058111  1.0
  C  C17  1  0.99336675  0.62336508  0.35333792  1.0
  C  C18  1  0.00520417  0.61934263  0.15058533  1.0
  C  C19  1  0.00662992  0.37663189  0.85333616  1.0
  C  C20  1  0.00541664  0.42874160  0.91766313  1.0
  C  C21  1  0.99506590  0.56592140  0.08713153  1.0
  C  C22  1  0.99458439  0.57125132  0.41766587  1.0
  C  C23  1  0.00491338  0.43407388  0.58713267  1.0
  C  C24  1  0.99981150  0.47263824  0.97241904  1.0
  C  C25  1  0.99633126  0.52141142  0.03267489  1.0
  C  C26  1  0.00017721  0.52735662  0.47241914  1.0
  C  C27  1  0.00365143  0.47858370  0.53267723  1.0
  C  C28  1  0.47754426  0.12048362  0.91055168  1.0
  C  C29  1  0.52910615  0.88057654  0.09170320  1.0
  C  C30  1  0.52247545  0.87952605  0.41054272  1.0
  C  C31  1  0.47088254  0.11942129  0.59170108  1.0
  C  C32  1  0.66378911  0.91482701  0.97111178  1.0
  C  C33  1  0.28710037  0.06995001  0.01640678  1.0
  C  C34  1  0.33621361  0.08517720  0.47110374  1.0
  C  C35  1  0.71292305  0.93006016  0.51639744  1.0
  C  C36  1  0.64728102  0.86164565  0.02979542  1.0
  C  C37  1  0.31124064  0.12431014  0.95873179  1.0
  C  C38  1  0.35270625  0.13835319  0.52979326  1.0
  C  C39  1  0.68878136  0.87569911  0.45872426  1.0
  C  C40  1  0.42008247  0.95169100  0.09115670  1.0
  C  C41  1  0.60791514  0.05635979  0.91818240  1.0
  C  C42  1  0.57992291  0.04830944  0.59115333  1.0
  C  C43  1  0.39209734  0.94364862  0.41817456  1.0
  C  C44  1  0.41824916  0.00363003  0.02712525  1.0
  C  C45  1  0.56443257  0.99088731  0.96974062  1.0
  C  C46  1  0.58176560  0.99637765  0.52711869  1.0
  C  C47  1  0.43558238  0.00912130  0.46973238  1.0
  Br  Br48  1  0.85749697  0.05970383  0.86739974  1.0
  Br  Br49  1  0.30893864  0.98882054  0.18099847  1.0
  Br  Br50  1  0.14250685  0.94030125  0.36739112  1.0
  Br  Br51  1  0.69107257  0.01118025  0.68099339  1.0
  N  N52  1  0.76553075  0.88169952  0.90549863  1.0
  N  N53  1  0.09536457  0.07658312  0.05704144  1.0
  N  N54  1  0.23446271  0.11830315  0.40549235  1.0
  N  N55  1  0.90465776  0.92342657  0.55703476  1.0
  O  O56  1  0.30376174  0.20994921  0.66987172  1.0
  O  O57  1  0.67596136  0.80173490  0.31946204  1.0
  O  O58  1  0.69621529  0.79004265  0.16987009  1.0
  O  O59  1  0.32403817  0.19826136  0.81946651  1.0
  O  O60  1  0.66059141  0.21848261  0.83538565  1.0
  O  O61  1  0.35899597  0.80120598  0.18433304  1.0
  O  O62  1  0.33941389  0.78152238  0.33538100  1.0
  O  O63  1  0.64098492  0.19878842  0.68433699  1.0
  O  O64  1  0.84038396  0.36667808  0.81889252  1.0
  O  O65  1  0.18093253  0.64694055  0.16855335  1.0
  O  O66  1  0.15961876  0.63332190  0.31889925  1.0
  O  O67  1  0.81905486  0.35304892  0.66854979  1.0
  O  O68  1  0.49285187  0.33338592  0.74956403  1.0
  O  O69  1  0.50713819  0.66666667  0.24956496  1.0
  O  O70  1  0.16034882  0.36627335  0.68282463  1.0
  O  O71  1  0.82683729  0.65423797  0.33637475  1.0
  O  O72  1  0.83963035  0.63371857  0.18282449  1.0
  O  O73  1  0.17316463  0.34575960  0.83637602  1.0
  O  O74  1  0.98266227  0.23192591  0.74917027  1.0
  O  O75  1  0.01732476  0.76806877  0.24916663  1.0
  O  O76  1  0.67293243  0.88536216  0.84621629  1.0
  O  O77  1  0.92760371  0.84844641  0.91503460  1.0
  O  O78  1  0.98858468  0.01231237  0.06331371  1.0
  O  O79  1  0.04829782  0.14590558  0.07711622  1.0
  O  O80  1  0.32705366  0.11464024  0.34620938  1.0
  O  O81  1  0.07238871  0.15155629  0.41503029  1.0
  O  O82  1  0.01143946  0.98769736  0.56330960  1.0
  O  O83  1  0.95172555  0.85410542  0.57711238  1.0
