# generated using pymatgen
data_Al4H60C79Br2O25
_symmetry_space_group_name_H-M   'P 1'
_cell_length_a   6.64710676
_cell_length_b   20.59156474
_cell_length_c   23.93766101
_cell_angle_alpha   89.87441035
_cell_angle_beta   86.40577306
_cell_angle_gamma   89.22541106
_symmetry_Int_Tables_number   1
_chemical_formula_structural   Al4H60C79Br2O25
_chemical_formula_sum   'Al4 H60 C79 Br2 O25'
_cell_volume   3269.70489016
_cell_formula_units_Z   1
loop_
 _symmetry_equiv_pos_site_id
 _symmetry_equiv_pos_as_xyz
  1  'x, y, z'
loop_
 _atom_site_type_symbol
 _atom_site_label
 _atom_site_symmetry_multiplicity
 _atom_site_fract_x
 _atom_site_fract_y
 _atom_site_fract_z
 _atom_site_occupancy
  Al  Al0  1  0.12303106  0.50121234  0.50521375  1.0
  Al  Al1  1  0.62405911  0.49883422  0.50158674  1.0
  Al  Al2  1  0.67937081  0.99399762  0.99930440  1.0
  Al  Al3  1  0.17847618  0.99647443  0.00319673  1.0
  H  H4  1  0.02304653  0.62841346  0.65236234  1.0
  H  H5  1  0.60662268  0.69721899  0.53541835  1.0
  H  H6  1  0.61809762  0.86640439  0.67287404  1.0
  H  H7  1  0.11878777  0.78367632  0.97816781  1.0
  H  H8  1  0.85004425  0.87957982  0.84188360  1.0
  H  H9  1  0.11870979  0.63584024  0.72615676  1.0
  H  H10  1  0.65073501  0.15965679  0.76800147  1.0
  H  H11  1  0.61718743  0.23856747  0.69002627  1.0
  H  H12  1  0.16213080  0.33222383  0.73399905  1.0
  H  H13  1  0.19576255  0.25337918  0.81199063  1.0
  H  H14  1  0.69003680  0.73811722  0.31122941  1.0
  H  H15  1  0.70099544  0.81467737  0.23034354  1.0
  H  H16  1  0.11277149  0.75165903  0.18829475  1.0
  H  H17  1  0.10172572  0.67514743  0.26921305  1.0
  H  H18  1  0.27676522  0.28585254  0.48393353  1.0
  H  H19  1  0.36310959  0.12139417  0.34643933  1.0
  H  H20  1  0.40700747  0.32043422  0.05782445  1.0
  H  H21  1  0.39812828  0.21400636  0.00839382  1.0
  H  H22  1  0.42682245  0.11376735  0.16502386  1.0
  H  H23  1  0.40913357  0.38713525  0.24711084  1.0
  H  H24  1  0.41638449  0.11669190  0.24476730  1.0
  H  H25  1  0.49062307  0.66666667  0.84992840  1.0
  H  H26  1  0.51032988  0.63936003  0.77886332  1.0
  H  H27  1  0.45624415  0.55118573  0.88213615  1.0
  H  H28  1  0.48681082  0.52436513  0.81207123  1.0
  H  H29  1  0.83842476  0.57213480  0.80403022  1.0
  H  H30  1  0.81455185  0.51490078  0.85936261  1.0
  H  H31  1  0.80656035  0.59910362  0.87426104  1.0
  H  H32  1  0.59641079  0.46778831  0.11278320  1.0
  H  H33  1  0.65226423  0.43100792  0.17753578  1.0
  H  H34  1  0.27491085  0.51371206  0.15758307  1.0
  H  H35  1  0.33693446  0.48205210  0.22301581  1.0
  H  H36  1  0.65714885  0.54770840  0.21853808  1.0
  H  H37  1  0.44163253  0.59854292  0.21444475  1.0
  H  H38  1  0.59428359  0.58020787  0.15294041  1.0
  H  H39  1  0.67837102  0.43943461  0.26967711  1.0
  H  H40  1  0.73967399  0.35819587  0.28832040  1.0
  H  H41  1  0.77541094  0.47759246  0.36314660  1.0
  H  H42  1  0.85768011  0.39706700  0.37865116  1.0
  H  H43  1  0.10171087  0.39984460  0.29327723  1.0
  H  H44  1  0.15223439  0.46308702  0.33999706  1.0
  H  H45  1  0.02201749  0.48052128  0.27891485  1.0
  H  H46  1  0.09619367  0.09111174  0.44305634  1.0
  H  H47  1  0.05273304  0.14114246  0.38398982  1.0
  H  H48  1  0.93525476  0.17838944  0.50575182  1.0
  H  H49  1  0.87747032  0.22362916  0.44566436  1.0
  H  H50  1  0.67178867  0.13093399  0.41232545  1.0
  H  H51  1  0.58022214  0.15519192  0.47987515  1.0
  H  H52  1  0.73270145  0.08403585  0.47149921  1.0
  H  H53  1  0.48960831  0.86963719  0.82144464  1.0
  H  H54  1  0.43514528  0.89009327  0.75140820  1.0
  H  H55  1  0.60228548  0.98345708  0.83640416  1.0
  H  H56  1  0.55063933  0.00359797  0.76682390  1.0
  H  H57  1  0.18095030  0.97606297  0.78847706  1.0
  H  H58  1  0.25940995  0.03797458  0.83343530  1.0
  H  H59  1  0.23601252  0.95720482  0.85830353  1.0
  H  H60  1  0.36559532  0.48963141  0.57617794  1.0
  H  H61  1  0.90025007  0.46255844  0.43857742  1.0
  H  H62  1  0.43661732  0.01327715  0.92998343  1.0
  H  H63  1  0.90075546  0.03548587  0.06500395  1.0
  C  C64  1  0.37669238  0.57531979  0.42677961  1.0
  C  C65  1  0.39235560  0.40331398  0.44491680  1.0
  C  C66  1  0.86510800  0.42302090  0.58099516  1.0
  C  C67  1  0.84683848  0.59714472  0.55821738  1.0
  C  C68  1  0.98463219  0.83817816  0.91215420  1.0
  C  C69  1  0.82233021  0.65821429  0.59130180  1.0
  C  C70  1  0.11191507  0.72880290  0.90214559  1.0
  C  C71  1  0.07816780  0.78347211  0.93481468  1.0
  C  C72  1  0.92428341  0.83705850  0.85798090  1.0
  C  C73  1  0.96667409  0.78338005  0.82208775  1.0
  C  C74  1  0.07227026  0.72783899  0.84419881  1.0
  C  C75  1  0.90246524  0.78268434  0.76488741  1.0
  C  C76  1  0.95163949  0.72779208  0.73024529  1.0
  C  C77  1  0.07149983  0.67739034  0.75195878  1.0
  C  C78  1  0.12938389  0.67616573  0.80589856  1.0
  C  C79  1  0.78326334  0.83330846  0.74069043  1.0
  C  C80  1  0.70882000  0.82685964  0.68877855  1.0
  C  C81  1  0.74446802  0.77090052  0.65561750  1.0
  C  C82  1  0.87572602  0.72113712  0.67499330  1.0
  C  C83  1  0.65299099  0.76135606  0.60413457  1.0
  C  C84  1  0.68469565  0.70559160  0.57330512  1.0
  C  C85  1  0.91872482  0.66643570  0.64046385  1.0
  C  C86  1  0.74290788  0.24163522  0.71698990  1.0
  C  C87  1  0.88672936  0.29084114  0.70718219  1.0
  C  C88  1  0.05089376  0.29432791  0.74174464  1.0
  C  C89  1  0.06980114  0.25033035  0.78510920  1.0
  C  C90  1  0.92485730  0.20153362  0.79527141  1.0
  C  C91  1  0.76175017  0.19765564  0.76035163  1.0
  C  C92  1  0.86875988  0.33624498  0.66328408  1.0
  C  C93  1  0.93911715  0.15729673  0.84017495  1.0
  C  C94  1  0.94388938  0.11904312  0.87898823  1.0
  C  C95  1  0.85846632  0.37586192  0.62565710  1.0
  C  C96  1  0.57072419  0.78383592  0.23904071  1.0
  C  C97  1  0.40750133  0.78821108  0.20409967  1.0
  C  C98  1  0.23818516  0.74851682  0.21545581  1.0
  C  C99  1  0.23207998  0.70596265  0.26049766  1.0
  C  C100  1  0.39512536  0.70168461  0.29550526  1.0
  C  C101  1  0.56464306  0.74126477  0.28406358  1.0
  C  C102  1  0.41308304  0.83242949  0.15874990  1.0
  C  C103  1  0.38923006  0.65791771  0.34115810  1.0
  C  C104  1  0.38441793  0.62008792  0.38038030  1.0
  C  C105  1  0.41847702  0.87120623  0.12021507  1.0
  C  C106  1  0.41253761  0.15807526  0.08501798  1.0
  C  C107  1  0.38460807  0.34202472  0.41133934  1.0
  C  C108  1  0.40864373  0.27495260  0.08107639  1.0
  C  C109  1  0.40459957  0.21612295  0.05374545  1.0
  C  C110  1  0.42013159  0.15970719  0.14258497  1.0
  C  C111  1  0.41670120  0.21915229  0.17212239  1.0
  C  C112  1  0.41334922  0.27757866  0.14002351  1.0
  C  C113  1  0.41575197  0.22173544  0.23255796  1.0
  C  C114  1  0.41761063  0.28298799  0.25991810  1.0
  C  C115  1  0.41713689  0.34044652  0.22636558  1.0
  C  C116  1  0.41625167  0.33828101  0.16902048  1.0
  C  C117  1  0.40621959  0.16387467  0.26520069  1.0
  C  C118  1  0.37623711  0.16604071  0.32212527  1.0
  C  C119  1  0.36487987  0.22635298  0.35113397  1.0
  C  C120  1  0.40754055  0.28544498  0.32092152  1.0
  C  C121  1  0.31341535  0.22790453  0.40972629  1.0
  C  C122  1  0.31887278  0.28530157  0.43919433  1.0
  C  C123  1  0.43117176  0.34252178  0.35382605  1.0
  C  C124  1  0.41001280  0.09399452  0.05596353  1.0
  C  C125  1  0.42710813  0.91824295  0.07559603  1.0
  C  C126  1  0.95960691  0.89865943  0.94622732  1.0
  C  C127  1  0.93491897  0.07271219  0.92421335  1.0
  C  C128  1  0.45058903  0.62721924  0.82167189  1.0
  C  C129  1  0.53148632  0.56228140  0.84104265  1.0
  C  C130  1  0.75977782  0.56215650  0.84480380  1.0
  C  C131  1  0.52871117  0.44793291  0.15226315  1.0
  C  C132  1  0.40221093  0.50051840  0.18283879  1.0
  C  C133  1  0.53068176  0.55998977  0.19269506  1.0
  C  C134  1  0.69012155  0.40587439  0.30520858  1.0
  C  C135  1  0.83872996  0.43232525  0.34459477  1.0
  C  C136  1  0.03993877  0.44478996  0.31258758  1.0
  C  C137  1  0.07765503  0.14168745  0.42910280  1.0
  C  C138  1  0.90026409  0.17397993  0.46156453  1.0
  C  C139  1  0.71097433  0.13395061  0.45620038  1.0
  C  C140  1  0.53054662  0.90219555  0.78586229  1.0
  C  C141  1  0.50233535  0.97269452  0.80266787  1.0
  C  C142  1  0.28267567  0.98686110  0.82167097  1.0
  Br  Br143  1  0.47195626  0.82546783  0.57740272  1.0
  Br  Br144  1  0.20043545  0.65465653  0.94300425  1.0
  O  O145  1  0.56068455  0.42006853  0.46243444  1.0
  O  O146  1  0.20401135  0.56607272  0.45127259  1.0
  O  O147  1  0.01729571  0.56781472  0.55519898  1.0
  O  O148  1  0.22421167  0.43274573  0.45455634  1.0
  O  O149  1  0.04166092  0.43655676  0.56078384  1.0
  O  O150  1  0.54265971  0.54869728  0.43861486  1.0
  O  O151  1  0.36861838  0.50413347  0.53759517  1.0
  O  O152  1  0.69827355  0.44694511  0.56655547  1.0
  O  O153  1  0.68906301  0.57825840  0.53587068  1.0
  O  O154  1  0.88368059  0.49199807  0.47019844  1.0
  O  O155  1  0.26330148  0.94771490  0.06595955  1.0
  O  O156  1  0.57479246  0.06163755  0.05100926  1.0
  O  O157  1  0.75796557  0.05991268  0.94465908  1.0
  O  O158  1  0.59900456  0.92679181  0.05036649  1.0
  O  O159  1  0.79109848  0.92896625  0.94820311  1.0
  O  O160  1  0.24148128  0.07662248  0.03874657  1.0
  O  O161  1  0.43407885  0.99182788  0.96614533  1.0
  O  O162  1  0.11577776  0.91610745  0.97008349  1.0
  O  O163  1  0.10062656  0.04828264  0.93878546  1.0
  O  O164  1  0.91818051  0.00342004  0.03536354  1.0
  O  O165  1  0.23348547  0.62192595  0.82198154  1.0
  O  O166  1  0.41678647  0.39243081  0.13564688  1.0
  O  O167  1  0.48804545  0.40174482  0.33109992  1.0
  O  O168  1  0.26817743  0.17146381  0.43857274  1.0
  O  O169  1  0.74074961  0.89107468  0.76827983  1.0
