# generated using pymatgen
data_Zn2H21C37Br2N3O8
_symmetry_space_group_name_H-M   'P 1'
_cell_length_a   11.62669553
_cell_length_b   12.64077386
_cell_length_c   13.19257310
_cell_angle_alpha   88.90503737
_cell_angle_beta   83.79687795
_cell_angle_gamma   68.85997713
_symmetry_Int_Tables_number   1
_chemical_formula_structural   Zn2H21C37Br2N3O8
_chemical_formula_sum   'Zn2 H21 C37 Br2 N3 O8'
_cell_volume   1797.43185257
_cell_formula_units_Z   1
loop_
 _symmetry_equiv_pos_site_id
 _symmetry_equiv_pos_as_xyz
  1  'x, y, z'
loop_
 _atom_site_type_symbol
 _atom_site_label
 _atom_site_symmetry_multiplicity
 _atom_site_fract_x
 _atom_site_fract_y
 _atom_site_fract_z
 _atom_site_occupancy
  Zn  Zn0  1  0.09808683  0.53749070  0.49944976  1.0
  Zn  Zn1  1  0.89653703  0.46253356  0.50480509  1.0
  H  H2  1  0.08068890  0.13068571  0.61208279  1.0
  H  H3  1  0.79078523  0.33203396  0.37996143  1.0
  H  H4  1  0.44370854  0.86167948  0.70869964  1.0
  H  H5  1  0.64921371  0.57791954  0.60969270  1.0
  H  H6  1  0.23350381  0.95518959  0.67807757  1.0
  H  H7  1  0.90485264  0.80871255  0.33296780  1.0
  H  H8  1  0.53665374  0.03798538  0.30095392  1.0
  H  H9  1  0.75434819  0.95363460  0.23179869  1.0
  H  H10  1  0.84771846  0.54596440  0.18048410  1.0
  H  H11  1  0.63623513  0.78884529  0.74700666  1.0
  H  H12  1  0.86034570  0.75373033  0.73286544  1.0
  H  H13  1  0.24355275  0.41445369  0.17732736  1.0
  H  H14  1  0.76501790  0.90040609  0.75504564  1.0
  H  H15  1  0.83594025  0.84918546  0.63068504  1.0
  H  H16  1  0.75237753  0.57482634  0.01945047  1.0
  H  H17  1  0.26897981  0.39263114  0.98848998  1.0
  H  H18  1  0.77522445  0.56098315  0.82906676  1.0
  H  H19  1  0.34133948  0.43547087  0.39477643  1.0
  H  H20  1  0.20038360  0.66756623  0.63524273  1.0
  H  H21  1  0.57814718  0.34145941  0.34659755  1.0
  H  H22  1  0.41204553  0.66408789  0.66431130  1.0
  C  C23  1  0.97907263  0.49789001  0.70003445  1.0
  C  C24  1  0.77006976  0.82296842  0.46059212  1.0
  C  C25  1  0.04337592  0.48184758  0.18979461  1.0
  C  C26  1  0.85784930  0.71141717  0.49423471  1.0
  C  C27  1  0.97497778  0.49446158  0.81432787  1.0
  C  C28  1  0.84391039  0.54221943  0.97605719  1.0
  C  C29  1  0.85617476  0.53528881  0.87140568  1.0
  C  C30  1  0.07995106  0.45701068  0.86567908  1.0
  C  C31  1  0.07202007  0.46197697  0.97417472  1.0
  C  C32  1  0.95035108  0.50683547  0.02984671  1.0
  C  C33  1  0.93955916  0.51375712  0.13762701  1.0
  C  C34  1  0.55996326  0.96390079  0.44975051  1.0
  C  C35  1  0.16296249  0.43910713  0.13477651  1.0
  C  C36  1  0.17678432  0.42753882  0.03013761  1.0
  C  C37  1  0.59010387  0.39493058  0.40532734  1.0
  C  C38  1  0.02948723  0.49301677  0.30361127  1.0
  C  C39  1  0.70663175  0.38856827  0.42348971  1.0
  C  C40  1  0.62857074  0.52594090  0.55440098  1.0
  C  C41  1  0.50486461  0.53780284  0.54311075  1.0
  C  C42  1  0.48575176  0.47097585  0.46535086  1.0
  C  C43  1  0.36202507  0.48386516  0.45312961  1.0
  C  C44  1  0.28402981  0.61546105  0.58834555  1.0
  C  C45  1  0.64711848  0.88098651  0.50777816  1.0
  C  C46  1  0.40031148  0.61161791  0.60461461  1.0
  C  C47  1  0.12930707  0.28379752  0.49794067  1.0
  C  C48  1  0.26235334  0.00185206  0.61624821  1.0
  C  C49  1  0.21817853  0.16439751  0.50787074  1.0
  C  C50  1  0.80951637  0.85403359  0.36508815  1.0
  C  C51  1  0.72516374  0.93409533  0.30901380  1.0
  C  C52  1  0.60251739  0.98378511  0.34924937  1.0
  C  C53  1  0.79155540  0.82759030  0.70121153  1.0
  C  C54  1  0.43016546  0.01890576  0.49190183  1.0
  C  C55  1  0.38950630  0.96566198  0.57872693  1.0
  C  C56  1  0.47819090  0.88637605  0.63502472  1.0
  C  C57  1  0.60451583  0.85611128  0.61027742  1.0
  C  C58  1  0.34032101  0.12136213  0.46155537  1.0
  C  C59  1  0.17796348  0.09877150  0.58089297  1.0
  Br  Br60  1  0.23991280  0.39178323  0.79012453  1.0
  Br  Br61  1  0.37565876  0.21381660  0.35341851  1.0
  N  N62  1  0.26608806  0.55253971  0.51267905  1.0
  N  N63  1  0.72446445  0.45406665  0.49695706  1.0
  N  N64  1  0.68396086  0.80048740  0.68123282  1.0
  O  O65  1  0.04414024  0.54990208  0.65458884  1.0
  O  O66  1  0.91351727  0.45213719  0.65956650  1.0
  O  O67  1  0.97330787  0.69593677  0.48259551  1.0
  O  O68  1  0.81146037  0.63761997  0.52259338  1.0
  O  O69  1  0.11923297  0.50411236  0.34433955  1.0
  O  O70  1  0.92873661  0.49136099  0.35094350  1.0
  O  O71  1  0.17024607  0.36163958  0.51478877  1.0
  O  O72  1  0.01829191  0.29843760  0.48242855  1.0
