# generated using pymatgen
data_CuH13(C4O)5
_symmetry_space_group_name_H-M   'P 1'
_cell_length_a   12.35138614
_cell_length_b   15.89522281
_cell_length_c   30.65317725
_cell_angle_alpha   90.00014286
_cell_angle_beta   90.00015599
_cell_angle_gamma   67.16130229
_symmetry_Int_Tables_number   1
_chemical_formula_structural   CuH13(C4O)5
_chemical_formula_sum   'Cu4 H52 C80 O20'
_cell_volume   5546.26802504
_cell_formula_units_Z   4
loop_
 _symmetry_equiv_pos_site_id
 _symmetry_equiv_pos_as_xyz
  1  'x, y, z'
loop_
 _atom_site_type_symbol
 _atom_site_label
 _atom_site_symmetry_multiplicity
 _atom_site_fract_x
 _atom_site_fract_y
 _atom_site_fract_z
 _atom_site_occupancy
  Cu  Cu0  1  0.10864625  0.45613025  0.00000101  1.0
  Cu  Cu1  1  0.89137666  0.54386596  0.99999973  1.0
  Cu  Cu2  1  0.56474834  0.54389861  0.49999950  1.0
  Cu  Cu3  1  0.43524269  0.45610306  0.50000025  1.0
  H  H4  1  0.87782556  0.84823915  0.15823139  1.0
  H  H5  1  0.12217379  0.15176072  0.15823433  1.0
  H  H6  1  0.72613763  0.15187851  0.34165122  1.0
  H  H7  1  0.27384982  0.84812332  0.34165511  1.0
  H  H8  1  0.12217766  0.15175433  0.84176641  1.0
  H  H9  1  0.87782832  0.84823822  0.84176738  1.0
  H  H10  1  0.27385280  0.84812111  0.65834561  1.0
  H  H11  1  0.72614363  0.15187835  0.65834954  1.0
  H  H12  1  0.97340607  0.93812250  0.18381221  1.0
  H  H13  1  0.02658514  0.06188428  0.18381232  1.0
  H  H14  1  0.91142840  0.06202117  0.31626662  1.0
  H  H15  1  0.08856383  0.93798535  0.31626716  1.0
  H  H16  1  0.02658534  0.06188327  0.81618788  1.0
  H  H17  1  0.97341067  0.93812080  0.81618842  1.0
  H  H18  1  0.08856545  0.93798459  0.68373282  1.0
  H  H19  1  0.91142959  0.06202450  0.68373260  1.0
  H  H20  1  0.22924047  0.64955882  0.17848841  1.0
  H  H21  1  0.77076149  0.35045068  0.17848927  1.0
  H  H22  1  0.87898000  0.35067380  0.32158770  1.0
  H  H23  1  0.12101774  0.64932661  0.32158281  1.0
  H  H24  1  0.77076565  0.35044831  0.82151135  1.0
  H  H25  1  0.22924368  0.64955509  0.82151212  1.0
  H  H26  1  0.12101839  0.64932446  0.67841597  1.0
  H  H27  1  0.87898509  0.35067575  0.67841075  1.0
  H  H28  1  0.85833953  0.76191428  0.09306548  1.0
  H  H29  1  0.14166438  0.23807719  0.09306497  1.0
  H  H30  1  0.62022715  0.23810144  0.40680368  1.0
  H  H31  1  0.37975241  0.76189924  0.40680790  1.0
  H  H32  1  0.14166893  0.23807033  0.90693525  1.0
  H  H33  1  0.85833858  0.76191356  0.90693348  1.0
  H  H34  1  0.37975911  0.76189681  0.59319380  1.0
  H  H35  1  0.62023120  0.23810107  0.59319708  1.0
  H  H36  1  0.20873881  0.56425849  0.11295353  1.0
  H  H37  1  0.79127382  0.43573850  0.11295192  1.0
  H  H38  1  0.77286922  0.43592862  0.38708466  1.0
  H  H39  1  0.22712430  0.56406654  0.38708010  1.0
  H  H40  1  0.79128200  0.43573704  0.88704883  1.0
  H  H41  1  0.20873695  0.56425771  0.88704784  1.0
  H  H42  1  0.22712441  0.56406622  0.61291868  1.0
  H  H43  1  0.77286809  0.43593240  0.61291476  1.0
  H  H44  1  0.15795276  0.68360530  0.24998669  1.0
  H  H45  1  0.84205183  0.31639828  0.24998889  1.0
  H  H46  1  0.84206051  0.31640047  0.75001111  1.0
  H  H47  1  0.15795160  0.68360612  0.75001283  1.0
  H  H48  1  0.30140085  0.32122966  0.02522223  1.0
  H  H49  1  0.69860160  0.67876705  0.02522148  1.0
  H  H50  1  0.62292452  0.67881331  0.47478266  1.0
  H  H51  1  0.37706741  0.32118623  0.47478415  1.0
  H  H52  1  0.69859964  0.67876928  0.97477786  1.0
  H  H53  1  0.30139727  0.32123189  0.97477828  1.0
  H  H54  1  0.37707550  0.32118495  0.52521938  1.0
  H  H55  1  0.62292256  0.67881271  0.52521691  1.0
  C  C56  1  0.01914986  0.60375935  0.06091187  1.0
  C  C57  1  0.98086775  0.39622859  0.06091041  1.0
  C  C58  1  0.62278213  0.39625116  0.43907460  1.0
  C  C59  1  0.37720024  0.60374757  0.43907515  1.0
  C  C60  1  0.98087872  0.39622389  0.93908952  1.0
  C  C61  1  0.01914515  0.60376010  0.93908870  1.0
  C  C62  1  0.37719825  0.60374914  0.56092418  1.0
  C  C63  1  0.62278095  0.39625273  0.56092559  1.0
  C  C64  1  0.02515916  0.94951595  0.25004779  1.0
  C  C65  1  0.97483214  0.05048831  0.25004718  1.0
  C  C66  1  0.97483294  0.05048845  0.74995099  1.0
  C  C67  1  0.02516319  0.94951609  0.74995192  1.0
  C  C68  1  0.05471271  0.75482884  0.17310525  1.0
  C  C69  1  0.94528965  0.24517654  0.17310910  1.0
  C  C70  1  0.80967674  0.24533915  0.32686960  1.0
  C  C71  1  0.19031656  0.75466537  0.32687046  1.0
  C  C72  1  0.94529289  0.24517283  0.82689125  1.0
  C  C73  1  0.05471263  0.75482854  0.82689457  1.0
  C  C74  1  0.19031536  0.75466525  0.67312951  1.0
  C  C75  1  0.80968308  0.24534176  0.67312930  1.0
  C  C76  1  0.03227619  0.65761154  0.09905804  1.0
  C  C77  1  0.96772631  0.34238609  0.09905812  1.0
  C  C78  1  0.68974216  0.34250791  0.40090172  1.0
  C  C79  1  0.31024568  0.65749070  0.40090227  1.0
  C  C80  1  0.96773776  0.34237990  0.90094270  1.0
  C  C81  1  0.03227751  0.65760943  0.90094229  1.0
  C  C82  1  0.31024422  0.65749171  0.59909673  1.0
  C  C83  1  0.68974339  0.34251165  0.59909847  1.0
  C  C84  1  0.95110670  0.78640029  0.14813260  1.0
  C  C85  1  0.04889810  0.21359340  0.14813717  1.0
  C  C86  1  0.73750168  0.21376026  0.35176897  1.0
  C  C87  1  0.26248860  0.78624092  0.35177277  1.0
  C  C88  1  0.04890296  0.21358841  0.85186227  1.0
  C  C89  1  0.95110836  0.78640008  0.85186682  1.0
  C  C90  1  0.26249349  0.78623799  0.64822752  1.0
  C  C91  1  0.73750498  0.21376212  0.64823155  1.0
  C  C92  1  0.01722572  0.90089155  0.21288782  1.0
  C  C93  1  0.98276588  0.09911806  0.21289185  1.0
  C  C94  1  0.91825427  0.09917814  0.28718852  1.0
  C  C95  1  0.08173640  0.90082624  0.28718880  1.0
  C  C96  1  0.98276688  0.09911831  0.78710769  1.0
  C  C97  1  0.01722706  0.90089112  0.78711149  1.0
  C  C98  1  0.08173539  0.90082626  0.71281059  1.0
  C  C99  1  0.91825561  0.09918157  0.71281063  1.0
  C  C100  1  0.14731343  0.67410192  0.16001786  1.0
  C  C101  1  0.85268507  0.32590614  0.16001910  1.0
  C  C102  1  0.82159281  0.32605680  0.34002033  1.0
  C  C103  1  0.17839996  0.67394571  0.34001912  1.0
  C  C104  1  0.85268748  0.32590589  0.83998157  1.0
  C  C105  1  0.14731213  0.67410099  0.83998228  1.0
  C  C106  1  0.17839984  0.67394487  0.65998139  1.0
  C  C107  1  0.82159699  0.32605869  0.65997868  1.0
  C  C108  1  0.93957271  0.73813908  0.11181724  1.0
  C  C109  1  0.06043049  0.26185245  0.11181765  1.0
  C  C110  1  0.67772884  0.26192721  0.38810615  1.0
  C  C111  1  0.32225876  0.73807819  0.38810767  1.0
  C  C112  1  0.06043717  0.26184757  0.88818285  1.0
  C  C113  1  0.93957571  0.73813830  0.88818211  1.0
  C  C114  1  0.32226381  0.73807446  0.61189295  1.0
  C  C115  1  0.67772873  0.26192894  0.61189470  1.0
  C  C116  1  0.06473505  0.80516382  0.21239387  1.0
  C  C117  1  0.93525937  0.19483691  0.21239537  1.0
  C  C118  1  0.87020106  0.19490713  0.28763125  1.0
  C  C119  1  0.12979805  0.80509657  0.28763179  1.0
  C  C120  1  0.93526510  0.19483580  0.78760458  1.0
  C  C121  1  0.06473536  0.80516544  0.78760766  1.0
  C  C122  1  0.12979577  0.80509590  0.71236851  1.0
  C  C123  1  0.87020725  0.19491056  0.71236732  1.0
  C  C124  1  0.13671852  0.62641436  0.12330711  1.0
  C  C125  1  0.86327882  0.37358744  0.12330451  1.0
  C  C126  1  0.76310179  0.37372767  0.37670331  1.0
  C  C127  1  0.23689564  0.62627087  0.37669852  1.0
  C  C128  1  0.86328756  0.37358799  0.87669558  1.0
  C  C129  1  0.13671937  0.62641286  0.87669296  1.0
  C  C130  1  0.23689418  0.62627059  0.62330134  1.0
  C  C131  1  0.76309841  0.37373285  0.62329798  1.0
  C  C132  1  0.12073779  0.75807562  0.25000759  1.0
  C  C133  1  0.87926496  0.24193001  0.25001039  1.0
  C  C134  1  0.87927041  0.24193219  0.74998955  1.0
  C  C135  1  0.12073906  0.75807644  0.74999328  1.0
  O  O136  1  0.11253204  0.54050365  0.04675054  1.0
  O  O137  1  0.88748634  0.45948903  0.04674971  1.0
  O  O138  1  0.65304868  0.45944803  0.45328036  1.0
  O  O139  1  0.34693811  0.54055826  0.45327884  1.0
  O  O140  1  0.88749900  0.45948437  0.95325052  1.0
  O  O141  1  0.11253098  0.54050377  0.95325102  1.0
  O  O142  1  0.34693835  0.54055841  0.54671972  1.0
  O  O143  1  0.65304742  0.45944955  0.54671994  1.0
  O  O144  1  0.91534547  0.62416108  0.04592186  1.0
  O  O145  1  0.08467333  0.37582751  0.04592212  1.0
  O  O146  1  0.53933204  0.37587804  0.45404613  1.0
  O  O147  1  0.46065850  0.62412075  0.45404700  1.0
  O  O148  1  0.08468507  0.37582148  0.95407561  1.0
  O  O149  1  0.91534198  0.62416120  0.95407731  1.0
  O  O150  1  0.46065874  0.62412090  0.54595297  1.0
  O  O151  1  0.53933239  0.37587956  0.54595536  1.0
  O  O152  1  0.30455789  0.35755551  0.00000040  1.0
  O  O153  1  0.69545794  0.64243866  0.99999936  1.0
  O  O154  1  0.66221669  0.64238434  0.49999995  1.0
  O  O155  1  0.33777708  0.35761186  0.50000275  1.0
