# generated using pymatgen
data_Zn4H20(C8O5)5
_symmetry_space_group_name_H-M   'P 1'
_cell_length_a   23.84308720
_cell_length_b   23.84335136
_cell_length_c   23.84172707
_cell_angle_alpha   66.45349494
_cell_angle_beta   72.52434197
_cell_angle_gamma   107.47204599
_symmetry_Int_Tables_number   1
_chemical_formula_structural   Zn4H20(C8O5)5
_chemical_formula_sum   'Zn8 H40 C80 O50'
_cell_volume   10393.73403590
_cell_formula_units_Z   2
loop_
 _symmetry_equiv_pos_site_id
 _symmetry_equiv_pos_as_xyz
  1  'x, y, z'
loop_
 _atom_site_type_symbol
 _atom_site_label
 _atom_site_symmetry_multiplicity
 _atom_site_fract_x
 _atom_site_fract_y
 _atom_site_fract_z
 _atom_site_occupancy
  Zn  Zn0  1  0.05663804  0.09930776  0.45731979  1.0
  Zn  Zn1  1  0.05663904  0.95732843  0.48602861  1.0
  Zn  Zn2  1  0.94335669  0.95731961  0.59931943  1.0
  Zn  Zn3  1  0.94337224  0.98604440  0.45731500  1.0
  Zn  Zn4  1  0.94336145  0.40069162  0.04268015  1.0
  Zn  Zn5  1  0.05664572  0.54268132  0.90067943  1.0
  Zn  Zn6  1  0.94336091  0.54266992  0.01396722  1.0
  Zn  Zn7  1  0.05662485  0.51395692  0.04268480  1.0
  H  H8  1  0.92279296  0.20765932  0.90203349  1.0
  H  H9  1  0.07718801  0.40203048  0.70763500  1.0
  H  H10  1  0.92280058  0.09797100  0.79236529  1.0
  H  H11  1  0.07713983  0.29235276  0.59795214  1.0
  H  H12  1  0.07721362  0.67520359  0.21511953  1.0
  H  H13  1  0.92281326  0.71517525  0.17514924  1.0
  H  H14  1  0.07714656  0.78479481  0.32487948  1.0
  H  H15  1  0.92279973  0.82483274  0.28484406  1.0
  H  H16  1  0.60968013  0.20765444  0.21518008  1.0
  H  H17  1  0.60967324  0.40203209  0.17514760  1.0
  H  H18  1  0.39032592  0.09796832  0.32486107  1.0
  H  H19  1  0.39032018  0.29233120  0.28489492  1.0
  H  H20  1  0.39033004  0.71521115  0.70764755  1.0
  H  H21  1  0.39031361  0.67514833  0.90205482  1.0
  H  H22  1  0.60968836  0.82486446  0.59794524  1.0
  H  H23  1  0.60967061  0.78486426  0.79233934  1.0
  H  H24  1  0.91923378  0.08228307  0.33695390  1.0
  H  H25  1  0.08076819  0.41771928  0.16304360  1.0
  H  H26  1  0.91923059  0.25618660  0.16304767  1.0
  H  H27  1  0.08077318  0.24381680  0.33694636  1.0
  H  H28  1  0.91922875  0.83694556  0.74383037  1.0
  H  H29  1  0.08077037  0.66305383  0.75616906  1.0
  H  H30  1  0.91923244  0.66303837  0.91773539  1.0
  H  H31  1  0.08076872  0.83696258  0.58226281  1.0
  H  H32  1  0.91968429  0.29143514  0.99409680  1.0
  H  H33  1  0.08030833  0.49409981  0.79140457  1.0
  H  H34  1  0.91968734  0.00590271  0.70859485  1.0
  H  H35  1  0.08025977  0.20857848  0.50588860  1.0
  H  H36  1  0.08032584  0.58625671  0.12822357  1.0
  H  H37  1  0.91970003  0.62829525  0.08619012  1.0
  H  H38  1  0.08025783  0.87167533  0.41383814  1.0
  H  H39  1  0.91968559  0.91378119  0.37173747  1.0
  H  H40  1  0.78552076  0.29143234  0.12829113  1.0
  H  H41  1  0.78551345  0.49410203  0.08619308  1.0
  H  H42  1  0.21448718  0.00589681  0.41381158  1.0
  H  H43  1  0.21447867  0.20855330  0.37178331  1.0
  H  H44  1  0.21449102  0.62832063  0.79142537  1.0
  H  H45  1  0.21447559  0.58619255  0.99412586  1.0
  H  H46  1  0.78552753  0.91381607  0.50587215  1.0
  H  H47  1  0.78551061  0.87175217  0.70856017  1.0
  C  C48  1  0.18408672  0.09203246  0.40796728  1.0
  C  C49  1  0.99999735  0.86008502  0.63991623  1.0
  C  C50  1  0.99998709  0.09203726  0.59204465  1.0
  C  C51  1  0.81591705  0.90797208  0.59202142  1.0
  C  C52  1  0.00000585  0.13991637  0.36008061  1.0
  C  C53  1  0.99998760  0.90794485  0.40796501  1.0
  C  C54  1  0.99999891  0.40796579  0.90795153  1.0
  C  C55  1  0.00000537  0.63991645  0.86008130  1.0
  C  C56  1  0.81591286  0.40796220  0.09204732  1.0
  C  C57  1  0.99999561  0.59205442  0.09203282  1.0
  C  C58  1  0.99999495  0.36008442  0.13991661  1.0
  C  C59  1  0.18408351  0.59204906  0.90797281  1.0
  C  C60  1  0.00000288  0.19583495  0.30416542  1.0
  C  C61  1  0.99999937  0.30416897  0.19583095  1.0
  C  C62  1  0.95613204  0.17927590  0.27685892  1.0
  C  C63  1  0.04386978  0.32072803  0.22313674  1.0
  C  C64  1  0.95613247  0.23299378  0.22313991  1.0
  C  C65  1  0.04387095  0.26701171  0.27685423  1.0
  C  C66  1  0.99999953  0.80416853  0.69583208  1.0
  C  C67  1  0.00000295  0.69583242  0.80416488  1.0
  C  C68  1  0.95613149  0.77685455  0.76701746  1.0
  C  C69  1  0.04386987  0.72314588  0.73298089  1.0
  C  C70  1  0.95613170  0.72313615  0.82073439  1.0
  C  C71  1  0.04387054  0.77686428  0.67926243  1.0
  C  C72  1  0.99999327  0.37168005  0.87166139  1.0
  C  C73  1  0.95619622  0.29795782  0.90820356  1.0
  C  C74  1  0.95649770  0.26346830  0.87295200  1.0
  C  C75  1  0.99999202  0.30078137  0.80076915  1.0
  C  C76  1  0.04348696  0.37295608  0.76344924  1.0
  C  C77  1  0.04378971  0.40821272  0.79793320  1.0
  C  C78  1  0.99999636  0.26530630  0.76528499  1.0
  C  C79  1  0.99998830  0.23471192  0.73469676  1.0
  C  C80  1  0.99997222  0.19922695  0.69922353  1.0
  C  C81  1  0.95648990  0.12704857  0.73654788  1.0
  C  C82  1  0.95618617  0.09179455  0.70206275  1.0
  C  C83  1  0.99996775  0.12832985  0.62833037  1.0
  C  C84  1  0.04374741  0.20205581  0.59178238  1.0
  C  C85  1  0.04344926  0.23654113  0.62703838  1.0
  C  C86  1  0.00001674  0.62836837  0.12829498  1.0
  C  C87  1  0.04381726  0.63563014  0.15821704  1.0
  C  C88  1  0.04351129  0.67057402  0.19301378  1.0
  C  C89  1  0.00001056  0.69924720  0.19920323  1.0
  C  C90  1  0.95651468  0.69306866  0.17052288  1.0
  C  C91  1  0.95621793  0.65829094  0.13555986  1.0
  C  C92  1  0.00000117  0.73471706  0.23469182  1.0
  C  C93  1  0.99999291  0.76529474  0.26529614  1.0
  C  C94  1  0.99997610  0.80075521  0.30079322  1.0
  C  C95  1  0.04345329  0.80691237  0.32949441  1.0
  C  C96  1  0.04374692  0.84168904  0.36445837  1.0
  C  C97  1  0.99996725  0.87163301  0.37170184  1.0
  C  C98  1  0.95618285  0.86438897  0.34176284  1.0
  C  C99  1  0.95648989  0.82944456  0.30696725  1.0
  C  C100  1  0.74333631  0.37167542  0.12833463  1.0
  C  C101  1  0.70615394  0.29795358  0.15827416  1.0
  C  C102  1  0.63641352  0.26346511  0.19306164  1.0
  C  C103  1  0.60155071  0.30077829  0.19922938  1.0
  C  C104  1  0.63640827  0.37295522  0.17053403  1.0
  C  C105  1  0.70614818  0.40821137  0.13557830  1.0
  C  C106  1  0.53059085  0.26529173  0.23471311  1.0
  C  C107  1  0.46940829  0.23469246  0.26531333  1.0
  C  C108  1  0.39845126  0.19921578  0.30080445  1.0
  C  C109  1  0.36359144  0.12704255  0.32948684  1.0
  C  C110  1  0.29385072  0.09178274  0.36444763  1.0
  C  C111  1  0.25666265  0.12831499  0.37171037  1.0
  C  C112  1  0.29384718  0.20203573  0.34179076  1.0
  C  C113  1  0.36358696  0.23652474  0.30699780  1.0
  C  C114  1  0.25666159  0.62835149  0.87168386  1.0
  C  C115  1  0.29385418  0.65830263  0.79795208  1.0
  C  C116  1  0.36359431  0.69308665  0.76346538  1.0
  C  C117  1  0.39845122  0.69924497  0.80078557  1.0
  C  C118  1  0.36358674  0.67054684  0.87296875  1.0
  C  C119  1  0.29384647  0.63558988  0.90822511  1.0
  C  C120  1  0.46940792  0.73471903  0.76529769  1.0
  C  C121  1  0.53059093  0.76531361  0.73469039  1.0
  C  C122  1  0.60155038  0.80079548  0.69920822  1.0
  C  C123  1  0.63641681  0.82948264  0.62702629  1.0
  C  C124  1  0.70615873  0.86444221  0.59176840  1.0
  C  C125  1  0.74333952  0.87169836  0.62830677  1.0
  C  C126  1  0.70614963  0.84176442  0.70203676  1.0
  C  C127  1  0.63641011  0.80697413  0.73652577  1.0
  O  O128  1  0.99999809  0.99999758  0.49999911  1.0
  O  O129  1  0.15237343  0.12704929  0.41303371  1.0
  O  O130  1  0.04014442  0.88405485  0.57580361  1.0
  O  O131  1  0.95990799  0.02530679  0.62706680  1.0
  O  O132  1  0.15237515  0.02530874  0.43458390  1.0
  O  O133  1  0.04008406  0.12705147  0.52531048  1.0
  O  O134  1  0.95985059  0.88404401  0.65610106  1.0
  O  O135  1  0.84762459  0.91303943  0.62704335  1.0
  O  O136  1  0.95986371  0.07581140  0.38404441  1.0
  O  O137  1  0.84763276  0.93460440  0.52528959  1.0
  O  O138  1  0.04015013  0.15609305  0.38404363  1.0
  O  O139  1  0.04008193  0.91302201  0.43459920  1.0
  O  O140  1  0.95991222  0.93460169  0.41302189  1.0
  O  O141  1  0.00000007  0.50000116  0.99999994  1.0
  O  O142  1  0.95990517  0.37294950  0.97468563  1.0
  O  O143  1  0.04015053  0.61595590  0.84389798  1.0
  O  O144  1  0.84762412  0.47468910  0.06540730  1.0
  O  O145  1  0.04009877  0.47469309  0.87293158  1.0
  O  O146  1  0.84762751  0.37294640  0.08698133  1.0
  O  O147  1  0.95986078  0.61594818  0.92419339  1.0
  O  O148  1  0.95989441  0.58696475  0.06540867  1.0
  O  O149  1  0.04013227  0.42418941  0.11595760  1.0
  O  O150  1  0.04007798  0.56540647  0.08696743  1.0
  O  O151  1  0.95985551  0.34390774  0.11594961  1.0
  O  O152  1  0.15237736  0.58697807  0.87294940  1.0
  O  O153  1  0.15236425  0.56539484  0.97470980  1.0
  O  O154  1  0.91309774  0.11345227  0.29965325  1.0
  O  O155  1  0.08690511  0.38655009  0.20034104  1.0
  O  O156  1  0.91309949  0.21275289  0.20034957  1.0
  O  O157  1  0.08690609  0.28725156  0.29964348  1.0
  O  O158  1  0.91309887  0.79964445  0.78726589  1.0
  O  O159  1  0.08690253  0.70035702  0.71273329  1.0
  O  O160  1  0.91309850  0.70034018  0.88656683  1.0
  O  O161  1  0.08690286  0.79966025  0.61343109  1.0
  O  O162  1  0.91335869  0.25920681  0.97731732  1.0
  O  O163  1  0.08662989  0.47732032  0.75917329  1.0
  O  O164  1  0.91336070  0.02268169  0.74082493  1.0
  O  O165  1  0.08657520  0.24081049  0.52266590  1.0
  O  O166  1  0.08666484  0.60937369  0.15411430  1.0
  O  O167  1  0.91337905  0.65420490  0.10929049  1.0
  O  O168  1  0.08657381  0.84576152  0.39074136  1.0
  O  O169  1  0.91335521  0.89067048  0.34583913  1.0
  O  O170  1  0.73651156  0.25920150  0.15419873  1.0
  O  O171  1  0.73650407  0.47732178  0.10929356  1.0
  O  O172  1  0.26349808  0.02267654  0.39071378  1.0
  O  O173  1  0.26348701  0.24077940  0.34589841  1.0
  O  O174  1  0.26350159  0.65423520  0.75919339  1.0
  O  O175  1  0.26348479  0.60929639  0.97734481  1.0
  O  O176  1  0.73651762  0.89071640  0.52265470  1.0
  O  O177  1  0.73650193  0.84585116  0.74079248  1.0
