# generated using pymatgen
data_ZnH12C15N3O4
_symmetry_space_group_name_H-M   'P 1'
_cell_length_a   11.14705497
_cell_length_b   14.06900082
_cell_length_c   15.26377341
_cell_angle_alpha   93.19411963
_cell_angle_beta   90.74163237
_cell_angle_gamma   92.77575948
_symmetry_Int_Tables_number   1
_chemical_formula_structural   ZnH12C15N3O4
_chemical_formula_sum   'Zn2 H24 C30 N6 O8'
_cell_volume   2386.96925448
_cell_formula_units_Z   2
loop_
 _symmetry_equiv_pos_site_id
 _symmetry_equiv_pos_as_xyz
  1  'x, y, z'
loop_
 _atom_site_type_symbol
 _atom_site_label
 _atom_site_symmetry_multiplicity
 _atom_site_fract_x
 _atom_site_fract_y
 _atom_site_fract_z
 _atom_site_occupancy
  Zn  Zn0  1  0.49201292  0.39450797  0.49904368  1.0
  Zn  Zn1  1  0.49764206  0.59685887  0.51227095  1.0
  H  H2  1  0.31213155  0.23451145  0.46695143  1.0
  H  H3  1  0.67647838  0.25220694  0.52106120  1.0
  H  H4  1  0.08035238  0.41489768  0.52627148  1.0
  H  H5  1  0.90171305  0.45357453  0.46181610  1.0
  H  H6  1  0.57028681  0.36258129  0.93885994  1.0
  H  H7  1  0.45265984  0.35547332  0.05678958  1.0
  H  H8  1  0.55639322  0.35968842  0.77567852  1.0
  H  H9  1  0.45620618  0.35334511  0.21979538  1.0
  H  H10  1  0.43458610  0.64441157  0.78989448  1.0
  H  H11  1  0.56683688  0.64996519  0.23976279  1.0
  H  H12  1  0.44235907  0.64720904  0.95340362  1.0
  H  H13  1  0.56715169  0.65302203  0.07657688  1.0
  H  H14  1  0.63221033  0.94627393  0.60026483  1.0
  H  H15  1  0.35668509  0.91509838  0.39713858  1.0
  H  H16  1  0.30371605  0.05580961  0.46610696  1.0
  H  H17  1  0.68513391  0.07434103  0.52294398  1.0
  H  H18  1  0.21510524  0.65700660  0.53952246  1.0
  H  H19  1  0.07765326  0.71087827  0.55413206  1.0
  H  H20  1  0.96062133  0.64366208  0.67444779  1.0
  H  H21  1  0.81488220  0.62101605  0.63782279  1.0
  H  H22  1  0.66666667  0.69130284  0.59624645  1.0
  H  H23  1  0.71525361  0.80261863  0.63908902  1.0
  H  H24  1  0.32841440  0.65757686  0.41036462  1.0
  H  H25  1  0.28143212  0.75801557  0.36042201  1.0
  C  C26  1  0.48780592  0.50020824  0.67496105  1.0
  C  C27  1  0.50882139  0.49827995  0.33744380  1.0
  C  C28  1  0.50639798  0.50481885  0.95809196  1.0
  C  C29  1  0.50949419  0.50448688  0.05475917  1.0
  C  C30  1  0.57204575  0.90304501  0.55569864  1.0
  C  C31  1  0.41638899  0.88576653  0.44458947  1.0
  C  C32  1  0.57101263  0.80319038  0.55707296  1.0
  C  C33  1  0.41743625  0.78611666  0.45011951  1.0
  C  C34  1  0.49406305  0.94457506  0.49839119  1.0
  C  C35  1  0.38885237  0.09611197  0.47784652  1.0
  C  C36  1  0.59997337  0.10656742  0.51103511  1.0
  C  C37  1  0.39215492  0.19496366  0.47821967  1.0
  C  C38  1  0.59650904  0.20501857  0.50985424  1.0
  C  C39  1  0.49427945  0.04941357  0.49537537  1.0
  C  C40  1  0.73230126  0.49664345  0.51660371  1.0
  C  C41  1  0.25728849  0.48085934  0.50559853  1.0
  C  C42  1  0.07092840  0.56481630  0.54467641  1.0
  C  C43  1  0.93967529  0.56242703  0.56021987  1.0
  C  C44  1  0.12942280  0.48324213  0.52340938  1.0
  C  C45  1  0.86338202  0.50206829  0.51058176  1.0
  C  C46  1  0.53833086  0.42406575  0.90661213  1.0
  C  C47  1  0.47965507  0.42002130  0.09651389  1.0
  C  C48  1  0.53179409  0.42225908  0.81550783  1.0
  C  C49  1  0.48052963  0.41843377  0.18741214  1.0
  C  C50  1  0.49415265  0.50169941  0.77303461  1.0
  C  C51  1  0.51122697  0.50138274  0.23961608  1.0
  C  C52  1  0.46377236  0.58305552  0.82363431  1.0
  C  C53  1  0.54189828  0.58588185  0.19885456  1.0
  C  C54  1  0.46948628  0.58444502  0.91482425  1.0
  C  C55  1  0.54103305  0.58730646  0.10767235  1.0
  N  N56  1  0.49354935  0.74535783  0.50612921  1.0
  N  N57  1  0.49416629  0.24852737  0.49427005  1.0
  N  N58  1  0.12752979  0.65298756  0.55809737  1.0
  N  N59  1  0.90321769  0.62972788  0.62258147  1.0
  N  N60  1  0.64716075  0.76072139  0.61139458  1.0
  N  N61  1  0.34229273  0.72800092  0.39837508  1.0
  O  O62  1  0.50874787  0.42221000  0.63285702  1.0
  O  O63  1  0.47776169  0.41891425  0.36840095  1.0
  O  O64  1  0.46262208  0.57790668  0.64099386  1.0
  O  O65  1  0.53690683  0.57552619  0.38284264  1.0
  O  O66  1  0.67720111  0.41973623  0.48729339  1.0
  O  O67  1  0.30694076  0.40128945  0.50829799  1.0
  O  O68  1  0.67844606  0.56969410  0.54951719  1.0
  O  O69  1  0.31564384  0.55993271  0.48849955  1.0
