# generated using pymatgen
data_Zn2H7C22Br7(NO4)2
_symmetry_space_group_name_H-M   'P 1'
_cell_length_a   9.96976899
_cell_length_b   11.19297498
_cell_length_c   16.14498739
_cell_angle_alpha   89.29653082
_cell_angle_beta   88.55519151
_cell_angle_gamma   89.19403766
_symmetry_Int_Tables_number   1
_chemical_formula_structural   Zn2H7C22Br7(NO4)2
_chemical_formula_sum   'Zn2 H7 C22 Br7 N2 O8'
_cell_volume   1800.76225460
_cell_formula_units_Z   1
loop_
 _symmetry_equiv_pos_site_id
 _symmetry_equiv_pos_as_xyz
  1  'x, y, z'
loop_
 _atom_site_type_symbol
 _atom_site_label
 _atom_site_symmetry_multiplicity
 _atom_site_fract_x
 _atom_site_fract_y
 _atom_site_fract_z
 _atom_site_occupancy
  Zn  Zn0  1  0.63539585  0.50760257  0.49791123  1.0
  Zn  Zn1  1  0.35654180  0.49323588  0.50553368  1.0
  H  H2  1  0.85967762  0.44710871  0.60478330  1.0
  H  H3  1  0.11476952  0.49410000  0.44375074  1.0
  H  H4  1  0.29135056  0.60844553  0.05625935  1.0
  H  H5  1  0.10248400  0.47299404  0.62476423  1.0
  H  H6  1  0.29103213  0.40447581  0.95276224  1.0
  H  H7  1  0.69339360  0.39872494  0.94877934  1.0
  H  H8  1  0.63611623  0.09866336  0.50452686  1.0
  C  C9  1  0.48806693  0.73245690  0.49464716  1.0
  C  C10  1  0.54218850  0.13988372  0.52653331  1.0
  C  C11  1  0.46866681  0.93612077  0.56000980  1.0
  C  C12  1  0.48404646  0.49201539  0.34063303  1.0
  C  C13  1  0.47226000  0.86657963  0.49279523  1.0
  C  C14  1  0.91948537  0.48399254  0.55258012  1.0
  C  C15  1  0.06622858  0.48155167  0.56139347  1.0
  C  C16  1  0.53446413  0.27155746  0.51653498  1.0
  C  C17  1  0.48894547  0.51134438  0.66410678  1.0
  C  C18  1  0.49155396  0.61783475  0.97568082  1.0
  C  C19  1  0.37971161  0.56071975  0.03176685  1.0
  C  C20  1  0.48981327  0.50087407  0.08834531  1.0
  C  C21  1  0.48644417  0.49301222  0.25104989  1.0
  C  C22  1  0.49281797  0.51233658  0.75359348  1.0
  C  C23  1  0.60306546  0.55658617  0.02933428  1.0
  C  C24  1  0.60364887  0.44510014  0.97252117  1.0
  C  C25  1  0.49269060  0.50488371  0.91653550  1.0
  C  C26  1  0.49096255  0.38881390  0.02836055  1.0
  C  C27  1  0.37972922  0.44877896  0.97505479  1.0
  C  C28  1  0.48768838  0.49684698  0.17566444  1.0
  C  C29  1  0.49385665  0.50882468  0.82899123  1.0
  C  C30  1  0.44970569  0.06587751  0.55970728  1.0
  Br  Br31  1  0.44828464  0.92818804  0.38408161  1.0
  Br  Br32  1  0.91819946  0.59781170  0.39786328  1.0
  Br  Br33  1  0.49148476  0.77944047  0.93799548  1.0
  Br  Br34  1  0.49126096  0.22622805  0.06519578  1.0
  Br  Br35  1  0.75984348  0.63200452  0.06694934  1.0
  Br  Br36  1  0.28266642  0.11644759  0.60864731  1.0
  Br  Br37  1  0.48670422  0.86116668  0.66643776  1.0
  N  N38  1  0.84535112  0.52440521  0.49429733  1.0
  N  N39  1  0.15345360  0.48639005  0.50205126  1.0
  O  O40  1  0.60676094  0.69076834  0.49168188  1.0
  O  O41  1  0.37934468  0.67523315  0.49759782  1.0
  O  O42  1  0.59790324  0.49583371  0.37475458  1.0
  O  O43  1  0.36947819  0.48818040  0.37690238  1.0
  O  O44  1  0.64697644  0.32492869  0.51098596  1.0
  O  O45  1  0.41913254  0.32091240  0.51290255  1.0
  O  O46  1  0.60174134  0.51540016  0.62505556  1.0
  O  O47  1  0.37338033  0.50537160  0.63276265  1.0
