# generated using pymatgen
data_Al2H9C24S2Cl(O5F)2
_symmetry_space_group_name_H-M   'P 1'
_cell_length_a   6.65498269
_cell_length_b   12.66304479
_cell_length_c   17.71771836
_cell_angle_alpha   90.70108713
_cell_angle_beta   100.65693414
_cell_angle_gamma   104.11701706
_symmetry_Int_Tables_number   1
_chemical_formula_structural   Al2H9C24S2Cl(O5F)2
_chemical_formula_sum   'Al2 H9 C24 S2 Cl1 O10 F2'
_cell_volume   1420.46786896
_cell_formula_units_Z   1
loop_
 _symmetry_equiv_pos_site_id
 _symmetry_equiv_pos_as_xyz
  1  'x, y, z'
loop_
 _atom_site_type_symbol
 _atom_site_label
 _atom_site_symmetry_multiplicity
 _atom_site_fract_x
 _atom_site_fract_y
 _atom_site_fract_z
 _atom_site_occupancy
  Al  Al0  1  0.00404018  0.50679005  0.50051619  1.0
  Al  Al1  1  0.50292106  0.50368945  0.50017253  1.0
  H  H2  1  0.34136930  0.60937065  0.57679638  1.0
  H  H3  1  0.67491169  0.38380440  0.44221922  1.0
  H  H4  1  0.84768501  0.56760786  0.26957291  1.0
  H  H5  1  0.77076682  0.55376801  0.12558978  1.0
  H  H6  1  0.43927978  0.48546248  0.27048556  1.0
  H  H7  1  0.55648011  0.50906225  0.73180422  1.0
  H  H8  1  0.15274338  0.43359918  0.73000250  1.0
  H  H9  1  0.22314638  0.43541913  0.87370428  1.0
  H  H10  1  0.23562894  0.85791451  0.55258799  1.0
  C  C11  1  0.83937339  0.70046166  0.50603876  1.0
  C  C12  1  0.81953531  0.48268884  0.63727998  1.0
  C  C13  1  0.16305445  0.30928501  0.49306358  1.0
  C  C14  1  0.18426716  0.52447741  0.36412654  1.0
  C  C15  1  0.14622825  0.52658178  0.27862925  1.0
  C  C16  1  0.95957639  0.54734513  0.23762641  1.0
  C  C17  1  0.91715328  0.53992501  0.15777900  1.0
  C  C18  1  0.06019655  0.51115559  0.11630896  1.0
  C  C19  1  0.24891365  0.49417755  0.15946756  1.0
  C  C20  1  0.29391506  0.50125821  0.23890981  1.0
  C  C21  1  0.01555356  0.49760049  0.03541194  1.0
  C  C22  1  0.97490440  0.48454099  0.96541548  1.0
  C  C23  1  0.93172189  0.47464219  0.88441187  1.0
  C  C24  1  0.74326156  0.49280105  0.84194896  1.0
  C  C25  1  0.70174778  0.49230717  0.76260991  1.0
  C  C26  1  0.85277030  0.47275577  0.72219326  1.0
  C  C27  1  0.03846701  0.44996018  0.76240501  1.0
  C  C28  1  0.07724466  0.45054268  0.84212234  1.0
  C  C29  1  0.89651587  0.12013660  0.46813833  1.0
  C  C30  1  0.09918451  0.88802880  0.52845946  1.0
  C  C31  1  0.09514198  0.19019401  0.49409738  1.0
  C  C32  1  0.90002566  0.81979616  0.50384173  1.0
  C  C33  1  0.09695136  0.99791651  0.51699256  1.0
  C  C34  1  0.89645024  0.01038887  0.48213967  1.0
  S  S35  1  0.28206125  0.12131189  0.53382174  1.0
  S  S36  1  0.70922689  0.88770671  0.46590911  1.0
  Cl  Cl37  1  0.67644015  0.15535032  0.42075241  1.0
  O  O38  1  0.98839791  0.65256093  0.52246427  1.0
  O  O39  1  0.64983188  0.50718474  0.60521199  1.0
  O  O40  1  0.36212594  0.35209279  0.50739872  1.0
  O  O41  1  0.04277401  0.54348062  0.39812965  1.0
  O  O42  1  0.01951087  0.36069367  0.47837422  1.0
  O  O43  1  0.35310895  0.49975558  0.39657705  1.0
  O  O44  1  0.64219715  0.65433217  0.49161345  1.0
  O  O45  1  0.96595137  0.46965266  0.60352810  1.0
  O  O46  1  0.29354714  0.54949476  0.53808553  1.0
  O  O47  1  0.71413763  0.45881659  0.46308577  1.0
  F  F48  1  0.39044728  0.46789921  0.12076138  1.0
  F  F49  1  0.59881830  0.51426651  0.88130006  1.0
