# generated using pymatgen
data_Zn4H34C76N16(ClF)5
_symmetry_space_group_name_H-M   'P 1'
_cell_length_a   14.62965803
_cell_length_b   16.86249140
_cell_length_c   18.41719955
_cell_angle_alpha   67.11284555
_cell_angle_beta   69.25736066
_cell_angle_gamma   82.14980729
_symmetry_Int_Tables_number   1
_chemical_formula_structural   Zn4H34C76N16(ClF)5
_chemical_formula_sum   'Zn4 H34 C76 N16 Cl5 F5'
_cell_volume   3914.37856789
_cell_formula_units_Z   1
loop_
 _symmetry_equiv_pos_site_id
 _symmetry_equiv_pos_as_xyz
  1  'x, y, z'
loop_
 _atom_site_type_symbol
 _atom_site_label
 _atom_site_symmetry_multiplicity
 _atom_site_fract_x
 _atom_site_fract_y
 _atom_site_fract_z
 _atom_site_occupancy
  Zn  Zn0  1  0.38499053  0.10810690  0.99409474  1.0
  Zn  Zn1  1  0.64708889  0.90998742  0.99619380  1.0
  Zn  Zn2  1  0.48584296  0.98212527  0.88783459  1.0
  Zn  Zn3  1  0.52416970  0.02111020  0.10950364  1.0
  H  H4  1  0.20717067  0.99515237  0.13204494  1.0
  H  H5  1  0.82080213  0.03742701  0.87010968  1.0
  H  H6  1  0.45603009  0.10617712  0.70627405  1.0
  H  H7  1  0.67658900  0.00909721  0.21036161  1.0
  H  H8  1  0.83941421  0.85144057  0.06972105  1.0
  H  H9  1  0.34685590  0.27566928  0.84415775  1.0
  H  H10  1  0.68874428  0.16585248  0.02457012  1.0
  H  H11  1  0.61344776  0.12982550  0.73557432  1.0
  H  H12  1  0.94877006  0.08913764  0.74233236  1.0
  H  H13  1  0.73614925  0.18232363  0.61470884  1.0
  H  H14  1  0.78696566  0.22615826  0.46226140  1.0
  H  H15  1  0.91304545  0.22756339  0.33017920  1.0
  H  H16  1  0.29472378  0.10316390  0.38017464  1.0
  H  H17  1  0.12468875  0.08413116  0.66119836  1.0
  H  H18  1  0.49460134  0.37110007  0.70135603  1.0
  H  H19  1  0.35291209  0.24174898  0.60894406  1.0
  H  H20  1  0.32959482  0.31711062  0.47117309  1.0
  H  H21  1  0.34179388  0.44958915  0.34691347  1.0
  H  H22  1  0.39116969  0.60354738  0.26663580  1.0
  H  H23  1  0.57189491  0.65235959  0.49016593  1.0
  H  H24  1  0.55603204  0.52070886  0.61603441  1.0
  H  H25  1  0.68688258  0.60717126  0.96186015  1.0
  H  H26  1  0.71514829  0.45218051  0.02162966  1.0
  H  H27  1  0.63388814  0.57452950  0.72241390  1.0
  H  H28  1  0.69054801  0.30606201  0.03116146  1.0
  H  H29  1  0.62581904  0.41198876  0.80052795  1.0
  H  H30  1  0.82438769  0.67121953  0.22064468  1.0
  H  H31  1  0.39228270  0.06157639  0.27814643  1.0
  H  H32  1  0.77945955  0.83630860  0.35997275  1.0
  H  H33  1  0.03211270  0.64988367  0.17513047  1.0
  H  H34  1  0.86498963  0.94588879  0.22710058  1.0
  H  H35  1  0.18813961  0.73102801  0.10603288  1.0
  H  H36  1  0.20152340  0.17922131  0.13093266  1.0
  H  H37  1  0.50098823  0.29118550  0.87535265  1.0
  C  C38  1  0.24729246  0.96290726  0.08940652  1.0
  C  C39  1  0.47465689  0.75592497  0.22994671  1.0
  C  C40  1  0.64083693  0.75534223  0.85868766  1.0
  C  C41  1  0.26629467  0.13021598  0.23519521  1.0
  C  C42  1  0.53977340  0.24748747  0.91582474  1.0
  C  C43  1  0.75812015  0.05373647  0.84850164  1.0
  C  C44  1  0.42758901  0.13593488  0.75272835  1.0
  C  C45  1  0.70578366  0.97468917  0.16783430  1.0
  C  C46  1  0.78829695  0.89364184  0.09674636  1.0
  C  C47  1  0.37366517  0.22228088  0.82311589  1.0
  C  C48  1  0.63458174  0.18430745  0.99306151  1.0
  C  C49  1  0.52386031  0.76759781  0.14576537  1.0
  C  C50  1  0.65251212  0.10051807  0.77992259  1.0
  C  C51  1  0.61691533  0.26454441  0.93648740  1.0
  C  C52  1  0.75258490  0.10266857  0.76844104  1.0
  C  C53  1  0.40702221  0.22286668  0.74148135  1.0
  C  C54  1  0.78787625  0.92120430  0.15944767  1.0
  C  C55  1  0.93041219  0.11496605  0.68491152  1.0
  C  C56  1  0.83232855  0.13181491  0.68872437  1.0
  C  C57  1  0.81141272  0.16695101  0.61354838  1.0
  C  C58  1  0.88392589  0.17764426  0.53643845  1.0
  C  C59  1  0.98225092  0.15416921  0.53383947  1.0
  C  C60  1  0.56906863  0.81981149  0.84637850  1.0
  C  C61  1  0.00568155  0.12543450  0.60903887  1.0
  C  C62  1  0.86178516  0.20651725  0.46031697  1.0
  C  C63  1  0.93126929  0.20740965  0.38722069  1.0
  C  C64  1  0.02923824  0.18015745  0.38443240  1.0
  C  C65  1  0.05509821  0.15542364  0.45816362  1.0
  C  C66  1  0.15329487  0.12924240  0.45512864  1.0
  C  C67  1  0.17518346  0.10638222  0.53121336  1.0
  C  C68  1  0.10522153  0.10398949  0.60469175  1.0
  C  C69  1  0.10102200  0.17383838  0.31267666  1.0
  C  C70  1  0.19636666  0.14448548  0.30842556  1.0
  C  C71  1  0.35712326  0.08856338  0.23079130  1.0
  C  C72  1  0.22088932  0.12466000  0.38096865  1.0
  C  C73  1  0.46674232  0.37214656  0.65322696  1.0
  C  C74  1  0.42096002  0.29844006  0.66402179  1.0
  C  C75  1  0.38898852  0.29878321  0.60055144  1.0
  C  C76  1  0.39887745  0.37221928  0.52775424  1.0
  C  C77  1  0.44354440  0.44769816  0.51796530  1.0
  C  C78  1  0.47927307  0.44676655  0.58120792  1.0
  C  C79  1  0.36331345  0.37504367  0.46349605  1.0
  C  C80  1  0.37019340  0.44835789  0.39474097  1.0
  C  C81  1  0.41393520  0.52528338  0.38350946  1.0
  C  C82  1  0.68396023  0.78269532  0.90205509  1.0
  C  C83  1  0.45145349  0.52365942  0.44598334  1.0
  C  C84  1  0.49663057  0.59851185  0.43674632  1.0
  C  C85  1  0.53554389  0.59539195  0.49913228  1.0
  C  C86  1  0.52674658  0.52241208  0.56850670  1.0
  C  C87  1  0.42055704  0.60177291  0.31404638  1.0
  C  C88  1  0.46345476  0.67656856  0.30386482  1.0
  C  C89  1  0.50103224  0.67227647  0.36559805  1.0
  C  C90  1  0.65649390  0.67300737  0.84711649  1.0
  C  C91  1  0.65281064  0.34939374  0.91760118  1.0
  C  C92  1  0.69618679  0.44317795  0.97308484  1.0
  C  C93  1  0.25947239  0.14780862  0.15586771  1.0
  C  C94  1  0.68314957  0.36196527  0.97796368  1.0
  C  C95  1  0.64587618  0.42062015  0.84875899  1.0
  C  C96  1  0.65848901  0.50524892  0.84206975  1.0
  C  C97  1  0.67994346  0.51695877  0.90752695  1.0
  C  C98  1  0.67712509  0.60034036  0.90855586  1.0
  C  C99  1  0.64631746  0.65983282  0.77868448  1.0
  C  C100  1  0.64567926  0.57984339  0.77559688  1.0
  C  C101  1  0.79221444  0.74840902  0.29723775  1.0
  C  C102  1  0.12286228  0.85138956  0.11264604  1.0
  C  C103  1  0.03225223  0.71790919  0.16548508  1.0
  C  C104  1  0.44870296  0.84086067  0.22510367  1.0
  C  C105  1  0.11972499  0.76383481  0.12577086  1.0
  C  C106  1  0.03189468  0.89235617  0.13755431  1.0
  C  C107  1  0.94412793  0.84669896  0.18254064  1.0
  C  C108  1  0.94516396  0.75723989  0.19715475  1.0
  C  C109  1  0.84799173  0.71440126  0.24195287  1.0
  C  C110  1  0.79346925  0.82385238  0.30318158  1.0
  C  C111  1  0.84724040  0.89040588  0.21717104  1.0
  C  C112  1  0.30185911  0.88143188  0.01540891  1.0
  C  C113  1  0.21697894  0.89582240  0.07544474  1.0
  N  N114  1  0.34030315  0.98562553  0.04068312  1.0
  N  N115  1  0.66873941  0.02361559  0.90187091  1.0
  N  N116  1  0.40978111  0.08769378  0.83452728  1.0
  N  N117  1  0.66005424  0.97811775  0.11492618  1.0
  N  N118  1  0.71143361  0.92801129  0.07015109  1.0
  N  N119  1  0.37498441  0.14168842  0.87840902  1.0
  N  N120  1  0.57161997  0.12543910  0.00523061  1.0
  N  N121  1  0.60368157  0.05218373  0.85964679  1.0
  N  N122  1  0.52819112  0.85155796  0.09571462  1.0
  N  N123  1  0.57076843  0.87741758  0.87982838  1.0
  N  N124  1  0.39997137  0.08163209  0.15595421  1.0
  N  N125  1  0.64376699  0.85344298  0.91549218  1.0
  N  N126  1  0.33955500  0.11892436  0.10902064  1.0
  N  N127  1  0.48045736  0.89742640  0.14574337  1.0
  N  N128  1  0.37454904  0.93478929  0.99396527  1.0
  N  N129  1  0.51326377  0.16435300  0.95817833  1.0
  Cl  Cl130  1  0.57705087  0.68906922  0.10741266  1.0
  Cl  Cl131  1  0.29471024  0.07928607  0.52987872  1.0
  Cl  Cl132  1  0.48337053  0.83129400  0.80002437  1.0
  Cl  Cl133  1  0.02803993  0.00388900  0.10988831  1.0
  Cl  Cl134  1  0.38313790  0.87307073  0.30583692  1.0
  F  F135  1  0.07410819  0.19552873  0.24322115  1.0
  F  F136  1  0.54650126  0.74309538  0.35538022  1.0
  F  F137  1  0.63663878  0.73044130  0.71267246  1.0
  F  F138  1  0.75849842  0.74561959  0.93032262  1.0
  F  F139  1  0.31512787  0.82382145  0.97859436  1.0
