# generated using pymatgen
data_Zn4H32C40N12O13
_symmetry_space_group_name_H-M   'P 1'
_cell_length_a   23.81299439
_cell_length_b   23.81252814
_cell_length_c   23.81167549
_cell_angle_alpha   112.90957232
_cell_angle_beta   107.78474320
_cell_angle_gamma   107.77849955
_symmetry_Int_Tables_number   1
_chemical_formula_structural   Zn4H32C40N12O13
_chemical_formula_sum   'Zn8 H64 C80 N24 O26'
_cell_volume   10365.43213124
_cell_formula_units_Z   2
loop_
 _symmetry_equiv_pos_site_id
 _symmetry_equiv_pos_as_xyz
  1  'x, y, z'
loop_
 _atom_site_type_symbol
 _atom_site_label
 _atom_site_symmetry_multiplicity
 _atom_site_fract_x
 _atom_site_fract_y
 _atom_site_fract_z
 _atom_site_occupancy
  Zn  Zn0  1  0.94270672  0.90028195  0.45669330  1.0
  Zn  Zn1  1  0.94271622  0.04242155  0.48598824  1.0
  Zn  Zn2  1  0.05729077  0.04328521  0.59972106  1.0
  Zn  Zn3  1  0.05728126  0.01401029  0.45757283  1.0
  Zn  Zn4  1  0.05642906  0.59974370  0.04242790  1.0
  Zn  Zn5  1  0.94356725  0.45757038  0.90026515  1.0
  Zn  Zn6  1  0.05642783  0.45674269  0.01401020  1.0
  Zn  Zn7  1  0.94357111  0.48601567  0.04328023  1.0
  H  H8  1  0.06589046  0.72973403  0.96573585  1.0
  H  H9  1  0.93404411  0.53417186  0.77020957  1.0
  H  H10  1  0.08454243  0.96179731  0.72480108  1.0
  H  H11  1  0.91552468  0.77513059  0.53809228  1.0
  H  H12  1  0.93405940  0.39988640  0.16381703  1.0
  H  H13  1  0.06591706  0.33621749  0.10013822  1.0
  H  H14  1  0.91549997  0.14036589  0.37735004  1.0
  H  H15  1  0.08451635  0.12269517  0.35968258  1.0
  H  H16  1  0.26300156  0.72490490  0.14037928  1.0
  H  H17  1  0.26299437  0.53821990  0.12271670  1.0
  H  H18  1  0.73609047  0.96581659  0.39989438  1.0
  H  H19  1  0.73600966  0.77024683  0.33622800  1.0
  H  H20  1  0.73699060  0.35963200  0.77511815  1.0
  H  H21  1  0.73702141  0.37732056  0.96182523  1.0
  H  H22  1  0.26393478  0.10012237  0.53420002  1.0
  H  H23  1  0.26398062  0.16383569  0.72976537  1.0
  H  H24  1  0.08103181  0.92515098  0.33127451  1.0
  H  H25  1  0.08978436  0.89297127  0.25812853  1.0
  H  H26  1  0.90616880  0.57489030  0.15591999  1.0
  H  H27  1  0.86518527  0.60705999  0.19683782  1.0
  H  H28  1  0.09385164  0.74975996  0.16872143  1.0
  H  H29  1  0.13483427  0.83167058  0.24185892  1.0
  H  H30  1  0.91896050  0.75028096  0.34409473  1.0
  H  H31  1  0.91020626  0.66837667  0.30319112  1.0
  H  H32  1  0.08101927  0.15588683  0.74976043  1.0
  H  H33  1  0.08980031  0.19682779  0.83167531  1.0
  H  H34  1  0.90615142  0.33128090  0.75023466  1.0
  H  H35  1  0.86517541  0.25815472  0.66833080  1.0
  H  H36  1  0.09383340  0.34409309  0.92515465  1.0
  H  H37  1  0.13482651  0.30317761  0.89299261  1.0
  H  H38  1  0.91895551  0.16870604  0.57485272  1.0
  H  H39  1  0.91021123  0.24185898  0.60701876  1.0
  H  H40  1  0.94205530  0.61365637  0.66748810  1.0
  H  H41  1  0.91137064  0.53779195  0.66492992  1.0
  H  H42  1  0.05799670  0.83242044  0.88620608  1.0
  H  H43  1  0.08861524  0.83497324  0.96206801  1.0
  H  H44  1  0.89487413  0.67925221  0.62459545  1.0
  H  H45  1  0.86358603  0.67671813  0.54879439  1.0
  H  H46  1  0.10527422  0.87526441  0.82064625  1.0
  H  H47  1  0.13647680  0.95112007  0.82326307  1.0
  H  H48  1  0.05795877  0.22553537  0.17166472  1.0
  H  H49  1  0.08859773  0.25364070  0.12646520  1.0
  H  H50  1  0.94199821  0.32832321  0.27446507  1.0
  H  H51  1  0.91137935  0.37354800  0.24638267  1.0
  H  H52  1  0.10520075  0.22989713  0.28451295  1.0
  H  H53  1  0.13645616  0.18533256  0.31320786  1.0
  H  H54  1  0.89478134  0.21550212  0.27011202  1.0
  H  H55  1  0.86355343  0.18683416  0.31469887  1.0
  H  H56  1  0.44536090  0.62473589  0.23003213  1.0
  H  H57  1  0.37212129  0.54889487  0.18537078  1.0
  H  H58  1  0.44538920  0.82076650  0.21564290  1.0
  H  H59  1  0.37213140  0.82330513  0.18687233  1.0
  H  H60  1  0.55379056  0.66757697  0.22563032  1.0
  H  H61  1  0.62709514  0.66502491  0.25369842  1.0
  H  H62  1  0.55387479  0.88636806  0.32844355  1.0
  H  H63  1  0.62717712  0.96220276  0.37361663  1.0
  H  H64  1  0.55466629  0.27001342  0.87530202  1.0
  H  H65  1  0.62792242  0.31469010  0.95115780  1.0
  H  H66  1  0.55459562  0.28435928  0.67924246  1.0
  H  H67  1  0.62784551  0.31312144  0.67669712  1.0
  H  H68  1  0.44620437  0.27440427  0.83245134  1.0
  H  H69  1  0.37289849  0.24635461  0.83500767  1.0
  H  H70  1  0.44613293  0.17157586  0.61367121  1.0
  H  H71  1  0.37281789  0.12639823  0.53782523  1.0
  C  C72  1  0.81722245  0.90861805  0.40861110  1.0
  C  C73  1  0.99996427  0.13920353  0.63922341  1.0
  C  C74  1  0.00001641  0.90906187  0.59087226  1.0
  C  C75  1  0.18277729  0.09139876  0.59140249  1.0
  C  C76  1  0.99997500  0.86078647  0.36074230  1.0
  C  C77  1  0.00000980  0.09094020  0.40911555  1.0
  C  C78  1  0.99997847  0.59138614  0.90858209  1.0
  C  C79  1  0.00001309  0.36077702  0.86077868  1.0
  C  C80  1  0.18182108  0.59096374  0.09094232  1.0
  C  C81  1  0.00000080  0.40864269  0.09140018  1.0
  C  C82  1  0.99999762  0.63924345  0.13924052  1.0
  C  C83  1  0.81817554  0.40907862  0.90906229  1.0
  C  C84  1  0.99999220  0.80463562  0.30461944  1.0
  C  C85  1  0.00000671  0.69539605  0.19538937  1.0
  C  C86  1  0.04287614  0.82060301  0.27604017  1.0
  C  C87  1  0.95545740  0.67943077  0.22230087  1.0
  C  C88  1  0.04456095  0.76685579  0.22397899  1.0
  C  C89  1  0.95712868  0.73317795  0.27772038  1.0
  C  C90  1  0.99999273  0.19536902  0.69538226  1.0
  C  C91  1  0.00000624  0.30462670  0.80462604  1.0
  C  C92  1  0.04286681  0.22227950  0.76685689  1.0
  C  C93  1  0.95543660  0.27603086  0.73314653  1.0
  C  C94  1  0.04454338  0.27770995  0.82059633  1.0
  C  C95  1  0.95711970  0.22395282  0.67940433  1.0
  C  C96  1  0.99995860  0.62896358  0.87096105  1.0
  C  C97  1  0.03738497  0.70172595  0.90915314  1.0
  C  C98  1  0.03733808  0.73757591  0.87460392  1.0
  C  C99  1  0.00001810  0.69935039  0.80051635  1.0
  C  C100  1  0.96264981  0.62526695  0.76231450  1.0
  C  C101  1  0.96256204  0.59075434  0.79819879  1.0
  C  C102  1  0.00007085  0.73470410  0.76512530  1.0
  C  C103  1  0.00010553  0.76560623  0.73416272  1.0
  C  C104  1  0.00011243  0.80098726  0.69880836  1.0
  C  C105  1  0.04903042  0.87232983  0.73431499  1.0
  C  C106  1  0.04802537  0.90711887  0.69869839  1.0
  C  C107  1  0.00003520  0.87145387  0.62844277  1.0
  C  C108  1  0.95207823  0.80119117  0.59275184  1.0
  C  C109  1  0.95113309  0.76553228  0.62750121  1.0
  C  C110  1  0.99998507  0.37103124  0.12897681  1.0
  C  C111  1  0.96257243  0.37182311  0.16433158  1.0
  C  C112  1  0.96264136  0.33735155  0.20026029  1.0
  C  C113  1  0.99998756  0.30061883  0.19940688  1.0
  C  C114  1  0.03732961  0.29975636  0.16266294  1.0
  C  C115  1  0.03739517  0.33568665  0.12820000  1.0
  C  C116  1  0.00000364  0.26524476  0.23478281  1.0
  C  C117  1  0.00000397  0.23431470  0.26572197  1.0
  C  C118  1  0.00000479  0.19894356  0.30109138  1.0
  C  C119  1  0.95106281  0.18547975  0.32346945  1.0
  C  C120  1  0.95204380  0.15082607  0.35923138  1.0
  C  C121  1  0.00000785  0.12853426  0.37152621  1.0
  C  C122  1  0.04797181  0.14081136  0.34922428  1.0
  C  C123  1  0.04894607  0.17656382  0.31455910  1.0
  C  C124  1  0.25699917  0.62856969  0.12857875  1.0
  C  C125  1  0.29158196  0.69883764  0.15088252  1.0
  C  C126  1  0.36199675  0.73448678  0.18559965  1.0
  C  C127  1  0.39783624  0.69902720  0.19912713  1.0
  C  C128  1  0.36198739  0.62767925  0.17668971  1.0
  C  C129  1  0.29157882  0.59289744  0.14087598  1.0
  C  C130  1  0.46857505  0.73439634  0.23451363  1.0
  C  C131  1  0.53044246  0.76529977  0.26538499  1.0
  C  C132  1  0.60118553  0.80063946  0.30070580  1.0
  C  C133  1  0.63708407  0.87472959  0.33741946  1.0
  C  C134  1  0.70747491  0.90923295  0.37183765  1.0
  C  C135  1  0.74202778  0.87103206  0.37105810  1.0
  C  C136  1  0.70744769  0.79826454  0.33573402  1.0
  C  C137  1  0.63705263  0.76242333  0.29983421  1.0
  C  C138  1  0.74300012  0.37144705  0.87145316  1.0
  C  C139  1  0.70840724  0.34912645  0.80118104  1.0
  C  C140  1  0.63799354  0.31440031  0.76552703  1.0
  C  C141  1  0.60217037  0.30088552  0.80100352  1.0
  C  C142  1  0.63802971  0.32333028  0.87235054  1.0
  C  C143  1  0.70843910  0.35915419  0.90714384  1.0
  C  C144  1  0.53143049  0.26549596  0.76564522  1.0
  C  C145  1  0.46956283  0.23463380  0.73474503  1.0
  C  C146  1  0.39881722  0.19932286  0.69939274  1.0
  C  C147  1  0.36292320  0.16260303  0.62530838  1.0
  C  C148  1  0.29252583  0.12817036  0.59078155  1.0
  C  C149  1  0.25797845  0.12897108  0.62899494  1.0
  C  C150  1  0.29255753  0.16433107  0.70176226  1.0
  C  C151  1  0.36295279  0.20022405  0.73761358  1.0
  N  N152  1  0.08732889  0.88811224  0.29809249  1.0
  N  N153  1  0.91000590  0.61192157  0.19924578  1.0
  N  N154  1  0.09001059  0.78924799  0.20191508  1.0
  N  N155  1  0.91266964  0.71078627  0.30077260  1.0
  N  N156  1  0.08732983  0.19922706  0.78925419  1.0
  N  N157  1  0.91000138  0.29810392  0.71074773  1.0
  N  N158  1  0.09000039  0.30077114  0.88811979  1.0
  N  N159  1  0.91266599  0.20190186  0.61188628  1.0
  N  N160  1  0.92518002  0.58917734  0.69031504  1.0
  N  N161  1  0.07483127  0.80957017  0.91069010  1.0
  N  N162  1  0.90511069  0.69561120  0.59354783  1.0
  N  N163  1  0.09498918  0.90627654  0.80426175  1.0
  N  N164  1  0.07480635  0.26523763  0.16405213  1.0
  N  N165  1  0.92515617  0.33594856  0.23476668  1.0
  N  N166  1  0.09494677  0.18862037  0.29063744  1.0
  N  N167  1  0.90505496  0.20939886  0.31140654  1.0
  N  N168  1  0.39796794  0.59372511  0.18871900  1.0
  N  N169  1  0.39797732  0.80440125  0.20950487  1.0
  N  N170  1  0.60112835  0.69042748  0.26531571  1.0
  N  N171  1  0.60118339  0.91082174  0.33603807  1.0
  N  N172  1  0.60205833  0.31131316  0.90631390  1.0
  N  N173  1  0.60200080  0.29049053  0.69560399  1.0
  N  N174  1  0.39887986  0.23473513  0.80961169  1.0
  N  N175  1  0.39881755  0.16397479  0.58920720  1.0
  O  O176  1  0.99999806  0.99999564  0.49999707  1.0
  O  O177  1  0.84657069  0.87216888  0.41168981  1.0
  O  O178  1  0.95974324  0.11539743  0.57529828  1.0
  O  O179  1  0.04065170  0.97460770  0.62714122  1.0
  O  O180  1  0.84656335  0.97440484  0.43485326  1.0
  O  O181  1  0.95938646  0.87282782  0.52533685  1.0
  O  O182  1  0.04017330  0.11548913  0.65563337  1.0
  O  O183  1  0.15344586  0.08835708  0.62786831  1.0
  O  O184  1  0.04020978  0.92470574  0.38456718  1.0
  O  O185  1  0.15343056  0.06511225  0.52560520  1.0
  O  O186  1  0.95972834  0.84437869  0.38441274  1.0
  O  O187  1  0.95936794  0.08655727  0.43401706  1.0
  O  O188  1  0.04063302  0.06603899  0.41350181  1.0
  O  O189  1  0.99999701  0.50002508  0.99999599  1.0
  O  O190  1  0.03948602  0.62785484  0.97438417  1.0
  O  O191  1  0.95989798  0.38458817  0.84436005  1.0
  O  O192  1  0.15253122  0.52541354  0.06603060  1.0
  O  O193  1  0.96047403  0.52558092  0.87212206  1.0
  O  O194  1  0.15252765  0.62718977  0.08651938  1.0
  O  O195  1  0.04011738  0.38447902  0.92470560  1.0
  O  O196  1  0.03954548  0.41173007  0.06514906  1.0
  O  O197  1  0.95989702  0.57532440  0.11554185  1.0
  O  O198  1  0.96048509  0.43491431  0.08832110  1.0
  O  O199  1  0.04009621  0.65565404  0.11541835  1.0
  O  O200  1  0.84746687  0.41345371  0.87280803  1.0
  O  O201  1  0.84746797  0.43401275  0.97460559  1.0
