# generated using pymatgen
data_Zn2H11C55N13(O2F)4
_symmetry_space_group_name_H-M   'P 1'
_cell_length_a   12.69947039
_cell_length_b   13.37076543
_cell_length_c   17.43566418
_cell_angle_alpha   85.47665873
_cell_angle_beta   81.32789122
_cell_angle_gamma   83.68819847
_symmetry_Int_Tables_number   1
_chemical_formula_structural   Zn2H11C55N13(O2F)4
_chemical_formula_sum   'Zn2 H11 C55 N13 O8 F4'
_cell_volume   2903.16481240
_cell_formula_units_Z   1
loop_
 _symmetry_equiv_pos_site_id
 _symmetry_equiv_pos_as_xyz
  1  'x, y, z'
loop_
 _atom_site_type_symbol
 _atom_site_label
 _atom_site_symmetry_multiplicity
 _atom_site_fract_x
 _atom_site_fract_y
 _atom_site_fract_z
 _atom_site_occupancy
  Zn  Zn0  1  0.61832558  0.50325967  0.47809105  1.0
  Zn  Zn1  1  0.39819285  0.46300133  0.51969214  1.0
  H  H2  1  0.28126058  0.52920603  0.14517018  1.0
  H  H3  1  0.68200199  0.50031804  0.72160524  1.0
  H  H4  1  0.59077074  0.55434644  0.97949292  1.0
  H  H5  1  0.27381513  0.76403161  0.60076559  1.0
  H  H6  1  0.75606163  0.21143927  0.40413532  1.0
  H  H7  1  0.68439672  0.90395440  0.44223136  1.0
  H  H8  1  0.79870648  0.02896279  0.37714471  1.0
  H  H9  1  0.46411934  0.21668171  0.61221967  1.0
  H  H10  1  0.08744178  0.72602094  0.38191633  1.0
  H  H11  1  0.82074238  0.43666523  0.51418632  1.0
  H  H12  1  0.34496743  0.57660944  0.01921695  1.0
  C  C13  1  0.58569395  0.29612281  0.49205830  1.0
  C  C14  1  0.46544735  0.51330099  0.27108164  1.0
  C  C15  1  0.32489422  0.90926946  0.61631849  1.0
  C  C16  1  0.51878371  0.47866339  0.64543677  1.0
  C  C17  1  0.44064796  0.77069797  0.55817937  1.0
  C  C18  1  0.70832496  0.15456774  0.43596254  1.0
  C  C19  1  0.73199409  0.05234694  0.42117514  1.0
  C  C20  1  0.66804135  0.98109285  0.45930174  1.0
  C  C21  1  0.58093449  0.00833654  0.51686726  1.0
  C  C22  1  0.55669546  0.11257270  0.53171532  1.0
  C  C23  1  0.50763974  0.93714887  0.55449924  1.0
  C  C24  1  0.60511311  0.51327384  0.75821114  1.0
  C  C25  1  0.40920121  0.97343077  0.59919317  1.0
  C  C26  1  0.40074420  0.07436345  0.62527884  1.0
  C  C27  1  0.47208712  0.14102289  0.59180197  1.0
  C  C28  1  0.45504515  0.66596140  0.53104135  1.0
  C  C29  1  0.52631612  0.83111933  0.54544827  1.0
  C  C30  1  0.33987191  0.81107032  0.59216356  1.0
  C  C31  1  0.61935899  0.18532601  0.48846232  1.0
  C  C32  1  0.88807715  0.67255862  0.38792895  1.0
  C  C33  1  0.19257470  0.39026608  0.59095102  1.0
  C  C34  1  0.08852419  0.36751958  0.62272583  1.0
  C  C35  1  0.54322285  0.56693067  0.13802370  1.0
  C  C36  1  0.00475747  0.41880315  0.58688830  1.0
  C  C37  1  0.02686480  0.49109075  0.52345717  1.0
  C  C38  1  0.13462308  0.51847066  0.50592704  1.0
  C  C39  1  0.94526142  0.53923322  0.47939961  1.0
  C  C40  1  0.47680978  0.49300940  0.35545778  1.0
  C  C41  1  0.96906551  0.62447542  0.42860877  1.0
  C  C42  1  0.07152868  0.65888959  0.41950156  1.0
  C  C43  1  0.15354662  0.60706915  0.45447943  1.0
  C  C44  1  0.84324415  0.50559585  0.48146787  1.0
  C  C45  1  0.78747382  0.63843842  0.39685901  1.0
  C  C46  1  0.55395969  0.53918796  0.21697433  1.0
  C  C47  1  0.51105885  0.50467812  0.72838342  1.0
  C  C48  1  0.41037481  0.52231561  0.77546935  1.0
  C  C49  1  0.40942473  0.54632044  0.85242972  1.0
  C  C50  1  0.50247735  0.55082356  0.88639448  1.0
  C  C51  1  0.59938047  0.53504637  0.83497134  1.0
  C  C52  1  0.31073155  0.51879880  0.74771913  1.0
  C  C53  1  0.32736218  0.10474569  0.69155786  1.0
  C  C54  1  0.21936953  0.94567013  0.64981020  1.0
  C  C55  1  0.63364427  0.78425151  0.53434539  1.0
  C  C56  1  0.70633146  0.69544409  0.35893255  1.0
  C  C57  1  0.36661071  0.51184134  0.24353477  1.0
  C  C58  1  0.65976956  0.53584074  0.23683360  1.0
  C  C59  1  0.89965323  0.39770577  0.62120308  1.0
  C  C60  1  0.06864578  0.29809205  0.68779216  1.0
  C  C61  1  0.25111736  0.65285252  0.43365609  1.0
  C  C62  1  0.27141829  0.48450827  0.29201044  1.0
  C  C63  1  0.63348303  0.60389209  0.08996039  1.0
  C  C64  1  0.35794355  0.53419928  0.16479364  1.0
  C  C65  1  0.44500953  0.56005282  0.10973779  1.0
  C  C66  1  0.50847318  0.56128825  0.96759027  1.0
  C  C67  1  0.42847941  0.57041734  0.02845725  1.0
  N  N68  1  0.76785801  0.55357987  0.44305451  1.0
  N  N69  1  0.04623435  0.24309603  0.74177402  1.0
  N  N70  1  0.31795715  0.70461723  0.40819191  1.0
  N  N71  1  0.18813036  0.46308665  0.32322596  1.0
  N  N72  1  0.70757357  0.63680842  0.05248792  1.0
  N  N73  1  0.21624191  0.46305352  0.53830938  1.0
  N  N74  1  0.22697960  0.51854583  0.72779121  1.0
  N  N75  1  0.27612487  0.13205519  0.74890955  1.0
  N  N76  1  0.12988348  0.97166078  0.67226038  1.0
  N  N77  1  0.72206517  0.74963184  0.53603307  1.0
  N  N78  1  0.64561208  0.74950600  0.32747062  1.0
  N  N79  1  0.75073319  0.53291522  0.24199926  1.0
  N  N80  1  0.81666530  0.37789619  0.65397659  1.0
  O  O81  1  0.66051585  0.35371454  0.48725390  1.0
  O  O82  1  0.48594025  0.32396997  0.49599274  1.0
  O  O83  1  0.59885543  0.50675443  0.59931650  1.0
  O  O84  1  0.44352702  0.43278697  0.62871141  1.0
  O  O85  1  0.53900151  0.64321236  0.48390348  1.0
  O  O86  1  0.38156411  0.60883684  0.55493114  1.0
  O  O87  1  0.57049337  0.49080773  0.37210095  1.0
  O  O88  1  0.39179801  0.48180333  0.40301948  1.0
  F  F89  1  0.90843568  0.75461206  0.34074676  1.0
  F  F90  1  0.27440042  0.33294886  0.61627862  1.0
  F  F91  1  0.69213279  0.54010400  0.86310817  1.0
  F  F92  1  0.31319077  0.56421727  0.89682447  1.0
