# generated using pymatgen
data_ZnH24C34NO4
_symmetry_space_group_name_H-M   'P 1'
_cell_length_a   10.82620170
_cell_length_b   14.58607999
_cell_length_c   16.02376420
_cell_angle_alpha   93.82343657
_cell_angle_beta   90.66668843
_cell_angle_gamma   94.00875845
_symmetry_Int_Tables_number   1
_chemical_formula_structural   ZnH24C34NO4
_chemical_formula_sum   'Zn2 H48 C68 N2 O8'
_cell_volume   2518.19565925
_cell_formula_units_Z   2
loop_
 _symmetry_equiv_pos_site_id
 _symmetry_equiv_pos_as_xyz
  1  'x, y, z'
loop_
 _atom_site_type_symbol
 _atom_site_label
 _atom_site_symmetry_multiplicity
 _atom_site_fract_x
 _atom_site_fract_y
 _atom_site_fract_z
 _atom_site_occupancy
  Zn  Zn0  1  0.50661636  0.59641721  0.51432038  1.0
  Zn  Zn1  1  0.49347769  0.40355544  0.48564802  1.0
  H  H2  1  0.79658900  0.67247463  0.55018627  1.0
  H  H3  1  0.20344689  0.32758034  0.44977075  1.0
  H  H4  1  0.20317116  0.66584421  0.41465699  1.0
  H  H5  1  0.79687096  0.33429853  0.58531525  1.0
  H  H6  1  0.37023456  0.62346586  0.16543510  1.0
  H  H7  1  0.40728057  0.70693316  0.09197554  1.0
  H  H8  1  0.26990119  0.63438038  0.07861705  1.0
  H  H9  1  0.62992418  0.37653648  0.83454208  1.0
  H  H10  1  0.73022523  0.36562023  0.92137059  1.0
  H  H11  1  0.59286534  0.29304548  0.90797386  1.0
  H  H12  1  0.35820329  0.61996101  0.84979866  1.0
  H  H13  1  0.24596928  0.60833219  0.92907911  1.0
  H  H14  1  0.36659623  0.69644102  0.94147558  1.0
  H  H15  1  0.64186951  0.37995293  0.15014872  1.0
  H  H16  1  0.63352526  0.30352184  0.05844257  1.0
  H  H17  1  0.75413560  0.39165045  0.07089531  1.0
  H  H18  1  0.79947785  0.18024428  0.61647536  1.0
  H  H19  1  0.86796163  0.10832195  0.53820089  1.0
  H  H20  1  0.95032280  0.14262152  0.63187935  1.0
  H  H21  1  0.20049535  0.81988888  0.38349822  1.0
  H  H22  1  0.04960828  0.85746484  0.36812105  1.0
  H  H23  1  0.13199941  0.89179064  0.46178248  1.0
  H  H24  1  0.19697855  0.16895130  0.44589545  1.0
  H  H25  1  0.13301611  0.12239268  0.53696409  1.0
  H  H26  1  0.04674782  0.11083397  0.44198358  1.0
  H  H27  1  0.80296314  0.83109423  0.55403662  1.0
  H  H28  1  0.95316737  0.88925298  0.55799995  1.0
  H  H29  1  0.86696734  0.87766852  0.46298305  1.0
  H  H30  1  0.49188641  0.02586580  0.26496393  1.0
  H  H31  1  0.58661906  0.11317796  0.15129437  1.0
  H  H32  1  0.75976292  0.23224258  0.18348357  1.0
  H  H33  1  0.83348892  0.26719366  0.33133878  1.0
  H  H34  1  0.73727169  0.18242667  0.44438599  1.0
  H  H35  1  0.50810207  0.97414644  0.73502193  1.0
  H  H36  1  0.41340138  0.88686810  0.84872408  1.0
  H  H37  1  0.24027101  0.76777383  0.81656999  1.0
  H  H38  1  0.16651424  0.73276878  0.66872264  1.0
  H  H39  1  0.26270596  0.81751537  0.55565212  1.0
  H  H40  1  0.21627856  0.02667186  0.63816255  1.0
  H  H41  1  0.12776850  0.12720459  0.74945447  1.0
  H  H42  1  0.25282113  0.26530576  0.81266340  1.0
  H  H43  1  0.46556482  0.30220102  0.76277220  1.0
  H  H44  1  0.55503765  0.20168600  0.65248726  1.0
  H  H45  1  0.44492910  0.79825259  0.34750823  1.0
  H  H46  1  0.53443594  0.69773237  0.23723442  1.0
  H  H47  1  0.74716304  0.73466084  0.18733883  1.0
  H  H48  1  0.87218753  0.87279107  0.25052631  1.0
  H  H49  1  0.78364892  0.97330951  0.36181887  1.0
  C  C50  1  0.53867127  0.51422968  0.25101690  1.0
  C  C51  1  0.46152014  0.48571981  0.74893838  1.0
  C  C52  1  0.12682009  0.50192474  0.47517329  1.0
  C  C53  1  0.87326635  0.49818468  0.52480404  1.0
  C  C54  1  0.50247700  0.90665037  0.50127641  1.0
  C  C55  1  0.49748648  0.09331393  0.49870757  1.0
  C  C56  1  0.55492733  0.94922275  0.43153128  1.0
  C  C57  1  0.44504469  0.05074457  0.56845658  1.0
  C  C58  1  0.44610004  0.95437041  0.56898214  1.0
  C  C59  1  0.55385684  0.04559047  0.43100731  1.0
  C  C60  1  0.42410717  0.56049986  0.96041816  1.0
  C  C61  1  0.57598559  0.43945016  0.03955249  1.0
  C  C62  1  0.43610343  0.56674725  0.04769711  1.0
  C  C63  1  0.56402718  0.43323253  0.95227914  1.0
  C  C64  1  0.54213619  0.50627551  0.34049990  1.0
  C  C65  1  0.45799735  0.49355453  0.65944944  1.0
  C  C66  1  0.73426598  0.49096419  0.53085185  1.0
  C  C67  1  0.26581430  0.50917548  0.46915533  1.0
  C  C68  1  0.48757621  0.49332432  0.91306691  1.0
  C  C69  1  0.51256663  0.50666097  0.08690146  1.0
  C  C70  1  0.51742411  0.81161822  0.50909491  1.0
  C  C71  1  0.48257971  0.18835893  0.49087780  1.0
  C  C72  1  0.47414775  0.48733457  0.82479653  1.0
  C  C73  1  0.52601170  0.51266494  0.17517743  1.0
  C  C74  1  0.88529445  0.67074967  0.51970583  1.0
  C  C75  1  0.11475122  0.32934299  0.48026576  1.0
  C  C76  1  0.11466227  0.66730572  0.44582087  1.0
  C  C77  1  0.88538279  0.33280822  0.55415091  1.0
  C  C78  1  0.94399793  0.75188089  0.49737790  1.0
  C  C79  1  0.05601938  0.24821488  0.50260248  1.0
  C  C80  1  0.05789691  0.74888050  0.45288074  1.0
  C  C81  1  0.94212099  0.25122252  0.54711303  1.0
  C  C82  1  0.06222856  0.58359608  0.47685047  1.0
  C  C83  1  0.93784962  0.41651512  0.52312253  1.0
  C  C84  1  0.93692863  0.58331871  0.50689001  1.0
  C  C85  1  0.06315701  0.41679214  0.49308986  1.0
  C  C86  1  0.36745705  0.63625908  0.09886239  1.0
  C  C87  1  0.63267877  0.36373108  0.90111302  1.0
  C  C88  1  0.34502807  0.62456837  0.91758734  1.0
  C  C89  1  0.65507533  0.37537792  0.08236510  1.0
  C  C90  1  0.88660639  0.16650845  0.58516610  1.0
  C  C91  1  0.11336732  0.83359896  0.41481961  1.0
  C  C92  1  0.11123791  0.15807310  0.48084384  1.0
  C  C93  1  0.88873151  0.84199783  0.51911737  1.0
  C  C94  1  0.60856662  0.09761275  0.36227621  1.0
  C  C95  1  0.56673398  0.07875293  0.27924660  1.0
  C  C96  1  0.62051134  0.12760247  0.21551036  1.0
  C  C97  1  0.71736812  0.19474402  0.23364908  1.0
  C  C98  1  0.75899198  0.21431021  0.31612445  1.0
  C  C99  1  0.70431485  0.16639133  0.38018349  1.0
  C  C100  1  0.39142829  0.90234727  0.63772891  1.0
  C  C101  1  0.43326671  0.92124288  0.72075740  1.0
  C  C102  1  0.37950520  0.87240849  0.78450799  1.0
  C  C103  1  0.28266149  0.80524980  0.76638613  1.0
  C  C104  1  0.24101847  0.78565520  0.68391525  1.0
  C  C105  1  0.29568109  0.83356526  0.61984585  1.0
  C  C106  1  0.39145475  0.10765459  0.63691182  1.0
  C  C107  1  0.27116376  0.08689946  0.66559484  1.0
  C  C108  1  0.22172278  0.14332502  0.72841293  1.0
  C  C109  1  0.29167119  0.22065088  0.76394091  1.0
  C  C110  1  0.41156093  0.24119632  0.73649873  1.0
  C  C111  1  0.46110188  0.18512054  0.67346759  1.0
  C  C112  1  0.60849183  0.89230646  0.36306637  1.0
  C  C113  1  0.53886314  0.81482008  0.32652797  1.0
  C  C114  1  0.58842005  0.75874750  0.26350199  1.0
  C  C115  1  0.70830179  0.77931593  0.23605255  1.0
  C  C116  1  0.77824323  0.85664918  0.27157955  1.0
  C  C117  1  0.72877969  0.91307055  0.33438680  1.0
  N  N118  1  0.46643117  0.26466770  0.48045457  1.0
  N  N119  1  0.53363131  0.73529982  0.51952479  1.0
  O  O120  1  0.54222701  0.58071414  0.38718675  1.0
  O  O121  1  0.45811723  0.41906496  0.61285420  1.0
  O  O122  1  0.45729789  0.57519702  0.63656781  1.0
  O  O123  1  0.54250273  0.42457199  0.36327784  1.0
  O  O124  1  0.67758558  0.56269933  0.55118208  1.0
  O  O125  1  0.32252404  0.43739293  0.44902564  1.0
  O  O126  1  0.32126220  0.58743272  0.49070075  1.0
  O  O127  1  0.67883089  0.41274465  0.50912248  1.0
