# generated using pymatgen
data_ZnH10C21N2(O3F2)2
_symmetry_space_group_name_H-M   'P 1'
_cell_length_a   16.43399724
_cell_length_b   17.38158549
_cell_length_c   17.68117879
_cell_angle_alpha   89.74277395
_cell_angle_beta   84.58834615
_cell_angle_gamma   89.15732471
_symmetry_Int_Tables_number   1
_chemical_formula_structural   ZnH10C21N2(O3F2)2
_chemical_formula_sum   'Zn2 H20 C42 N4 O12 F8'
_cell_volume   5027.52998185
_cell_formula_units_Z   2
loop_
 _symmetry_equiv_pos_site_id
 _symmetry_equiv_pos_as_xyz
  1  'x, y, z'
loop_
 _atom_site_type_symbol
 _atom_site_label
 _atom_site_symmetry_multiplicity
 _atom_site_fract_x
 _atom_site_fract_y
 _atom_site_fract_z
 _atom_site_occupancy
  Zn  Zn0  1  0.41388610  0.49963125  0.50252099  1.0
  Zn  Zn1  1  0.58556176  0.50652794  0.49768169  1.0
  H  H2  1  0.71758249  0.42576895  0.57438735  1.0
  H  H3  1  0.86910096  0.42513519  0.57229483  1.0
  H  H4  1  0.12862921  0.39675135  0.60087299  1.0
  H  H5  1  0.12746530  0.57498890  0.42634455  1.0
  H  H6  1  0.99928082  0.56248569  0.43821139  1.0
  H  H7  1  0.99925969  0.43618229  0.56145547  1.0
  H  H8  1  0.61553785  0.50450091  0.73674352  1.0
  H  H9  1  0.61000166  0.50430042  0.87713065  1.0
  H  H10  1  0.65354283  0.50596614  0.11261287  1.0
  H  H11  1  0.38883789  0.49597552  0.12298506  1.0
  H  H12  1  0.40619215  0.49637706  0.00331147  1.0
  H  H13  1  0.59394447  0.50381437  0.99678343  1.0
  H  H14  1  0.61593807  0.75094761  0.49675899  1.0
  H  H15  1  0.61168004  0.89623873  0.49600473  1.0
  H  H16  1  0.65130737  0.11155847  0.49492366  1.0
  H  H17  1  0.38752501  0.10596259  0.50354120  1.0
  H  H18  1  0.35335566  0.68532757  0.50468415  1.0
  H  H19  1  0.34769559  0.95220736  0.50538646  1.0
  H  H20  1  0.64500214  0.31671923  0.49457766  1.0
  H  H21  1  0.37747005  0.30984862  0.50403040  1.0
  C  C22  1  0.49421529  0.49971760  0.64710240  1.0
  C  C23  1  0.50998934  0.34682564  0.49995594  1.0
  C  C24  1  0.50728245  0.50013250  0.35368455  1.0
  C  C25  1  0.49008223  0.65516799  0.50226032  1.0
  C  C26  1  0.75488544  0.46360934  0.53651875  1.0
  C  C27  1  0.83908121  0.46403362  0.53491635  1.0
  C  C28  1  0.88535964  0.51433473  0.48534222  1.0
  C  C29  1  0.84060037  0.56156480  0.43953473  1.0
  C  C30  1  0.75541943  0.55764961  0.44451325  1.0
  C  C31  1  0.97388611  0.52021588  0.47934496  1.0
  C  C32  1  0.02440280  0.47852915  0.52013798  1.0
  C  C33  1  0.15778296  0.43796391  0.56092504  1.0
  C  C34  1  0.11306546  0.48493891  0.51434261  1.0
  C  C35  1  0.15655525  0.53623127  0.46436195  1.0
  C  C36  1  0.24062462  0.53729905  0.46411567  1.0
  C  C37  1  0.24200440  0.44497809  0.55513069  1.0
  C  C38  1  0.48626010  0.49927529  0.73217832  1.0
  C  C39  1  0.55707571  0.50204536  0.77115676  1.0
  C  C40  1  0.55348452  0.50200311  0.84963158  1.0
  C  C41  1  0.47798847  0.49911551  0.89486835  1.0
  C  C42  1  0.40775573  0.49634669  0.85566804  1.0
  C  C43  1  0.41098305  0.49639189  0.77649139  1.0
  C  C44  1  0.46902055  0.49884204  0.97737432  1.0
  C  C45  1  0.53092077  0.50135637  0.02256139  1.0
  C  C46  1  0.59313933  0.50355793  0.14369811  1.0
  C  C47  1  0.52226865  0.50097088  0.10519748  1.0
  C  C48  1  0.44630375  0.49805462  0.14885928  1.0
  C  C49  1  0.44298445  0.49767751  0.22728807  1.0
  C  C50  1  0.51265413  0.50014774  0.26863123  1.0
  C  C51  1  0.58741224  0.50310985  0.22243478  1.0
  C  C52  1  0.48537042  0.74024041  0.50156713  1.0
  C  C53  1  0.55836188  0.78307112  0.49875881  1.0
  C  C54  1  0.55642680  0.86220541  0.49832739  1.0
  C  C55  1  0.48002870  0.90109620  0.50090188  1.0
  C  C56  1  0.40646237  0.85985170  0.50358740  1.0
  C  C57  1  0.40860599  0.77830854  0.50371765  1.0
  C  C58  1  0.59298612  0.14231254  0.49694401  1.0
  C  C59  1  0.52025886  0.10090354  0.49929485  1.0
  C  C60  1  0.44381304  0.13827623  0.50167698  1.0
  C  C61  1  0.44026631  0.21831273  0.50178492  1.0
  C  C62  1  0.51350131  0.26249410  0.49955226  1.0
  C  C63  1  0.59010250  0.22255080  0.49705752  1.0
  N  N64  1  0.71328626  0.51024962  0.49150712  1.0
  N  N65  1  0.28449492  0.49318329  0.50808601  1.0
  N  N66  1  0.46788856  0.98067874  0.50112841  1.0
  N  N67  1  0.53239700  0.02038247  0.49896037  1.0
  O  O68  1  0.42853588  0.50073154  0.61449138  1.0
  O  O69  1  0.56662703  0.49919367  0.61392183  1.0
  O  O70  1  0.57721453  0.38449444  0.49878023  1.0
  O  O71  1  0.43966082  0.38071350  0.50156510  1.0
  O  O72  1  0.57395259  0.50203011  0.38471062  1.0
  O  O73  1  0.43611228  0.49838994  0.38879702  1.0
  O  O74  1  0.42180221  0.61871299  0.50285049  1.0
  O  O75  1  0.55948094  0.62209333  0.50221107  1.0
  O  O76  1  0.33692511  0.74151262  0.50592030  1.0
  O  O77  1  0.33345260  0.89705615  0.50600677  1.0
  O  O78  1  0.66140724  0.26069226  0.49468449  1.0
  O  O79  1  0.36605394  0.25317025  0.50426750  1.0
  F  F80  1  0.71460523  0.60372124  0.40056423  1.0
  F  F81  1  0.87834197  0.61181081  0.39002779  1.0
  F  F82  1  0.28329773  0.58577064  0.41745734  1.0
  F  F83  1  0.28581443  0.40082812  0.59873477  1.0
  F  F84  1  0.33873982  0.49335579  0.74623949  1.0
  F  F85  1  0.33277701  0.49342202  0.89521113  1.0
  F  F86  1  0.36710136  0.49467630  0.26447592  1.0
  F  F87  1  0.65921314  0.50580771  0.25419045  1.0
