# generated using pymatgen
data_AlH10C19O9
_symmetry_space_group_name_H-M   'P 1'
_cell_length_a   6.70928523
_cell_length_b   23.49726915
_cell_length_c   25.98068648
_cell_angle_alpha   101.66579599
_cell_angle_beta   89.99878403
_cell_angle_gamma   89.94987193
_symmetry_Int_Tables_number   1
_chemical_formula_structural   AlH10C19O9
_chemical_formula_sum   'Al4 H40 C76 O36'
_cell_volume   4011.24533828
_cell_formula_units_Z   4
loop_
 _symmetry_equiv_pos_site_id
 _symmetry_equiv_pos_as_xyz
  1  'x, y, z'
loop_
 _atom_site_type_symbol
 _atom_site_label
 _atom_site_symmetry_multiplicity
 _atom_site_fract_x
 _atom_site_fract_y
 _atom_site_fract_z
 _atom_site_occupancy
  Al  Al0  1  0.27572031  0.75107207  0.24996292  1.0
  Al  Al1  1  0.68301380  0.25174344  0.74929753  1.0
  Al  Al2  1  0.77574844  0.74902548  0.24993244  1.0
  Al  Al3  1  0.18307001  0.24838921  0.75063397  1.0
  H  H4  1  0.68760914  0.31635963  0.60113081  1.0
  H  H5  1  0.31164976  0.68700338  0.39145683  1.0
  H  H6  1  0.18774827  0.18384875  0.89875803  1.0
  H  H7  1  0.81140943  0.81303971  0.10851906  1.0
  H  H8  1  0.27056039  0.44701469  0.60876274  1.0
  H  H9  1  0.75746897  0.54686845  0.39008204  1.0
  H  H10  1  0.77092238  0.05296388  0.89110474  1.0
  H  H11  1  0.25688986  0.95332652  0.10977887  1.0
  H  H12  1  0.09248887  0.53643094  0.59316798  1.0
  H  H13  1  0.94883984  0.46236149  0.40378917  1.0
  H  H14  1  0.59256329  0.96358235  0.90672473  1.0
  H  H15  1  0.44860218  0.03783424  0.09610816  1.0
  H  H16  1  0.11328247  0.60274816  0.53066876  1.0
  H  H17  1  0.93039242  0.39591922  0.46612354  1.0
  H  H18  1  0.61290224  0.89727045  0.96924422  1.0
  H  H19  1  0.43065230  0.10425634  0.03372191  1.0
  H  H20  1  0.14800458  0.40610848  0.01478891  1.0
  H  H21  1  0.82624520  0.58625789  0.99017689  1.0
  H  H22  1  0.64085414  0.09393298  0.48473832  1.0
  H  H23  1  0.33141769  0.91282840  0.51090345  1.0
  H  H24  1  0.82963735  0.46366238  0.07668664  1.0
  H  H25  1  0.14457558  0.52843098  0.92817870  1.0
  H  H26  1  0.32208172  0.03512014  0.42406804  1.0
  H  H27  1  0.65006599  0.97191693  0.57166517  1.0
  H  H28  1  0.34154704  0.51529881  0.02203114  1.0
  H  H29  1  0.63266541  0.47710685  0.98288362  1.0
  H  H30  1  0.84043072  0.98554658  0.47696991  1.0
  H  H31  1  0.13192019  0.02116166  0.51871621  1.0
  H  H32  1  0.45768425  0.43566064  0.51287785  1.0
  H  H33  1  0.59823696  0.65628667  0.48885042  1.0
  H  H34  1  0.95784835  0.06463925  0.98696281  1.0
  H  H35  1  0.09833422  0.84369493  0.01120415  1.0
  H  H36  1  0.54400564  0.33593724  0.68018228  1.0
  H  H37  1  0.69045858  0.58930995  0.23917070  1.0
  H  H38  1  0.04393059  0.16432091  0.81982600  1.0
  H  H39  1  0.18925253  0.91087432  0.26066394  1.0
  H  H40  1  0.51637618  0.68868247  0.27725679  1.0
  H  H41  1  0.42299640  0.32647095  0.76978650  1.0
  H  H42  1  0.01602682  0.81139773  0.22259576  1.0
  H  H43  1  0.92359461  0.17370983  0.73005197  1.0
  C  C44  1  0.52725062  0.83515853  0.32022517  1.0
  C  C45  1  0.43598115  0.17180534  0.67453103  1.0
  C  C46  1  0.02799553  0.66480933  0.17977230  1.0
  C  C47  1  0.93523265  0.32825228  0.82546213  1.0
  C  C48  1  0.53029977  0.80295841  0.17993700  1.0
  C  C49  1  0.43850138  0.19077152  0.81723095  1.0
  C  C50  1  0.03060252  0.69714211  0.31995786  1.0
  C  C51  1  0.93842380  0.30934764  0.68267092  1.0
  C  C52  1  0.81284089  0.34612520  0.60426810  1.0
  C  C53  1  0.18945803  0.65672671  0.39192215  1.0
  C  C54  1  0.31305299  0.15403360  0.89561527  1.0
  C  C55  1  0.68912945  0.84334018  0.10800790  1.0
  C  C56  1  0.82248489  0.38462409  0.56988731  1.0
  C  C57  1  0.19659111  0.61700678  0.42530001  1.0
  C  C58  1  0.32267341  0.11548927  0.92995374  1.0
  C  C59  1  0.69630041  0.88307044  0.07463666  1.0
  C  C60  1  0.98689763  0.42249426  0.57176203  1.0
  C  C61  1  0.03851437  0.57725059  0.42561072  1.0
  C  C62  1  0.48713935  0.07755503  0.92808121  1.0
  C  C63  1  0.53811832  0.92286981  0.07429819  1.0
  C  C64  1  0.13798527  0.42014631  0.60874880  1.0
  C  C65  1  0.88140061  0.57680912  0.38982145  1.0
  C  C66  1  0.63834547  0.07987439  0.89113405  1.0
  C  C67  1  0.38088487  0.92335143  0.11006632  1.0
  C  C68  1  0.12552856  0.38277073  0.64398030  1.0
  C  C69  1  0.88051587  0.61433594  0.35454102  1.0
  C  C70  1  0.62594699  0.11730273  0.85594781  1.0
  C  C71  1  0.38001531  0.88583194  0.14534995  1.0
  C  C72  1  0.95822144  0.34634859  0.64269610  1.0
  C  C73  1  0.03297775  0.65573611  0.35642152  1.0
  C  C74  1  0.45859024  0.15378758  0.85721667  1.0
  C  C75  1  0.53251965  0.84436713  0.14347477  1.0
  C  C76  1  0.06371922  0.51996292  0.55149282  1.0
  C  C77  1  0.97896132  0.47883984  0.44538139  1.0
  C  C78  1  0.56365909  0.98007485  0.94839904  1.0
  C  C79  1  0.47874352  0.02131718  0.05451355  1.0
  C  C80  1  0.07471399  0.55720330  0.51628599  1.0
  C  C81  1  0.96853608  0.44149005  0.48049850  1.0
  C  C82  1  0.57441327  0.94284967  0.98362522  1.0
  C  C83  1  0.46853023  0.05864657  0.01937351  1.0
  C  C84  1  0.03195944  0.53733204  0.46274686  1.0
  C  C85  1  0.00770184  0.46163396  0.53422622  1.0
  C  C86  1  0.53160332  0.96278105  0.03716011  1.0
  C  C87  1  0.50775302  0.03844220  0.96564633  1.0
  C  C88  1  0.89904677  0.47751656  0.04318840  1.0
  C  C89  1  0.07515981  0.51483918  0.96180805  1.0
  C  C90  1  0.39437092  0.02161023  0.45735885  1.0
  C  C91  1  0.57792473  0.98516595  0.53822322  1.0
  C  C92  1  0.07720009  0.44663296  0.00999910  1.0
  C  C93  1  0.89706755  0.54575007  0.99503587  1.0
  C  C94  1  0.57271122  0.05319405  0.48985388  1.0
  C  C95  1  0.39960090  0.95353656  0.50568217  1.0
  C  C96  1  0.93836610  0.37316798  0.87191990  1.0
  C  C97  1  0.02816767  0.61910477  0.13354863  1.0
  C  C98  1  0.43897532  0.12670321  0.62821433  1.0
  C  C99  1  0.52713395  0.88065804  0.36658892  1.0
  C  C100  1  0.78985206  0.48615452  0.99218373  1.0
  C  C101  1  0.18424858  0.50627068  0.01285326  1.0
  C  C102  1  0.28900456  0.01271131  0.50880564  1.0
  C  C103  1  0.68320625  0.99398912  0.48674963  1.0
  C  C104  1  0.96656214  0.45413221  0.95779847  1.0
  C  C105  1  0.00727327  0.53825112  0.04730843  1.0
  C  C106  1  0.46590035  0.04545692  0.54248969  1.0
  C  C107  1  0.50604954  0.96129800  0.45297174  1.0
  C  C108  1  0.94995396  0.41076587  0.91167664  1.0
  C  C109  1  0.02142519  0.58159796  0.09360714  1.0
  C  C110  1  0.44977906  0.08895097  0.58854159  1.0
  C  C111  1  0.52027762  0.91800389  0.40663522  1.0
  C  C112  1  0.64661944  0.38467439  0.53439265  1.0
  C  C113  1  0.38629562  0.61187071  0.45391999  1.0
  C  C114  1  0.14676057  0.11550846  0.96544815  1.0
  C  C115  1  0.88606864  0.88815271  0.04605336  1.0
  C  C116  1  0.29538171  0.37968882  0.68139169  1.0
  C  C117  1  0.72072166  0.60870697  0.31349208  1.0
  C  C118  1  0.79594083  0.12037668  0.81859999  1.0
  C  C119  1  0.22011816  0.89148263  0.18637987  1.0
  O  O120  1  0.69700712  0.78513743  0.19341547  1.0
  O  O121  1  0.26246491  0.20190018  0.80234075  1.0
  O  O122  1  0.19721689  0.71493591  0.30645671  1.0
  O  O123  1  0.76253426  0.29839913  0.69774448  1.0
  O  O124  1  0.35597862  0.81830232  0.30181954  1.0
  O  O125  1  0.60474772  0.19248149  0.69146931  1.0
  O  O126  1  0.85665198  0.68173115  0.19815774  1.0
  O  O127  1  0.10406279  0.30777823  0.80826390  1.0
  O  O128  1  0.35999196  0.78914861  0.19526772  1.0
  O  O129  1  0.59921860  0.20704381  0.79935240  1.0
  O  O130  1  0.86024288  0.71098376  0.30464379  1.0
  O  O131  1  0.09931714  0.29286095  0.70034426  1.0
  O  O132  1  0.19704805  0.68372022  0.19791635  1.0
  O  O133  1  0.76577850  0.31265607  0.80512442  1.0
  O  O134  1  0.69639795  0.81634443  0.30199475  1.0
  O  O135  1  0.26663772  0.18734241  0.69503218  1.0
  O  O136  1  0.52452950  0.71594681  0.25354351  1.0
  O  O137  1  0.43058791  0.28566377  0.75258124  1.0
  O  O138  1  0.02429996  0.78415672  0.24633131  1.0
  O  O139  1  0.93077521  0.21448998  0.74733728  1.0
  O  O140  1  0.57322837  0.34115423  0.50743043  1.0
  O  O141  1  0.56995751  0.43900436  0.53755530  1.0
  O  O142  1  0.46669632  0.56606314  0.45727486  1.0
  O  O143  1  0.46886399  0.66463228  0.47443341  1.0
  O  O144  1  0.07319253  0.15907112  0.99236766  1.0
  O  O145  1  0.07026007  0.06120568  0.96232156  1.0
  O  O146  1  0.96629165  0.93393869  0.04266691  1.0
  O  O147  1  0.96893969  0.83537472  0.02559937  1.0
  O  O148  1  0.30400557  0.40638587  0.72692114  1.0
  O  O149  1  0.43683680  0.34460069  0.65622049  1.0
  O  O150  1  0.54480721  0.62066557  0.32210135  1.0
  O  O151  1  0.79516759  0.58691286  0.26508880  1.0
  O  O152  1  0.80527590  0.09352854  0.77313228  1.0
  O  O153  1  0.93667795  0.15567813  0.84375434  1.0
  O  O154  1  0.04430506  0.87954792  0.17773180  1.0
  O  O155  1  0.29426790  0.91321887  0.23481321  1.0
