# generated using pymatgen
data_Zn2H19C46N2(ClO2)5
_symmetry_space_group_name_H-M   'P 1'
_cell_length_a   16.62577213
_cell_length_b   17.84634213
_cell_length_c   33.10619230
_cell_angle_alpha   90.23473326
_cell_angle_beta   89.89660669
_cell_angle_gamma   89.95651680
_symmetry_Int_Tables_number   1
_chemical_formula_structural   Zn2H19C46N2(ClO2)5
_chemical_formula_sum   'Zn4 H38 C92 N4 Cl10 O20'
_cell_volume   9822.81110206
_cell_formula_units_Z   2
loop_
 _symmetry_equiv_pos_site_id
 _symmetry_equiv_pos_as_xyz
  1  'x, y, z'
loop_
 _atom_site_type_symbol
 _atom_site_label
 _atom_site_symmetry_multiplicity
 _atom_site_fract_x
 _atom_site_fract_y
 _atom_site_fract_z
 _atom_site_occupancy
  Zn  Zn0  1  0.58178250  0.50570578  0.50171663  1.0
  Zn  Zn1  1  0.41220763  0.48858707  0.50036166  1.0
  Zn  Zn2  1  0.41843200  0.50863682  0.96051988  1.0
  Zn  Zn3  1  0.58806344  0.49146306  0.96186782  1.0
  H  H4  1  0.28965315  0.57485007  0.53707176  1.0
  H  H5  1  0.13957125  0.58774940  0.54131031  1.0
  H  H6  1  0.12302129  0.39518311  0.46157837  1.0
  H  H7  1  0.86952297  0.59585126  0.54597787  1.0
  H  H8  1  0.70641900  0.42140897  0.46508811  1.0
  H  H9  1  0.85673960  0.41041202  0.46127061  1.0
  H  H10  1  0.60098737  0.72444340  0.49700853  1.0
  H  H11  1  0.61664523  0.86321688  0.49434438  1.0
  H  H12  1  0.35800914  0.88483209  0.49755138  1.0
  H  H13  1  0.64118757  0.11401660  0.50258891  1.0
  H  H14  1  0.39195666  0.26544501  0.49600521  1.0
  H  H15  1  0.38255452  0.12611558  0.49287783  1.0
  H  H16  1  0.36455880  0.50076223  0.63077630  1.0
  H  H17  1  0.29365293  0.50044232  0.69677601  1.0
  H  H18  1  0.62076355  0.49023671  0.62561395  1.0
  H  H19  1  0.63536053  0.50124553  0.83149851  1.0
  H  H20  1  0.70626853  0.50041169  0.76554370  1.0
  H  H21  1  0.37917186  0.49066235  0.83667030  1.0
  H  H22  1  0.37221833  0.48600419  0.08913889  1.0
  H  H23  1  0.37043433  0.48274401  0.16456060  1.0
  H  H24  1  0.62303294  0.53861862  0.16477453  1.0
  H  H25  1  0.37613717  0.53637488  0.29784907  1.0
  H  H26  1  0.62736282  0.48320366  0.37284141  1.0
  H  H27  1  0.62905990  0.48150815  0.29738842  1.0
  H  H28  1  0.71062604  0.57678680  0.92504303  1.0
  H  H29  1  0.86068962  0.58927046  0.92068296  1.0
  H  H30  1  0.87729569  0.39791319  0.00043498  1.0
  H  H31  1  0.13040148  0.59727008  0.91580747  1.0
  H  H32  1  0.29417237  0.42499357  0.99709125  1.0
  H  H33  1  0.14392542  0.41333449  0.00064081  1.0
  H  H34  1  0.39933105  0.72736729  0.96457295  1.0
  H  H35  1  0.38341871  0.86621045  0.96677110  1.0
  H  H36  1  0.64198291  0.88779823  0.96268625  1.0
  H  H37  1  0.35865501  0.11740030  0.95874546  1.0
  H  H38  1  0.60826344  0.26799828  0.96577278  1.0
  H  H39  1  0.61734167  0.12862785  0.96821446  1.0
  H  H40  1  0.31708877  0.57578688  0.81304137  1.0
  H  H41  1  0.68278746  0.57537655  0.64955700  1.0
  C  C42  1  0.47315005  0.64131759  0.50022090  1.0
  C  C43  1  0.49186978  0.49658826  0.57919933  1.0
  C  C44  1  0.51599867  0.35319104  0.50079271  1.0
  C  C45  1  0.50588245  0.50259685  0.42309687  1.0
  C  C46  1  0.52723429  0.64416797  0.96148760  1.0
  C  C47  1  0.50817170  0.49772262  0.88305279  1.0
  C  C48  1  0.48433718  0.35612064  0.96150993  1.0
  C  C49  1  0.49387781  0.50652092  0.03912480  1.0
  C  C50  1  0.24973472  0.53628656  0.52126792  1.0
  C  C51  1  0.16690146  0.54332033  0.52334160  1.0
  C  C52  1  0.11886217  0.49206816  0.50163952  1.0
  C  C53  1  0.15740754  0.43598210  0.47884515  1.0
  C  C54  1  0.24120590  0.43359202  0.47863011  1.0
  C  C55  1  0.03394563  0.49637526  0.50239879  1.0
  C  C56  1  0.96071024  0.49932203  0.50271757  1.0
  C  C57  1  0.87573398  0.50295389  0.50325673  1.0
  C  C58  1  0.83608689  0.55657289  0.52726778  1.0
  C  C59  1  0.75229592  0.55834711  0.52689456  1.0
  C  C60  1  0.74565395  0.45929455  0.48179433  1.0
  C  C61  1  0.82860877  0.45319098  0.48006901  1.0
  C  C62  1  0.47268011  0.72555953  0.49835571  1.0
  C  C63  1  0.54840569  0.76081010  0.49685061  1.0
  C  C64  1  0.55712869  0.83781160  0.49547051  1.0
  C  C65  1  0.48831699  0.88415518  0.49587202  1.0
  C  C66  1  0.41192565  0.85015585  0.49712712  1.0
  C  C67  1  0.40426362  0.77227232  0.49826798  1.0
  C  C68  1  0.49640697  0.96306645  0.49568898  1.0
  C  C69  1  0.50574550  0.03092388  0.49630531  1.0
  C  C70  1  0.51133381  0.11001295  0.49727489  1.0
  C  C71  1  0.58600103  0.14668777  0.50059667  1.0
  C  C72  1  0.59022662  0.22482374  0.50171933  1.0
  C  C73  1  0.51999596  0.26897399  0.49984544  1.0
  C  C74  1  0.44601379  0.23105017  0.49688148  1.0
  C  C75  1  0.44073169  0.15378049  0.49532474  1.0
  C  C76  1  0.42183564  0.50010960  0.64674038  1.0
  C  C77  1  0.42369000  0.50046426  0.68912043  1.0
  C  C78  1  0.35137153  0.50073103  0.71239855  1.0
  C  C79  1  0.56740913  0.49656941  0.64447857  1.0
  C  C80  1  0.57271333  0.50095788  0.68676658  1.0
  C  C81  1  0.64818814  0.50231961  0.70850206  1.0
  C  C82  1  0.57809086  0.50042166  0.81553270  1.0
  C  C83  1  0.57622409  0.50056290  0.77316886  1.0
  C  C84  1  0.64856752  0.50069230  0.74990819  1.0
  C  C85  1  0.43251941  0.49683652  0.81782365  1.0
  C  C86  1  0.42720778  0.50109696  0.77554609  1.0
  C  C87  1  0.35175785  0.50250332  0.75381603  1.0
  C  C88  1  0.49317598  0.49772206  0.62461401  1.0
  C  C89  1  0.49931240  0.50149193  0.70967730  1.0
  C  C90  1  0.50676500  0.49818356  0.83766224  1.0
  C  C91  1  0.50059709  0.50155135  0.75262848  1.0
  C  C92  1  0.49762034  0.51089454  0.08435856  1.0
  C  C93  1  0.42692773  0.49651377  0.10633012  1.0
  C  C94  1  0.42578493  0.49499413  0.14821079  1.0
  C  C95  1  0.49710480  0.50923380  0.16997783  1.0
  C  C96  1  0.56795714  0.52576968  0.14842917  1.0
  C  C97  1  0.56822165  0.52655753  0.10634543  1.0
  C  C98  1  0.49841277  0.50786937  0.21272470  1.0
  C  C99  1  0.50085971  0.50737578  0.24957249  1.0
  C  C100  1  0.50221331  0.50761954  0.29231679  1.0
  C  C101  1  0.43130184  0.52342559  0.31405550  1.0
  C  C102  1  0.43109870  0.52338076  0.35613868  1.0
  C  C103  1  0.50184868  0.50755297  0.37791914  1.0
  C  C104  1  0.57257123  0.49382913  0.35576955  1.0
  C  C105  1  0.57365979  0.49318024  0.31388511  1.0
  C  C106  1  0.75054573  0.53836245  0.94081215  1.0
  C  C107  1  0.83339330  0.54515516  0.93866898  1.0
  C  C108  1  0.88146526  0.49413171  0.96033088  1.0
  C  C109  1  0.84291074  0.43848692  0.98315539  1.0
  C  C110  1  0.75911242  0.43628331  0.98340811  1.0
  C  C111  1  0.96639251  0.49827571  0.95948738  1.0
  C  C112  1  0.03962686  0.50114810  0.95906170  1.0
  C  C113  1  0.12458035  0.50503717  0.95854474  1.0
  C  C114  1  0.16401117  0.55844270  0.93456691  1.0
  C  C115  1  0.24778887  0.56062733  0.93509287  1.0
  C  C116  1  0.25480808  0.46241649  0.98028452  1.0
  C  C117  1  0.17189022  0.45589943  0.98184720  1.0
  C  C118  1  0.52761050  0.72849027  0.96288453  1.0
  C  C119  1  0.45182982  0.76377408  0.96445985  1.0
  C  C120  1  0.44296995  0.84079591  0.96557073  1.0
  C  C121  1  0.51171249  0.88710569  0.96485191  1.0
  C  C122  1  0.58814962  0.85311627  0.96339534  1.0
  C  C123  1  0.59593848  0.77520971  0.96251713  1.0
  C  C124  1  0.50348942  0.96600906  0.96506701  1.0
  C  C125  1  0.49402885  0.03387257  0.96468800  1.0
  C  C126  1  0.48851481  0.11296462  0.96400056  1.0
  C  C127  1  0.41392548  0.14987302  0.96087453  1.0
  C  C128  1  0.40991039  0.22802364  0.96005450  1.0
  C  C129  1  0.48021111  0.27195719  0.96212261  1.0
  C  C130  1  0.55411853  0.23379865  0.96483672  1.0
  C  C131  1  0.55921819  0.15650871  0.96600819  1.0
  C  C132  1  0.27069526  0.50792916  0.77372030  1.0
  C  C133  1  0.72922607  0.50756944  0.68861813  1.0
  N  N134  1  0.28684018  0.48227780  0.49933410  1.0
  N  N135  1  0.70746258  0.51123799  0.50472186  1.0
  N  N136  1  0.71344951  0.48477065  0.96276425  1.0
  N  N137  1  0.29278104  0.51411647  0.95738283  1.0
  Cl  Cl138  1  0.28861439  0.36585069  0.45048451  1.0
  Cl  Cl139  1  0.70386208  0.62422540  0.55597656  1.0
  Cl  Cl140  1  0.30671487  0.73810896  0.50069044  1.0
  Cl  Cl141  1  0.68565384  0.26284855  0.50706951  1.0
  Cl  Cl142  1  0.65781214  0.55151190  0.08323222  1.0
  Cl  Cl143  1  0.34136314  0.54747161  0.37951840  1.0
  Cl  Cl144  1  0.71172093  0.36903990  0.01157411  1.0
  Cl  Cl145  1  0.29602321  0.62628020  0.90611274  1.0
  Cl  Cl146  1  0.69350570  0.74096910  0.95991376  1.0
  Cl  Cl147  1  0.31456002  0.26632100  0.95472996  1.0
  O  O148  1  0.54095028  0.61250459  0.50930048  1.0
  O  O149  1  0.40934968  0.60488811  0.49269155  1.0
  O  O150  1  0.42436055  0.50714965  0.56200736  1.0
  O  O151  1  0.55915267  0.48576803  0.56171287  1.0
  O  O152  1  0.44789338  0.38048759  0.51074312  1.0
  O  O153  1  0.57800739  0.39084132  0.49121559  1.0
  O  O154  1  0.57214452  0.52095759  0.43971117  1.0
  O  O155  1  0.44357221  0.47843304  0.44107260  1.0
  O  O156  1  0.45938552  0.61509358  0.95268512  1.0
  O  O157  1  0.59110955  0.60795115  0.96911699  1.0
  O  O158  1  0.57568381  0.50860445  0.90020221  1.0
  O  O159  1  0.44094000  0.48716854  0.90058160  1.0
  O  O160  1  0.55248920  0.38320544  0.95168736  1.0
  O  O161  1  0.42234405  0.39394977  0.97117071  1.0
  O  O162  1  0.42769613  0.52496075  0.02251200  1.0
  O  O163  1  0.55636862  0.48253944  0.02110802  1.0
  O  O164  1  0.26457521  0.55386167  0.80686104  1.0
  O  O165  1  0.21087753  0.47676693  0.76091682  1.0
  O  O166  1  0.73531580  0.55341508  0.65564837  1.0
  O  O167  1  0.78904311  0.47631947  0.70127102  1.0
