# generated using pymatgen
data_Al3H19(C3O)14
_symmetry_space_group_name_H-M   'P 1'
_cell_length_a   12.72318445
_cell_length_b   12.88289329
_cell_length_c   28.59774047
_cell_angle_alpha   89.92815716
_cell_angle_beta   89.92424088
_cell_angle_gamma   60.49393863
_symmetry_Int_Tables_number   1
_chemical_formula_structural   Al3H19(C3O)14
_chemical_formula_sum   'Al6 H38 C84 O28'
_cell_volume   4079.54049188
_cell_formula_units_Z   2
loop_
 _symmetry_equiv_pos_site_id
 _symmetry_equiv_pos_as_xyz
  1  'x, y, z'
loop_
 _atom_site_type_symbol
 _atom_site_label
 _atom_site_symmetry_multiplicity
 _atom_site_fract_x
 _atom_site_fract_y
 _atom_site_fract_z
 _atom_site_occupancy
  Al  Al0  1  0.77060846  0.75441238  0.49851709  1.0
  Al  Al1  1  0.75655081  0.51246364  0.49936834  1.0
  Al  Al2  1  0.52326011  0.74473589  0.49970628  1.0
  Al  Al3  1  0.52474971  0.24682614  0.00083923  1.0
  Al  Al4  1  0.26817867  0.48810641  0.99931481  1.0
  Al  Al5  1  0.26883753  0.25487693  0.99974982  1.0
  H  H6  1  0.33052413  0.70378100  0.22485799  1.0
  H  H7  1  0.86195970  0.44284719  0.79273104  1.0
  H  H8  1  0.68221557  0.86780553  0.78899027  1.0
  H  H9  1  0.44225110  0.69597378  0.78377916  1.0
  H  H10  1  0.54695611  0.66318284  0.26927403  1.0
  H  H11  1  0.65028931  0.79170362  0.26520122  1.0
  H  H12  1  0.79010411  0.54462498  0.26195030  1.0
  H  H13  1  0.20959465  0.33731957  0.76901927  1.0
  H  H14  1  0.44228056  0.20929744  0.76467224  1.0
  H  H15  1  0.33569202  0.45554334  0.76269109  1.0
  H  H16  1  0.68008654  0.46044924  0.21093474  1.0
  H  H17  1  0.68784929  0.96598322  0.21903544  1.0
  H  H18  1  0.44035583  0.86120009  0.20950584  1.0
  H  H19  1  0.86205013  0.68587824  0.20891303  1.0
  H  H20  1  0.14135755  0.54118473  0.71144850  1.0
  H  H21  1  0.30191820  0.13823255  0.70972587  1.0
  H  H22  1  0.54830188  0.31382008  0.70957338  1.0
  H  H23  1  0.65382567  0.31565804  0.27970596  1.0
  H  H24  1  0.29902286  0.02918598  0.27946835  1.0
  H  H25  1  0.03418554  0.65130066  0.27908885  1.0
  H  H26  1  0.97045393  0.68491664  0.78040187  1.0
  H  H27  1  0.33032638  0.97062221  0.78027952  1.0
  H  H28  1  0.96425471  0.33861721  0.21363004  1.0
  H  H29  1  0.68663695  0.34850623  0.77939142  1.0
  H  H30  1  0.43756170  0.35587443  0.23541548  1.0
  H  H31  1  0.33705042  0.20341482  0.23330911  1.0
  H  H32  1  0.20828806  0.44550682  0.23061401  1.0
  H  H33  1  0.79377928  0.64686740  0.73534206  1.0
  H  H34  1  0.54220757  0.79664883  0.73398333  1.0
  H  H35  1  0.65501049  0.55394832  0.73054328  1.0
  H  H36  1  0.03309249  0.29896625  0.72383324  1.0
  H  H37  1  0.65380211  0.03532166  0.71841251  1.0
  H  H38  1  0.30396419  0.66121089  0.71394608  1.0
  H  H39  1  0.30415441  0.55884293  0.29354674  1.0
  H  H40  1  0.54672936  0.13379703  0.28906158  1.0
  H  H41  1  0.13654890  0.30392050  0.28375165  1.0
  H  H42  1  0.86012743  0.86208445  0.52701865  1.0
  H  H43  1  0.72171977  0.16784652  0.97271596  1.0
  C  C44  1  0.55990760  0.87866830  0.43281561  1.0
  C  C45  1  0.02186437  0.48640267  0.79951143  1.0
  C  C46  1  0.48005736  0.02410928  0.79662974  1.0
  C  C47  1  0.48388167  0.49676653  0.79424768  1.0
  C  C48  1  0.59699670  0.48233872  0.22988593  1.0
  C  C49  1  0.46392735  0.92140188  0.22777349  1.0
  C  C50  1  0.92270632  0.60135069  0.22611197  1.0
  C  C51  1  0.07968025  0.51932164  0.73007913  1.0
  C  C52  1  0.38598899  0.07852718  0.72791672  1.0
  C  C53  1  0.52472708  0.39842337  0.72662722  1.0
  C  C54  1  0.52252063  0.59494367  0.26102395  1.0
  C  C55  1  0.89049083  0.54800292  0.43164759  1.0
  C  C56  1  0.58047931  0.88325812  0.25746800  1.0
  C  C57  1  0.88320648  0.52249269  0.25448740  1.0
  C  C58  1  0.11713939  0.40605122  0.76081773  1.0
  C  C59  1  0.46439579  0.11750568  0.75719991  1.0
  C  C60  1  0.40673640  0.47750599  0.75505230  1.0
  C  C61  1  0.46198370  0.49599538  0.15624953  1.0
  C  C62  1  0.47322724  0.04384594  0.15365741  1.0
  C  C63  1  0.04469283  0.47738503  0.15050093  1.0
  C  C64  1  0.95784684  0.50765514  0.65604768  1.0
  C  C65  1  0.51725528  0.95591033  0.65377193  1.0
  C  C66  1  0.56586510  0.55970923  0.43521920  1.0
  C  C67  1  0.52247915  0.52207212  0.65072538  1.0
  C  C68  1  0.52410753  0.52306661  0.34805354  1.0
  C  C69  1  0.51420016  0.95221268  0.34500972  1.0
  C  C70  1  0.95593714  0.51246192  0.34250031  1.0
  C  C71  1  0.04700495  0.47609687  0.84793816  1.0
  C  C72  1  0.46861101  0.04926028  0.84499708  1.0
  C  C73  1  0.46986352  0.48823115  0.84294516  1.0
  C  C74  1  0.55970039  0.87956011  0.56620721  1.0
  C  C75  1  0.89029773  0.54825765  0.56717934  1.0
  C  C76  1  0.56737938  0.55699597  0.56366415  1.0
  C  C77  1  0.44110146  0.12284282  0.93283551  1.0
  C  C78  1  0.43899165  0.12035932  0.06615543  1.0
  C  C79  1  0.43660791  0.45343093  0.06753004  1.0
  C  C80  1  0.12445915  0.44329454  0.06351112  1.0
  C  C81  1  0.38724994  0.53700231  0.27461617  1.0
  C  C82  1  0.52305891  0.07370167  0.27077575  1.0
  C  C83  1  0.07581675  0.38854265  0.26663314  1.0
  C  C84  1  0.92368830  0.46463350  0.77409761  1.0
  C  C85  1  0.59817703  0.92742982  0.77077460  1.0
  C  C86  1  0.46586386  0.61131418  0.76677287  1.0
  C  C87  1  0.40233470  0.61765548  0.23738482  1.0
  C  C88  1  0.43790017  0.45469381  0.93217123  1.0
  C  C89  1  0.60183230  0.97977700  0.23297488  1.0
  C  C90  1  0.97956669  0.40800837  0.22864358  1.0
  C  C91  1  0.01924640  0.38457944  0.73679495  1.0
  C  C92  1  0.58203410  0.02120253  0.73266380  1.0
  C  C93  1  0.38865829  0.59182058  0.72896109  1.0
  C  C94  1  0.45164911  0.48361712  0.11454173  1.0
  C  C95  1  0.46082500  0.06997538  0.11229951  1.0
  C  C96  1  0.07086820  0.46767358  0.10908658  1.0
  C  C97  1  0.93513717  0.51980704  0.61434325  1.0
  C  C98  1  0.53107645  0.92957182  0.61244289  1.0
  C  C99  1  0.12573513  0.43818231  0.93509254  1.0
  C  C100  1  0.53865235  0.53193955  0.60929306  1.0
  C  C101  1  0.53878421  0.53383691  0.38953815  1.0
  C  C102  1  0.52870354  0.92758537  0.38649934  1.0
  C  C103  1  0.93408371  0.52247143  0.38428417  1.0
  C  C104  1  0.07264863  0.46428306  0.88940715  1.0
  C  C105  1  0.45886616  0.07434146  0.88642570  1.0
  C  C106  1  0.45748565  0.47911660  0.88477082  1.0
  C  C107  1  0.46178720  0.42438813  0.24345470  1.0
  C  C108  1  0.40657154  0.11182279  0.24110675  1.0
  C  C109  1  0.11534098  0.46742268  0.23830910  1.0
  C  C110  1  0.50807407  0.51394905  0.29964218  1.0
  C  C111  1  0.88629050  0.57789912  0.74335131  1.0
  C  C112  1  0.51981912  0.88846523  0.74151343  1.0
  C  C113  1  0.58391641  0.53219999  0.73840793  1.0
  C  C114  1  0.47620415  0.50530110  0.20484069  1.0
  C  C115  1  0.48541583  0.01822676  0.20199136  1.0
  C  C116  1  0.01928733  0.48654536  0.19889162  1.0
  C  C117  1  0.98146149  0.49762298  0.70465972  1.0
  C  C118  1  0.50410007  0.98186819  0.70208466  1.0
  C  C119  1  0.50661256  0.51302667  0.69918146  1.0
  C  C120  1  0.58199395  0.40165486  0.26709594  1.0
  C  C121  1  0.50152200  0.97689036  0.29659740  1.0
  C  C122  1  0.38514498  0.01533189  0.26560479  1.0
  C  C123  1  0.01894599  0.58185035  0.26409209  1.0
  C  C124  1  0.98416956  0.59939587  0.76738562  1.0
  C  C125  1  0.40213311  0.98475350  0.76607017  1.0
  C  C126  1  0.60188108  0.41793861  0.76443902  1.0
  C  C127  1  0.97919037  0.50328864  0.29386820  1.0
  O  O128  1  0.87139609  0.64579872  0.44893524  1.0
  O  O129  1  0.51715562  0.15080737  0.94773492  1.0
  O  O130  1  0.33705238  0.53146443  0.95116125  1.0
  O  O131  1  0.15282071  0.33635422  0.95242667  1.0
  O  O132  1  0.86685120  0.64896049  0.55147715  1.0
  O  O133  1  0.66948161  0.48147968  0.54622789  1.0
  O  O134  1  0.48168273  0.85605814  0.54730993  1.0
  O  O135  1  0.51331998  0.35133515  0.05299427  1.0
  O  O136  1  0.15100588  0.51925050  0.04622885  1.0
  O  O137  1  0.33738286  0.14373115  0.04730592  1.0
  O  O138  1  0.65945673  0.85858992  0.54874616  1.0
  O  O139  1  0.66549281  0.48299764  0.45397653  1.0
  O  O140  1  0.87361106  0.46962300  0.54550723  1.0
  O  O141  1  0.49114964  0.65605526  0.54494178  1.0
  O  O142  1  0.51736147  0.14182586  0.04863858  1.0
  O  O143  1  0.34337010  0.53170093  0.04473237  1.0
  O  O144  1  0.14729596  0.34455356  0.04447118  1.0
  O  O145  1  0.68258690  0.66966811  0.49952399  1.0
  O  O146  1  0.35217629  0.33098974  0.99957552  1.0
  O  O147  1  0.48030829  0.86181798  0.45448188  1.0
  O  O148  1  0.51757369  0.35905746  0.95059939  1.0
  O  O149  1  0.14749426  0.51545896  0.95403124  1.0
  O  O150  1  0.34557899  0.13782322  0.95457284  1.0
  O  O151  1  0.66334901  0.85217220  0.44779502  1.0
  O  O152  1  0.87018191  0.46988732  0.45193663  1.0
  O  O153  1  0.49059223  0.66081777  0.45282881  1.0
  O  O154  1  0.85322969  0.82976311  0.49744235  1.0
  O  O155  1  0.68261727  0.17108634  0.00210021  1.0
