# generated using pymatgen
data_Zn4H8C42O25F4
_symmetry_space_group_name_H-M   'P 1'
_cell_length_a   20.93107756
_cell_length_b   20.94632705
_cell_length_c   20.94630896
_cell_angle_alpha   103.22154911
_cell_angle_beta   112.51996199
_cell_angle_gamma   112.51996250
_symmetry_Int_Tables_number   1
_chemical_formula_structural   Zn4H8C42O25F4
_chemical_formula_sum   'Zn8 H16 C84 O50 F8'
_cell_volume   7037.20174082
_cell_formula_units_Z   2
loop_
 _symmetry_equiv_pos_site_id
 _symmetry_equiv_pos_as_xyz
  1  'x, y, z'
loop_
 _atom_site_type_symbol
 _atom_site_label
 _atom_site_symmetry_multiplicity
 _atom_site_fract_x
 _atom_site_fract_y
 _atom_site_fract_z
 _atom_site_occupancy
  Zn  Zn0  1  0.56707501  0.27542991  0.70252189  1.0
  Zn  Zn1  1  0.56841235  0.86449717  0.29309640  1.0
  Zn  Zn2  1  0.56943111  0.29576527  0.86116932  1.0
  Zn  Zn3  1  0.43158555  0.70690110  0.13550142  1.0
  Zn  Zn4  1  0.43056638  0.13882846  0.70423218  1.0
  Zn  Zn5  1  0.42774941  0.72260162  0.28831006  1.0
  Zn  Zn6  1  0.43292360  0.29747747  0.72456893  1.0
  Zn  Zn7  1  0.57224810  0.71168865  0.27739681  1.0
  H  H8  1  0.39455573  0.53199825  0.96346372  1.0
  H  H9  1  0.91087622  0.77814088  0.48553493  1.0
  H  H10  1  0.94009114  0.45734269  0.80469312  1.0
  H  H11  1  0.08912328  0.51446627  0.22185713  1.0
  H  H12  1  0.05990988  0.19531190  0.54265600  1.0
  H  H13  1  0.28344356  0.50299922  0.61501905  1.0
  H  H14  1  0.68633284  0.58412776  0.44786775  1.0
  H  H15  1  0.71655804  0.38498731  0.49700983  1.0
  H  H16  1  0.60742226  0.46720552  0.04260552  1.0
  H  H17  1  0.31366463  0.55213172  0.41587203  1.0
  H  H18  1  0.52542111  0.61514409  0.87483976  1.0
  H  H19  1  0.46572550  0.37324839  0.12629463  1.0
  H  H20  1  0.47457710  0.12516500  0.38485986  1.0
  H  H21  1  0.53427407  0.87370470  0.62675076  1.0
  H  H22  1  0.60544172  0.03653612  0.46799936  1.0
  H  H23  1  0.39257819  0.95739372  0.53279500  1.0
  C  C24  1  0.50000061  0.14214170  0.85785665  1.0
  C  C25  1  0.68337771  0.58249271  0.29354767  1.0
  C  C26  1  0.50174319  0.61398724  0.11217888  1.0
  C  C27  1  0.49702001  0.10809331  0.60990782  1.0
  C  C28  1  0.49825634  0.88782103  0.38601070  1.0
  C  C29  1  0.50297955  0.39009208  0.89190679  1.0
  C  C30  1  0.28182588  0.14621521  0.64021363  1.0
  C  C31  1  0.72098913  0.86417992  0.35774010  1.0
  C  C32  1  0.71817416  0.35978614  0.85378185  1.0
  C  C33  1  0.27900926  0.64225917  0.13582039  1.0
  C  C34  1  0.70736121  0.28779306  0.59508840  1.0
  C  C35  1  0.80535433  0.40391676  0.89698607  1.0
  C  C36  1  0.19173779  0.59860905  0.09094117  1.0
  C  C37  1  0.19464487  0.10300892  0.59608553  1.0
  C  C38  1  0.80826052  0.90905634  0.40139143  1.0
  C  C39  1  0.31662141  0.70645102  0.41750597  1.0
  C  C40  1  0.87974133  0.44155848  0.93451469  1.0
  C  C41  1  0.11732896  0.56120530  0.05320390  1.0
  C  C42  1  0.12025659  0.06548204  0.55844223  1.0
  C  C43  1  0.88267063  0.94679252  0.43880165  1.0
  C  C44  1  0.96106827  0.48260481  0.97487506  1.0
  C  C45  1  0.29264122  0.40491626  0.71220853  1.0
  C  C46  1  0.03597847  0.52028909  0.01223959  1.0
  C  C47  1  0.03893060  0.02512351  0.51739837  1.0
  C  C48  1  0.96401987  0.98775349  0.47971486  1.0
  C  C49  1  0.50000045  0.40493174  0.59507298  1.0
  C  C50  1  0.49999721  0.59877704  0.40121832  1.0
  C  C51  1  0.50000102  0.44225541  0.55774944  1.0
  C  C52  1  0.49999955  0.56141891  0.43857680  1.0
  C  C53  1  0.14976012  0.29405049  0.61694339  1.0
  C  C54  1  0.83019615  0.68288866  0.39878048  1.0
  C  C55  1  0.85024080  0.38305443  0.70595287  1.0
  C  C56  1  0.16980409  0.60122047  0.31711155  1.0
  C  C57  1  0.28925021  0.42771333  0.64798906  1.0
  C  C58  1  0.66729803  0.55207815  0.34719810  1.0
  C  C59  1  0.71075384  0.35201377  0.57229473  1.0
  C  C60  1  0.33270049  0.65280048  0.44792140  1.0
  C  C61  1  0.43353315  0.51789553  0.79934579  1.0
  C  C62  1  0.53801254  0.47997456  0.18971866  1.0
  C  C63  1  0.56646764  0.20065751  0.48210767  1.0
  C  C64  1  0.46198748  0.81027929  0.52002551  1.0
  C  C65  1  0.36274620  0.44878779  0.78631853  1.0
  C  C66  1  0.62068565  0.54481646  0.21618430  1.0
  C  C67  1  0.63725515  0.21368357  0.55121454  1.0
  C  C68  1  0.49999866  0.86085803  0.13914064  1.0
  C  C69  1  0.37931311  0.78381457  0.45518200  1.0
  C  C70  1  0.36782067  0.42352949  0.84426257  1.0
  C  C71  1  0.63045548  0.57186325  0.16303669  1.0
  C  C72  1  0.63217970  0.15573733  0.57647046  1.0
  C  C73  1  0.36954478  0.83696338  0.42813750  1.0
  C  C74  1  0.30144250  0.35518576  0.82543373  1.0
  C  C75  1  0.70501765  0.63574129  0.18915562  1.0
  C  C76  1  0.69855781  0.17456204  0.64481077  1.0
  C  C77  1  0.29498211  0.81084419  0.36425878  1.0
  C  C78  1  0.23163099  0.31179402  0.75218414  1.0
  C  C79  1  0.76808135  0.67311094  0.26585615  1.0
  C  C80  1  0.76836970  0.24781054  0.68820311  1.0
  C  C81  1  0.23191806  0.73414377  0.32688879  1.0
  C  C82  1  0.22582923  0.33604800  0.69442348  1.0
  C  C83  1  0.49999797  0.48304442  0.51695187  1.0
  C  C84  1  0.75839047  0.64731640  0.31907208  1.0
  C  C85  1  0.77417133  0.30557326  0.66395355  1.0
  C  C86  1  0.24160880  0.68092826  0.35268293  1.0
  C  C87  1  0.44107930  0.51728424  0.98022911  1.0
  C  C88  1  0.56127117  0.48241759  0.02575165  1.0
  C  C89  1  0.55891858  0.01977092  0.48271432  1.0
  C  C90  1  0.49999915  0.52061727  0.47938215  1.0
  C  C91  1  0.43872828  0.97424817  0.51758272  1.0
  C  C92  1  0.50279333  0.55458269  0.05770444  1.0
  C  C93  1  0.50026631  0.44622568  0.94796943  1.0
  C  C94  1  0.49720560  0.94229568  0.44541516  1.0
  C  C95  1  0.49973304  0.05203033  0.55377402  1.0
  C  C96  1  0.56365118  0.53623794  0.08135456  1.0
  C  C97  1  0.43878148  0.46361506  0.92464545  1.0
  C  C98  1  0.43634923  0.91864519  0.46376236  1.0
  C  C99  1  0.56121709  0.07535477  0.53638425  1.0
  C  C100  1  0.49999882  0.36122678  0.63877260  1.0
  C  C101  1  0.49999877  0.64248371  0.35751332  1.0
  C  C102  1  0.50000432  0.09840573  0.90159484  1.0
  C  C103  1  0.49999826  0.90461005  0.09538775  1.0
  C  C104  1  0.50000196  0.06107519  0.93892665  1.0
  C  C105  1  0.49999809  0.94194809  0.05805138  1.0
  C  C106  1  0.50000235  0.02029708  0.97970654  1.0
  C  C107  1  0.50000050  0.98273768  0.01726417  1.0
  O  O108  1  0.49999920  0.25126514  0.74873381  1.0
  O  O109  1  0.45508699  0.78786922  0.10017107  1.0
  O  O110  1  0.47930460  0.85803209  0.58806858  1.0
  O  O111  1  0.44855738  0.10392998  0.78562143  1.0
  O  O112  1  0.54491078  0.89982718  0.21212877  1.0
  O  O113  1  0.54331858  0.33114520  0.64293946  1.0
  O  O114  1  0.44294598  0.65648730  0.33735966  1.0
  O  O115  1  0.45667950  0.35705906  0.66885552  1.0
  O  O116  1  0.55705101  0.66263700  0.34351105  1.0
  O  O117  1  0.49999949  0.75193554  0.24806381  1.0
  O  O118  1  0.44773912  0.08039027  0.63155541  1.0
  O  O119  1  0.55370453  0.91728958  0.37148910  1.0
  O  O120  1  0.55226091  0.36844492  0.91961008  1.0
  O  O121  1  0.44629383  0.62850725  0.08270999  1.0
  O  O122  1  0.45618319  0.36884467  0.82079553  1.0
  O  O123  1  0.55643456  0.64588333  0.18298926  1.0
  O  O124  1  0.54381744  0.17920360  0.63115532  1.0
  O  O125  1  0.44356681  0.81701214  0.35411779  1.0
  O  O126  1  0.31533747  0.10654663  0.64707775  1.0
  O  O127  1  0.68537619  0.90168232  0.34627346  1.0
  O  O128  1  0.68466146  0.35291881  0.89344926  1.0
  O  O129  1  0.31462243  0.65372460  0.09831678  1.0
  O  O130  1  0.31632157  0.21934355  0.66777344  1.0
  O  O131  1  0.68854157  0.79171467  0.33514520  1.0
  O  O132  1  0.68367801  0.33222632  0.78065347  1.0
  O  O133  1  0.31145539  0.66485350  0.20828428  1.0
  O  O134  1  0.55144233  0.21437767  0.89606867  1.0
  O  O135  1  0.12701969  0.32575521  0.57923454  1.0
  O  O136  1  0.10838660  0.21691974  0.59319789  1.0
  O  O137  1  0.85639854  0.64665164  0.42611494  1.0
  O  O138  1  0.86338011  0.75974310  0.43535164  1.0
  O  O139  1  0.87298138  0.42076402  0.67424902  1.0
  O  O140  1  0.89161470  0.40679952  0.78308358  1.0
  O  O141  1  0.14360010  0.57388420  0.35334680  1.0
  O  O142  1  0.13661939  0.56464927  0.24025636  1.0
  O  O143  1  0.29015043  0.39166367  0.59422314  1.0
  O  O144  1  0.28420073  0.49134204  0.65797032  1.0
  O  O145  1  0.62716941  0.48376684  0.32948501  1.0
  O  O146  1  0.69986759  0.60909586  0.41680181  1.0
  O  O147  1  0.70985070  0.40577714  0.60834476  1.0
  O  O148  1  0.71579940  0.34203368  0.50866400  1.0
  O  O149  1  0.37282892  0.67051462  0.51623316  1.0
  O  O150  1  0.30013208  0.58319762  0.39090365  1.0
  O  O151  1  0.44839156  0.52483550  0.74959703  1.0
  O  O152  1  0.48112169  0.57377970  0.87335148  1.0
  O  O153  1  0.49077038  0.48836825  0.20583393  1.0
  O  O154  1  0.52069605  0.41193031  0.14196819  1.0
  O  O155  1  0.55160957  0.25040664  0.47516791  1.0
  O  O156  1  0.51887684  0.12665205  0.42622255  1.0
  O  O157  1  0.50922761  0.79416091  0.51163224  1.0
  F  F158  1  0.30418361  0.32800152  0.87874093  1.0
  F  F159  1  0.83924967  0.73371773  0.28655283  1.0
  F  F160  1  0.82972784  0.25943559  0.75262321  1.0
  F  F161  1  0.16075051  0.71344760  0.26628165  1.0
  F  F162  1  0.17027490  0.24737466  0.74056139  1.0
  F  F163  1  0.71679850  0.66427886  0.14017572  1.0
  F  F164  1  0.69581618  0.12125271  0.67199121  1.0
  F  F165  1  0.28320122  0.85982339  0.33572078  1.0
