# generated using pymatgen
data_Zn3H23C38BrO13
_symmetry_space_group_name_H-M   'P 1'
_cell_length_a   21.67643865
_cell_length_b   21.67615551
_cell_length_c   23.32781798
_cell_angle_alpha   62.76509155
_cell_angle_beta   62.70786322
_cell_angle_gamma   90.80477820
_symmetry_Int_Tables_number   1
_chemical_formula_structural   Zn3H23C38BrO13
_chemical_formula_sum   'Zn6 H46 C76 Br2 O26'
_cell_volume   8305.88431058
_cell_formula_units_Z   2
loop_
 _symmetry_equiv_pos_site_id
 _symmetry_equiv_pos_as_xyz
  1  'x, y, z'
loop_
 _atom_site_type_symbol
 _atom_site_label
 _atom_site_symmetry_multiplicity
 _atom_site_fract_x
 _atom_site_fract_y
 _atom_site_fract_z
 _atom_site_occupancy
  Zn  Zn0  1  0.50103895  0.55988248  0.49962874  1.0
  Zn  Zn1  1  0.96065190  0.46267932  0.57685256  1.0
  Zn  Zn2  1  0.03950907  0.53748741  0.42321640  1.0
  Zn  Zn3  1  0.05952015  0.00068207  0.50035081  1.0
  Zn  Zn4  1  0.50149779  0.43763057  0.49613509  1.0
  Zn  Zn5  1  0.93378957  0.99764341  0.50384818  1.0
  H  H6  1  0.73894782  0.82117537  0.87244585  1.0
  H  H7  1  0.24519920  0.39381224  0.88167974  1.0
  H  H8  1  0.27550590  0.12689763  0.11830503  1.0
  H  H9  1  0.04800510  0.16690259  0.27152525  1.0
  H  H10  1  0.43845738  0.31954123  0.72845414  1.0
  H  H11  1  0.11133709  0.23999756  0.13098967  1.0
  H  H12  1  0.37100396  0.24232978  0.86899509  1.0
  H  H13  1  0.69396662  0.61143185  0.12754164  1.0
  H  H14  1  0.73841845  0.43944998  0.41261545  1.0
  H  H15  1  0.85206519  0.15107777  0.58729796  1.0
  H  H16  1  0.86015669  0.46129005  0.39503723  1.0
  H  H17  1  0.85631098  0.25521750  0.60490633  1.0
  H  H18  1  0.78838188  0.61654337  0.52707594  1.0
  H  H19  1  0.14358328  0.31532765  0.47316562  1.0
  H  H20  1  0.63479412  0.51488901  0.62123381  1.0
  H  H21  1  0.13619305  0.25596686  0.37892060  1.0
  H  H22  1  0.81437575  0.88552591  0.73156013  1.0
  H  H23  1  0.61742399  0.54594024  0.26842246  1.0
  H  H24  1  0.66726993  0.60176165  0.53705624  1.0
  H  H25  1  0.13879263  0.20421004  0.46314098  1.0
  H  H26  1  0.00806128  0.88365436  0.74031940  1.0
  H  H27  1  0.62364708  0.74837199  0.25968277  1.0
  H  H28  1  0.93347065  0.81924369  0.88143031  1.0
  H  H29  1  0.24567512  0.49772382  0.63465234  1.0
  H  H30  1  0.70026295  0.81493633  0.11853989  1.0
  H  H31  1  0.34735333  0.44510250  0.40906609  1.0
  H  H32  1  0.85415783  0.75651633  0.59076556  1.0
  H  H33  1  0.24061416  0.46563866  0.39658727  1.0
  H  H34  1  0.86216631  0.63727875  0.60330842  1.0
  H  H35  1  0.13251081  0.88020756  0.36555753  1.0
  H  H36  1  0.17631995  0.59794445  0.55350718  1.0
  H  H37  1  0.15139001  0.72962679  0.44684461  1.0
  H  H38  1  0.13124566  0.50667441  0.63093326  1.0
  H  H39  1  0.13768534  0.76201715  0.36932433  1.0
  H  H40  1  0.29078753  0.58764967  0.55520253  1.0
  H  H41  1  0.14285818  0.84580114  0.44510655  1.0
  H  H42  1  0.25903977  0.10256956  0.29545103  1.0
  H  H43  1  0.32485935  0.10247142  0.21313365  1.0
  H  H44  1  0.30455003  0.96823531  0.29597984  1.0
  H  H45  1  0.33377234  0.01937238  0.32539782  1.0
  H  H46  1  0.24067767  0.97100399  0.37677556  1.0
  H  H47  1  0.39800864  0.55448399  0.70455063  1.0
  H  H48  1  0.31558619  0.53799368  0.78683906  1.0
  H  H49  1  0.26424342  0.60053392  0.70394795  1.0
  H  H50  1  0.34477944  0.65916266  0.67456425  1.0
  H  H51  1  0.34782769  0.61745566  0.62317276  1.0
  C  C52  1  0.38847011  0.47689985  0.49129299  1.0
  C  C53  1  0.74820560  0.75391711  0.03413627  1.0
  C  C54  1  0.97235097  0.29915843  0.53387257  1.0
  C  C55  1  0.77667455  0.52490648  0.50992823  1.0
  C  C56  1  0.03483947  0.28654602  0.49017365  1.0
  C  C57  1  0.75610319  0.56091361  0.55571655  1.0
  C  C58  1  0.11663386  0.31171694  0.44447572  1.0
  C  C59  1  0.68019643  0.55114608  0.56309586  1.0
  C  C60  1  0.78801466  0.78243483  0.96584109  1.0
  C  C61  1  0.11425514  0.24320270  0.43706883  1.0
  C  C62  1  0.97603266  0.36657176  0.53626847  1.0
  C  C63  1  0.90281680  0.51226709  0.46378802  1.0
  C  C64  1  0.12946014  0.50856261  0.47396204  1.0
  C  C65  1  0.98247305  0.60339051  0.52610585  1.0
  C  C66  1  0.42765420  0.44565607  0.64179479  1.0
  C  C67  1  0.08746684  0.06946302  0.35817614  1.0
  C  C68  1  0.79782212  0.83501443  0.84337491  1.0
  C  C69  1  0.67858107  0.64123446  0.15660619  1.0
  C  C70  1  0.83958267  0.87066512  0.76520828  1.0
  C  C71  1  0.27218465  0.50911851  0.52532580  1.0
  C  C72  1  0.63607081  0.60480592  0.23477105  1.0
  C  C73  1  0.91547503  0.88892388  0.72772539  1.0
  C  C74  1  0.61665038  0.64320415  0.27225793  1.0
  C  C75  1  0.94917091  0.86978733  0.76983618  1.0
  C  C76  1  0.63944236  0.71901911  0.23014478  1.0
  C  C77  1  0.03446720  0.79744132  0.47481685  1.0
  C  C78  1  0.90762818  0.83398613  0.84833545  1.0
  C  C79  1  0.68210398  0.75599277  0.15164327  1.0
  C  C80  1  0.27610601  0.06902392  0.27022177  1.0
  C  C81  1  0.28949050  0.00283176  0.32002494  1.0
  C  C82  1  0.33924357  0.54632798  0.72975219  1.0
  C  C83  1  0.32287648  0.60951034  0.67992712  1.0
  C  C84  1  0.32280361  0.48261742  0.48627110  1.0
  C  C85  1  0.96890793  0.80907162  0.51376511  1.0
  C  C86  1  0.96821307  0.87976827  0.50870270  1.0
  C  C87  1  0.30897126  0.46563885  0.44093147  1.0
  C  C88  1  0.90656689  0.74994092  0.55901057  1.0
  C  C89  1  0.24860309  0.47680882  0.43421356  1.0
  C  C90  1  0.91099553  0.68285119  0.56576008  1.0
  C  C91  1  0.19654444  0.50122707  0.47621618  1.0
  C  C92  1  0.97741950  0.67272835  0.52385594  1.0
  C  C93  1  0.20969781  0.51584362  0.52248141  1.0
  C  C94  1  0.03833694  0.73209893  0.47769656  1.0
  C  C95  1  0.18175047  0.54275479  0.57697242  1.0
  C  C96  1  0.11974420  0.75858771  0.42329088  1.0
  C  C97  1  0.25332402  0.53610947  0.57921840  1.0
  C  C98  1  0.11537096  0.83241432  0.42102620  1.0
  C  C99  1  0.57316990  0.60110350  0.35628610  1.0
  C  C100  1  0.95741080  0.92946603  0.64369433  1.0
  C  C101  1  0.22669111  0.13763538  0.15112280  1.0
  C  C102  1  0.83141427  0.81682316  0.88609091  1.0
  C  C103  1  0.28876786  0.37781726  0.84886049  1.0
  C  C104  1  0.19206314  0.09824382  0.22984119  1.0
  C  C105  1  0.32809150  0.42190510  0.77014614  1.0
  C  C106  1  0.12763125  0.10960141  0.27390445  1.0
  C  C107  1  0.38352246  0.40154409  0.72607682  1.0
  C  C108  1  0.70289083  0.71755384  0.11388403  1.0
  C  C109  1  0.09877643  0.15991776  0.23698610  1.0
  C  C110  1  0.39692218  0.33576424  0.76299603  1.0
  C  C111  1  0.13376530  0.20030617  0.15878573  1.0
  C  C112  1  0.35910758  0.29255797  0.84120394  1.0
  C  C113  1  0.19886790  0.18989106  0.11436707  1.0
  C  C114  1  0.30426214  0.31323644  0.88562470  1.0
  C  C115  1  0.23513940  0.23155641  0.03440944  1.0
  C  C116  1  0.26597380  0.26955108  0.96558672  1.0
  C  C117  1  0.71000356  0.51736750  0.51534343  1.0
  C  C118  1  0.03271669  0.22530602  0.48474639  1.0
  C  C119  1  0.69342978  0.48601772  0.48175884  1.0
  C  C120  1  0.96777670  0.17517640  0.51826959  1.0
  C  C121  1  0.74904835  0.46466073  0.43952005  1.0
  C  C122  1  0.90417295  0.18857902  0.56045270  1.0
  C  C123  1  0.62115623  0.47881583  0.48997525  1.0
  C  C124  1  0.96880933  0.11113317  0.51001940  1.0
  C  C125  1  0.81767401  0.47650798  0.43005558  1.0
  C  C126  1  0.90655120  0.24772764  0.56992978  1.0
  C  C127  1  0.83302332  0.50619577  0.46616640  1.0
  Br  Br128  1  0.75113606  0.51015526  0.65336243  1.0
  Br  Br129  1  0.16363308  0.40440747  0.34680851  1.0
  O  O130  1  0.41166980  0.52365933  0.50069773  1.0
  O  O131  1  0.94875760  0.54419930  0.59116463  1.0
  O  O132  1  0.13534502  0.53991268  0.40888944  1.0
  O  O133  1  0.07075605  0.48305919  0.53744288  1.0
  O  O134  1  0.02044144  0.60817463  0.46262031  1.0
  O  O135  1  0.41728866  0.42631269  0.48698545  1.0
  O  O136  1  0.91333374  0.90428698  0.51298139  1.0
  O  O137  1  0.02437950  0.91238282  0.49928896  1.0
  O  O138  1  0.55545832  0.63516197  0.39221716  1.0
  O  O139  1  0.02739607  0.94768753  0.60777480  1.0
  O  O140  1  0.55612547  0.53262788  0.38859473  1.0
  O  O141  1  0.92124244  0.94472107  0.61138152  1.0
  O  O142  1  0.58974038  0.52496418  0.50056367  1.0
  O  O143  1  0.02555530  0.09031555  0.49941071  1.0
  O  O144  1  0.59493268  0.42759187  0.48670087  1.0
  O  O145  1  0.91430337  0.08163548  0.51330003  1.0
  O  O146  1  0.44539890  0.51513528  0.60920009  1.0
  O  O147  1  0.12436083  0.05461338  0.39075626  1.0
  O  O148  1  0.44634361  0.41096047  0.60772713  1.0
  O  O149  1  0.01870289  0.05408420  0.39224321  1.0
  O  O150  1  0.01448471  0.42424682  0.47249778  1.0
  O  O151  1  0.89673289  0.48694667  0.52754774  1.0
  O  O152  1  0.21837482  0.04449527  0.26370418  1.0
  O  O153  1  0.94163332  0.36276654  0.60033716  1.0
  O  O154  1  0.30820455  0.48207353  0.73627108  1.0
  O  O155  1  0.96308126  0.54193249  0.39972376  1.0
