# generated using pymatgen
data_ZnH10C12N4O
_symmetry_space_group_name_H-M   'P 1'
_cell_length_a   13.02899107
_cell_length_b   13.03816123
_cell_length_c   14.64474088
_cell_angle_alpha   115.46763494
_cell_angle_beta   115.40747976
_cell_angle_gamma   79.60674569
_symmetry_Int_Tables_number   1
_chemical_formula_structural   ZnH10C12N4O
_chemical_formula_sum   'Zn4 H40 C48 N16 O4'
_cell_volume   2028.75962222
_cell_formula_units_Z   4
loop_
 _symmetry_equiv_pos_site_id
 _symmetry_equiv_pos_as_xyz
  1  'x, y, z'
loop_
 _atom_site_type_symbol
 _atom_site_label
 _atom_site_symmetry_multiplicity
 _atom_site_fract_x
 _atom_site_fract_y
 _atom_site_fract_z
 _atom_site_occupancy
  Zn  Zn108  1  0.62439663  0.37556568  0.99985930  1.0
  Zn  Zn109  1  0.35477356  0.64533753  0.00010236  1.0
  Zn  Zn110  1  0.50659603  0.52785819  0.85266496  1.0
  Zn  Zn111  1  0.47189611  0.49322166  0.14722352  1.0
  H  H48  1  0.85436317  0.50830534  0.16495931  1.0
  H  H49  1  0.42944339  0.05146476  0.28167900  1.0
  H  H50  1  0.94761230  0.57096894  0.71837128  1.0
  H  H51  1  0.73461824  0.41984186  0.57371609  1.0
  H  H52  1  0.58047713  0.26462336  0.42591852  1.0
  H  H53  1  0.76226851  0.53911147  0.55656139  1.0
  H  H54  1  0.46130454  0.23702438  0.44339775  1.0
  H  H55  1  0.49179276  0.14555396  0.83470466  1.0
  H  H56  1  0.27166835  0.05737547  0.92034186  1.0
  H  H57  1  0.94253401  0.72867247  0.07980531  1.0
  H  H58  1  0.44707021  0.96462311  0.81529241  1.0
  H  H59  1  0.03504494  0.55343844  0.18476201  1.0
  H  H60  1  0.51218278  0.87212458  0.15791927  1.0
  H  H61  1  0.12731366  0.48851240  0.84234048  1.0
  H  H62  1  0.48727586  0.73482656  0.76470392  1.0
  H  H63  1  0.26458448  0.51260598  0.23498489  1.0
  H  H64  1  0.63003255  0.42363577  0.36185329  1.0
  H  H65  1  0.57628846  0.36958678  0.63786817  1.0
  H  H66  1  0.28757291  0.88596314  0.96216326  1.0
  H  H67  1  0.11468240  0.71352392  0.03899219  1.0
  H  H68  1  0.83983353  0.28083443  0.17391596  1.0
  H  H69  1  0.72020662  0.16053779  0.82613625  1.0
  H  H70  1  0.70488775  0.71905539  0.97818165  1.0
  H  H71  1  0.14396483  0.24113537  0.48254275  1.0
  H  H72  1  0.28093423  0.29486291  0.02192138  1.0
  H  H73  1  0.97301358  0.22067069  0.31977014  1.0
  H  H74  1  0.78045689  0.02736323  0.68030637  1.0
  H  H75  1  0.76520313  0.53654402  0.77070783  1.0
  H  H76  1  0.89414235  0.61590607  0.86787455  1.0
  H  H77  1  0.85856959  0.49984327  0.88420053  1.0
  H  H78  1  0.75970830  0.85611074  0.51756215  1.0
  H  H79  1  0.46346671  0.23365574  0.22888268  1.0
  H  H80  1  0.38411592  0.10473132  0.13190009  1.0
  H  H81  1  0.50021114  0.14026508  0.11544184  1.0
  H  H82  1  0.83456746  0.71649846  0.40836131  1.0
  H  H83  1  0.79649701  0.56989121  0.32183324  1.0
  H  H84  1  0.82865673  0.62145103  0.46604291  1.0
  H  H85  1  0.28345479  0.16543625  0.59183036  1.0
  H  H86  1  0.43002201  0.20381008  0.67849755  1.0
  H  H87  1  0.37866944  0.17125951  0.53414236  1.0
  C  C0  1  0.80042283  0.55265414  0.11306363  1.0
  C  C1  1  0.14427957  0.61842257  0.14586201  1.0
  C  C2  1  0.38198883  0.85569270  0.85442238  1.0
  C  C3  1  0.77297896  0.33924088  0.30741171  1.0
  C  C4  1  0.66124934  0.22705000  0.69246714  1.0
  C  C5  1  0.86945209  0.38587156  0.51016287  1.0
  C  C6  1  0.61461733  0.13012324  0.48965810  1.0
  C  C7  1  0.44740695  0.19940445  0.88674998  1.0
  C  C8  1  0.86662111  0.32894896  0.40350430  1.0
  C  C9  1  0.67180974  0.13339612  0.59639997  1.0
  C  C10  1  0.96911955  0.27248197  0.39987165  1.0
  C  C11  1  0.72841411  0.03105767  0.60020083  1.0
  C  C12  1  0.06770686  0.28319849  0.49403186  1.0
  C  C13  1  0.71753382  0.93227233  0.50607435  1.0
  C  C14  1  0.07351792  0.35253653  0.60190135  1.0
  C  C15  1  0.64797935  0.92597354  0.39813999  1.0
  C  C16  1  0.96817970  0.39782303  0.60406708  1.0
  C  C17  1  0.60264931  0.03119883  0.39582687  1.0
  C  C18  1  0.91443623  0.48302326  0.68017841  1.0
  C  C19  1  0.51733495  0.08467773  0.31960161  1.0
  C  C20  1  0.53796942  0.80836875  0.19275467  1.0
  C  C21  1  0.19104937  0.46256373  0.80734614  1.0
  C  C22  1  0.79968144  0.46345680  0.57402101  1.0
  C  C23  1  0.61118748  0.82026304  0.30094536  1.0
  C  C24  1  0.53690795  0.19957091  0.42570120  1.0
  C  C25  1  0.33314984  0.05927762  0.88852420  1.0
  C  C26  1  0.94054957  0.66728025  0.11163320  1.0
  C  C27  1  0.38613891  0.96194351  0.84740093  1.0
  C  C28  1  0.03788459  0.61433241  0.15274653  1.0
  C  C29  1  0.17917699  0.38931009  0.69910409  1.0
  C  C30  1  0.43885077  0.75456198  0.81489538  1.0
  C  C31  1  0.24519345  0.56121302  0.18507179  1.0
  C  C32  1  0.66680067  0.39076930  0.30078664  1.0
  C  C33  1  0.60930236  0.33293047  0.69896914  1.0
  C  C34  1  0.33626999  0.83177216  0.91465303  1.0
  C  C35  1  0.16857208  0.66445413  0.08610716  1.0
  C  C36  1  0.77375334  0.31806607  0.20504118  1.0
  C  C37  1  0.68255630  0.22638571  0.79488540  1.0
  C  C38  1  0.61594168  0.70859276  0.29554882  1.0
  C  C39  1  0.29099158  0.38413903  0.70446091  1.0
  C  C40  1  0.72377291  0.65963845  0.01732413  1.0
  C  C41  1  0.34038342  0.27602287  0.98268556  1.0
  C  C42  1  0.82894542  0.63499452  0.08947026  1.0
  C  C43  1  0.36521784  0.17084771  0.91057582  1.0
  C  C44  1  0.85503322  0.53032625  0.82395890  1.0
  C  C45  1  0.46971507  0.14381259  0.17569276  1.0
  C  C46  1  0.79037646  0.64303612  0.39377044  1.0
  C  C47  1  0.35694518  0.20958593  0.60640510  1.0
  N  N88  1  0.68845873  0.52930923  0.05725705  1.0
  N  N89  1  0.32246772  0.57238065  0.15159655  1.0
  N  N90  1  0.42766981  0.67749166  0.84851366  1.0
  N  N91  1  0.61002143  0.39988897  0.20328718  1.0
  N  N92  1  0.60004599  0.38974610  0.79646285  1.0
  N  N93  1  0.36377096  0.72596240  0.91082646  1.0
  N  N94  1  0.27436656  0.63669076  0.08979386  1.0
  N  N95  1  0.47057197  0.31138524  0.94246965  1.0
  N  N96  1  0.67660427  0.35457530  0.14350438  1.0
  N  N97  1  0.64565399  0.32338178  0.85632546  1.0
  N  N98  1  0.54868394  0.63838877  0.19394662  1.0
  N  N99  1  0.36123374  0.45134078  0.80608595  1.0
  N  N100  1  0.64099814  0.59447519  0.99769166  1.0
  N  N101  1  0.40535627  0.35885122  0.00212903  1.0
  N  N102  1  0.50084292  0.70032326  0.13087294  1.0
  N  N103  1  0.29919467  0.49944084  0.86916908  1.0
  O  O104  1  0.91569803  0.45172878  0.76195610  1.0
  O  O105  1  0.54845454  0.08329221  0.23763912  1.0
  O  O106  1  0.67255533  0.66930369  0.37685891  1.0
  O  O107  1  0.33039094  0.32730374  0.62314806  1.0
