# generated using pymatgen
data_Zn4H24C40N4O21
_symmetry_space_group_name_H-M   'P 1'
_cell_length_a   23.87930375
_cell_length_b   23.87899021
_cell_length_c   23.87635422
_cell_angle_alpha   72.31127046
_cell_angle_beta   66.89598709
_cell_angle_gamma   107.68831035
_symmetry_Int_Tables_number   1
_chemical_formula_structural   Zn4H24C40N4O21
_chemical_formula_sum   'Zn8 H48 C80 N8 O42'
_cell_volume   10448.08428769
_cell_formula_units_Z   2
loop_
 _symmetry_equiv_pos_site_id
 _symmetry_equiv_pos_as_xyz
  1  'x, y, z'
loop_
 _atom_site_type_symbol
 _atom_site_label
 _atom_site_symmetry_multiplicity
 _atom_site_fract_x
 _atom_site_fract_y
 _atom_site_fract_z
 _atom_site_occupancy
  Zn  Zn0  1  0.48792283  0.44448548  0.45609224  1.0
  Zn  Zn1  1  0.45611199  0.55553244  0.48790367  1.0
  Zn  Zn2  1  0.45655391  0.44447812  0.59942998  1.0
  Zn  Zn3  1  0.59942603  0.55553041  0.45654652  1.0
  Zn  Zn4  1  0.01208276  0.55596589  0.04345318  1.0
  Zn  Zn5  1  0.04390248  0.55597895  0.90056292  1.0
  Zn  Zn6  1  0.04344866  0.44402498  0.01208693  1.0
  Zn  Zn7  1  0.90058048  0.44401541  0.04390193  1.0
  H  H8  1  0.18048606  0.89041488  0.90043767  1.0
  H  H9  1  0.20999407  0.89045817  0.70911453  1.0
  H  H10  1  0.27955084  0.10985432  0.79287836  1.0
  H  H11  1  0.33036979  0.10989091  0.59725119  1.0
  H  H12  1  0.70914929  0.10955174  0.20994607  1.0
  H  H13  1  0.90042700  0.10957422  0.18049510  1.0
  H  H14  1  0.59727489  0.89013234  0.33034348  1.0
  H  H15  1  0.79286273  0.89014425  0.27955319  1.0
  H  H16  1  0.16967025  0.57239369  0.22046670  1.0
  H  H17  1  0.22045267  0.42758663  0.16969377  1.0
  H  H18  1  0.29003940  0.58089304  0.31952206  1.0
  H  H19  1  0.31948205  0.41906794  0.29007316  1.0
  H  H20  1  0.90272940  0.57237426  0.70712810  1.0
  H  H21  1  0.70712843  0.42757968  0.90275226  1.0
  H  H22  1  0.79086251  0.58088296  0.59956271  1.0
  H  H23  1  0.59956631  0.41907439  0.79087591  1.0
  H  H24  1  0.75034311  0.59542089  0.32973636  1.0
  H  H25  1  0.83229706  0.63507268  0.25702503  1.0
  H  H26  1  0.74966847  0.41988109  0.15494559  1.0
  H  H27  1  0.66773190  0.41066414  0.19719784  1.0
  H  H28  1  0.92515700  0.58006784  0.17025828  1.0
  H  H29  1  0.89210771  0.58930987  0.24297044  1.0
  H  H30  1  0.57483575  0.40461485  0.34505891  1.0
  H  H31  1  0.60786492  0.36494291  0.30277907  1.0
  H  H32  1  0.32972961  0.40458683  0.75033133  1.0
  H  H33  1  0.25702980  0.36492377  0.83229529  1.0
  H  H34  1  0.15492715  0.58007139  0.74965277  1.0
  H  H35  1  0.19724056  0.58933964  0.66768729  1.0
  H  H36  1  0.17021210  0.41987039  0.92519028  1.0
  H  H37  1  0.24292675  0.41064945  0.89214245  1.0
  H  H38  1  0.34506906  0.59540992  0.57480092  1.0
  H  H39  1  0.30281015  0.63508300  0.60784767  1.0
  H  H40  1  0.09133038  0.71407596  0.99227522  1.0
  H  H41  1  0.12275687  0.71411513  0.79361563  1.0
  H  H42  1  0.36802694  0.28634110  0.70781299  1.0
  H  H43  1  0.41838092  0.28637819  0.50583830  1.0
  H  H44  1  0.79365353  0.28589791  0.12271699  1.0
  H  H45  1  0.99225416  0.28591886  0.09134381  1.0
  H  H46  1  0.50586410  0.71364231  0.41834254  1.0
  H  H47  1  0.70778404  0.71365269  0.36803416  1.0
  H  H48  1  0.08167162  0.57578994  0.13197627  1.0
  H  H49  1  0.13198948  0.42417107  0.08167457  1.0
  H  H50  1  0.37726946  0.58362233  0.40863351  1.0
  H  H51  1  0.40861743  0.41637354  0.37728452  1.0
  H  H52  1  0.99412892  0.57577537  0.79221569  1.0
  H  H53  1  0.79217886  0.42416848  0.99418080  1.0
  H  H54  1  0.70637419  0.58361110  0.50771437  1.0
  H  H55  1  0.50774108  0.41639195  0.70636045  1.0
  C  C56  1  0.40809419  0.49998926  0.40812463  1.0
  C  C57  1  0.36040393  0.50001383  0.63959142  1.0
  C  C58  1  0.40827644  0.31650501  0.59175286  1.0
  C  C59  1  0.59189702  0.49999472  0.59188050  1.0
  C  C60  1  0.63960474  0.50000728  0.36038577  1.0
  C  C61  1  0.59175185  0.68350447  0.40826553  1.0
  C  C62  1  0.09189914  0.68377279  0.90810060  1.0
  C  C63  1  0.13961036  0.49999965  0.86039713  1.0
  C  C64  1  0.09176643  0.49999010  0.09174562  1.0
  C  C65  1  0.90811326  0.31622298  0.09186813  1.0
  C  C66  1  0.86039417  0.49999034  0.13960597  1.0
  C  C67  1  0.90823284  0.49998843  0.90826601  1.0
  C  C68  1  0.69539708  0.50000532  0.30459464  1.0
  C  C69  1  0.80460256  0.49998978  0.19540013  1.0
  C  C70  1  0.76679025  0.54484426  0.27567109  1.0
  C  C71  1  0.73320901  0.45752245  0.22194857  1.0
  C  C72  1  0.82051984  0.54245794  0.22432548  1.0
  C  C73  1  0.67947736  0.45515967  0.27804706  1.0
  C  C74  1  0.30460946  0.50000858  0.69538767  1.0
  C  C75  1  0.19540098  0.50000236  0.80460340  1.0
  C  C76  1  0.27567407  0.45515806  0.76679027  1.0
  C  C77  1  0.22195749  0.54247116  0.73319917  1.0
  C  C78  1  0.22431661  0.45752605  0.82053004  1.0
  C  C79  1  0.27806480  0.54485308  0.67945997  1.0
  C  C80  1  0.12830844  0.75659503  0.87169302  1.0
  C  C81  1  0.13840510  0.79375915  0.90737008  1.0
  C  C82  1  0.17347097  0.86361811  0.87208589  1.0
  C  C83  1  0.19927998  0.89850983  0.80073764  1.0
  C  C84  1  0.19020261  0.86363968  0.76427128  1.0
  C  C85  1  0.15538827  0.79378419  0.79884113  1.0
  C  C86  1  0.23480147  0.96953599  0.76522579  1.0
  C  C87  1  0.26542665  0.03078020  0.73460674  1.0
  C  C88  1  0.30093705  0.10180703  0.69909606  1.0
  C  C89  1  0.30409046  0.13669760  0.73676473  1.0
  C  C90  1  0.33905266  0.20653563  0.70216944  1.0
  C  C91  1  0.37187975  0.24369287  0.62815713  1.0
  C  C92  1  0.36755658  0.20655706  0.59128595  1.0
  C  C93  1  0.33267855  0.13671912  0.62652554  1.0
  C  C94  1  0.87170685  0.24340242  0.12828080  1.0
  C  C95  1  0.79886512  0.20622150  0.15535330  1.0
  C  C96  1  0.76430059  0.13636684  0.19015208  1.0
  C  C97  1  0.80075341  0.10149384  0.19925131  1.0
  C  C98  1  0.87209195  0.13637682  0.17344999  1.0
  C  C99  1  0.90737148  0.20623323  0.13839284  1.0
  C  C100  1  0.76524097  0.03046904  0.23477086  1.0
  C  C101  1  0.73461550  0.96922579  0.26539747  1.0
  C  C102  1  0.69909864  0.89819900  0.30092110  1.0
  C  C103  1  0.62653979  0.86329723  0.33265935  1.0
  C  C104  1  0.59129664  0.79345834  0.36753786  1.0
  C  C105  1  0.62815989  0.75631808  0.37186761  1.0
  C  C106  1  0.70216032  0.79346382  0.33905398  1.0
  C  C107  1  0.73675769  0.86330226  0.30409001  1.0
  C  C108  1  0.12816849  0.49999179  0.12815653  1.0
  C  C109  1  0.13249303  0.54118335  0.16097111  1.0
  C  C110  1  0.16736036  0.54081596  0.19594148  1.0
  C  C111  1  0.19909052  0.49998944  0.19911247  1.0
  C  C112  1  0.19593727  0.45917098  0.16737031  1.0
  C  C113  1  0.16097906  0.45880142  0.13248992  1.0
  C  C114  1  0.23458581  0.49997746  0.23464108  1.0
  C  C115  1  0.26521230  0.49997773  0.26525686  1.0
  C  C116  1  0.30072165  0.49997458  0.30077095  1.0
  C  C117  1  0.30980706  0.54551959  0.32656267  1.0
  C  C118  1  0.34461678  0.54575700  0.36160927  1.0
  C  C119  1  0.37167959  0.49998416  0.37172022  1.0
  C  C120  1  0.36156528  0.45420662  0.34465597  1.0
  C  C121  1  0.32650331  0.45442920  0.30986386  1.0
  C  C122  1  0.87182905  0.49998019  0.87185592  1.0
  C  C123  1  0.90869409  0.54116610  0.79783778  1.0
  C  C124  1  0.87345809  0.54079896  0.76323836  1.0
  C  C125  1  0.80089748  0.49997241  0.80090491  1.0
  C  C126  1  0.76323428  0.45915936  0.87347553  1.0
  C  C127  1  0.79782563  0.45879332  0.90872172  1.0
  C  C128  1  0.76538260  0.49996162  0.76539070  1.0
  C  C129  1  0.73476645  0.49996927  0.73477067  1.0
  C  C130  1  0.69925219  0.49997326  0.69925417  1.0
  C  C131  1  0.73571391  0.54551425  0.62790900  1.0
  C  C132  1  0.70114637  0.54575722  0.59262059  1.0
  C  C133  1  0.62830370  0.49999033  0.62829230  1.0
  C  C134  1  0.59263202  0.45421759  0.70114561  1.0
  C  C135  1  0.62791267  0.45443657  0.73572012  1.0
  N  N136  1  0.78905252  0.59096103  0.29655166  1.0
  N  N137  1  0.71095287  0.41436216  0.19810677  1.0
  N  N138  1  0.88751918  0.58559533  0.20344266  1.0
  N  N139  1  0.61247318  0.40906682  0.30188958  1.0
  N  N140  1  0.29655556  0.40904255  0.78905112  1.0
  N  N141  1  0.19810387  0.58561617  0.71093819  1.0
  N  N142  1  0.20341010  0.41436289  0.88753794  1.0
  N  N143  1  0.30191151  0.59095776  0.61245304  1.0
  O  O144  1  0.50000389  0.50000953  0.49999154  1.0
  O  O145  1  0.43197955  0.45797107  0.41584887  1.0
  O  O146  1  0.38370844  0.53942167  0.57556226  1.0
  O  O147  1  0.41215839  0.34809903  0.62688129  1.0
  O  O148  1  0.41583181  0.54201938  0.43199527  1.0
  O  O149  1  0.43598871  0.34811221  0.52502688  1.0
  O  O150  1  0.38502140  0.46061221  0.65569783  1.0
  O  O151  1  0.52598506  0.45799359  0.62618648  1.0
  O  O152  1  0.65571149  0.53941448  0.38500040  1.0
  O  O153  1  0.62620634  0.54200697  0.52596079  1.0
  O  O154  1  0.57558188  0.46060642  0.38369057  1.0
  O  O155  1  0.52504058  0.65190408  0.43596041  1.0
  O  O156  1  0.62687041  0.65190693  0.41215668  1.0
  O  O157  1  0.00000282  0.49999485  0.00000245  1.0
  O  O158  1  0.06799194  0.65215741  0.97401952  1.0
  O  O159  1  0.11631054  0.54071954  0.84429258  1.0
  O  O160  1  0.08787564  0.46098205  0.06403922  1.0
  O  O161  1  0.08419082  0.65217143  0.87379158  1.0
  O  O162  1  0.06406054  0.53900097  0.08784868  1.0
  O  O163  1  0.11499333  0.45927742  0.92442564  1.0
  O  O164  1  0.97401505  0.34783535  0.06799664  1.0
  O  O165  1  0.84429491  0.45927111  0.11630362  1.0
  O  O166  1  0.87381459  0.34782639  0.08414718  1.0
  O  O167  1  0.92441655  0.54071445  0.11498640  1.0
  O  O168  1  0.97495735  0.53899405  0.87313689  1.0
  O  O169  1  0.87310919  0.46099336  0.97499239  1.0
  O  O170  1  0.11477670  0.76314985  0.97574356  1.0
  O  O171  1  0.14839624  0.76318961  0.76107340  1.0
  O  O172  1  0.34050001  0.23728965  0.74096838  1.0
  O  O173  1  0.39686958  0.23733260  0.52172586  1.0
  O  O174  1  0.76110980  0.23682367  0.14835599  1.0
  O  O175  1  0.97573321  0.23684516  0.11477675  1.0
  O  O176  1  0.52174693  0.76268844  0.39684275  1.0
  O  O177  1  0.74094500  0.76269950  0.34050918  1.0
  O  O178  1  0.10318180  0.58142100  0.15951023  1.0
  O  O179  1  0.15952445  0.41855581  0.10318699  1.0
  O  O180  1  0.35162217  0.59051795  0.38520557  1.0
  O  O181  1  0.38517877  0.40945989  0.35165003  1.0
  O  O182  1  0.97825029  0.58140642  0.75904868  1.0
  O  O183  1  0.75903063  0.41854740  0.97828140  1.0
  O  O184  1  0.73891084  0.59051313  0.52425140  1.0
  O  O185  1  0.52426438  0.40947708  0.73891095  1.0
