# generated using pymatgen
data_AlH15C24(NO2)3
_symmetry_space_group_name_H-M   'P 1'
_cell_length_a   3.99904439
_cell_length_b   28.91760230
_cell_length_c   28.91718708
_cell_angle_alpha   59.99937170
_cell_angle_beta   89.99882772
_cell_angle_gamma   89.99929304
_symmetry_Int_Tables_number   1
_chemical_formula_structural   AlH15C24(NO2)3
_chemical_formula_sum   'Al2 H30 C48 N6 O12'
_cell_volume   2896.02583740
_cell_formula_units_Z   2
loop_
 _symmetry_equiv_pos_site_id
 _symmetry_equiv_pos_as_xyz
  1  'x, y, z'
loop_
 _atom_site_type_symbol
 _atom_site_label
 _atom_site_symmetry_multiplicity
 _atom_site_fract_x
 _atom_site_fract_y
 _atom_site_fract_z
 _atom_site_occupancy
  Al  Al0  1  0.00644591  0.49999968  0.99999769  1.0
  Al  Al1  1  0.00783683  0.16666217  0.66667393  1.0
  H  H2  1  0.84440135  0.30551633  0.52265324  1.0
  H  H3  1  0.87844215  0.35486524  0.42285868  1.0
  H  H4  1  0.23495607  0.18544473  0.51807049  1.0
  H  H5  1  0.23428787  0.48120170  0.14860693  1.0
  H  H6  1  0.84342372  0.36110692  0.14398464  1.0
  H  H7  1  0.87804431  0.31180188  0.24377710  1.0
  H  H8  1  0.84443393  0.17182028  0.80552867  1.0
  H  H9  1  0.87848129  0.22226903  0.85487268  1.0
  H  H10  1  0.23494433  0.29648499  0.68545202  1.0
  H  H11  1  0.23427210  0.37019154  0.98120462  1.0
  H  H12  1  0.84339863  0.49490873  0.86109963  1.0
  H  H13  1  0.87799506  0.44442036  0.81179702  1.0
  H  H14  1  0.84444981  0.02265855  0.67183460  1.0
  H  H15  1  0.87849928  0.92286267  0.72227982  1.0
  H  H16  1  0.23492786  0.01805654  0.79650199  1.0
  H  H17  1  0.23428857  0.64860581  0.87018301  1.0
  H  H18  1  0.84344026  0.64398103  0.99490270  1.0
  H  H19  1  0.87805804  0.74377135  0.94441470  1.0
  H  H20  1  0.22277835  0.25367058  0.37275604  1.0
  H  H21  1  0.06507369  0.20225005  0.42959205  1.0
  H  H22  1  0.22296498  0.41302677  0.29390743  1.0
  H  H23  1  0.06499171  0.46442833  0.23709540  1.0
  H  H24  1  0.22282569  0.37357040  0.75368088  1.0
  H  H25  1  0.06507945  0.36815739  0.70226009  1.0
  H  H26  1  0.22292253  0.29306715  0.91302850  1.0
  H  H27  1  0.06497835  0.29847745  0.96443453  1.0
  H  H28  1  0.22287378  0.87274311  0.87358764  1.0
  H  H29  1  0.06510412  0.92957164  0.86817983  1.0
  H  H30  1  0.22301292  0.79390852  0.79305469  1.0
  H  H31  1  0.06505465  0.73709602  0.79846491  1.0
  C  C32  1  0.51159827  0.58181126  0.96442511  1.0
  C  C33  1  0.51161510  0.45375876  0.08181156  1.0
  C  C34  1  0.51162643  0.46442897  0.95375719  1.0
  C  C35  1  0.51302903  0.21283930  0.58485992  1.0
  C  C36  1  0.51301270  0.20230151  0.71285002  1.0
  C  C37  1  0.51299834  0.08484983  0.70231466  1.0
  C  C38  1  0.53758295  0.24264648  0.52557832  1.0
  C  C39  1  0.71900370  0.29059768  0.49931905  1.0
  C  C40  1  0.73847623  0.31763784  0.44403540  1.0
  C  C41  1  0.58669799  0.29714141  0.41400474  1.0
  C  C42  1  0.40478462  0.24818999  0.44085700  1.0
  C  C43  1  0.38087096  0.22205836  0.49661424  1.0
  C  C44  1  0.60707833  0.32387326  0.35761420  1.0
  C  C45  1  0.60708857  0.34281019  0.30904108  1.0
  C  C46  1  0.58649412  0.36953620  0.25263740  1.0
  C  C47  1  0.40452556  0.41847721  0.22580799  1.0
  C  C48  1  0.38026271  0.44459762  0.17004562  1.0
  C  C49  1  0.53675555  0.42399064  0.14108272  1.0
  C  C50  1  0.71826150  0.37604876  0.16732754  1.0
  C  C51  1  0.73798584  0.34903441  0.22260514  1.0
  C  C52  1  0.53757268  0.23177400  0.74265641  1.0
  C  C53  1  0.71900585  0.21007890  0.79060634  1.0
  C  C54  1  0.73851238  0.23831914  0.81764789  1.0
  C  C55  1  0.58670300  0.28884317  0.79715317  1.0
  C  C56  1  0.40480217  0.31094909  0.74819934  1.0
  C  C57  1  0.38087957  0.28132195  0.72207182  1.0
  C  C58  1  0.60709470  0.31850198  0.82388684  1.0
  C  C59  1  0.60708710  0.34815101  0.84280754  1.0
  C  C60  1  0.58648151  0.37782271  0.86953488  1.0
  C  C61  1  0.40450041  0.35571416  0.91848080  1.0
  C  C62  1  0.38027150  0.38535823  0.94459599  1.0
  C  C63  1  0.53675331  0.43492462  0.92398746  1.0
  C  C64  1  0.71824174  0.45662214  0.87604342  1.0
  C  C65  1  0.73795208  0.42836233  0.84902778  1.0
  C  C66  1  0.53756954  0.02556973  0.73178298  1.0
  C  C67  1  0.71902139  0.99931797  0.71009282  1.0
  C  C68  1  0.73848879  0.94403456  0.73833045  1.0
  C  C69  1  0.58673763  0.91400764  0.78885323  1.0
  C  C70  1  0.40481395  0.94084844  0.81096311  1.0
  C  C71  1  0.38084555  0.99660228  0.78133786  1.0
  C  C72  1  0.60708269  0.85760479  0.81851362  1.0
  C  C73  1  0.60709756  0.80903465  0.84815446  1.0
  C  C74  1  0.58648783  0.75263928  0.87782209  1.0
  C  C75  1  0.40452708  0.72580482  0.85570710  1.0
  C  C76  1  0.38028646  0.67004057  0.88535397  1.0
  C  C77  1  0.53672145  0.64108851  0.93492159  1.0
  C  C78  1  0.71825966  0.66732776  0.95661690  1.0
  C  C79  1  0.73798912  0.72260060  0.92835885  1.0
  N  N80  1  0.26312876  0.22685029  0.41200591  1.0
  N  N81  1  0.26311880  0.43984155  0.25466704  1.0
  N  N82  1  0.26315279  0.36113826  0.72686244  1.0
  N  N83  1  0.26309967  0.30549350  0.93984523  1.0
  N  N84  1  0.26316268  0.91199056  0.86115765  1.0
  N  N85  1  0.26314324  0.75466623  0.80548458  1.0
  O  O86  1  0.26763877  0.45283312  0.98619070  1.0
  O  O87  1  0.26761919  0.56097291  0.95282815  1.0
  O  O88  1  0.26761697  0.48619139  0.06097119  1.0
  O  O89  1  0.73725700  0.49908312  0.94541275  1.0
  O  O90  1  0.73724375  0.44541585  0.05549762  1.0
  O  O91  1  0.73723826  0.55549704  0.99908061  1.0
  O  O92  1  0.26927340  0.10572753  0.71390228  1.0
  O  O93  1  0.26928313  0.18037400  0.60573609  1.0
  O  O94  1  0.26927634  0.21388743  0.68038401  1.0
  O  O95  1  0.73888372  0.11111580  0.66769051  1.0
  O  O96  1  0.73888249  0.16767777  0.72120544  1.0
  O  O97  1  0.73887824  0.22119535  0.61112256  1.0
