# generated using pymatgen
data_AlH2C6IO5
_symmetry_space_group_name_H-M   'P 1'
_cell_length_a   6.70040882
_cell_length_b   14.46013370
_cell_length_c   17.10501037
_cell_angle_alpha   93.25915522
_cell_angle_beta   90.59929224
_cell_angle_gamma   90.41748749
_symmetry_Int_Tables_number   1
_chemical_formula_structural   AlH2C6IO5
_chemical_formula_sum   'Al4 H8 C24 I4 O20'
_cell_volume   1654.46149744
_cell_formula_units_Z   4
loop_
 _symmetry_equiv_pos_site_id
 _symmetry_equiv_pos_as_xyz
  1  'x, y, z'
loop_
 _atom_site_type_symbol
 _atom_site_label
 _atom_site_symmetry_multiplicity
 _atom_site_fract_x
 _atom_site_fract_y
 _atom_site_fract_z
 _atom_site_occupancy
  Al  Al0  1  0.89197226  0.49616919  0.49796970  1.0
  Al  Al1  1  0.39137628  0.50006406  0.49980328  1.0
  Al  Al2  1  0.37160286  0.00101143  0.00206796  1.0
  Al  Al3  1  0.87154551  0.99734718  0.99945740  1.0
  H  H4  1  0.97758980  0.77513587  0.81719989  1.0
  H  H5  1  0.48092844  0.20608292  0.19188464  1.0
  H  H6  1  0.36506836  0.64908206  0.72812865  1.0
  H  H7  1  0.85242065  0.25824607  0.34803789  1.0
  H  H8  1  0.65112186  0.61928279  0.51869607  1.0
  H  H9  1  0.14574460  0.38304949  0.52496753  1.0
  H  H10  1  0.61383797  0.88157184  0.97315273  1.0
  H  H11  1  0.11855918  0.11536443  0.03115208  1.0
  C  C12  1  0.64772166  0.39012178  0.60184399  1.0
  C  C13  1  0.13273331  0.60343675  0.39589786  1.0
  C  C14  1  0.62916093  0.39445694  0.38557041  1.0
  C  C15  1  0.15132244  0.62090094  0.60067559  1.0
  C  C16  1  0.27572512  0.78077741  0.78448084  1.0
  C  C17  1  0.77551605  0.20086657  0.23169743  1.0
  C  C18  1  0.12117067  0.80968262  0.82914439  1.0
  C  C19  1  0.62747944  0.17619416  0.18009636  1.0
  C  C20  1  0.26328252  0.70740744  0.72245510  1.0
  C  C21  1  0.75283870  0.26721377  0.29793760  1.0
  C  C22  1  0.14883710  0.70415785  0.65709560  1.0
  C  C23  1  0.63051822  0.34110098  0.30756821  1.0
  C  C24  1  0.12387997  0.83232060  0.16961425  1.0
  C  C25  1  0.62214704  0.16488521  0.83086507  1.0
  C  C26  1  0.12789659  0.77885843  0.22247639  1.0
  C  C27  1  0.62782161  0.21726283  0.77721192  1.0
  C  C28  1  0.13155955  0.71946406  0.28053950  1.0
  C  C29  1  0.63474757  0.27543138  0.71823897  1.0
  C  C30  1  0.13460355  0.66541581  0.33298913  1.0
  C  C31  1  0.64202260  0.32834686  0.66498357  1.0
  C  C32  1  0.62912026  0.11196283  0.11049622  1.0
  C  C33  1  0.11984599  0.88196783  0.89357463  1.0
  C  C34  1  0.62117226  0.10473705  0.89564567  1.0
  C  C35  1  0.12330167  0.89280856  0.10522475  1.0
  I  I36  1  0.56822542  0.83486353  0.79446906  1.0
  I  I37  1  0.06392019  0.14250600  0.22780225  1.0
  I  I38  1  0.96629767  0.81193131  0.62240379  1.0
  I  I39  1  0.43469592  0.39375711  0.22508612  1.0
  O  O40  1  0.46222135  0.42559366  0.40853111  1.0
  O  O41  1  0.98491577  0.59635954  0.56952742  1.0
  O  O42  1  0.81908157  0.42027694  0.58333695  1.0
  O  O43  1  0.29806261  0.59125959  0.43116063  1.0
  O  O44  1  0.79445926  0.40255521  0.42278097  1.0
  O  O45  1  0.31979426  0.58285267  0.58853793  1.0
  O  O46  1  0.96476552  0.56770897  0.41143434  1.0
  O  O47  1  0.48022344  0.40798266  0.57014004  1.0
  O  O48  1  0.64402408  0.55405369  0.50231454  1.0
  O  O49  1  0.14218305  0.44110210  0.49923887  1.0
  O  O50  1  0.79195238  0.08001030  0.91955649  1.0
  O  O51  1  0.29399760  0.91834485  0.08234570  1.0
  O  O52  1  0.45609720  0.08863574  0.08306516  1.0
  O  O53  1  0.94768244  0.90829992  0.91720187  1.0
  O  O54  1  0.45102466  0.08404446  0.92214200  1.0
  O  O55  1  0.95297481  0.91276107  0.07756057  1.0
  O  O56  1  0.28547650  0.91173999  0.92218077  1.0
  O  O57  1  0.79442732  0.08544344  0.08126417  1.0
  O  O58  1  0.61949050  0.94341626  0.99830446  1.0
  O  O59  1  0.12113610  0.05505807  0.00325005  1.0
