# generated using pymatgen
data_AlH12(C2O)12
_symmetry_space_group_name_H-M   'P 1'
_cell_length_a   4.00096242
_cell_length_b   29.01838382
_cell_length_c   29.01566026
_cell_angle_alpha   120.00316546
_cell_angle_beta   90.00147844
_cell_angle_gamma   89.99851970
_symmetry_Int_Tables_number   1
_chemical_formula_structural   AlH12(C2O)12
_chemical_formula_sum   'Al2 H24 C48 O24'
_cell_volume   2917.33920448
_cell_formula_units_Z   2
loop_
 _symmetry_equiv_pos_site_id
 _symmetry_equiv_pos_as_xyz
  1  'x, y, z'
loop_
 _atom_site_type_symbol
 _atom_site_label
 _atom_site_symmetry_multiplicity
 _atom_site_fract_x
 _atom_site_fract_y
 _atom_site_fract_z
 _atom_site_occupancy
  Al  Al0  1  0.00018680  0.49999530  0.99998797  1.0
  Al  Al1  1  0.99916819  0.83334800  0.66669022  1.0
  H  H2  1  0.19918462  0.64791732  0.42030380  1.0
  H  H3  1  0.80064854  0.77238315  0.42034716  1.0
  H  H4  1  0.80068161  0.56093848  0.24635123  1.0
  H  H5  1  0.19927495  0.68539631  0.24634663  1.0
  H  H6  1  0.19915026  0.77238206  0.85210421  1.0
  H  H7  1  0.80064529  0.64796521  0.72761813  1.0
  H  H8  1  0.80062909  0.68539567  0.93905021  1.0
  H  H9  1  0.19923855  0.56093734  0.81458224  1.0
  H  H10  1  0.19924687  0.07969789  0.72760634  1.0
  H  H11  1  0.80074626  0.07968796  0.85206070  1.0
  H  H12  1  0.80071189  0.25364327  0.81457360  1.0
  H  H13  1  0.19929570  0.25366293  0.93903930  1.0
  H  H14  1  0.14742610  0.71911136  0.55991056  1.0
  H  H15  1  0.85150808  0.84081924  0.55997075  1.0
  H  H16  1  0.85213496  0.49252217  0.10673931  1.0
  H  H17  1  0.14806825  0.61421225  0.10672981  1.0
  H  H18  1  0.14737062  0.84080831  0.78093775  1.0
  H  H19  1  0.85148095  0.71916059  0.65920655  1.0
  H  H20  1  0.85209709  0.61421142  0.00746132  1.0
  H  H21  1  0.14804375  0.49251313  0.88576031  1.0
  H  H22  1  0.14744768  0.94010472  0.65921581  1.0
  H  H23  1  0.85153712  0.94007967  0.78089445  1.0
  H  H24  1  0.85216590  0.39324172  0.88576386  1.0
  H  H25  1  0.14810165  0.39326435  0.00746793  1.0
  C  C26  1  0.50016772  0.41677714  0.95837991  1.0
  C  C27  1  0.50016297  0.54160973  0.08320894  1.0
  C  C28  1  0.50015382  0.54159145  0.95836885  1.0
  C  C29  1  0.49921452  0.79174805  0.58346926  1.0
  C  C30  1  0.49921616  0.79173129  0.70829303  1.0
  C  C31  1  0.49921227  0.91656361  0.70831937  1.0
  C  C32  1  0.49969917  0.76304536  0.52612252  1.0
  C  C33  1  0.32226114  0.71378499  0.49690689  1.0
  C  C34  1  0.33217617  0.68554529  0.44161647  1.0
  C  C35  1  0.49997627  0.70701095  0.41404968  1.0
  C  C36  1  0.66767901  0.75605087  0.44164237  1.0
  C  C37  1  0.67726939  0.78310549  0.49693361  1.0
  C  C38  1  0.49996858  0.67880008  0.35761350  1.0
  C  C39  1  0.49995127  0.65452217  0.30905912  1.0
  C  C40  1  0.49995109  0.62630540  0.25262493  1.0
  C  C41  1  0.66771263  0.57726617  0.22504655  1.0
  C  C42  1  0.67752008  0.55022042  0.16976211  1.0
  C  C43  1  0.50006572  0.57027726  0.14055567  1.0
  C  C44  1  0.32254416  0.61953357  0.16975775  1.0
  C  C45  1  0.33223941  0.64776539  0.22504143  1.0
  C  C46  1  0.49966635  0.76308263  0.73698945  1.0
  C  C47  1  0.32223852  0.78312665  0.78625340  1.0
  C  C48  1  0.33214624  0.75607425  0.81448263  1.0
  C  C49  1  0.49992585  0.70703914  0.79300035  1.0
  C  C50  1  0.66768037  0.68559255  0.74395587  1.0
  C  C51  1  0.67726296  0.71383236  0.71691263  1.0
  C  C52  1  0.49988856  0.67880718  0.82119653  1.0
  C  C53  1  0.49987055  0.65451928  0.84546832  1.0
  C  C54  1  0.49990575  0.62629926  0.87367804  1.0
  C  C55  1  0.66768299  0.64776703  0.92272131  1.0
  C  C56  1  0.67748324  0.61953074  0.94976339  1.0
  C  C57  1  0.50006105  0.57027007  0.92969789  1.0
  C  C58  1  0.32252601  0.55021202  0.88044009  1.0
  C  C59  1  0.33220857  0.57725760  0.85220970  1.0
  C  C60  1  0.49969709  0.97391008  0.73695098  1.0
  C  C61  1  0.32228576  0.00311303  0.71689229  1.0
  C  C62  1  0.33221085  0.05839024  0.74392725  1.0
  C  C63  1  0.50006002  0.08596332  0.79296337  1.0
  C  C64  1  0.66775169  0.05838429  0.81442768  1.0
  C  C65  1  0.67729931  0.00310428  0.78620518  1.0
  C  C66  1  0.50005000  0.14239248  0.82118705  1.0
  C  C67  1  0.50003034  0.19095340  0.84545849  1.0
  C  C68  1  0.49999533  0.24738023  0.87366785  1.0
  C  C69  1  0.66774294  0.27494844  0.85220036  1.0
  C  C70  1  0.67756067  0.33022819  0.88043758  1.0
  C  C71  1  0.50008530  0.35943224  0.92969975  1.0
  C  C72  1  0.32254005  0.33024276  0.94976280  1.0
  C  C73  1  0.33224524  0.27495909  0.92271155  1.0
  O  O74  1  0.73128561  0.55148756  0.99372718  1.0
  O  O75  1  0.73127886  0.44223578  0.94848625  1.0
  O  O76  1  0.73128071  0.50625837  0.05774943  1.0
  O  O77  1  0.26907173  0.50623325  0.94847581  1.0
  O  O78  1  0.26909528  0.55150313  0.05774016  1.0
  O  O79  1  0.26910929  0.44224903  0.99374648  1.0
  O  O80  1  0.73012996  0.89107647  0.71822113  1.0
  O  O81  1  0.73013061  0.82713451  0.60895516  1.0
  O  O82  1  0.73015320  0.78183830  0.67290816  1.0
  O  O83  1  0.26795694  0.89112111  0.67298371  1.0
  O  O84  1  0.26794201  0.82705776  0.71818433  1.0
  O  O85  1  0.26797843  0.78185960  0.60891042  1.0
  O  O86  1  0.14951946  0.69225859  0.52150641  1.0
  O  O87  1  0.84994593  0.82923834  0.52155865  1.0
  O  O88  1  0.85022544  0.50409040  0.14514742  1.0
  O  O89  1  0.14984145  0.64104686  0.14513833  1.0
  O  O90  1  0.14950366  0.82925226  0.80778362  1.0
  O  O91  1  0.84996985  0.69232766  0.67078070  1.0
  O  O92  1  0.85020652  0.64104735  0.99589592  1.0
  O  O93  1  0.14985726  0.50408445  0.85892639  1.0
  O  O94  1  0.14956474  0.97850102  0.67076494  1.0
  O  O95  1  0.85001398  0.97848860  0.80771846  1.0
  O  O96  1  0.85026236  0.35483908  0.85891796  1.0
  O  O97  1  0.14986116  0.35486017  0.99589891  1.0
