# generated using pymatgen
data_AlH4C9NO7F
_symmetry_space_group_name_H-M   'P 1'
_cell_length_a   6.86032015
_cell_length_b   11.07964509
_cell_length_c   11.17582012
_cell_angle_alpha   89.99409702
_cell_angle_beta   72.16284050
_cell_angle_gamma   73.31878560
_symmetry_Int_Tables_number   1
_chemical_formula_structural   AlH4C9NO7F
_chemical_formula_sum   'Al2 H8 C18 N2 O14 F2'
_cell_volume   771.00854945
_cell_formula_units_Z   2
loop_
 _symmetry_equiv_pos_site_id
 _symmetry_equiv_pos_as_xyz
  1  'x, y, z'
loop_
 _atom_site_type_symbol
 _atom_site_label
 _atom_site_symmetry_multiplicity
 _atom_site_fract_x
 _atom_site_fract_y
 _atom_site_fract_z
 _atom_site_occupancy
  Al  Al0  1  0.00139867  0.48869305  0.49901087  1.0
  Al  Al1  1  0.50015351  0.48951751  0.49967544  1.0
  H  H2  1  0.12959000  0.62983553  0.60341246  1.0
  H  H3  1  0.87169578  0.36704350  0.37288714  1.0
  H  H4  1  0.11434135  0.10271369  0.53988518  1.0
  H  H5  1  0.88627700  0.87693966  0.46114358  1.0
  H  H6  1  0.12195218  0.70001810  0.90077031  1.0
  H  H7  1  0.06374052  0.55426014  0.88880305  1.0
  H  H8  1  0.94523635  0.55900782  0.12726194  1.0
  H  H9  1  0.00952802  0.70321403  0.13658877  1.0
  C  C10  1  0.63706429  0.48585202  0.72219073  1.0
  C  C11  1  0.65406534  0.71431594  0.49337276  1.0
  C  C12  1  0.37084625  0.48399111  0.27462956  1.0
  C  C13  1  0.34726086  0.26495526  0.50675893  1.0
  C  C14  1  0.57589218  0.85548242  0.49335608  1.0
  C  C15  1  0.42499485  0.12393879  0.50790061  1.0
  C  C16  1  0.35987867  0.92162441  0.51355536  1.0
  C  C17  1  0.64096701  0.05791225  0.48764276  1.0
  C  C18  1  0.28339384  0.05249715  0.52210310  1.0
  C  C19  1  0.71718636  0.92699460  0.47919501  1.0
  C  C20  1  0.57168535  0.47977407  0.86125893  1.0
  C  C21  1  0.43826102  0.48079365  0.13455983  1.0
  C  C22  1  0.35949122  0.53318706  0.93826441  1.0
  C  C23  1  0.65217020  0.42465850  0.05759599  1.0
  C  C24  1  0.29528437  0.53394815  0.06929072  1.0
  C  C25  1  0.71672833  0.42408881  0.92587418  1.0
  C  C26  1  0.13669222  0.60657369  0.93672930  1.0
  C  C27  1  0.06393111  0.60850792  0.08577094  1.0
  N  N28  1  0.20544501  0.85214451  0.51647044  1.0
  N  N29  1  0.79759082  0.12623265  0.48322123  1.0
  O  O30  1  0.81952810  0.50157422  0.66886631  1.0
  O  O31  1  0.51037481  0.65926737  0.50829794  1.0
  O  O32  1  0.50433468  0.49657817  0.32780495  1.0
  O  O33  1  0.15198270  0.31535697  0.51634580  1.0
  O  O34  1  0.18372675  0.47397642  0.32790691  1.0
  O  O35  1  0.49069224  0.32017370  0.49137538  1.0
  O  O36  1  0.49805237  0.48012261  0.67046469  1.0
  O  O37  1  0.84996036  0.66372395  0.48268337  1.0
  O  O38  1  0.19505112  0.54754446  0.55460003  1.0
  O  O39  1  0.80558701  0.43248775  0.44321511  1.0
  O  O40  1  0.20193315  0.81811038  0.41195581  1.0
  O  O41  1  0.08485787  0.83857370  0.62015752  1.0
  O  O42  1  0.92179637  0.13496464  0.37918876  1.0
  O  O43  1  0.79983859  0.16252622  0.58739219  1.0
  F  F44  1  0.80491668  0.36340801  0.10862429  1.0
  F  F45  1  0.92539428  0.36294054  0.86188536  1.0
