# generated using pymatgen
data_Zn4H10C36Br2O13
_symmetry_space_group_name_H-M   'P 1'
_cell_length_a   20.96473709
_cell_length_b   20.96320525
_cell_length_c   21.01443072
_cell_angle_alpha   112.64128652
_cell_angle_beta   112.63202993
_cell_angle_gamma   103.17622228
_symmetry_Int_Tables_number   1
_chemical_formula_structural   Zn4H10C36Br2O13
_chemical_formula_sum   'Zn8 H20 C72 Br4 O26'
_cell_volume   7059.22582084
_cell_formula_units_Z   2
loop_
 _symmetry_equiv_pos_site_id
 _symmetry_equiv_pos_as_xyz
  1  'x, y, z'
loop_
 _atom_site_type_symbol
 _atom_site_label
 _atom_site_symmetry_multiplicity
 _atom_site_fract_x
 _atom_site_fract_y
 _atom_site_fract_z
 _atom_site_occupancy
  Zn  Zn0  1  0.27525637  0.70725282  0.57010971  1.0
  Zn  Zn1  1  0.86296404  0.29481134  0.56897409  1.0
  Zn  Zn2  1  0.29485061  0.86298414  0.56901189  1.0
  Zn  Zn3  1  0.70516362  0.13701989  0.43099363  1.0
  Zn  Zn4  1  0.13704905  0.70519429  0.43103131  1.0
  Zn  Zn5  1  0.72475386  0.29275518  0.42989357  1.0
  Zn  Zn6  1  0.29269563  0.72471799  0.42987520  1.0
  Zn  Zn7  1  0.70731285  0.27528705  0.57012763  1.0
  H  H8  1  0.53341499  0.73113579  0.51752175  1.0
  H  H9  1  0.46440648  0.13956983  0.43683322  1.0
  H  H10  1  0.13856728  0.46489245  0.43500392  1.0
  H  H11  1  0.86144969  0.53508637  0.56500883  1.0
  H  H12  1  0.53566250  0.86041444  0.56316466  1.0
  H  H13  1  0.45707877  0.81826759  0.32247240  1.0
  H  H14  1  0.54288828  0.18175796  0.67753103  1.0
  H  H15  1  0.18143670  0.53967944  0.67543853  1.0
  H  H16  1  0.46652039  0.26879319  0.48239969  1.0
  H  H17  1  0.81857472  0.46036141  0.32458239  1.0
  H  H18  1  0.45391464  0.68856489  0.27645642  1.0
  H  H19  1  0.54591479  0.31139983  0.72346472  1.0
  H  H20  1  0.31012516  0.54061706  0.71952902  1.0
  H  H21  1  0.68990299  0.45945975  0.28051717  1.0
  H  H22  1  0.26682341  0.46489480  0.47867265  1.0
  H  H23  1  0.58164197  0.96472660  0.44727073  1.0
  H  H24  1  0.41836651  0.03527646  0.55273313  1.0
  H  H25  1  0.03488603  0.41743350  0.55146131  1.0
  H  H26  1  0.96512706  0.58256740  0.44854048  1.0
  H  H27  1  0.73320968  0.53510978  0.52136401  1.0
  C  C28  1  0.14071828  0.85932080  0.49998583  1.0
  C  C29  1  0.48336850  0.24948451  0.52486978  1.0
  C  C30  1  0.61019593  0.11026835  0.49825379  1.0
  C  C31  1  0.11027618  0.61013206  0.49821733  1.0
  C  C32  1  0.88973805  0.38987324  0.50179025  1.0
  C  C33  1  0.38982116  0.88973894  0.50175847  1.0
  C  C34  1  0.13988580  0.64002828  0.28020896  1.0
  C  C35  1  0.86011981  0.35997820  0.71979433  1.0
  C  C36  1  0.35996150  0.86007582  0.71979430  1.0
  C  C37  1  0.64004407  0.13992179  0.28020949  1.0
  C  C38  1  0.24790656  0.48146155  0.52153333  1.0
  C  C39  1  0.40363793  0.90393336  0.80702467  1.0
  C  C40  1  0.59637168  0.09606861  0.19298189  1.0
  C  C41  1  0.09603479  0.59635360  0.19298164  1.0
  C  C42  1  0.90397082  0.40365479  0.80702165  1.0
  C  C43  1  0.75211736  0.51854773  0.47849615  1.0
  C  C44  1  0.44075783  0.94085801  0.88136322  1.0
  C  C45  1  0.55925180  0.05913858  0.11863561  1.0
  C  C46  1  0.05912348  0.55923960  0.11863682  1.0
  C  C47  1  0.94088211  0.44076497  0.88136646  1.0
  C  C48  1  0.48132959  0.98133566  0.96261446  1.0
  C  C49  1  0.51655190  0.75045376  0.47505722  1.0
  C  C50  1  0.51868346  0.01865840  0.03738938  1.0
  C  C51  1  0.01865456  0.51867296  0.03738937  1.0
  C  C52  1  0.98134642  0.48132739  0.96261186  1.0
  C  C53  1  0.40306105  0.59699056  0.50000963  1.0
  C  C54  1  0.59694570  0.40301480  0.49999378  1.0
  C  C55  1  0.44040995  0.55964665  0.50000040  1.0
  C  C56  1  0.55958640  0.44035239  0.50000135  1.0
  C  C57  1  0.51758218  0.82284051  0.50016100  1.0
  C  C58  1  0.48242346  0.17713248  0.49981243  1.0
  C  C59  1  0.17610190  0.48169184  0.49754137  1.0
  C  C60  1  0.85929424  0.14068041  0.50001461  1.0
  C  C61  1  0.82391743  0.51830563  0.50247629  1.0
  C  C62  1  0.49559862  0.84790983  0.44566172  1.0
  C  C63  1  0.50440409  0.15209021  0.55433893  1.0
  C  C64  1  0.15146362  0.50309705  0.55250849  1.0
  C  C65  1  0.84855114  0.49690871  0.44750610  1.0
  C  C66  1  0.47436945  0.79958227  0.36556180  1.0
  C  C67  1  0.52557858  0.20041949  0.63442076  1.0
  C  C68  1  0.19976554  0.52277927  0.63198595  1.0
  C  C69  1  0.80025043  0.47725274  0.36803907  1.0
  C  C70  1  0.47219410  0.72659740  0.33926246  1.0
  C  C71  1  0.52766815  0.27336855  0.66066872  1.0
  C  C72  1  0.27219031  0.52369009  0.65719842  1.0
  C  C73  1  0.72783490  0.47635839  0.34283792  1.0
  C  C74  1  0.49279582  0.70251294  0.39429125  1.0
  C  C75  1  0.48122395  0.51879507  0.49999691  1.0
  C  C76  1  0.50702782  0.29741706  0.60560763  1.0
  C  C77  1  0.29574580  0.50335998  0.60166088  1.0
  C  C78  1  0.70428975  0.49669330  0.39838431  1.0
  C  C79  1  0.54470377  0.97940930  0.46941107  1.0
  C  C80  1  0.45530985  0.02059448  0.53060030  1.0
  C  C81  1  0.02038252  0.45478186  0.52989078  1.0
  C  C82  1  0.51877298  0.48120076  0.50000362  1.0
  C  C83  1  0.97962769  0.54521845  0.47010992  1.0
  C  C84  1  0.55052224  0.05409715  0.49722372  1.0
  C  C85  1  0.44949540  0.94591035  0.50279247  1.0
  C  C86  1  0.94595722  0.44954618  0.50287570  1.0
  C  C87  1  0.05405471  0.55045549  0.49712751  1.0
  C  C88  1  0.50461216  0.07562130  0.52792012  1.0
  C  C89  1  0.49540665  0.92438862  0.47209671  1.0
  C  C90  1  0.92465514  0.49599167  0.47292231  1.0
  C  C91  1  0.07535449  0.50400938  0.52708065  1.0
  C  C92  1  0.35922422  0.64078976  0.50001220  1.0
  C  C93  1  0.64078659  0.35922039  0.49999140  1.0
  C  C94  1  0.09693387  0.90311223  0.49999338  1.0
  C  C95  1  0.90308095  0.09688999  0.50000835  1.0
  C  C96  1  0.05958497  0.94043489  0.49998716  1.0
  C  C97  1  0.94043099  0.05956402  0.50001521  1.0
  C  C98  1  0.01878050  0.98122407  0.49999398  1.0
  C  C99  1  0.98122856  0.01877757  0.50000711  1.0
  Br  Br100  1  0.48792243  0.60229829  0.35836375  1.0
  Br  Br101  1  0.51161221  0.39752140  0.64136595  1.0
  Br  Br102  1  0.39462032  0.50510080  0.63556948  1.0
  Br  Br103  1  0.60544595  0.49502942  0.36450511  1.0
  O  O104  1  0.24991533  0.75009391  0.50002402  1.0
  O  O105  1  0.78638885  0.10182623  0.45265645  1.0
  O  O106  1  0.10185724  0.78641368  0.45261787  1.0
  O  O107  1  0.89815701  0.21359032  0.54738508  1.0
  O  O108  1  0.33691441  0.65260289  0.55029332  1.0
  O  O109  1  0.66309468  0.34740583  0.44970880  1.0
  O  O110  1  0.34737246  0.66309977  0.44972031  1.0
  O  O111  1  0.65264066  0.33691339  0.55028355  1.0
  O  O112  1  0.75009604  0.24991268  0.49997990  1.0
  O  O113  1  0.08233335  0.62727408  0.44475393  1.0
  O  O114  1  0.91767915  0.37273858  0.55525886  1.0
  O  O115  1  0.37282587  0.91771723  0.55534960  1.0
  O  O116  1  0.62718722  0.08229266  0.44465940  1.0
  O  O117  1  0.35921039  0.81907857  0.44649885  1.0
  O  O118  1  0.64080382  0.18092853  0.55351336  1.0
  O  O119  1  0.18093076  0.64060239  0.55340336  1.0
  O  O120  1  0.81908347  0.35939520  0.44659907  1.0
  O  O121  1  0.10179352  0.65278365  0.31466042  1.0
  O  O122  1  0.89821497  0.34722322  0.68534344  1.0
  O  O123  1  0.34721188  0.89819642  0.68536228  1.0
  O  O124  1  0.65279196  0.10180158  0.31464106  1.0
  O  O125  1  0.21231602  0.66130951  0.31371420  1.0
  O  O126  1  0.78769073  0.33869279  0.68628869  1.0
  O  O127  1  0.33867538  0.78764386  0.68626819  1.0
  O  O128  1  0.66133423  0.21235616  0.31373579  1.0
  O  O129  1  0.21362599  0.89817480  0.54734219  1.0
