# generated using pymatgen
data_AlHC8S2Cl2O5
_symmetry_space_group_name_H-M   'P 1'
_cell_length_a   6.66607579
_cell_length_b   17.01757552
_cell_length_c   17.80969859
_cell_angle_alpha   89.95211320
_cell_angle_beta   90.79233588
_cell_angle_gamma   89.88228224
_symmetry_Int_Tables_number   1
_chemical_formula_structural   AlHC8S2Cl2O5
_chemical_formula_sum   'Al4 H4 C32 S8 Cl8 O20'
_cell_volume   2020.14199225
_cell_formula_units_Z   4
loop_
 _symmetry_equiv_pos_site_id
 _symmetry_equiv_pos_as_xyz
  1  'x, y, z'
loop_
 _atom_site_type_symbol
 _atom_site_label
 _atom_site_symmetry_multiplicity
 _atom_site_fract_x
 _atom_site_fract_y
 _atom_site_fract_z
 _atom_site_occupancy
  Al  Al0  1  0.03372843  0.99700675  0.50067970  1.0
  Al  Al1  1  0.53454737  0.00227720  0.50310361  1.0
  Al  Al2  1  0.96546619  0.49772375  0.99689780  1.0
  Al  Al3  1  0.46628357  0.50298935  0.99931979  1.0
  H  H4  1  0.79222338  0.09798397  0.47269496  1.0
  H  H5  1  0.29557958  0.90215186  0.47123500  1.0
  H  H6  1  0.70779446  0.40201632  0.02730628  1.0
  H  H7  1  0.20444284  0.59784475  0.02877220  1.0
  C  C8  1  0.28454464  0.09838193  0.40351559  1.0
  C  C9  1  0.27223638  0.09288313  0.60185319  1.0
  C  C10  1  0.77849392  0.90439588  0.59991099  1.0
  C  C11  1  0.78419424  0.90291020  0.40205093  1.0
  C  C12  1  0.21547017  0.40161027  0.09647549  1.0
  C  C13  1  0.22775160  0.40712794  0.89813856  1.0
  C  C14  1  0.72150896  0.59560302  0.90009021  1.0
  C  C15  1  0.71581155  0.59708275  0.09795628  1.0
  C  C16  1  0.11069157  0.20771135  0.67238194  1.0
  C  C17  1  0.38928296  0.29229092  0.82761146  1.0
  C  C18  1  0.26419868  0.15401375  0.66031991  1.0
  C  C19  1  0.23579380  0.34599380  0.83967129  1.0
  C  C20  1  0.34375118  0.24174302  0.76659424  1.0
  C  C21  1  0.15621141  0.25825925  0.73340250  1.0
  C  C22  1  0.61989838  0.78682117  0.33097264  1.0
  C  C23  1  0.88008935  0.71317767  0.16903171  1.0
  C  C24  1  0.76903935  0.84272929  0.34298773  1.0
  C  C25  1  0.73095288  0.65726955  0.15701664  1.0
  C  C26  1  0.83969333  0.76046571  0.23246214  1.0
  C  C27  1  0.66029582  0.73953490  0.26753828  1.0
  C  C28  1  0.90724966  0.78293244  0.67448513  1.0
  C  C29  1  0.59273359  0.71706119  0.82550816  1.0
  C  C30  1  0.77420833  0.84408266  0.65879897  1.0
  C  C31  1  0.72577494  0.65591333  0.84119601  1.0
  C  C32  1  0.65890044  0.76346026  0.76464776  1.0
  C  C33  1  0.84108128  0.73653338  0.73534384  1.0
  C  C34  1  0.12026829  0.21393933  0.33129727  1.0
  C  C35  1  0.37976606  0.28605579  0.16869611  1.0
  C  C36  1  0.27065712  0.15848869  0.34418618  1.0
  C  C37  1  0.22937124  0.34150291  0.15580718  1.0
  C  C38  1  0.34012800  0.23951786  0.23271227  1.0
  C  C39  1  0.15991846  0.26048136  0.26728788  1.0
  S  S40  1  0.46516692  0.16579384  0.72263951  1.0
  S  S41  1  0.03481666  0.33421665  0.77735728  1.0
  S  S42  1  0.95967469  0.83683952  0.27730773  1.0
  S  S43  1  0.54031600  0.66315991  0.22269438  1.0
  S  S44  1  0.56737825  0.84433475  0.71759322  1.0
  S  S45  1  0.93260056  0.65566005  0.78240343  1.0
  S  S46  1  0.46176417  0.16403270  0.27872508  1.0
  S  S47  1  0.03827167  0.33596300  0.22126830  1.0
  Cl  Cl48  1  0.89693444  0.21705815  0.61909601  1.0
  Cl  Cl49  1  0.60304297  0.28294164  0.88089801  1.0
  Cl  Cl50  1  0.41396208  0.77081404  0.38519065  1.0
  Cl  Cl51  1  0.08603480  0.72918375  0.11481424  1.0
  Cl  Cl52  1  0.12103283  0.76156586  0.62683878  1.0
  Cl  Cl53  1  0.37894903  0.73842790  0.87315278  1.0
  Cl  Cl54  1  0.91420149  0.23032757  0.38530628  1.0
  Cl  Cl55  1  0.58582367  0.26966684  0.11468432  1.0
  O  O56  1  0.12126569  0.08068154  0.43542170  1.0
  O  O57  1  0.44198923  0.08011280  0.57178674  1.0
  O  O58  1  0.61357045  0.94101592  0.58833002  1.0
  O  O59  1  0.95727538  0.93314953  0.41380987  1.0
  O  O60  1  0.94126222  0.91531954  0.56486696  1.0
  O  O61  1  0.62331052  0.91921327  0.43639467  1.0
  O  O62  1  0.45797655  0.06937652  0.41780408  1.0
  O  O63  1  0.10829649  0.05855916  0.58586409  1.0
  O  O64  1  0.78570623  0.04804742  0.49887642  1.0
  O  O65  1  0.28693491  0.95139145  0.49850892  1.0
  O  O66  1  0.04204428  0.43061391  0.08218758  1.0
  O  O67  1  0.39169758  0.44143781  0.91412992  1.0
  O  O68  1  0.55873616  0.58468172  0.93513423  1.0
  O  O69  1  0.87669696  0.58077440  0.06362153  1.0
  O  O70  1  0.88643402  0.55899357  0.91167736  1.0
  O  O71  1  0.54272887  0.56684402  0.08619509  1.0
  O  O72  1  0.37874917  0.41930947  0.06457219  1.0
  O  O73  1  0.05800331  0.41989945  0.92820838  1.0
  O  O74  1  0.71432052  0.45195051  0.00111980  1.0
  O  O75  1  0.21305743  0.54860635  0.00149427  1.0
