# generated using pymatgen
data_Zn4H8C40N6O25
_symmetry_space_group_name_H-M   'P 1'
_cell_length_a   19.61510068
_cell_length_b   19.61335767
_cell_length_c   29.25958981
_cell_angle_alpha   109.60009674
_cell_angle_beta   109.57872136
_cell_angle_gamma   89.98016546
_symmetry_Int_Tables_number   1
_chemical_formula_structural   Zn4H8C40N6O25
_chemical_formula_sum   'Zn8 H16 C80 N12 O50'
_cell_volume   9911.35931081
_cell_formula_units_Z   2
loop_
 _symmetry_equiv_pos_site_id
 _symmetry_equiv_pos_as_xyz
  1  'x, y, z'
loop_
 _atom_site_type_symbol
 _atom_site_label
 _atom_site_symmetry_multiplicity
 _atom_site_fract_x
 _atom_site_fract_y
 _atom_site_fract_z
 _atom_site_occupancy
  Zn  Zn0  1  0.85389497  0.27195264  0.54451609  1.0
  Zn  Zn1  1  0.14610521  0.72738298  0.45550333  1.0
  Zn  Zn2  1  0.27274790  0.85393562  0.54459254  1.0
  Zn  Zn3  1  0.72801552  0.14605470  0.45542075  1.0
  Zn  Zn4  1  0.69065178  0.27258779  0.54458069  1.0
  Zn  Zn5  1  0.30934430  0.72813687  0.45540278  1.0
  Zn  Zn6  1  0.27187543  0.69057599  0.54448118  1.0
  Zn  Zn7  1  0.72746097  0.30937184  0.45548864  1.0
  H  H8  1  0.02353689  0.35268487  0.04904628  1.0
  H  H9  1  0.97491946  0.64737543  0.95095979  1.0
  H  H10  1  0.69634038  0.02325654  0.04902446  1.0
  H  H11  1  0.30360957  0.97513114  0.95097186  1.0
  H  H12  1  0.02563083  0.69643980  0.04908865  1.0
  H  H13  1  0.97600695  0.30362824  0.95092471  1.0
  H  H14  1  0.35269209  0.02577391  0.04909235  1.0
  H  H15  1  0.64728686  0.97583186  0.95090144  1.0
  H  H16  1  0.74432774  0.37141448  0.70535049  1.0
  H  H17  1  0.03879580  0.62856224  0.29460260  1.0
  H  H18  1  0.33363843  0.74422547  0.70540063  1.0
  H  H19  1  0.66581887  0.03889812  0.29463690  1.0
  H  H20  1  0.96120455  0.33413677  0.70537826  1.0
  H  H21  1  0.25566110  0.66599277  0.29470535  1.0
  H  H22  1  0.37160211  0.96087889  0.70528107  1.0
  H  H23  1  0.62905763  0.25586959  0.29463102  1.0
  C  C24  1  0.01308112  0.38938152  0.02723576  1.0
  C  C25  1  0.98618292  0.61069163  0.97278390  1.0
  C  C26  1  0.63784487  0.01288648  0.02720690  1.0
  C  C27  1  0.36211472  0.98631187  0.97277906  1.0
  C  C28  1  0.01419125  0.63793032  0.02726222  1.0
  C  C29  1  0.98653973  0.36214090  0.97275358  1.0
  C  C30  1  0.38936291  0.01425967  0.02725959  1.0
  C  C31  1  0.61060181  0.98641526  0.97272852  1.0
  C  C32  1  0.82973784  0.39955928  0.77991150  1.0
  C  C33  1  0.04979409  0.60051531  0.22006635  1.0
  C  C34  1  0.38019483  0.82974278  0.77992779  1.0
  C  C35  1  0.61950571  0.04979547  0.22008017  1.0
  C  C36  1  0.95020682  0.38045719  0.77992762  1.0
  C  C37  1  0.17027914  0.61963103  0.22011741  1.0
  C  C38  1  0.39967838  0.95011270  0.77987504  1.0
  C  C39  1  0.60071761  0.17031880  0.22007668  1.0
  C  C40  1  0.90419942  0.40424969  0.80841274  1.0
  C  C41  1  0.09581500  0.59584915  0.19160144  1.0
  C  C42  1  0.40418883  0.90419884  0.80839110  1.0
  C  C43  1  0.59584544  0.09579918  0.19158785  1.0
  C  C44  1  0.67982270  0.17970738  0.35931873  1.0
  C  C45  1  0.32029028  0.82022903  0.64066251  1.0
  C  C46  1  0.17958467  0.67960458  0.35932772  1.0
  C  C47  1  0.82041157  0.32046381  0.64068029  1.0
  C  C48  1  0.87958478  0.37957633  0.50000606  1.0
  C  C49  1  0.11998549  0.61996771  0.49999666  1.0
  C  C50  1  0.12061467  0.87969774  0.50014192  1.0
  C  C51  1  0.87988149  0.11992156  0.49995210  1.0
  C  C52  1  0.62044913  0.12042456  0.50000811  1.0
  C  C53  1  0.38003549  0.88002868  0.49999010  1.0
  C  C54  1  0.37956967  0.62046174  0.49986086  1.0
  C  C55  1  0.61998088  0.37991602  0.50004389  1.0
  C  C56  1  0.80230839  0.37333536  0.72598427  1.0
  C  C57  1  0.07619609  0.62671859  0.27400305  1.0
  C  C58  1  0.35251524  0.80220427  0.72599520  1.0
  C  C59  1  0.64724263  0.07627931  0.27400548  1.0
  C  C60  1  0.92380265  0.35283589  0.72599281  1.0
  C  C61  1  0.19768898  0.64727745  0.27404116  1.0
  C  C62  1  0.37340888  0.92359614  0.72594960  1.0
  C  C63  1  0.62704445  0.19783789  0.27401109  1.0
  C  C64  1  0.93177901  0.06807815  0.49993772  1.0
  C  C65  1  0.06873101  0.93154157  0.50015106  1.0
  C  C66  1  0.43188813  0.93187011  0.49999184  1.0
  C  C67  1  0.56859591  0.06857126  0.50000960  1.0
  C  C68  1  0.56815645  0.43183163  0.50005715  1.0
  C  C69  1  0.43141003  0.56857219  0.49985588  1.0
  C  C70  1  0.06814242  0.56812466  0.49999848  1.0
  C  C71  1  0.93144223  0.43142651  0.50000225  1.0
  C  C72  1  0.97590033  0.02406356  0.49997977  1.0
  C  C73  1  0.02456621  0.97550785  0.50003780  1.0
  C  C74  1  0.47595131  0.97592058  0.49999918  1.0
  C  C75  1  0.52454882  0.02451769  0.50000689  1.0
  C  C76  1  0.52410088  0.47591291  0.50002300  1.0
  C  C77  1  0.47548878  0.52452073  0.49996658  1.0
  C  C78  1  0.02408862  0.52406626  0.50000051  1.0
  C  C79  1  0.97549133  0.47546976  0.50000153  1.0
  C  C80  1  0.84948913  0.34953258  0.69882857  1.0
  C  C81  1  0.15050007  0.65055574  0.30117787  1.0
  C  C82  1  0.34937951  0.84929744  0.69881426  1.0
  C  C83  1  0.65076928  0.15065167  0.30116949  1.0
  C  C84  1  0.05772762  0.62026497  0.11183110  1.0
  C  C85  1  0.94570170  0.37980522  0.88818044  1.0
  C  C86  1  0.49162524  0.05783465  0.11183113  1.0
  C  C87  1  0.50837260  0.94561482  0.88816229  1.0
  C  C88  1  0.05412660  0.49164152  0.11182915  1.0
  C  C89  1  0.94236498  0.50844365  0.88820141  1.0
  C  C90  1  0.62020373  0.05388831  0.11179440  1.0
  C  C91  1  0.37975998  0.94253116  0.88817711  1.0
  C  C92  1  0.02668941  0.46415346  0.05448361  1.0
  C  C93  1  0.97232175  0.53591866  0.94554567  1.0
  C  C94  1  0.59032604  0.02649965  0.05445010  1.0
  C  C95  1  0.40962314  0.97243670  0.94552377  1.0
  C  C96  1  0.02780681  0.59039634  0.05448737  1.0
  C  C97  1  0.97307503  0.40967008  0.94552701  1.0
  C  C98  1  0.46411683  0.02779756  0.05448370  1.0
  C  C99  1  0.53584776  0.97305295  0.94550650  1.0
  C  C100  1  0.01380855  0.51386241  0.02766222  1.0
  C  C101  1  0.98611886  0.48620611  0.97236153  1.0
  C  C102  1  0.51380176  0.01372695  0.02763923  1.0
  C  C103  1  0.48614590  0.98612413  0.97233658  1.0
  N  N104  1  0.06814755  0.56814522  0.13620380  1.0
  N  N105  1  0.93186219  0.43193766  0.86381388  1.0
  N  N106  1  0.56811141  0.06807062  0.13618967  1.0
  N  N107  1  0.43187815  0.93193977  0.86379260  1.0
  N  N108  1  0.77623099  0.42294759  0.80611957  1.0
  N  N109  1  0.97012736  0.57703479  0.19380522  1.0
  N  N110  1  0.38271162  0.77637461  0.80618980  1.0
  N  N111  1  0.61641975  0.97002799  0.19386555  1.0
  N  N112  1  0.02987165  0.38312692  0.80618195  1.0
  N  N113  1  0.22379626  0.61687018  0.19392445  1.0
  N  N114  1  0.42333758  0.02978460  0.80606220  1.0
  N  N115  1  0.57729252  0.22376423  0.19382473  1.0
  O  O116  1  0.74998891  0.24997167  0.50000333  1.0
  O  O117  1  0.25003084  0.75002567  0.49999491  1.0
  O  O118  1  0.69275746  0.13260087  0.38133699  1.0
  O  O119  1  0.31150304  0.86733285  0.61865326  1.0
  O  O120  1  0.24869095  0.69279137  0.38134107  1.0
  O  O121  1  0.75129580  0.31143602  0.61865833  1.0
  O  O122  1  0.68890484  0.24883336  0.38139008  1.0
  O  O123  1  0.30701800  0.75111576  0.61858372  1.0
  O  O124  1  0.13255188  0.68844244  0.38140600  1.0
  O  O125  1  0.86746778  0.30744464  0.61861526  1.0
  O  O126  1  0.81485481  0.37168207  0.46772896  1.0
  O  O127  1  0.18506026  0.62681054  0.53152260  1.0
  O  O128  1  0.09626241  0.81498286  0.46779987  1.0
  O  O129  1  0.90453527  0.18499154  0.53152840  1.0
  O  O130  1  0.65270748  0.09608404  0.46758863  1.0
  O  O131  1  0.34683393  0.90462912  0.53176928  1.0
  O  O132  1  0.37162191  0.65288102  0.46755667  1.0
  O  O133  1  0.62684303  0.34642192  0.53160674  1.0
  O  O134  1  0.18533033  0.90405106  0.53244686  1.0
  O  O135  1  0.81482568  0.09522481  0.46839722  1.0
  O  O136  1  0.90396335  0.34712200  0.53228594  1.0
  O  O137  1  0.09530976  0.65352165  0.46847030  1.0
  O  O138  1  0.34718890  0.62844519  0.53219774  1.0
  O  O139  1  0.65347231  0.37298565  0.46846627  1.0
  O  O140  1  0.62853115  0.18510715  0.53242579  1.0
  O  O141  1  0.37284620  0.81504404  0.46821027  1.0
  O  O142  1  0.07358095  0.68557590  0.13810962  1.0
  O  O143  1  0.93527217  0.31449718  0.86188890  1.0
  O  O144  1  0.45263273  0.07399127  0.13812783  1.0
  O  O145  1  0.54740601  0.93495811  0.86187816  1.0
  O  O146  1  0.06445847  0.45262894  0.13810707  1.0
  O  O147  1  0.92655676  0.54749058  0.86193908  1.0
  O  O148  1  0.68549875  0.06411431  0.13805358  1.0
  O  O149  1  0.31446010  0.92678399  0.86190428  1.0
  O  O150  1  0.78790473  0.41540992  0.84830093  1.0
  O  O151  1  0.72277350  0.44736668  0.78300609  1.0
  O  O152  1  0.93964466  0.58461809  0.15163536  1.0
  O  O153  1  0.93980310  0.55248198  0.21686177  1.0
  O  O154  1  0.43241748  0.78793977  0.84836032  1.0
  O  O155  1  0.33493584  0.72313885  0.78312855  1.0
  O  O156  1  0.56665973  0.93964585  0.15168660  1.0
  O  O157  1  0.66378261  0.93952530  0.21696344  1.0
  O  O158  1  0.06039204  0.43288064  0.84835240  1.0
  O  O159  1  0.06013868  0.33541556  0.78311853  1.0
  O  O160  1  0.21219253  0.56714554  0.15174107  1.0
  O  O161  1  0.27718612  0.66446313  0.21705631  1.0
  O  O162  1  0.41585730  0.06046292  0.84825419  1.0
  O  O163  1  0.44792023  0.05992199  0.78292103  1.0
  O  O164  1  0.58492641  0.21207246  0.15166584  1.0
  O  O165  1  0.55271255  0.27716054  0.21687980  1.0
