# generated using pymatgen
data_ZnH9C31N2Cl7O11
_symmetry_space_group_name_H-M   'P 1'
_cell_length_a   14.55756944
_cell_length_b   15.19863499
_cell_length_c   27.77095459
_cell_angle_alpha   92.37866269
_cell_angle_beta   89.83412776
_cell_angle_gamma   89.63031507
_symmetry_Int_Tables_number   1
_chemical_formula_structural   ZnH9C31N2Cl7O11
_chemical_formula_sum   'Zn2 H18 C62 N4 Cl14 O22'
_cell_volume   6139.01477891
_cell_formula_units_Z   2
loop_
 _symmetry_equiv_pos_site_id
 _symmetry_equiv_pos_as_xyz
  1  'x, y, z'
loop_
 _atom_site_type_symbol
 _atom_site_label
 _atom_site_symmetry_multiplicity
 _atom_site_fract_x
 _atom_site_fract_y
 _atom_site_fract_z
 _atom_site_occupancy
  Zn  Zn0  1  0.39782568  0.50095486  0.49980264  1.0
  Zn  Zn1  1  0.60756473  0.50271703  0.49937922  1.0
  H  H2  1  0.60906013  0.44246838  0.73905195  1.0
  H  H3  1  0.60212172  0.54960097  0.25782214  1.0
  H  H4  1  0.26973697  0.46406243  0.03303213  1.0
  H  H5  1  0.72887193  0.51303097  0.96700940  1.0
  H  H6  1  0.47732030  0.07534702  0.57456820  1.0
  H  H7  1  0.56032372  0.95019603  0.57849636  1.0
  H  H8  1  0.48205187  0.93226869  0.42822474  1.0
  H  H9  1  0.57310897  0.05057429  0.42696062  1.0
  H  H10  1  0.01114963  0.43827897  0.42216390  1.0
  H  H11  1  0.99258474  0.64747327  0.48061303  1.0
  H  H12  1  0.01043438  0.56371672  0.57601985  1.0
  H  H13  1  0.99458713  0.35503842  0.51730623  1.0
  H  H14  1  0.35340136  0.30199240  0.27951607  1.0
  H  H15  1  0.33051573  0.66563154  0.72680652  1.0
  H  H16  1  0.20319091  0.44218354  0.10100559  1.0
  H  H17  1  0.79315952  0.54973413  0.90196101  1.0
  H  H18  1  0.61269683  0.43706508  0.61224900  1.0
  H  H19  1  0.60545719  0.57116552  0.38466559  1.0
  C  C20  1  0.53318353  0.33509615  0.49530543  1.0
  C  C21  1  0.52505484  0.66870893  0.50605272  1.0
  C  C22  1  0.47725306  0.49487422  0.40757197  1.0
  C  C23  1  0.47632615  0.50330903  0.59215213  1.0
  C  C24  1  0.41530862  0.46215419  0.18026561  1.0
  C  C25  1  0.57912071  0.55437396  0.82216084  1.0
  C  C26  1  0.58190683  0.41879515  0.17870529  1.0
  C  C27  1  0.41383152  0.51010627  0.82150804  1.0
  C  C28  1  0.55463911  0.51006543  0.27804492  1.0
  C  C29  1  0.55619462  0.47898788  0.72060278  1.0
  C  C30  1  0.55155698  0.52115131  0.32820878  1.0
  C  C31  1  0.55394549  0.47408972  0.67027445  1.0
  C  C32  1  0.43205137  0.41090036  0.33005294  1.0
  C  C33  1  0.42127195  0.57143289  0.67263087  1.0
  C  C34  1  0.44008467  0.39455886  0.28017154  1.0
  C  C35  1  0.42764795  0.58196862  0.72285624  1.0
  C  C36  1  0.49914665  0.44845670  0.25439870  1.0
  C  C37  1  0.49367047  0.53149884  0.74654800  1.0
  C  C38  1  0.50010682  0.45180445  0.10113880  1.0
  C  C39  1  0.49834666  0.52012206  0.89957734  1.0
  C  C40  1  0.41595269  0.45430447  0.12741079  1.0
  C  C41  1  0.58114533  0.53440458  0.87380525  1.0
  C  C42  1  0.33361295  0.45365239  0.10153466  1.0
  C  C43  1  0.66326165  0.53484654  0.90005197  1.0
  C  C44  1  0.58301980  0.43060120  0.12554223  1.0
  C  C45  1  0.41353090  0.52405089  0.87461266  1.0
  C  C46  1  0.48593398  0.47440666  0.35494374  1.0
  C  C47  1  0.48265620  0.51727615  0.64533525  1.0
  C  C48  1  0.41324772  0.50617406  0.97618048  1.0
  C  C49  1  0.58550164  0.46439689  0.02410233  1.0
  C  C50  1  0.58383715  0.49124496  0.97381642  1.0
  C  C51  1  0.41537313  0.48291804  0.02676750  1.0
  C  C52  1  0.49772246  0.50354790  0.94989259  1.0
  C  C53  1  0.50122014  0.46845949  0.05069918  1.0
  C  C54  1  0.33428952  0.53594830  0.95196537  1.0
  C  C55  1  0.66308709  0.43047844  0.04755167  1.0
  C  C56  1  0.33272786  0.53781231  0.90097921  1.0
  C  C57  1  0.66298501  0.41649154  0.09794650  1.0
  C  C58  1  0.33503042  0.46603180  0.05184684  1.0
  C  C59  1  0.66299798  0.51241454  0.94872759  1.0
  C  C60  1  0.50070575  0.10414817  0.54147159  1.0
  C  C61  1  0.54218656  0.91186792  0.54595304  1.0
  C  C62  1  0.50044714  0.90184009  0.46169432  1.0
  C  C63  1  0.55231649  0.09037830  0.45868104  1.0
  C  C64  1  0.50413927  0.19542564  0.53926596  1.0
  C  C65  1  0.54151455  0.82030077  0.54691873  1.0
  C  C66  1  0.50049480  0.81043827  0.46333628  1.0
  C  C67  1  0.55503897  0.18180331  0.45710677  1.0
  C  C68  1  0.53158906  0.23636558  0.49725733  1.0
  C  C69  1  0.52200521  0.76762501  0.50565268  1.0
  C  C70  1  0.52502727  0.05055457  0.50106463  1.0
  C  C71  1  0.52231932  0.95358148  0.50301891  1.0
  C  C72  1  0.90258154  0.46735417  0.45890814  1.0
  C  C73  1  0.10158606  0.57848834  0.48913378  1.0
  C  C74  1  0.90220342  0.53769008  0.53904112  1.0
  C  C75  1  0.10259138  0.42420227  0.50857503  1.0
  C  C76  1  0.80588116  0.46976062  0.46047847  1.0
  C  C77  1  0.19824628  0.57490981  0.48855844  1.0
  C  C78  1  0.80552556  0.53818422  0.53713351  1.0
  C  C79  1  0.19920695  0.42784664  0.50880914  1.0
  C  C80  1  0.95131022  0.50182273  0.49904768  1.0
  C  C81  1  0.05316428  0.50138041  0.49898821  1.0
  N  N82  1  0.49909061  0.44135707  0.20270327  1.0
  N  N83  1  0.49513363  0.53458925  0.79816383  1.0
  N  N84  1  0.76010800  0.50456043  0.49874547  1.0
  N  N85  1  0.24440359  0.50145757  0.49879295  1.0
  Cl  Cl86  1  0.35555044  0.34420647  0.35941107  1.0
  Cl  Cl87  1  0.33687642  0.63439190  0.64612070  1.0
  Cl  Cl88  1  0.47371725  0.25904167  0.59006461  1.0
  Cl  Cl89  1  0.56512283  0.77073149  0.60061570  1.0
  Cl  Cl90  1  0.47428005  0.74872492  0.41140001  1.0
  Cl  Cl91  1  0.58696087  0.22847812  0.40375997  1.0
  Cl  Cl92  1  0.74676426  0.42834958  0.41191378  1.0
  Cl  Cl93  1  0.25722859  0.66633113  0.47381992  1.0
  Cl  Cl94  1  0.74598639  0.58222759  0.58529128  1.0
  Cl  Cl95  1  0.25988875  0.33611819  0.52239374  1.0
  Cl  Cl96  1  0.23193930  0.56268023  0.87275985  1.0
  Cl  Cl97  1  0.76351244  0.38126677  0.12280061  1.0
  Cl  Cl98  1  0.23810952  0.57813605  0.98169066  1.0
  Cl  Cl99  1  0.76073068  0.39582222  0.01638516  1.0
  O  O100  1  0.45626061  0.37318771  0.49333760  1.0
  O  O101  1  0.60507410  0.63414232  0.50445285  1.0
  O  O102  1  0.44916544  0.62948806  0.50754041  1.0
  O  O103  1  0.61214610  0.37103429  0.49587991  1.0
  O  O104  1  0.39859676  0.49322482  0.42738979  1.0
  O  O105  1  0.55287129  0.48935779  0.56973097  1.0
  O  O106  1  0.39796451  0.50331084  0.57213477  1.0
  O  O107  1  0.55196974  0.51604521  0.42967345  1.0
  O  O108  1  0.34906505  0.48857237  0.20428611  1.0
  O  O109  1  0.64451418  0.58304863  0.79988368  1.0
  O  O110  1  0.34959597  0.47688653  0.79901302  1.0
  O  O111  1  0.64802453  0.39409245  0.20205040  1.0
  O  O112  1  0.94450913  0.43245144  0.41892669  1.0
  O  O113  1  0.05923949  0.65539952  0.47980369  1.0
  O  O114  1  0.94384800  0.57159806  0.57907566  1.0
  O  O115  1  0.06135204  0.34715591  0.51783928  1.0
  O  O116  1  0.39315917  0.32964916  0.25598917  1.0
  O  O117  1  0.37308803  0.63869344  0.74931799  1.0
  O  O118  1  0.25287223  0.44081420  0.12444734  1.0
  O  O119  1  0.74367654  0.55506863  0.87862683  1.0
  O  O120  1  0.61969495  0.42494419  0.64707545  1.0
  O  O121  1  0.61032454  0.57975845  0.34941715  1.0
