# generated using pymatgen
data_ZnH12C21N2O7
_symmetry_space_group_name_H-M   'P 1'
_cell_length_a   11.02004310
_cell_length_b   16.53429999
_cell_length_c   17.61127668
_cell_angle_alpha   89.56267402
_cell_angle_beta   90.15449201
_cell_angle_gamma   89.84946944
_symmetry_Int_Tables_number   1
_chemical_formula_structural   ZnH12C21N2O7
_chemical_formula_sum   'Zn2 H24 C42 N4 O14'
_cell_volume   3208.81141433
_cell_formula_units_Z   2
loop_
 _symmetry_equiv_pos_site_id
 _symmetry_equiv_pos_as_xyz
  1  'x, y, z'
loop_
 _atom_site_type_symbol
 _atom_site_label
 _atom_site_symmetry_multiplicity
 _atom_site_fract_x
 _atom_site_fract_y
 _atom_site_fract_z
 _atom_site_occupancy
  Zn  Zn0  1  0.51445893  0.41712058  0.49716185  1.0
  Zn  Zn1  1  0.50954175  0.58774114  0.49569791  1.0
  H  H2  1  0.24167217  0.41418747  0.38173272  1.0
  H  H3  1  0.79135680  0.43541759  0.36244393  1.0
  H  H4  1  0.41758164  0.37251865  0.87442881  1.0
  H  H5  1  0.41609065  0.37422491  0.11937817  1.0
  H  H6  1  0.47237023  0.37208026  0.73651863  1.0
  H  H7  1  0.46135270  0.37597907  0.25799174  1.0
  H  H8  1  0.45862059  0.63125148  0.73068230  1.0
  H  H9  1  0.43102666  0.63503082  0.25828694  1.0
  H  H10  1  0.40325973  0.63315213  0.86855420  1.0
  H  H11  1  0.38672424  0.63454512  0.11886048  1.0
  H  H12  1  0.38224492  0.14127313  0.39896685  1.0
  H  H13  1  0.63797823  0.13394524  0.58628409  1.0
  H  H14  1  0.39559223  0.29216403  0.40243335  1.0
  H  H15  1  0.63892508  0.28591457  0.58215279  1.0
  H  H16  1  0.35431742  0.86721931  0.41559459  1.0
  H  H17  1  0.64713112  0.86824965  0.57999884  1.0
  H  H18  1  0.36290903  0.71517297  0.42041524  1.0
  H  H19  1  0.64339426  0.71615631  0.57686091  1.0
  H  H20  1  0.05439176  0.66701634  0.63831782  1.0
  H  H21  1  0.20104697  0.66579272  0.59207961  1.0
  H  H22  1  0.18958680  0.64315043  0.69165587  1.0
  H  H23  1  0.94194780  0.49704729  0.70022553  1.0
  H  H24  1  0.80018047  0.46822097  0.65653899  1.0
  H  H25  1  0.80664767  0.55576467  0.71577921  1.0
  C  C26  1  0.47902104  0.50660975  0.34911004  1.0
  C  C27  1  0.50610628  0.50112425  0.64416193  1.0
  C  C28  1  0.27491261  0.49555214  0.50425010  1.0
  C  C29  1  0.74751654  0.50731031  0.48955673  1.0
  C  C30  1  0.14318804  0.41919312  0.37907715  1.0
  C  C31  1  0.88977734  0.43298689  0.36758690  1.0
  C  C32  1  0.08238417  0.38465402  0.31938260  1.0
  C  C33  1  0.95452387  0.39199489  0.31328295  1.0
  C  C34  1  0.94919118  0.46703188  0.43128797  1.0
  C  C35  1  0.07876492  0.46054911  0.43671243  1.0
  C  C36  1  0.13903439  0.49493242  0.50007768  1.0
  C  C37  1  0.88387213  0.50566943  0.49059006  1.0
  C  C38  1  0.07357103  0.53031321  0.55808842  1.0
  C  C39  1  0.94476157  0.53625422  0.55316047  1.0
  C  C40  1  0.42670064  0.42904902  0.84275072  1.0
  C  C41  1  0.41936312  0.43123666  0.14986413  1.0
  C  C42  1  0.45771550  0.42874115  0.76639674  1.0
  C  C43  1  0.44441783  0.43219000  0.22712009  1.0
  C  C44  1  0.47146527  0.50168424  0.72612697  1.0
  C  C45  1  0.44957382  0.50567482  0.26631412  1.0
  C  C46  1  0.44967127  0.57517659  0.76311962  1.0
  C  C47  1  0.42704226  0.57843162  0.22708184  1.0
  C  C48  1  0.41854293  0.57611065  0.83943424  1.0
  C  C49  1  0.40239582  0.57810062  0.14976979  1.0
  C  C50  1  0.40908882  0.50296377  0.88103308  1.0
  C  C51  1  0.40031574  0.50441819  0.10964532  1.0
  C  C52  1  0.39052494  0.50374744  0.96039153  1.0
  C  C53  1  0.38815610  0.50418142  0.02973820  1.0
  C  C54  1  0.44028117  0.17073341  0.44044420  1.0
  C  C55  1  0.58303223  0.16687406  0.54487592  1.0
  C  C56  1  0.44717370  0.25451730  0.44216670  1.0
  C  C57  1  0.58415595  0.25071348  0.54277633  1.0
  C  C58  1  0.50911970  0.12499883  0.49293803  1.0
  C  C59  1  0.50468474  0.03948233  0.49403144  1.0
  C  C60  1  0.50202862  0.96577211  0.49583144  1.0
  C  C61  1  0.41935257  0.83606305  0.45218371  1.0
  C  C62  1  0.58282081  0.83656871  0.54392983  1.0
  C  C63  1  0.42359450  0.75220469  0.45457032  1.0
  C  C64  1  0.58104678  0.75267726  0.54261323  1.0
  C  C65  1  0.50101535  0.88023195  0.49744245  1.0
  C  C66  1  0.14425035  0.63807576  0.63644367  1.0
  C  C67  1  0.85687489  0.51933678  0.67467986  1.0
  N  N68  1  0.51737273  0.29364104  0.49258443  1.0
  N  N69  1  0.50313536  0.71140841  0.49860778  1.0
  N  N70  1  0.15584031  0.34603755  0.26012932  1.0
  N  N71  1  0.88502863  0.34817173  0.25529351  1.0
  O  O72  1  0.48932983  0.43816007  0.38289567  1.0
  O  O73  1  0.52290564  0.43251187  0.61316330  1.0
  O  O74  1  0.49107758  0.57531445  0.38060728  1.0
  O  O75  1  0.51544898  0.56968511  0.61080150  1.0
  O  O76  1  0.32803189  0.42750789  0.50786044  1.0
  O  O77  1  0.69728700  0.43803820  0.49109247  1.0
  O  O78  1  0.32381164  0.56494325  0.50117890  1.0
  O  O79  1  0.69542714  0.57553071  0.48736245  1.0
  O  O80  1  0.13371799  0.55249543  0.62281534  1.0
  O  O81  1  0.88160782  0.57232352  0.61095638  1.0
  O  O82  1  0.23999959  0.30118481  0.28171391  1.0
  O  O83  1  0.13149515  0.36292599  0.19332330  1.0
  O  O84  1  0.79325639  0.38159466  0.22902235  1.0
  O  O85  1  0.92125200  0.27927239  0.23929804  1.0
