# generated using pymatgen
data_Hf3H11C69(Br15O8)2
_symmetry_space_group_name_H-M   'P 1'
_cell_length_a   19.92390468
_cell_length_b   19.95845235
_cell_length_c   19.98878571
_cell_angle_alpha   94.42991168
_cell_angle_beta   93.37519561
_cell_angle_gamma   94.17817380
_symmetry_Int_Tables_number   1
_chemical_formula_structural   Hf3H11C69(Br15O8)2
_chemical_formula_sum   'Hf6 H22 C138 Br60 O32'
_cell_volume   7887.09306145
_cell_formula_units_Z   2
loop_
 _symmetry_equiv_pos_site_id
 _symmetry_equiv_pos_as_xyz
  1  'x, y, z'
loop_
 _atom_site_type_symbol
 _atom_site_label
 _atom_site_symmetry_multiplicity
 _atom_site_fract_x
 _atom_site_fract_y
 _atom_site_fract_z
 _atom_site_occupancy
  Hf  Hf0  1  0.81297347  0.96433860  0.86932332  1.0
  Hf  Hf1  1  0.77670092  0.86248771  0.00070468  1.0
  Hf  Hf2  1  0.97924298  0.99810849  0.93838107  1.0
  Hf  Hf3  1  0.91274296  0.83200759  0.90260876  1.0
  Hf  Hf4  1  0.84155591  0.03052771  0.03480607  1.0
  Hf  Hf5  1  0.94078414  0.89816512  0.07038664  1.0
  H  H6  1  0.92731337  0.30306021  0.60124425  1.0
  H  H7  1  0.93541368  0.28263210  0.38608624  1.0
  H  H8  1  0.96358768  0.11178838  0.50037625  1.0
  H  H9  1  0.79832233  0.75220828  0.44029173  1.0
  H  H10  1  0.84497218  0.59001492  0.56050238  1.0
  H  H11  1  0.84447507  0.56158933  0.34466051  1.0
  H  H12  1  0.24924809  0.55268178  0.99858992  1.0
  H  H13  1  0.21244533  0.33644621  0.98783681  1.0
  H  H14  1  0.05170391  0.46299567  0.03052942  1.0
  H  H15  1  0.50437207  0.31047373  0.91838587  1.0
  H  H16  1  0.54771371  0.52580506  0.94179041  1.0
  H  H17  1  0.70847182  0.39606689  0.91192617  1.0
  H  H18  1  0.48934227  0.88929983  0.32106902  1.0
  H  H19  1  0.27561941  0.90842474  0.30664437  1.0
  H  H20  1  0.39845972  0.98604418  0.15670134  1.0
  H  H21  1  0.25402722  0.84517419  0.59447633  1.0
  H  H22  1  0.47017432  0.85647148  0.62735631  1.0
  H  H23  1  0.34558638  0.85308379  0.79584241  1.0
  H  H24  1  0.77455466  0.82404601  0.86183220  1.0
  H  H25  1  0.87879309  0.08923432  0.91739073  1.0
  H  H26  1  0.03617450  0.87916862  0.97335401  1.0
  H  H27  1  0.82014181  0.93204840  0.12649278  1.0
  C  C28  1  0.94890311  0.20494545  0.55796206  1.0
  C  C29  1  0.93643249  0.27280348  0.55539439  1.0
  C  C30  1  0.93230222  0.30093040  0.49334441  1.0
  C  C31  1  0.94089339  0.26101639  0.43437200  1.0
  C  C32  1  0.95147801  0.19257528  0.43623392  1.0
  C  C33  1  0.95698860  0.16532517  0.49834680  1.0
  C  C34  1  0.81879546  0.65944457  0.38507006  1.0
  C  C35  1  0.80945543  0.69987408  0.44381118  1.0
  C  C36  1  0.81925498  0.67543746  0.50695703  1.0
  C  C37  1  0.83586154  0.60906173  0.51135913  1.0
  C  C38  1  0.84391528  0.56776152  0.45305486  1.0
  C  C39  1  0.83555115  0.59299480  0.38983840  1.0
  C  C40  1  0.14785121  0.51510642  0.01610443  1.0
  C  C41  1  0.21517271  0.50821349  0.00298715  1.0
  C  C42  1  0.23842358  0.44384504  0.99301315  1.0
  C  C43  1  0.19438801  0.38644271  0.99663767  1.0
  C  C44  1  0.12717303  0.39324054  0.01099184  1.0
  C  C45  1  0.10441510  0.45752988  0.02094082  1.0
  C  C46  1  0.60914501  0.34559591  0.91396679  1.0
  C  C47  1  0.54061838  0.35424578  0.92004385  1.0
  C  C48  1  0.51852170  0.41889120  0.93133874  1.0
  C  C49  1  0.56474735  0.47534163  0.93313171  1.0
  C  C50  1  0.63293530  0.46702724  0.92468132  1.0
  C  C51  1  0.65497207  0.40232606  0.91617919  1.0
  C  C52  1  0.45235293  0.93744989  0.23412267  1.0
  C  C53  1  0.44565033  0.90674717  0.29432577  1.0
  C  C54  1  0.38292691  0.90038017  0.32224342  1.0
  C  C55  1  0.32486910  0.91666545  0.28629061  1.0
  C  C56  1  0.33064049  0.94495903  0.22493829  1.0
  C  C57  1  0.39441659  0.95949988  0.20198059  1.0
  C  C58  1  0.29221202  0.84759323  0.69819223  1.0
  C  C59  1  0.29868435  0.84609345  0.62878138  1.0
  C  C60  1  0.36262217  0.84968145  0.60322614  1.0
  C  C61  1  0.42028070  0.85201609  0.64701999  1.0
  C  C62  1  0.41393034  0.85203647  0.71630948  1.0
  C  C63  1  0.35013935  0.85021722  0.74165342  1.0
  C  C64  1  0.92388738  0.05308182  0.79704855  1.0
  C  C65  1  0.66649142  0.89185917  0.88101752  1.0
  C  C66  1  0.84212621  0.84597329  0.75709331  1.0
  C  C67  1  0.74748523  0.09915020  0.93066181  1.0
  C  C68  1  0.83282331  0.80467900  0.14079756  1.0
  C  C69  1  0.08638922  0.97333455  0.06123787  1.0
  C  C70  1  0.79785253  0.71724403  0.93196960  1.0
  C  C71  1  0.69936717  0.96409748  0.09106408  1.0
  C  C72  1  0.96137488  0.14352498  0.01328525  1.0
  C  C73  1  0.05037481  0.89073063  0.84290352  1.0
  C  C74  1  0.99696472  0.75602987  0.01025017  1.0
  C  C75  1  0.91705199  0.02762535  0.17863790  1.0
  C  C76  1  0.14471213  0.81771908  0.80815971  1.0
  C  C77  1  0.10943970  0.87577176  0.80094478  1.0
  C  C78  1  0.13132064  0.92055450  0.75409304  1.0
  C  C79  1  0.19000773  0.91094773  0.72015887  1.0
  C  C80  1  0.22639849  0.85392562  0.72854732  1.0
  C  C81  1  0.20115069  0.80631370  0.77108356  1.0
  C  C82  1  0.50548669  0.80616092  0.78858670  1.0
  C  C83  1  0.47494541  0.86107795  0.76354439  1.0
  C  C84  1  0.50255672  0.92651180  0.78522065  1.0
  C  C85  1  0.56293782  0.93670747  0.82546040  1.0
  C  C86  1  0.59584878  0.88126997  0.84754726  1.0
  C  C87  1  0.56415618  0.81589782  0.83209070  1.0
  C  C88  1  0.24076897  0.01768409  0.18281102  1.0
  C  C89  1  0.27034385  0.95589022  0.18078591  1.0
  C  C90  1  0.24374747  0.90370892  0.13274096  1.0
  C  C91  1  0.18911573  0.91366980  0.08843555  1.0
  C  C92  1  0.15656418  0.97350678  0.09469846  1.0
  C  C93  1  0.18380946  0.02641982  0.14046901  1.0
  C  C94  1  0.63967555  0.96904485  0.20064098  1.0
  C  C95  1  0.63665134  0.96551144  0.13042235  1.0
  C  C96  1  0.57345894  0.94976847  0.09550571  1.0
  C  C97  1  0.51678229  0.93206977  0.13011655  1.0
  C  C98  1  0.51699873  0.94519243  0.20094109  1.0
  C  C99  1  0.58000599  0.96620073  0.23522355  1.0
  C  C100  1  0.38136094  0.92592332  0.51150256  1.0
  C  C101  1  0.36921156  0.85990791  0.53078856  1.0
  C  C102  1  0.36249919  0.80623398  0.48045595  1.0
  C  C103  1  0.36704307  0.81816964  0.41241166  1.0
  C  C104  1  0.37881605  0.88399295  0.39330693  1.0
  C  C105  1  0.38617879  0.93778697  0.44374143  1.0
  C  C106  1  0.66123588  0.17831965  0.97060050  1.0
  C  C107  1  0.70437325  0.15755310  0.92050656  1.0
  C  C108  1  0.70981924  0.19588633  0.86431529  1.0
  C  C109  1  0.67474185  0.25424016  0.85975747  1.0
  C  C110  1  0.63648734  0.27817627  0.91243294  1.0
  C  C111  1  0.62969411  0.23868742  0.96745765  1.0
  C  C112  1  0.72692988  0.54793591  0.98040797  1.0
  C  C113  1  0.68222642  0.52658962  0.92426626  1.0
  C  C114  1  0.68630950  0.56164910  0.86599287  1.0
  C  C115  1  0.72978061  0.62016402  0.86569183  1.0
  C  C116  1  0.76801106  0.64517082  0.92453937  1.0
  C  C117  1  0.77033954  0.60638478  0.98002471  1.0
  C  C118  1  0.02987195  0.24355146  0.07746736  1.0
  C  C119  1  0.99255972  0.21525558  0.01936052  1.0
  C  C120  1  0.99031180  0.25155341  0.96214101  1.0
  C  C121  1  0.03403267  0.30921461  0.95888839  1.0
  C  C122  1  0.07874174  0.33319664  0.01439685  1.0
  C  C123  1  0.07378447  0.30142764  0.07455352  1.0
  C  C124  1  0.07604440  0.68193810  0.07398345  1.0
  C  C125  1  0.03365362  0.69245422  0.01665093  1.0
  C  C126  1  0.03119746  0.64319564  0.96058516  1.0
  C  C127  1  0.07662509  0.59277058  0.95903390  1.0
  C  C128  1  0.11572845  0.58029217  0.01692484  1.0
  C  C129  1  0.11458545  0.62527973  0.07418826  1.0
  C  C130  1  0.42913159  0.43627857  0.01326709  1.0
  C  C131  1  0.44682536  0.42655114  0.94617032  1.0
  C  C132  1  0.39510772  0.42263832  0.89470257  1.0
  C  C133  1  0.32757551  0.42774093  0.90977572  1.0
  C  C134  1  0.30990924  0.43711899  0.97680938  1.0
  C  C135  1  0.36161861  0.44121434  0.02832001  1.0
  C  C136  1  0.77009217  0.71966065  0.21148384  1.0
  C  C137  1  0.82337592  0.76952068  0.20479237  1.0
  C  C138  1  0.87210966  0.78340604  0.26003202  1.0
  C  C139  1  0.87243866  0.74291231  0.31422551  1.0
  C  C140  1  0.81982037  0.69334728  0.32104124  1.0
  C  C141  1  0.76857992  0.68302289  0.26918893  1.0
  C  C142  1  0.76361567  0.74023285  0.60033044  1.0
  C  C143  1  0.82170763  0.72276230  0.56857100  1.0
  C  C144  1  0.88473044  0.75334565  0.59497388  1.0
  C  C145  1  0.88915974  0.79994059  0.65123840  1.0
  C  C146  1  0.83173462  0.81203320  0.68656071  1.0
  C  C147  1  0.76839218  0.78424423  0.65925581  1.0
  C  C148  1  0.99577649  0.10898649  0.34936554  1.0
  C  C149  1  0.94483473  0.14847904  0.37230636  1.0
  C  C150  1  0.88386943  0.14518838  0.33230183  1.0
  C  C151  1  0.87724139  0.11189959  0.26738297  1.0
  C  C152  1  0.92690298  0.06824544  0.24626268  1.0
  C  C153  1  0.98524729  0.06571552  0.28997400  1.0
  C  C154  1  0.89091743  0.12006424  0.62431340  1.0
  C  C155  1  0.94445815  0.16946836  0.62066008  1.0
  C  C156  1  0.99323689  0.17901169  0.67485687  1.0
  C  C157  1  0.98868645  0.14152096  0.73176038  1.0
  C  C158  1  0.93553306  0.09046203  0.73463351  1.0
  C  C159  1  0.88887395  0.07805128  0.67738581  1.0
  C  C160  1  0.93456580  0.48614627  0.45753749  1.0
  C  C161  1  0.86626735  0.49903364  0.46134250  1.0
  C  C162  1  0.82064647  0.44670177  0.47799899  1.0
  C  C163  1  0.84256193  0.38334942  0.49077157  1.0
  C  C164  1  0.91081687  0.37021299  0.48636699  1.0
  C  C165  1  0.95642073  0.42265576  0.46991967  1.0
  Br  Br166  1  0.24466344  0.72517396  0.77676118  1.0
  Br  Br167  1  0.11813848  0.75424347  0.86922592  1.0
  Br  Br168  1  0.22316820  0.97801689  0.66546076  1.0
  Br  Br169  1  0.08002415  0.99324076  0.73392336  1.0
  Br  Br170  1  0.59973974  0.74016232  0.86825222  1.0
  Br  Br171  1  0.46532885  0.71842187  0.76188993  1.0
  Br  Br172  1  0.59695370  0.02617528  0.85259635  1.0
  Br  Br173  1  0.45595252  0.00084718  0.75939665  1.0
  Br  Br174  1  0.14029102  0.10740356  0.14556359  1.0
  Br  Br175  1  0.27787118  0.08874783  0.24544421  1.0
  Br  Br176  1  0.15953186  0.84842357  0.01618284  1.0
  Br  Br177  1  0.28021476  0.81852231  0.13073395  1.0
  Br  Br178  1  0.58640747  0.99457790  0.32848677  1.0
  Br  Br179  1  0.72528601  0.96967096  0.24802687  1.0
  Br  Br180  1  0.44275622  0.88295504  0.07954296  1.0
  Br  Br181  1  0.56582094  0.95202167  0.00135310  1.0
  Br  Br182  1  0.40204307  0.02690555  0.41828038  1.0
  Br  Br183  1  0.39057171  0.99918811  0.57836707  1.0
  Br  Br184  1  0.35723722  0.74625652  0.34402204  1.0
  Br  Br185  1  0.34742767  0.71740431  0.50666762  1.0
  Br  Br186  1  0.58137588  0.27041602  0.04115843  1.0
  Br  Br187  1  0.64341049  0.12483686  0.04224091  1.0
  Br  Br188  1  0.67780153  0.30256387  0.78163406  1.0
  Br  Br189  1  0.76740747  0.17191372  0.79535472  1.0
  Br  Br190  1  0.83582370  0.63374734  0.05138519  1.0
  Br  Br191  1  0.72602777  0.49812961  0.05731266  1.0
  Br  Br192  1  0.73771230  0.66631304  0.78694644  1.0
  Br  Br193  1  0.63204596  0.52879992  0.78761886  1.0
  Br  Br194  1  0.12774110  0.33791548  0.15180816  1.0
  Br  Br195  1  0.01678656  0.20470255  0.15972110  1.0
  Br  Br196  1  0.03431879  0.35499123  0.87947415  1.0
  Br  Br197  1  0.92130391  0.22370960  0.89344386  1.0
  Br  Br198  1  0.16667482  0.60608136  0.15196761  1.0
  Br  Br199  1  0.08158390  0.74037574  0.15369271  1.0
  Br  Br200  1  0.08704831  0.53897812  0.87829572  1.0
  Br  Br201  1  0.96309825  0.63383685  0.88942030  1.0
  Br  Br202  1  0.33776830  0.45268125  0.11871444  1.0
  Br  Br203  1  0.49822184  0.44203817  0.08340153  1.0
  Br  Br204  1  0.25822059  0.42276210  0.84001913  1.0
  Br  Br205  1  0.41891764  0.41121475  0.80429510  1.0
  Br  Br206  1  0.69619201  0.61845988  0.28051272  1.0
  Br  Br207  1  0.69727285  0.70135669  0.14586390  1.0
  Br  Br208  1  0.94556974  0.75369581  0.38046985  1.0
  Br  Br209  1  0.93381649  0.86112806  0.26954228  1.0
  Br  Br210  1  0.68948951  0.80606642  0.70243495  1.0
  Br  Br211  1  0.67874113  0.70119578  0.56313010  1.0
  Br  Br212  1  0.97062700  0.85202236  0.67781987  1.0
  Br  Br213  1  0.96483741  0.72891044  0.55608944  1.0
  Br  Br214  1  0.05272346  0.00622996  0.27022878  1.0
  Br  Br215  1  0.07966927  0.11616111  0.40050647  1.0
  Br  Br216  1  0.80067644  0.13143851  0.21332865  1.0
  Br  Br217  1  0.80860315  0.18510645  0.36868081  1.0
  Br  Br218  1  0.82670284  0.00122413  0.66435079  1.0
  Br  Br219  1  0.81959361  0.11206533  0.55585763  1.0
  Br  Br220  1  0.05691657  0.16179763  0.80197672  1.0
  Br  Br221  1  0.06670027  0.24376405  0.66809590  1.0
  Br  Br222  1  0.04865081  0.40588620  0.46590389  1.0
  Br  Br223  1  0.99702033  0.55660128  0.43662631  1.0
  Br  Br224  1  0.77982966  0.31375792  0.51325386  1.0
  Br  Br225  1  0.72840237  0.46353667  0.48184757  1.0
  O  O226  1  0.97218247  0.04758366  0.84016887  1.0
  O  O227  1  0.68071411  0.86370470  0.93411696  1.0
  O  O228  1  0.81513368  0.90000717  0.77249050  1.0
  O  O229  1  0.75400800  0.05633063  0.88178314  1.0
  O  O230  1  0.77602327  0.09905262  0.98950773  1.0
  O  O231  1  0.87772797  0.81321358  0.79636646  1.0
  O  O232  1  0.70735864  0.92797606  0.84930086  1.0
  O  O233  1  0.86297968  0.03058621  0.80267640  1.0
  O  O234  1  0.79277196  0.95755780  0.96811230  1.0
  O  O235  1  0.90759426  0.93179359  0.88654282  1.0
  O  O236  1  0.80369699  0.85466090  0.89293631  1.0
  O  O237  1  0.87859743  0.04408227  0.93272845  1.0
  O  O238  1  0.78393900  0.80828585  0.09803177  1.0
  O  O239  1  0.07479785  0.00291692  0.00865432  1.0
  O  O240  1  0.84996704  0.73414788  0.90257027  1.0
  O  O241  1  0.73973959  0.01553361  0.08884982  1.0
  O  O242  1  0.90645538  0.12937153  0.03907010  1.0
  O  O243  1  0.00430096  0.84372606  0.84506064  1.0
  O  O244  1  0.99145561  0.79774127  0.06032603  1.0
  O  O245  1  0.94229309  0.97167920  0.16798901  1.0
  O  O246  1  0.97570897  0.76478533  0.95023963  1.0
  O  O247  1  0.88073328  0.05455368  0.13507424  1.0
  O  O248  1  0.76313241  0.75578319  0.96781281  1.0
  O  O249  1  0.05220388  0.94921457  0.87381217  1.0
  O  O250  1  0.99637161  0.10340018  0.97942295  1.0
  O  O251  1  0.70488524  0.90526776  0.06287463  1.0
  O  O252  1  0.89298490  0.82898345  0.13385009  1.0
  O  O253  1  0.04379472  0.93829699  0.09235015  1.0
  O  O254  1  0.93099045  0.98675257  0.02509179  1.0
  O  O255  1  0.87686075  0.84807767  0.99651749  1.0
  O  O256  1  0.99091346  0.89484790  0.97195771  1.0
  O  O257  1  0.83701242  0.93136830  0.08183145  1.0
