# generated using pymatgen
data_Zn2H12C18N6O17
_symmetry_space_group_name_H-M   'P 1'
_cell_length_a   7.47280229
_cell_length_b   9.00186059
_cell_length_c   15.97673099
_cell_angle_alpha   94.81428334
_cell_angle_beta   92.79431729
_cell_angle_gamma   97.58626255
_symmetry_Int_Tables_number   1
_chemical_formula_structural   Zn2H12C18N6O17
_chemical_formula_sum   'Zn2 H12 C18 N6 O17'
_cell_volume   1059.62593933
_cell_formula_units_Z   1
loop_
 _symmetry_equiv_pos_site_id
 _symmetry_equiv_pos_as_xyz
  1  'x, y, z'
loop_
 _atom_site_type_symbol
 _atom_site_label
 _atom_site_symmetry_multiplicity
 _atom_site_fract_x
 _atom_site_fract_y
 _atom_site_fract_z
 _atom_site_occupancy
  Zn  Zn0  1  0.31536820  0.45775734  0.49415867  1.0
  Zn  Zn1  1  0.68921793  0.55209965  0.51079435  1.0
  H  H2  1  0.27810631  0.31441942  0.91110660  1.0
  H  H3  1  0.35539343  0.29444066  0.04810450  1.0
  H  H4  1  0.76862142  0.54414729  0.07058046  1.0
  H  H5  1  0.67355901  0.35795240  0.08056080  1.0
  H  H6  1  0.59193760  0.30806600  0.93476700  1.0
  H  H7  1  0.75232050  0.46711050  0.92487991  1.0
  H  H8  1  0.59965380  0.75320819  0.09435377  1.0
  H  H9  1  0.67029144  0.70773761  0.95789098  1.0
  H  H10  1  0.70108710  0.02696340  0.49338860  1.0
  H  H11  1  0.06804739  0.65775893  0.51581415  1.0
  H  H12  1  0.93684738  0.35370383  0.49253311  1.0
  H  H13  1  0.22348260  0.69656244  0.05048240  1.0
  C  C14  1  0.54459081  0.21952510  0.48995073  1.0
  C  C15  1  0.50522814  0.51606605  0.34288638  1.0
  C  C16  1  0.45767735  0.79002559  0.51212381  1.0
  C  C17  1  0.49813709  0.50146926  0.66273361  1.0
  C  C18  1  0.32015937  0.40815447  0.04255843  1.0
  C  C19  1  0.65050617  0.46003782  0.05111565  1.0
  C  C20  1  0.62737219  0.42873810  0.95448651  1.0
  C  C21  1  0.49008326  0.50501161  0.75293842  1.0
  C  C22  1  0.47968000  0.52034510  0.08614972  1.0
  C  C23  1  0.29746819  0.42488654  0.94711146  1.0
  C  C24  1  0.47497833  0.51451827  0.91916203  1.0
  C  C25  1  0.52477216  0.67589502  0.96330301  1.0
  C  C26  1  0.48353989  0.68419054  0.05920324  1.0
  C  C27  1  0.47802504  0.51051615  0.82852559  1.0
  C  C28  1  0.48771519  0.52120267  0.17693211  1.0
  C  C29  1  0.50222326  0.51957219  0.25277442  1.0
  C  C30  1  0.56544970  0.05909957  0.49454202  1.0
  C  C31  1  0.42959916  0.95036845  0.50453957  1.0
  N  N32  1  0.96749546  0.56401948  0.51010784  1.0
  N  N33  1  0.03728309  0.44746003  0.49695968  1.0
  N  N34  1  0.13655224  0.39554065  0.08236012  1.0
  N  N35  1  0.12784254  0.49028581  0.92026503  1.0
  N  N36  1  0.23942952  0.97731719  0.50914856  1.0
  N  N37  1  0.44273934  0.79940326  0.92272636  1.0
  O  O38  1  0.38798078  0.25038927  0.47006132  1.0
  O  O39  1  0.68673921  0.31440913  0.50819931  1.0
  O  O40  1  0.35166014  0.50776889  0.37518338  1.0
  O  O41  1  0.65855174  0.52125620  0.38224949  1.0
  O  O42  1  0.32029122  0.69701711  0.52457320  1.0
  O  O43  1  0.61820101  0.76244280  0.50519577  1.0
  O  O44  1  0.35488395  0.44286050  0.61943232  1.0
  O  O45  1  0.64689877  0.55744180  0.63504325  1.0
  O  O46  1  0.11239657  0.48225174  0.14273339  1.0
  O  O47  1  0.02527754  0.29035179  0.04875311  1.0
  O  O48  1  0.06780607  0.58325160  0.97014703  1.0
  O  O49  1  0.05878170  0.44489886  0.85015622  1.0
  O  O50  1  0.14025519  0.93880861  0.44462143  1.0
  O  O51  1  0.19229438  0.02750169  0.57763907  1.0
  O  O52  1  0.33340357  0.75519916  0.07877875  1.0
  O  O53  1  0.30289548  0.76520096  0.87708927  1.0
  O  O54  1  0.52330269  0.92796955  0.94040373  1.0
