# generated using pymatgen
data_Al2H31C38(N3O7)3
_symmetry_space_group_name_H-M   'P 1'
_cell_length_a   6.64933818
_cell_length_b   23.71344142
_cell_length_c   30.21827347
_cell_angle_alpha   90.50705287
_cell_angle_beta   90.71214173
_cell_angle_gamma   91.01602408
_symmetry_Int_Tables_number   1
_chemical_formula_structural   Al2H31C38(N3O7)3
_chemical_formula_sum   'Al4 H62 C76 N18 O42'
_cell_volume   4763.46465622
_cell_formula_units_Z   2
loop_
 _symmetry_equiv_pos_site_id
 _symmetry_equiv_pos_as_xyz
  1  'x, y, z'
loop_
 _atom_site_type_symbol
 _atom_site_label
 _atom_site_symmetry_multiplicity
 _atom_site_fract_x
 _atom_site_fract_y
 _atom_site_fract_z
 _atom_site_occupancy
  Al  Al0  1  0.77882322  0.74792510  0.74734741  1.0
  Al  Al1  1  0.19952839  0.24726754  0.25194828  1.0
  Al  Al2  1  0.27925990  0.74081867  0.74724362  1.0
  Al  Al3  1  0.69705905  0.25527163  0.24770610  1.0
  H  H4  1  0.31300722  0.66860888  0.87119268  1.0
  H  H5  1  0.68264923  0.33118050  0.12519961  1.0
  H  H6  1  0.22505365  0.05987780  0.41506519  1.0
  H  H7  1  0.58787752  0.97403339  0.61625868  1.0
  H  H8  1  0.72293744  0.10484339  0.06385597  1.0
  H  H9  1  0.23397651  0.87314656  0.93915870  1.0
  H  H10  1  0.18958657  0.98772789  0.94247516  1.0
  H  H11  1  0.72949088  0.00266178  0.05584007  1.0
  H  H12  1  0.61996523  0.68276737  0.59059130  1.0
  H  H13  1  0.26862046  0.30720327  0.34179916  1.0
  H  H14  1  0.31255913  0.40315569  0.97343664  1.0
  H  H15  1  0.77286550  0.61493366  0.97593750  1.0
  H  H16  1  0.80045974  0.22155633  0.34968304  1.0
  H  H17  1  0.92811814  0.19258902  0.39513149  1.0
  H  H18  1  0.32247303  0.74517087  0.62756496  1.0
  H  H19  1  0.24304256  0.76000769  0.57617933  1.0
  H  H20  1  0.93131568  0.08943030  0.45491513  1.0
  H  H21  1  0.00713742  0.10895029  0.40239393  1.0
  H  H22  1  0.35564978  0.84136822  0.49933779  1.0
  H  H23  1  0.42203911  0.77953449  0.52410594  1.0
  H  H24  1  0.14975310  0.14430345  0.32389240  1.0
  H  H25  1  0.70955688  0.88340350  0.70339395  1.0
  H  H26  1  0.32079197  0.99627479  0.39782772  1.0
  H  H27  1  0.81413464  0.96585377  0.58270477  1.0
  H  H28  1  0.16459645  0.91760841  0.46208291  1.0
  H  H29  1  0.87786976  0.06774854  0.53485849  1.0
  H  H30  1  0.75320055  0.18843593  0.16041185  1.0
  H  H31  1  0.12426223  0.80379771  0.89429362  1.0
  H  H32  1  0.03136579  0.03385965  0.12747158  1.0
  H  H33  1  0.74148566  0.00059010  0.91675310  1.0
  H  H34  1  0.69254894  0.60878066  0.51789378  1.0
  H  H35  1  0.54641179  0.58940419  0.55889999  1.0
  H  H36  1  0.32086199  0.40634058  0.47274936  1.0
  H  H37  1  0.40845565  0.35533219  0.43528920  1.0
  H  H38  1  0.96546479  0.11449259  0.15097338  1.0
  H  H39  1  0.10383410  0.12732954  0.19540128  1.0
  H  H40  1  0.92838691  0.93317875  0.83467210  1.0
  H  H41  1  0.86059273  0.87202662  0.80540715  1.0
  H  H42  1  0.99637054  0.04713666  0.98493719  1.0
  H  H43  1  0.04865474  0.06290692  0.03806871  1.0
  H  H44  1  0.85300745  0.91956517  0.96047756  1.0
  H  H45  1  0.93250330  0.94624540  0.00958658  1.0
  H  H46  1  0.29757851  0.51509220  0.56712430  1.0
  H  H47  1  0.58332882  0.46222145  0.37738962  1.0
  H  H48  1  0.45919210  0.58450121  0.64975538  1.0
  H  H49  1  0.37277647  0.63775334  0.68531920  1.0
  H  H50  1  0.63837584  0.38259167  0.30411077  1.0
  H  H51  1  0.49761206  0.38066814  0.34815389  1.0
  H  H52  1  0.60204437  0.57400731  0.84085573  1.0
  H  H53  1  0.40492949  0.41563115  0.16048744  1.0
  H  H54  1  0.69241399  0.50702018  0.92115676  1.0
  H  H55  1  0.54975869  0.56285378  0.91381053  1.0
  H  H56  1  0.46015892  0.43296833  0.08744541  1.0
  H  H57  1  0.32638207  0.49119785  0.08893785  1.0
  H  H58  1  0.31361469  0.58689164  0.96970932  1.0
  H  H59  1  0.70348144  0.41864481  0.03095442  1.0
  H  H60  1  0.22987742  0.49701697  0.90584302  1.0
  H  H61  1  0.70523612  0.55996954  0.06701790  1.0
  H  H62  1  0.54389870  0.67851410  0.77231887  1.0
  H  H63  1  0.42554769  0.31678924  0.22570837  1.0
  H  H64  1  0.05909914  0.81096057  0.76979074  1.0
  H  H65  1  0.91988167  0.18324296  0.27101124  1.0
  C  C66  1  0.51737213  0.80343148  0.68365473  1.0
  C  C67  1  0.46381054  0.18825971  0.31411850  1.0
  C  C68  1  0.53377332  0.81321954  0.80792603  1.0
  C  C69  1  0.43844155  0.17892978  0.19055426  1.0
  C  C70  1  0.02976262  0.68030399  0.80957618  1.0
  C  C71  1  0.95800003  0.31370225  0.18782009  1.0
  C  C72  1  0.00789502  0.68082539  0.68608773  1.0
  C  C73  1  0.95935698  0.32128337  0.31053517  1.0
  C  C74  1  0.84809748  0.64786849  0.61405645  1.0
  C  C75  1  0.12678316  0.35575018  0.37996363  1.0
  C  C76  1  0.83343703  0.60977540  0.57856256  1.0
  C  C77  1  0.13191330  0.38601188  0.42067067  1.0
  C  C78  1  0.99056365  0.57068581  0.57156787  1.0
  C  C79  1  0.96593000  0.42106247  0.43144280  1.0
  C  C80  1  0.16557657  0.57447950  0.59856528  1.0
  C  C81  1  0.80399774  0.42438342  0.40037680  1.0
  C  C82  1  0.17705748  0.61133412  0.63610092  1.0
  C  C83  1  0.79407953  0.39138573  0.36176440  1.0
  C  C84  1  0.01169523  0.64697521  0.64518636  1.0
  C  C85  1  0.95916504  0.35662781  0.35082926  1.0
  C  C86  1  0.96364806  0.45285219  0.47266913  1.0
  C  C87  1  0.97324154  0.52546010  0.53878194  1.0
  C  C88  1  0.84444766  0.60974205  0.85815757  1.0
  C  C89  1  0.15825253  0.38376937  0.14279648  1.0
  C  C90  1  0.84187890  0.57501297  0.89601694  1.0
  C  C91  1  0.16870659  0.42083293  0.10641645  1.0
  C  C92  1  0.01021123  0.57341897  0.92470973  1.0
  C  C93  1  0.00508965  0.42569115  0.07722887  1.0
  C  C94  1  0.17983771  0.60784824  0.91532324  1.0
  C  C95  1  0.83073365  0.39244048  0.08431736  1.0
  C  C96  1  0.18253353  0.64193330  0.87830268  1.0
  C  C97  1  0.81810623  0.35662686  0.12007016  1.0
  C  C98  1  0.01599265  0.64321526  0.84929089  1.0
  C  C99  1  0.98106652  0.35188699  0.14983041  1.0
  C  C100  1  0.13682389  0.48955296  0.96600138  1.0
  C  C101  1  0.88705969  0.51177827  0.03728685  1.0
  C  C102  1  0.13665210  0.45360020  0.00257719  1.0
  C  C103  1  0.88555211  0.54699471  0.00025494  1.0
  C  C104  1  0.01164804  0.46431480  0.03888037  1.0
  C  C105  1  0.01107777  0.53660203  0.96413102  1.0
  C  C106  1  0.67291573  0.15095955  0.37672022  1.0
  C  C107  1  0.44358805  0.81661216  0.60227537  1.0
  C  C108  1  0.70707953  0.10982628  0.41047480  1.0
  C  C109  1  0.46411726  0.84939387  0.56318737  1.0
  C  C110  1  0.54726819  0.07473939  0.42456496  1.0
  C  C111  1  0.51418801  0.90747713  0.56760460  1.0
  C  C112  1  0.35890995  0.08055234  0.40218634  1.0
  C  C113  1  0.57083276  0.92882914  0.61013468  1.0
  C  C114  1  0.33317939  0.11447596  0.36572848  1.0
  C  C115  1  0.59577425  0.89339916  0.64604188  1.0
  C  C116  1  0.49010441  0.15146881  0.35162708  1.0
  C  C117  1  0.52268393  0.83705237  0.64295362  1.0
  C  C118  1  0.42349575  0.98319003  0.45718545  1.0
  C  C119  1  0.67691144  0.98964698  0.52938889  1.0
  C  C120  1  0.39649079  0.94635507  0.49272257  1.0
  C  C121  1  0.67983469  0.03261199  0.49785107  1.0
  C  C122  1  0.52666364  0.94671702  0.52989722  1.0
  C  C123  1  0.55593392  0.03099635  0.45942661  1.0
  C  C124  1  0.60210645  0.13746154  0.12374099  1.0
  C  C125  1  0.36239934  0.84466601  0.87781312  1.0
  C  C126  1  0.59558020  0.10337931  0.08615404  1.0
  C  C127  1  0.35129540  0.87994778  0.91470302  1.0
  C  C128  1  0.42799832  0.06825144  0.07603724  1.0
  C  C129  1  0.49658404  0.92299866  0.92215565  1.0
  C  C130  1  0.26504321  0.06960580  0.10495511  1.0
  C  C131  1  0.65039022  0.93004296  0.89164110  1.0
  C  C132  1  0.26282291  0.10591492  0.14206121  1.0
  C  C133  1  0.66976449  0.89360342  0.85474052  1.0
  C  C134  1  0.43434057  0.14011790  0.15257493  1.0
  C  C135  1  0.52170963  0.85036526  0.84746226  1.0
  C  C136  1  0.27763110  0.02590784  0.00484988  1.0
  C  C137  1  0.64134598  0.96492159  0.99351398  1.0
  C  C138  1  0.30744961  0.99090786  0.96796368  1.0
  C  C139  1  0.61184180  0.00012705  0.03032645  1.0
  C  C140  1  0.48410957  0.96075463  0.96132164  1.0
  C  C141  1  0.43548405  0.03044412  0.03696698  1.0
  N  N142  1  0.13827819  0.49487777  0.53010763  1.0
  N  N143  1  0.78509059  0.47003695  0.49030841  1.0
  N  N144  1  0.13522060  0.45834125  0.49720028  1.0
  N  N145  1  0.78969779  0.50651408  0.52289355  1.0
  N  N146  1  0.82670561  0.18854863  0.36976600  1.0
  N  N147  1  0.36114047  0.76222958  0.59796870  1.0
  N  N148  1  0.90309214  0.11087412  0.42666415  1.0
  N  N149  1  0.44213245  0.82190171  0.52252060  1.0
  N  N150  1  0.66152453  0.61638245  0.55029273  1.0
  N  N151  1  0.29478658  0.37836186  0.44750346  1.0
  N  N152  1  0.09083003  0.10166907  0.16818101  1.0
  N  N153  1  0.82229134  0.90401810  0.82581763  1.0
  N  N154  1  0.10566005  0.05870804  0.00713505  1.0
  N  N155  1  0.81267336  0.93166993  0.99137569  1.0
  N  N156  1  0.34562507  0.60779410  0.66170226  1.0
  N  N157  1  0.62161203  0.40018094  0.33471880  1.0
  N  N158  1  0.66751177  0.54056894  0.90109713  1.0
  N  N159  1  0.34871945  0.45362621  0.10412440  1.0
  O  O160  1  0.37193166  0.80100837  0.78670462  1.0
  O  O161  1  0.61165236  0.19872123  0.20388055  1.0
  O  O162  1  0.67411602  0.80551029  0.70923501  1.0
  O  O163  1  0.28441156  0.19620024  0.29770802  1.0
  O  O164  1  0.84597366  0.70451645  0.69748727  1.0
  O  O165  1  0.12711028  0.29776241  0.30008615  1.0
  O  O166  1  0.70929392  0.79654562  0.79685583  1.0
  O  O167  1  0.27397255  0.19197328  0.20921149  1.0
  O  O168  1  0.86566597  0.69279763  0.79052497  1.0
  O  O169  1  0.11680993  0.29745216  0.20737677  1.0
  O  O170  1  0.35734597  0.77595191  0.69290762  1.0
  O  O171  1  0.61934352  0.21241287  0.29748756  1.0
  O  O172  1  0.53129367  0.70797123  0.75029790  1.0
  O  O173  1  0.44542601  0.28733436  0.24764599  1.0
  O  O174  1  0.20556245  0.69636984  0.79846974  1.0
  O  O175  1  0.77955284  0.29892190  0.19882980  1.0
  O  O176  1  0.17004723  0.68357394  0.71005490  1.0
  O  O177  1  0.79849698  0.31400700  0.28760104  1.0
  O  O178  1  0.03674991  0.78083087  0.74822885  1.0
  O  O179  1  0.94058132  0.21554117  0.25198340  1.0
  O  O180  1  0.70474431  0.68741457  0.61769513  1.0
  O  O181  1  0.29474491  0.32493950  0.37176457  1.0
  O  O182  1  0.25486171  0.40707235  0.00288469  1.0
  O  O183  1  0.75675788  0.59178447  0.00233059  1.0
  O  O184  1  0.15182334  0.11151269  0.34409340  1.0
  O  O185  1  0.67488832  0.91554898  0.68450003  1.0
  O  O186  1  0.30533301  0.96767903  0.42088476  1.0
  O  O187  1  0.83079337  0.99530221  0.56018814  1.0
  O  O188  1  0.23468724  0.90915124  0.48991024  1.0
  O  O189  1  0.80911591  0.07742828  0.50705997  1.0
  O  O190  1  0.77249139  0.16938938  0.13112744  1.0
  O  O191  1  0.22425536  0.80143250  0.87110915  1.0
  O  O192  1  0.10236921  0.03312044  0.09901834  1.0
  O  O193  1  0.79268692  0.97346972  0.89526367  1.0
  O  O194  1  0.33092793  0.54207518  0.59278886  1.0
  O  O195  1  0.65554193  0.46256266  0.40631916  1.0
  O  O196  1  0.68102768  0.60694012  0.83064591  1.0
  O  O197  1  0.32041122  0.38349232  0.17082295  1.0
  O  O198  1  0.34723376  0.60851162  0.94323992  1.0
  O  O199  1  0.66768312  0.39407412  0.05554907  1.0
  O  O200  1  0.26250045  0.47467750  0.93195400  1.0
  O  O201  1  0.76714411  0.52359441  0.07265356  1.0
