# generated using pymatgen
data_AlC24(N2O5)6
_symmetry_space_group_name_H-M   'P 1'
_cell_length_a   4.33196228
_cell_length_b   29.28950879
_cell_length_c   29.29013305
_cell_angle_alpha   59.99954067
_cell_angle_beta   90.00009861
_cell_angle_gamma   89.99983793
_symmetry_Int_Tables_number   1
_chemical_formula_structural   AlC24(N2O5)6
_chemical_formula_sum   'Al2 C48 N24 O60'
_cell_volume   3218.44965929
_cell_formula_units_Z   2
loop_
 _symmetry_equiv_pos_site_id
 _symmetry_equiv_pos_as_xyz
  1  'x, y, z'
loop_
 _atom_site_type_symbol
 _atom_site_label
 _atom_site_symmetry_multiplicity
 _atom_site_fract_x
 _atom_site_fract_y
 _atom_site_fract_z
 _atom_site_occupancy
  Al  Al0  1  0.00001555  0.00000231  0.49999873  1.0
  Al  Al1  1  0.99945503  0.66667857  0.16665923  1.0
  C  C2  1  0.50001152  0.95970674  0.58057743  1.0
  C  C3  1  0.50000736  0.08058413  0.45971110  1.0
  C  C4  1  0.50000851  0.95971275  0.45970881  1.0
  C  C5  1  0.49945629  0.58609320  0.20693975  1.0
  C  C6  1  0.49944822  0.70695433  0.20696868  1.0
  C  C7  1  0.49946829  0.70697808  0.08607241  1.0
  C  C8  1  0.49957477  0.52591700  0.23703013  1.0
  C  C9  1  0.49457302  0.49678404  0.29252672  1.0
  C  C10  1  0.50364118  0.44189891  0.31999479  1.0
  C  C11  1  0.49986473  0.41272475  0.29363458  1.0
  C  C12  1  0.49595135  0.44189122  0.23810143  1.0
  C  C13  1  0.50476192  0.49677515  0.21067664  1.0
  C  C14  1  0.49995775  0.35728493  0.32135746  1.0
  C  C15  1  0.50001144  0.30938176  0.34531237  1.0
  C  C16  1  0.50000290  0.25395298  0.37302700  1.0
  C  C17  1  0.49603994  0.22477863  0.42855589  1.0
  C  C18  1  0.50512426  0.16989862  0.45595995  1.0
  C  C19  1  0.50000661  0.14075403  0.42962729  1.0
  C  C20  1  0.49488362  0.16989764  0.37415200  1.0
  C  C21  1  0.50396197  0.22477684  0.34667734  1.0
  C  C22  1  0.49955891  0.73703682  0.23706146  1.0
  C  C23  1  0.49456769  0.79253460  0.21069785  1.0
  C  C24  1  0.50362815  0.81999973  0.23811333  1.0
  C  C25  1  0.49981983  0.79363631  0.29364782  1.0
  C  C26  1  0.49590081  0.73810502  0.32001289  1.0
  C  C27  1  0.50473293  0.71068325  0.29255423  1.0
  C  C28  1  0.49993053  0.82135337  0.32136443  1.0
  C  C29  1  0.49999046  0.84531055  0.34531437  1.0
  C  C30  1  0.50000190  0.87302682  0.37302523  1.0
  C  C31  1  0.49605382  0.92855811  0.34667382  1.0
  C  C32  1  0.50512813  0.95596371  0.37414944  1.0
  C  C33  1  0.50000862  0.92962828  0.42962555  1.0
  C  C34  1  0.49488229  0.87415061  0.45596074  1.0
  C  C35  1  0.50394757  0.84667562  0.42855498  1.0
  C  C36  1  0.49961770  0.73705641  0.02589899  1.0
  C  C37  1  0.49462615  0.71069091  0.99676843  1.0
  C  C38  1  0.50368151  0.73810341  0.94188796  1.0
  C  C39  1  0.49986730  0.79363823  0.91271233  1.0
  C  C40  1  0.49595675  0.82000778  0.94187565  1.0
  C  C41  1  0.50477551  0.79255113  0.99675601  1.0
  C  C42  1  0.49996367  0.82135272  0.85728175  1.0
  C  C43  1  0.50000240  0.84530697  0.80936970  1.0
  C  C44  1  0.49999720  0.87301870  0.75394596  1.0
  C  C45  1  0.49603372  0.84666532  0.72476841  1.0
  C  C46  1  0.50511678  0.87414049  0.66988767  1.0
  C  C47  1  0.50000062  0.92961974  0.64074426  1.0
  C  C48  1  0.49487815  0.95595420  0.66988689  1.0
  C  C49  1  0.50394160  0.92854840  0.72476811  1.0
  N  N50  1  0.49305171  0.52315281  0.32486625  1.0
  N  N51  1  0.50637491  0.52313779  0.15196741  1.0
  N  N52  1  0.48944633  0.41219941  0.20921993  1.0
  N  N53  1  0.51021850  0.41221165  0.37856572  1.0
  N  N54  1  0.48935694  0.25447043  0.45744525  1.0
  N  N55  1  0.51061191  0.25447080  0.28809350  1.0
  N  N56  1  0.49350786  0.14353281  0.34178797  1.0
  N  N57  1  0.50654223  0.14353244  0.51468870  1.0
  N  N58  1  0.49307322  0.82487706  0.15198976  1.0
  N  N59  1  0.50638162  0.65197007  0.32490072  1.0
  N  N60  1  0.48942861  0.70921650  0.37858902  1.0
  N  N61  1  0.51020874  0.87857336  0.20923222  1.0
  N  N62  1  0.48936108  0.95745176  0.28809205  1.0
  N  N63  1  0.51060809  0.78809292  0.45744779  1.0
  N  N64  1  0.49350943  0.84178687  0.51468589  1.0
  N  N65  1  0.50654244  0.01469030  0.34178695  1.0
  N  N66  1  0.49306950  0.65197919  0.02313925  1.0
  N  N67  1  0.50635282  0.82490275  0.02311680  1.0
  N  N68  1  0.48943473  0.87858378  0.91218250  1.0
  N  N69  1  0.51023061  0.70921900  0.91219750  1.0
  N  N70  1  0.48934233  0.78808381  0.75445885  1.0
  N  N71  1  0.51060822  0.95744069  0.75445805  1.0
  N  N72  1  0.49350161  0.01468238  0.64352358  1.0
  N  N73  1  0.50654354  0.84177851  0.64352526  1.0
  O  O74  1  0.73963636  0.98612905  0.45540749  1.0
  O  O75  1  0.73965110  0.95540782  0.55846345  1.0
  O  O76  1  0.73964047  0.05846729  0.48612588  1.0
  O  O77  1  0.26038519  0.95541214  0.48612356  1.0
  O  O78  1  0.26038404  0.05846936  0.45540932  1.0
  O  O79  1  0.26039687  0.98612475  0.55846340  1.0
  O  O80  1  0.73899955  0.71128117  0.10820997  1.0
  O  O81  1  0.73900787  0.60822958  0.18050673  1.0
  O  O82  1  0.73900275  0.68052209  0.21126232  1.0
  O  O83  1  0.25982900  0.68056774  0.10818664  1.0
  O  O84  1  0.25982913  0.71125747  0.18055294  1.0
  O  O85  1  0.25983260  0.60820894  0.21123894  1.0
  O  O86  1  0.27768246  0.55344069  0.31750072  1.0
  O  O87  1  0.70651647  0.51107883  0.35655420  1.0
  O  O88  1  0.72181496  0.55341285  0.12905738  1.0
  O  O89  1  0.29296354  0.51106582  0.13234419  1.0
  O  O90  1  0.27953029  0.37977137  0.22148441  1.0
  O  O91  1  0.69706789  0.42209033  0.17692537  1.0
  O  O92  1  0.72017459  0.37979175  0.39872987  1.0
  O  O93  1  0.30257130  0.42209969  0.40096947  1.0
  O  O94  1  0.27937551  0.28688759  0.44517933  1.0
  O  O95  1  0.69688904  0.24459041  0.48975080  1.0
  O  O96  1  0.72057407  0.28689093  0.26794022  1.0
  O  O97  1  0.30307775  0.24458645  0.26567147  1.0
  O  O98  1  0.27811620  0.11325730  0.34913599  1.0
  O  O99  1  0.70697895  0.15560819  0.31010142  1.0
  O  O100  1  0.72196465  0.11325879  0.53760867  1.0
  O  O101  1  0.29310546  0.15560417  0.53430721  1.0
  O  O102  1  0.27773195  0.81751703  0.12906146  1.0
  O  O103  1  0.70657420  0.85656155  0.13238012  1.0
  O  O104  1  0.72181996  0.62906468  0.31753034  1.0
  O  O105  1  0.29298909  0.63234105  0.35659967  1.0
  O  O106  1  0.27953066  0.72147550  0.39875950  1.0
  O  O107  1  0.69708321  0.67692396  0.40098719  1.0
  O  O108  1  0.72015043  0.89873668  0.22149057  1.0
  O  O109  1  0.30258418  0.90098034  0.17693700  1.0
  O  O110  1  0.27937080  0.94518740  0.26794195  1.0
  O  O111  1  0.69689708  0.98975677  0.26566721  1.0
  O  O112  1  0.72057773  0.76793851  0.44518333  1.0
  O  O113  1  0.30306283  0.76567111  0.48975208  1.0
  O  O114  1  0.27811519  0.84913484  0.53761436  1.0
  O  O115  1  0.70697200  0.81010025  0.53429801  1.0
  O  O116  1  0.72196196  0.03761289  0.34913650  1.0
  O  O117  1  0.29309146  0.03430882  0.31009900  1.0
  O  O118  1  0.27770329  0.62906221  0.05342790  1.0
  O  O119  1  0.70652484  0.63236055  0.01106781  1.0
  O  O120  1  0.72177277  0.81754585  0.05339159  1.0
  O  O121  1  0.29289492  0.85659175  0.01104220  1.0
  O  O122  1  0.27951793  0.89874596  0.87975431  1.0
  O  O123  1  0.69704718  0.90098873  0.92207628  1.0
  O  O124  1  0.72017904  0.72147101  0.87977805  1.0
  O  O125  1  0.30258143  0.67692735  0.92208755  1.0
  O  O126  1  0.27934550  0.76793360  0.78687247  1.0
  O  O127  1  0.69688584  0.76565740  0.74458200  1.0
  O  O128  1  0.72057111  0.94517315  0.78687712  1.0
  O  O129  1  0.30306911  0.98974746  0.74457438  1.0
  O  O130  1  0.27810922  0.03761331  0.61324838  1.0
  O  O131  1  0.70697520  0.03429336  0.65559890  1.0
  O  O132  1  0.72196530  0.84913092  0.61325277  1.0
  O  O133  1  0.29311407  0.81008652  0.65559652  1.0
