# generated using pymatgen
data_AlH6C12S3(NO2)3
_symmetry_space_group_name_H-M   'P 1'
_cell_length_a   3.88859027
_cell_length_b   20.13084619
_cell_length_c   20.13100573
_cell_angle_alpha   60.00026568
_cell_angle_beta   89.99961938
_cell_angle_gamma   89.99950268
_symmetry_Int_Tables_number   1
_chemical_formula_structural   AlH6C12S3(NO2)3
_chemical_formula_sum   'Al2 H12 C24 S6 N6 O12'
_cell_volume   1364.74490792
_cell_formula_units_Z   2
loop_
 _symmetry_equiv_pos_site_id
 _symmetry_equiv_pos_as_xyz
  1  'x, y, z'
loop_
 _atom_site_type_symbol
 _atom_site_label
 _atom_site_symmetry_multiplicity
 _atom_site_fract_x
 _atom_site_fract_y
 _atom_site_fract_z
 _atom_site_occupancy
  Al  Al0  1  0.00486360  0.00000078  0.50000074  1.0
  Al  Al1  1  0.00491365  0.66666798  0.16666533  1.0
  H  H2  1  0.60661808  0.24825136  0.22516425  1.0
  H  H3  1  0.42633489  0.16640636  0.29378511  1.0
  H  H4  1  0.60664158  0.41840738  0.44151101  1.0
  H  H5  1  0.42634936  0.50024976  0.37288623  1.0
  H  H6  1  0.60663484  0.72515776  0.52658626  1.0
  H  H7  1  0.42631583  0.79377802  0.53980420  1.0
  H  H8  1  0.60663140  0.94150640  0.14008344  1.0
  H  H9  1  0.42632728  0.87288385  0.12686427  1.0
  H  H10  1  0.60663221  0.02658563  0.74825333  1.0
  H  H11  1  0.42633144  0.03980445  0.66641288  1.0
  H  H12  1  0.60664301  0.64007811  0.91840884  1.0
  H  H13  1  0.42633481  0.62686028  0.00024969  1.0
  C  C14  1  0.50414674  0.93816093  0.61871998  1.0
  C  C15  1  0.50415342  0.11871705  0.44312450  1.0
  C  C16  1  0.50415737  0.94311987  0.43816398  1.0
  C  C17  1  0.50421708  0.54794355  0.22355096  1.0
  C  C18  1  0.50419513  0.72354705  0.22850683  1.0
  C  C19  1  0.50420061  0.72850369  0.04794403  1.0
  C  C20  1  0.48022616  0.24909802  0.32237796  1.0
  C  C21  1  0.48030695  0.41755917  0.34429576  1.0
  C  C22  1  0.49292454  0.20260434  0.40198145  1.0
  C  C23  1  0.49301109  0.46405513  0.26469111  1.0
  C  C24  1  0.51505100  0.33912036  0.36483320  1.0
  C  C25  1  0.51503945  0.32753679  0.30183702  1.0
  C  C26  1  0.48028007  0.82236951  0.42852530  1.0
  C  C27  1  0.48027249  0.84429139  0.23814470  1.0
  C  C28  1  0.49296470  0.90197836  0.39541583  1.0
  C  C29  1  0.49296466  0.76468711  0.27125534  1.0
  C  C30  1  0.51506002  0.86483221  0.29604630  1.0
  C  C31  1  0.51507045  0.80183667  0.37062264  1.0
  C  C32  1  0.48025694  0.92852406  0.74910390  1.0
  C  C33  1  0.48025831  0.73814044  0.91756203  1.0
  C  C34  1  0.49293656  0.89541287  0.70260637  1.0
  C  C35  1  0.49296835  0.77125046  0.96405814  1.0
  C  C36  1  0.51502930  0.79604239  0.83912193  1.0
  C  C37  1  0.51504071  0.87062092  0.82754256  1.0
  S  S38  1  0.52046729  0.25382742  0.45043942  1.0
  S  S39  1  0.52052943  0.41283374  0.21623126  1.0
  S  S40  1  0.52049970  0.95043934  0.29573375  1.0
  S  S41  1  0.52052160  0.71622838  0.37093378  1.0
  S  S42  1  0.52046715  0.79573276  0.75382796  1.0
  S  S43  1  0.52051427  0.87093054  0.91283852  1.0
  N  N44  1  0.43634279  0.22450420  0.26947637  1.0
  N  N45  1  0.43638729  0.44215305  0.39719539  1.0
  N  N46  1  0.43637714  0.76947221  0.50601593  1.0
  N  N47  1  0.43636467  0.89719220  0.16065287  1.0
  N  N48  1  0.43636056  0.00601871  0.72450772  1.0
  N  N49  1  0.43635937  0.66064815  0.94215361  1.0
  O  O50  1  0.74068698  0.99290961  0.42287622  1.0
  O  O51  1  0.74068067  0.92287592  0.58421385  1.0
  O  O52  1  0.74068894  0.08421410  0.49291255  1.0
  O  O53  1  0.27538761  0.92505428  0.49052852  1.0
  O  O54  1  0.27539034  0.08440909  0.42506018  1.0
  O  O55  1  0.27537688  0.99052979  0.58441659  1.0
  O  O56  1  0.74075329  0.74379009  0.08244915  1.0
  O  O57  1  0.74075532  0.58245019  0.17375926  1.0
  O  O58  1  0.74074185  0.67376098  0.24378747  1.0
  O  O59  1  0.27543448  0.67613286  0.08225367  1.0
  O  O60  1  0.27542890  0.74161354  0.17613320  1.0
  O  O61  1  0.27543903  0.58224897  0.24161486  1.0
