# generated using pymatgen
data_Zn4H24C42N6O13
_symmetry_space_group_name_H-M   'P 1'
_cell_length_a   26.60724323
_cell_length_b   27.08701864
_cell_length_c   27.27276022
_cell_angle_alpha   61.62548593
_cell_angle_beta   60.98614936
_cell_angle_gamma   60.83483252
_symmetry_Int_Tables_number   1
_chemical_formula_structural   Zn4H24C42N6O13
_chemical_formula_sum   'Zn8 H48 C84 N12 O26'
_cell_volume   14256.54233627
_cell_formula_units_Z   2
loop_
 _symmetry_equiv_pos_site_id
 _symmetry_equiv_pos_as_xyz
  1  'x, y, z'
loop_
 _atom_site_type_symbol
 _atom_site_label
 _atom_site_symmetry_multiplicity
 _atom_site_fract_x
 _atom_site_fract_y
 _atom_site_fract_z
 _atom_site_occupancy
  Zn  Zn0  1  0.98131089  0.94633362  0.10658027  1.0
  Zn  Zn1  1  0.10013235  0.94652194  0.98667904  1.0
  Zn  Zn2  1  0.97912452  0.06132524  0.99014962  1.0
  Zn  Zn3  1  0.97831408  0.94554996  0.99132761  1.0
  Zn  Zn4  1  0.53850250  0.50289562  0.43129459  1.0
  Zn  Zn5  1  0.41983263  0.50340560  0.55070951  1.0
  Zn  Zn6  1  0.54138511  0.50550035  0.54609492  1.0
  Zn  Zn7  1  0.54134586  0.38896787  0.54863383  1.0
  H  H8  1  0.07791173  0.85040367  0.22588824  1.0
  H  H9  1  0.14776126  0.78454164  0.28660519  1.0
  H  H10  1  0.37254765  0.66505682  0.25058867  1.0
  H  H11  1  0.44208622  0.59827908  0.31156508  1.0
  H  H12  1  0.29117634  0.62791682  0.46801252  1.0
  H  H13  1  0.22177555  0.69613998  0.40661634  1.0
  H  H14  1  0.29911583  0.75640780  0.12995311  1.0
  H  H15  1  0.22939211  0.82382248  0.06883264  1.0
  H  H16  1  0.85830030  0.04242815  0.22902548  1.0
  H  H17  1  0.79339726  0.11287333  0.28910950  1.0
  H  H18  1  0.73179136  0.33338432  0.25216783  1.0
  H  H19  1  0.66632734  0.40457016  0.31144468  1.0
  H  H20  1  0.61830471  0.26196635  0.46646998  1.0
  H  H21  1  0.68206210  0.19111799  0.40649742  1.0
  H  H22  1  0.83795156  0.25699603  0.13423127  1.0
  H  H23  1  0.90104916  0.18686545  0.07351276  1.0
  H  H24  1  0.88337901  0.82582813  0.22820641  1.0
  H  H25  1  0.81931129  0.75926189  0.28646129  1.0
  H  H26  1  0.69857995  0.69160790  0.24819739  1.0
  H  H27  1  0.63553518  0.62399814  0.30742231  1.0
  H  H28  1  0.66982669  0.58581784  0.46256717  1.0
  H  H29  1  0.73403639  0.65265736  0.40289095  1.0
  H  H30  1  0.78030821  0.80416183  0.13191698  1.0
  H  H31  1  0.84547687  0.87003121  0.07318949  1.0
  H  H32  1  0.22498453  0.04300752  0.89222361  1.0
  H  H33  1  0.28347454  0.11467137  0.82885891  1.0
  H  H34  1  0.23695647  0.33494544  0.71411527  1.0
  H  H35  1  0.29513013  0.40685033  0.64969621  1.0
  H  H36  1  0.45984749  0.26590461  0.67660542  1.0
  H  H37  1  0.40121243  0.19415009  0.74233045  1.0
  H  H38  1  0.12086237  0.25514446  0.79619490  1.0
  H  H39  1  0.06177898  0.18372986  0.86109822  1.0
  H  H40  1  0.22140850  0.84778195  0.86775289  1.0
  H  H41  1  0.28054291  0.78375148  0.80130134  1.0
  H  H42  1  0.23736194  0.66768217  0.73454903  1.0
  H  H43  1  0.29757119  0.60220657  0.66940877  1.0
  H  H44  1  0.45980052  0.63307859  0.62763582  1.0
  H  H45  1  0.39914312  0.69976328  0.69192848  1.0
  H  H46  1  0.11721142  0.75578200  0.84140570  1.0
  H  H47  1  0.05768909  0.82081512  0.90723717  1.0
  H  H48  1  0.85533388  0.18351079  0.89786584  1.0
  H  H49  1  0.79119915  0.24443565  0.83130819  1.0
  H  H50  1  0.72587453  0.20712477  0.71033392  1.0
  H  H51  1  0.66236703  0.26785964  0.64323228  1.0
  H  H52  1  0.62811446  0.42682327  0.67035318  1.0
  H  H53  1  0.69128083  0.36574476  0.73817370  1.0
  H  H54  1  0.83166003  0.08725476  0.79735360  1.0
  H  H55  1  0.89545046  0.02602110  0.86459601  1.0
  C  C56  1  0.10842314  0.88103001  0.10764171  1.0
  C  C57  1  0.14978939  0.84108064  0.14385206  1.0
  C  C58  1  0.12650433  0.82980756  0.20538386  1.0
  C  C59  1  0.16486591  0.79342958  0.23901771  1.0
  C  C60  1  0.22746039  0.76711288  0.21136970  1.0
  C  C61  1  0.29316374  0.68403233  0.32549773  1.0
  C  C62  1  0.35552278  0.65665116  0.29809209  1.0
  C  C63  1  0.39370905  0.61977175  0.33187788  1.0
  C  C64  1  0.37049318  0.60904714  0.39332287  1.0
  C  C65  1  0.30844028  0.63647977  0.42047235  1.0
  C  C66  1  0.27011324  0.67402946  0.38668754  1.0
  C  C67  1  0.41164279  0.56842115  0.42970924  1.0
  C  C68  1  0.25059582  0.77771647  0.15007150  1.0
  C  C69  1  0.21209907  0.81479500  0.11643999  1.0
  C  C70  1  0.92032783  0.06970649  0.11124742  1.0
  C  C71  1  0.88309933  0.11077629  0.14774185  1.0
  C  C72  1  0.85319471  0.08957915  0.20870373  1.0
  C  C73  1  0.81744541  0.12828284  0.24202362  1.0
  C  C74  1  0.81185199  0.18899161  0.21467404  1.0
  C  C75  1  0.71070033  0.25818623  0.32633774  1.0
  C  C76  1  0.70647358  0.31855599  0.29895557  1.0
  C  C77  1  0.67039048  0.35766745  0.33181969  1.0
  C  C78  1  0.63877560  0.33718843  0.39241497  1.0
  C  C79  1  0.64309638  0.27706590  0.41955969  1.0
  C  C80  1  0.67839654  0.23792917  0.38658882  1.0
  C  C81  1  0.60094349  0.37878775  0.42834315  1.0
  C  C82  1  0.84262947  0.20993722  0.15407627  1.0
  C  C83  1  0.87756616  0.17120452  0.12070030  1.0
  C  C84  1  0.90794156  0.88936278  0.11176310  1.0
  C  C85  1  0.86813762  0.85156038  0.14733735  1.0
  C  C86  1  0.86060733  0.82068703  0.20763755  1.0
  C  C87  1  0.82530517  0.78399015  0.23990582  1.0
  C  C88  1  0.79653520  0.77806100  0.21210587  1.0
  C  C89  1  0.71947158  0.67586245  0.32262996  1.0
  C  C90  1  0.69200397  0.66799474  0.29501416  1.0
  C  C91  1  0.65726314  0.63072280  0.32781651  1.0
  C  C92  1  0.64904164  0.60124905  0.38839531  1.0
  C  C93  1  0.67667931  0.60901005  0.41566541  1.0
  C  C94  1  0.71194531  0.64587514  0.38288834  1.0
  C  C95  1  0.61007198  0.56262079  0.42453276  1.0
  C  C96  1  0.80332998  0.80944925  0.15215089  1.0
  C  C97  1  0.83915402  0.84580053  0.11987423  1.0
  C  C98  1  0.10398791  0.06801462  0.91985533  1.0
  C  C99  1  0.13992401  0.10944214  0.88052892  1.0
  C  C100  1  0.20263435  0.08961268  0.87115593  1.0
  C  C101  1  0.23507741  0.12899690  0.83616424  1.0
  C  C102  1  0.20503042  0.18900501  0.80940389  1.0
  C  C103  1  0.31623505  0.26042446  0.73131306  1.0
  C  C104  1  0.28563457  0.32061267  0.70560480  1.0
  C  C105  1  0.31788600  0.36013217  0.67005581  1.0
  C  C106  1  0.38092321  0.34030327  0.65917185  1.0
  C  C107  1  0.41111605  0.28046321  0.68529377  1.0
  C  C108  1  0.37889025  0.24085838  0.72144040  1.0
  C  C109  1  0.41658473  0.38190170  0.61908703  1.0
  C  C110  1  0.14271806  0.20858230  0.81787267  1.0
  C  C111  1  0.11026836  0.16915560  0.85352901  1.0
  C  C112  1  0.10049046  0.87712299  0.92942671  1.0
  C  C113  1  0.13614903  0.83803460  0.89105600  1.0
  C  C114  1  0.19911208  0.82752771  0.86146894  1.0
  C  C115  1  0.23186140  0.79226062  0.82483978  1.0
  C  C116  1  0.20180680  0.76662866  0.81759067  1.0
  C  C117  1  0.31529419  0.68696274  0.71689588  1.0
  C  C118  1  0.28593536  0.65980598  0.71071665  1.0
  C  C119  1  0.31927223  0.62371180  0.67484266  1.0
  C  C120  1  0.38212659  0.61384933  0.64506350  1.0
  C  C121  1  0.41115629  0.64119174  0.65106181  1.0
  C  C122  1  0.37783224  0.67782072  0.68654144  1.0
  C  C123  1  0.41844865  0.57378829  0.60763665  1.0
  C  C124  1  0.13912739  0.77650439  0.84761498  1.0
  C  C125  1  0.10640924  0.81223971  0.88395040  1.0
  C  C126  1  0.91616791  0.06506873  0.92488138  1.0
  C  C127  1  0.87878301  0.10136580  0.88496286  1.0
  C  C128  1  0.84967447  0.16303072  0.87564333  1.0
  C  C129  1  0.81438557  0.19670614  0.83903328  1.0
  C  C130  1  0.80805260  0.16881812  0.81095166  1.0
  C  C131  1  0.71205796  0.28349375  0.72753733  1.0
  C  C132  1  0.70416782  0.25514149  0.70109441  1.0
  C  C133  1  0.66921436  0.28871969  0.66417933  1.0
  C  C134  1  0.64193665  0.35074595  0.65292890  1.0
  C  C135  1  0.64969645  0.37882178  0.67948068  1.0
  C  C136  1  0.68445631  0.34529199  0.71677708  1.0
  C  C137  1  0.60474385  0.38671054  0.61280215  1.0
  C  C138  1  0.83737407  0.10737285  0.81990587  1.0
  C  C139  1  0.87247925  0.07375443  0.85686634  1.0
  N  N140  1  0.27080065  0.72917221  0.24099470  1.0
  N  N141  1  0.24989168  0.72222151  0.29581122  1.0
  N  N142  1  0.77677761  0.23265136  0.24376827  1.0
  N  N143  1  0.74577637  0.21433820  0.29744006  1.0
  N  N144  1  0.76001444  0.74163706  0.24038386  1.0
  N  N145  1  0.75562209  0.71261268  0.29408756  1.0
  N  N146  1  0.23294084  0.23328767  0.77307716  1.0
  N  N147  1  0.28847802  0.21601652  0.76774321  1.0
  N  N148  1  0.23046653  0.73000973  0.78153753  1.0
  N  N149  1  0.28631980  0.72400335  0.75255225  1.0
  N  N150  1  0.77333297  0.19853164  0.77287376  1.0
  N  N151  1  0.74677919  0.25387595  0.76560725  1.0
  O  O152  1  0.01071547  0.97427191  0.01986856  1.0
  O  O153  1  0.13384538  0.89453366  0.05163004  1.0
  O  O154  1  0.05127224  0.89839143  0.13561222  1.0
  O  O155  1  0.38610672  0.55514712  0.48570849  1.0
  O  O156  1  0.46875556  0.55027899  0.40190638  1.0
  O  O157  1  0.93890204  0.09415083  0.05537563  1.0
  O  O158  1  0.93042995  0.01400124  0.13838599  1.0
  O  O159  1  0.58251002  0.35478997  0.48429768  1.0
  O  O160  1  0.59018022  0.43446091  0.40065967  1.0
  O  O161  1  0.91573876  0.91203879  0.05648904  1.0
  O  O162  1  0.93132447  0.89585176  0.13875253  1.0
  O  O163  1  0.60191479  0.54114525  0.47985595  1.0
  O  O164  1  0.58783193  0.55425643  0.39790416  1.0
  O  O165  1  0.04632541  0.09164108  0.93102235  1.0
  O  O166  1  0.13315286  0.01280268  0.93938552  1.0
  O  O167  1  0.47425504  0.35860664  0.60784823  1.0
  O  O168  1  0.38719268  0.43691244  0.59900284  1.0
  O  O169  1  0.04329309  0.88552628  0.95337927  1.0
  O  O170  1  0.12952663  0.89921298  0.93509860  1.0
  O  O171  1  0.47579135  0.56468167  0.58486733  1.0
  O  O172  1  0.38973441  0.55172605  0.60151837  1.0
  O  O173  1  0.94032262  0.00923424  0.93200791  1.0
  O  O174  1  0.92116715  0.09234432  0.94892165  1.0
  O  O175  1  0.58187193  0.44285206  0.60398314  1.0
  O  O176  1  0.59862398  0.35875790  0.59032601  1.0
  O  O177  1  0.50930259  0.47593035  0.51803772  1.0
