# generated using pymatgen
data_Zn4H8C40Br12O13
_symmetry_space_group_name_H-M   'P 1'
_cell_length_a   24.00161719
_cell_length_b   24.00177581
_cell_length_c   23.99994167
_cell_angle_alpha   66.62878605
_cell_angle_beta   72.44020490
_cell_angle_gamma   107.55659429
_symmetry_Int_Tables_number   1
_chemical_formula_structural   Zn4H8C40Br12O13
_chemical_formula_sum   'Zn8 H16 C80 Br24 O26'
_cell_volume   10605.67965389
_cell_formula_units_Z   2
loop_
 _symmetry_equiv_pos_site_id
 _symmetry_equiv_pos_as_xyz
  1  'x, y, z'
loop_
 _atom_site_type_symbol
 _atom_site_label
 _atom_site_symmetry_multiplicity
 _atom_site_fract_x
 _atom_site_fract_y
 _atom_site_fract_z
 _atom_site_occupancy
  Zn  Zn0  1  0.05692290  0.09927412  0.45763509  1.0
  Zn  Zn1  1  0.05692329  0.95764331  0.48543283  1.0
  Zn  Zn2  1  0.94307428  0.95763555  0.59928249  1.0
  Zn  Zn3  1  0.94308700  0.98544504  0.45763246  1.0
  Zn  Zn4  1  0.94307583  0.40072693  0.04236047  1.0
  Zn  Zn5  1  0.05692778  0.54236704  0.90070979  1.0
  Zn  Zn6  1  0.94307395  0.54235396  0.01456605  1.0
  Zn  Zn7  1  0.05690569  0.51455971  0.04236453  1.0
  H  H8  1  0.92399422  0.20918064  0.90059900  1.0
  H  H9  1  0.07599009  0.40059597  0.70914927  1.0
  H  H10  1  0.92399872  0.09940819  0.79084805  1.0
  H  H11  1  0.07594908  0.29083755  0.59938693  1.0
  H  H12  1  0.07600875  0.67543794  0.21480220  1.0
  H  H13  1  0.92401184  0.71485743  0.17538275  1.0
  H  H14  1  0.07595260  0.78511974  0.32463715  1.0
  H  H15  1  0.92399871  0.82459619  0.28516257  1.0
  H  H16  1  0.60975994  0.20917203  0.21486606  1.0
  H  H17  1  0.60975516  0.40059757  0.17538536  1.0
  H  H18  1  0.39024131  0.09940179  0.32462376  1.0
  H  H19  1  0.39023432  0.29081121  0.28521594  1.0
  H  H20  1  0.39025170  0.71488999  0.70915915  1.0
  H  H21  1  0.39022842  0.67538487  0.90061815  1.0
  H  H22  1  0.60977089  0.82462660  0.59938168  1.0
  H  H23  1  0.60975005  0.78517949  0.79082780  1.0
  C  C24  1  0.18109970  0.09054314  0.40944624  1.0
  C  C25  1  0.99999243  0.86315099  0.63685527  1.0
  C  C26  1  0.99999095  0.09053361  0.59056185  1.0
  C  C27  1  0.81890264  0.90945399  0.59053871  1.0
  C  C28  1  0.00001194  0.13685804  0.36314352  1.0
  C  C29  1  0.99999212  0.90944386  0.40945612  1.0
  C  C30  1  0.00000388  0.40946847  0.90943615  1.0
  C  C31  1  0.00000669  0.63684939  0.86314014  1.0
  C  C32  1  0.81889783  0.40945568  0.09056402  1.0
  C  C33  1  0.99998961  0.59055197  0.09054766  1.0
  C  C34  1  0.99998888  0.36315292  0.13685147  1.0
  C  C35  1  0.18109591  0.59055490  0.90945987  1.0
  C  C36  1  0.00000610  0.19493310  0.30506614  1.0
  C  C37  1  0.99999661  0.30507629  0.19492599  1.0
  C  C38  1  0.95722586  0.18035219  0.27687405  1.0
  C  C39  1  0.04278064  0.31965876  0.22311672  1.0
  C  C40  1  0.95722511  0.23410392  0.22312125  1.0
  C  C41  1  0.04278445  0.26590704  0.27686360  1.0
  C  C42  1  0.99999851  0.80507645  0.69492612  1.0
  C  C43  1  0.00000057  0.69492290  0.80506971  1.0
  C  C44  1  0.95722023  0.77686882  0.76591064  1.0
  C  C45  1  0.04277872  0.72312742  0.73408688  1.0
  C  C46  1  0.95722089  0.72311502  0.81965971  1.0
  C  C47  1  0.04277800  0.77688486  0.68033514  1.0
  C  C48  1  0.99999960  0.37196272  0.87193964  1.0
  C  C49  1  0.95745037  0.29939724  0.90650627  1.0
  C  C50  1  0.95735783  0.26459172  0.87196045  1.0
  C  C51  1  0.99999274  0.30044735  0.80043509  1.0
  C  C52  1  0.04263058  0.37196621  0.76456640  1.0
  C  C53  1  0.04254455  0.40651484  0.79936540  1.0
  C  C54  1  0.99999082  0.26521044  0.76520401  1.0
  C  C55  1  0.99998532  0.23479583  0.73479196  1.0
  C  C56  1  0.99998295  0.19955891  0.69955977  1.0
  C  C57  1  0.95735416  0.12803484  0.73543297  1.0
  C  C58  1  0.95744505  0.09348725  0.70063500  1.0
  C  C59  1  0.99998726  0.12804405  0.62805414  1.0
  C  C60  1  0.04251113  0.20061212  0.59348682  1.0
  C  C61  1  0.04260089  0.23541919  0.62803120  1.0
  C  C62  1  0.00000726  0.62807430  0.12802565  1.0
  C  C63  1  0.04255851  0.63606961  0.15804009  1.0
  C  C64  1  0.04264305  0.67070050  0.19275791  1.0
  C  C65  1  0.00000219  0.69957620  0.19954289  1.0
  C  C66  1  0.95737047  0.69280526  0.17065555  1.0
  C  C67  1  0.95746473  0.65809909  0.13601230  1.0
  C  C68  1  0.99999632  0.73480123  0.23478543  1.0
  C  C69  1  0.99998544  0.76520031  0.26521191  1.0
  C  C70  1  0.99998173  0.80042790  0.30045171  1.0
  C  C71  1  0.04260096  0.80718228  0.32935355  1.0
  C  C72  1  0.04251040  0.84189361  0.36399282  1.0
  C  C73  1  0.99998267  0.87193240  0.37196528  1.0
  C  C74  1  0.95743970  0.86395210  0.34193655  1.0
  C  C75  1  0.95735225  0.82931966  0.30722148  1.0
  C  C76  1  0.74389595  0.37195343  0.12805588  1.0
  C  C77  1  0.70588760  0.29938476  0.15809760  1.0
  C  C78  1  0.63653833  0.26458320  0.19281116  1.0
  C  C79  1  0.60087888  0.30044446  0.19956977  1.0
  C  C80  1  0.63653504  0.37196603  0.17066660  1.0
  C  C81  1  0.70588218  0.40651433  0.13602441  1.0
  C  C82  1  0.53041210  0.26520841  0.23481172  1.0
  C  C83  1  0.46958452  0.23478936  0.26522882  1.0
  C  C84  1  0.39911808  0.19955124  0.30046356  1.0
  C  C85  1  0.36346209  0.12803382  0.32934879  1.0
  C  C86  1  0.29411341  0.09348502  0.36398706  1.0
  C  C87  1  0.25610036  0.12803710  0.37197470  1.0
  C  C88  1  0.29410873  0.20060107  0.34197317  1.0
  C  C89  1  0.36345614  0.23540522  0.30725331  1.0
  C  C90  1  0.25609822  0.62805715  0.87195954  1.0
  C  C91  1  0.29411891  0.65810735  0.79938061  1.0
  C  C92  1  0.36346694  0.69282250  0.76457832  1.0
  C  C93  1  0.39911798  0.69957285  0.80044967  1.0
  C  C94  1  0.36345394  0.67067064  0.87197834  1.0
  C  C95  1  0.29410483  0.63602870  0.90652655  1.0
  C  C96  1  0.46958646  0.73480785  0.76521222  1.0
  C  C97  1  0.53041116  0.76522070  0.73478677  1.0
  C  C98  1  0.60088081  0.80045727  0.69954542  1.0
  C  C99  1  0.63654572  0.82934912  0.62801976  1.0
  C  C100  1  0.70589656  0.86398536  0.59347246  1.0
  C  C101  1  0.74390128  0.87196416  0.62803550  1.0
  C  C102  1  0.70588352  0.84194192  0.70061206  1.0
  C  C103  1  0.63653494  0.80722936  0.73541307  1.0
  Br  Br104  1  0.89697882  0.08823915  0.30874607  1.0
  Br  Br105  1  0.10302274  0.41176870  0.19125118  1.0
  Br  Br106  1  0.89697951  0.20572313  0.19125302  1.0
  Br  Br107  1  0.10305082  0.29428835  0.30871035  1.0
  Br  Br108  1  0.89697644  0.80873567  0.79430128  1.0
  Br  Br109  1  0.10301574  0.69125540  0.70569491  1.0
  Br  Br110  1  0.89697472  0.69124290  0.91178313  1.0
  Br  Br111  1  0.10302751  0.80875852  0.58821343  1.0
  Br  Br112  1  0.89507270  0.23888145  0.00308848  1.0
  Br  Br113  1  0.10492584  0.50308608  0.73882706  1.0
  Br  Br114  1  0.89508407  0.99691081  0.76117427  1.0
  Br  Br115  1  0.10485105  0.26115487  0.49689284  1.0
  Br  Br116  1  0.10495233  0.60189592  0.15617086  1.0
  Br  Br117  1  0.89510463  0.65627265  0.10179507  1.0
  Br  Br118  1  0.10486238  0.84371221  0.39822244  1.0
  Br  Br119  1  0.89507467  0.89816114  0.34377880  1.0
  Br  Br120  1  0.74193335  0.23885431  0.15627268  1.0
  Br  Br121  1  0.74192290  0.50309317  0.10178933  1.0
  Br  Br122  1  0.25806984  0.99691136  0.39819970  1.0
  Br  Br123  1  0.25806217  0.26111712  0.34387059  1.0
  Br  Br124  1  0.25808415  0.65630079  0.73883175  1.0
  Br  Br125  1  0.25805234  0.60178734  0.00311730  1.0
  Br  Br126  1  0.74195054  0.89819980  0.49688817  1.0
  Br  Br127  1  0.74192275  0.84379605  0.76114465  1.0
  O  O128  1  0.00000198  0.99999849  0.49999699  1.0
  O  O129  1  0.15181496  0.12605386  0.41380486  1.0
  O  O130  1  0.03951992  0.88566154  0.57485766  1.0
  O  O131  1  0.96007743  0.02574748  0.62606784  1.0
  O  O132  1  0.15181467  0.02575376  0.43434398  1.0
  O  O133  1  0.03991570  0.12603150  0.52577322  1.0
  O  O134  1  0.96046273  0.88561180  0.65388256  1.0
  O  O135  1  0.84818237  0.91382399  0.62605357  1.0
  O  O136  1  0.96053561  0.07486728  0.38560050  1.0
  O  O137  1  0.84819223  0.93435698  0.52574195  1.0
  O  O138  1  0.03948922  0.15387848  0.38565809  1.0
  O  O139  1  0.03989431  0.91384167  0.43434325  1.0
  O  O140  1  0.96010229  0.93434512  0.41383930  1.0
  O  O141  1  0.99999739  0.50000242  0.99999688  1.0
  O  O142  1  0.96011068  0.37396227  0.97423354  1.0
  O  O143  1  0.03954732  0.61439893  0.84611378  1.0
  O  O144  1  0.84817943  0.47424142  0.06568834  1.0
  O  O145  1  0.03989942  0.47425824  0.87392373  1.0
  O  O146  1  0.84818316  0.37395380  0.08616005  1.0
  O  O147  1  0.96046940  0.61432902  0.92513877  1.0
  O  O148  1  0.96010267  0.58617175  0.06564288  1.0
  O  O149  1  0.03950516  0.42514315  0.11435722  1.0
  O  O150  1  0.03986014  0.56562583  0.08619076  1.0
  O  O151  1  0.96047014  0.34613352  0.11437901  1.0
  O  O152  1  0.15181667  0.58614451  0.87395252  1.0
  O  O153  1  0.15180493  0.56567624  0.97425200  1.0
