# generated using pymatgen
data_Mg3H8C14(NO5)2
_symmetry_space_group_name_H-M   'P 1'
_cell_length_a   11.07540703
_cell_length_b   11.08436360
_cell_length_c   11.08437497
_cell_angle_alpha   67.64886148
_cell_angle_beta   79.74226685
_cell_angle_gamma   79.74230672
_symmetry_Int_Tables_number   1
_chemical_formula_structural   Mg3H8C14(NO5)2
_chemical_formula_sum   'Mg6 H16 C28 N4 O20'
_cell_volume   1229.27356712
_cell_formula_units_Z   2
loop_
 _symmetry_equiv_pos_site_id
 _symmetry_equiv_pos_as_xyz
  1  'x, y, z'
loop_
 _atom_site_type_symbol
 _atom_site_label
 _atom_site_symmetry_multiplicity
 _atom_site_fract_x
 _atom_site_fract_y
 _atom_site_fract_z
 _atom_site_occupancy
  Mg  Mg0  1  0.24999982  0.89911294  0.10088687  1.0
  Mg  Mg1  1  0.75000003  0.10088554  0.89911366  1.0
  Mg  Mg2  1  0.03855878  0.87780074  0.95503198  1.0
  Mg  Mg3  1  0.46144147  0.04496978  0.12219764  1.0
  Mg  Mg4  1  0.96144187  0.12219872  0.04496803  1.0
  Mg  Mg5  1  0.53855907  0.95503066  0.87780201  1.0
  H  H6  1  0.02592352  0.88200080  0.20222707  1.0
  H  H7  1  0.47407614  0.79777375  0.11799852  1.0
  H  H8  1  0.97407610  0.11799964  0.79777275  1.0
  H  H9  1  0.52592348  0.20222670  0.88200040  1.0
  H  H10  1  0.37387309  0.96129134  0.54669639  1.0
  H  H11  1  0.12612668  0.45330362  0.03871028  1.0
  H  H12  1  0.62612756  0.03870812  0.45330452  1.0
  H  H13  1  0.87387295  0.54669682  0.96129044  1.0
  H  H14  1  0.05559493  0.82868051  0.48422928  1.0
  H  H15  1  0.44440459  0.51577016  0.17132112  1.0
  H  H16  1  0.94440549  0.17132092  0.51576912  1.0
  H  H17  1  0.55559606  0.48422930  0.82867979  1.0
  H  H18  1  0.95983492  0.81969498  0.71144323  1.0
  H  H19  1  0.54016660  0.28855798  0.18030343  1.0
  H  H20  1  0.04016561  0.18030546  0.28855552  1.0
  H  H21  1  0.45983475  0.71144345  0.81969571  1.0
  C  C22  1  0.22361017  0.91923988  0.70472752  1.0
  C  C23  1  0.27638953  0.29527260  0.08076114  1.0
  C  C24  1  0.77638945  0.08076056  0.29527230  1.0
  C  C25  1  0.72361021  0.70472686  0.91923993  1.0
  C  C26  1  0.28228382  0.92923519  0.57972049  1.0
  C  C27  1  0.21771603  0.42027939  0.07076726  1.0
  C  C28  1  0.71771672  0.07076526  0.42027916  1.0
  C  C29  1  0.78228370  0.57972007  0.92923472  1.0
  C  C30  1  0.22081602  0.89773381  0.49776275  1.0
  C  C31  1  0.27918341  0.50223668  0.10226843  1.0
  C  C32  1  0.77918452  0.10226664  0.50223691  1.0
  C  C33  1  0.72081552  0.49776180  0.89773316  1.0
  C  C34  1  0.10412061  0.85559926  0.54577126  1.0
  C  C35  1  0.39587895  0.45422736  0.14440300  1.0
  C  C36  1  0.89587993  0.14440119  0.45422749  1.0
  C  C37  1  0.60412171  0.54577210  0.85559791  1.0
  C  C38  1  0.05134101  0.85060656  0.67120827  1.0
  C  C39  1  0.44865920  0.32879242  0.14939302  1.0
  C  C40  1  0.94865953  0.14939388  0.32879049  1.0
  C  C41  1  0.55134134  0.67120802  0.85060664  1.0
  C  C42  1  0.28545588  0.94500519  0.80200698  1.0
  C  C43  1  0.21454481  0.19799215  0.05499539  1.0
  C  C44  1  0.71454180  0.05499623  0.19799372  1.0
  C  C45  1  0.78545687  0.80200633  0.94500571  1.0
  C  C46  1  0.27662275  0.91249161  0.35883968  1.0
  C  C47  1  0.22337660  0.64115892  0.08751215  1.0
  C  C48  1  0.72337779  0.08750883  0.64115907  1.0
  C  C49  1  0.77662417  0.35883955  0.91249092  1.0
  N  N50  1  0.10893231  0.88271259  0.74930842  1.0
  N  N51  1  0.39106832  0.25069268  0.11728665  1.0
  N  N52  1  0.89106834  0.11728688  0.25069068  1.0
  N  N53  1  0.60893222  0.74930777  0.88271301  1.0
  O  O54  1  0.21732786  0.94250952  0.90843199  1.0
  O  O55  1  0.28267261  0.09156751  0.05749144  1.0
  O  O56  1  0.78267268  0.05749092  0.09156767  1.0
  O  O57  1  0.71732701  0.90843293  0.94250928  1.0
  O  O58  1  0.39741685  0.96322250  0.77485927  1.0
  O  O59  1  0.10258261  0.22513926  0.03677954  1.0
  O  O60  1  0.60258357  0.03677893  0.22514004  1.0
  O  O61  1  0.89741633  0.77485921  0.96322296  1.0
  O  O62  1  0.37095474  0.97302713  0.31357838  1.0
  O  O63  1  0.12904367  0.68641988  0.02697820  1.0
  O  O64  1  0.62904568  0.02697430  0.68642002  1.0
  O  O65  1  0.87095423  0.31357958  0.97302140  1.0
  O  O66  1  0.22182611  0.86537244  0.29846437  1.0
  O  O67  1  0.27817437  0.70153566  0.13462883  1.0
  O  O68  1  0.77817535  0.13462801  0.70153421  1.0
  O  O69  1  0.72182456  0.29846283  0.86537005  1.0
  O  O70  1  0.05413544  0.93125375  0.11140896  1.0
  O  O71  1  0.44586505  0.88859173  0.06874573  1.0
  O  O72  1  0.94586510  0.06874670  0.88859069  1.0
  O  O73  1  0.55413549  0.11140871  0.93125393  1.0
