# generated using pymatgen
data_Cu2H7(C3N)4
_symmetry_space_group_name_H-M   'P 1'
_cell_length_a   20.98491819
_cell_length_b   21.72193135
_cell_length_c   21.91323382
_cell_angle_alpha   91.75724811
_cell_angle_beta   90.81485057
_cell_angle_gamma   93.80010700
_symmetry_Int_Tables_number   1
_chemical_formula_structural   Cu2H7(C3N)4
_chemical_formula_sum   'Cu12 H42 C72 N24'
_cell_volume   9960.80195107
_cell_formula_units_Z   6
loop_
 _symmetry_equiv_pos_site_id
 _symmetry_equiv_pos_as_xyz
  1  'x, y, z'
loop_
 _atom_site_type_symbol
 _atom_site_label
 _atom_site_symmetry_multiplicity
 _atom_site_fract_x
 _atom_site_fract_y
 _atom_site_fract_z
 _atom_site_occupancy
  Cu  Cu0  1  0.17941310  0.20826259  0.90722727  1.0
  Cu  Cu1  1  0.11318857  0.25258379  0.79072894  1.0
  Cu  Cu2  1  0.22847035  0.16539333  0.77905696  1.0
  Cu  Cu3  1  0.24284317  0.78333008  0.13547866  1.0
  Cu  Cu4  1  0.14122023  0.77322857  0.24297706  1.0
  Cu  Cu5  1  0.22313481  0.89816927  0.21637233  1.0
  Cu  Cu6  1  0.75905025  0.19961955  0.12574773  1.0
  Cu  Cu7  1  0.86105813  0.20782192  0.23330913  1.0
  Cu  Cu8  1  0.80870759  0.07888333  0.17598796  1.0
  Cu  Cu9  1  0.78537355  0.75925620  0.86074051  1.0
  Cu  Cu10  1  0.91267140  0.81133545  0.80796497  1.0
  Cu  Cu11  1  0.78065578  0.85226253  0.75386110  1.0
  H  H12  1  0.09096096  0.26717666  0.00871206  1.0
  H  H13  1  0.03687245  0.36484340  0.84865647  1.0
  H  H14  1  0.35223018  0.09627100  0.81819078  1.0
  H  H15  1  0.26178405  0.12770021  0.99176114  1.0
  H  H16  1  0.02237507  0.19341175  0.68831780  1.0
  H  H17  1  0.18468072  0.08265209  0.66585452  1.0
  H  H18  1  0.17705023  0.69079146  0.03991748  1.0
  H  H19  1  0.04515626  0.66695912  0.18856493  1.0
  H  H20  1  0.29370373  0.00091463  0.13411456  1.0
  H  H21  1  0.35226691  0.83292065  0.04644332  1.0
  H  H22  1  0.05881369  0.81757035  0.35577884  1.0
  H  H23  1  0.15538387  0.98924261  0.30251725  1.0
  H  H24  1  0.79855967  0.31643927  0.05468139  1.0
  H  H25  1  0.94795882  0.32343724  0.19308751  1.0
  H  H26  1  0.74208363  0.98000068  0.07874492  1.0
  H  H27  1  0.64412549  0.14363449  0.03836948  1.0
  H  H28  1  0.92682570  0.16402087  0.35708588  1.0
  H  H29  1  0.88561298  0.99056608  0.25726974  1.0
  H  H30  1  0.83152967  0.64281362  0.93286610  1.0
  H  H31  1  0.01145593  0.73815931  0.88692872  1.0
  H  H32  1  0.65754774  0.92008199  0.78375779  1.0
  H  H33  1  0.67985944  0.81125687  0.94374341  1.0
  H  H34  1  0.00714953  0.90825482  0.74247535  1.0
  H  H35  1  0.83218976  0.92909958  0.64046024  1.0
  H  H36  1  0.93757681  0.93708351  0.55008326  1.0
  H  H37  1  0.07086856  0.09540213  0.53549264  1.0
  H  H38  1  0.93151836  0.07189974  0.45239285  1.0
  H  H39  1  0.07409204  0.93950970  0.47025350  1.0
  H  H40  1  0.01222056  0.03478466  0.71239917  1.0
  H  H41  1  0.00555458  0.98375049  0.29204967  1.0
  H  H42  1  0.90656600  0.46696398  0.09482262  1.0
  H  H43  1  0.03939792  0.45688391  0.94725179  1.0
  H  H44  1  0.05096280  0.54095019  0.09373897  1.0
  H  H45  1  0.91905779  0.54803134  0.94214650  1.0
  H  H46  1  0.96536840  0.29063152  0.03058954  1.0
  H  H47  1  0.02833222  0.71295785  0.00668449  1.0
  H  H48  1  0.45600047  0.92289288  0.02589731  1.0
  H  H49  1  0.44946496  0.06574265  0.89451179  1.0
  H  H50  1  0.52185950  0.91038604  0.88113015  1.0
  H  H51  1  0.54939810  0.05517032  0.01958970  1.0
  H  H52  1  0.28658482  0.02181876  0.00711736  1.0
  H  H53  1  0.70878408  0.95516838  0.96052598  1.0
  C  C54  1  0.08391569  0.28441390  0.96329630  1.0
  C  C55  1  0.04675950  0.33209436  0.94475505  1.0
  C  C56  1  0.05726130  0.33532677  0.88181603  1.0
  C  C57  1  0.32370367  0.11101019  0.85621850  1.0
  C  C58  1  0.32543991  0.09407251  0.91748436  1.0
  C  C59  1  0.27659236  0.12614029  0.94451117  1.0
  C  C60  1  0.06842621  0.17344059  0.68935069  1.0
  C  C61  1  0.08718062  0.11952773  0.65993987  1.0
  C  C62  1  0.15134814  0.11710532  0.67761124  1.0
  C  C63  1  0.15183365  0.69139070  0.08282693  1.0
  C  C64  1  0.09208768  0.66325646  0.09694321  1.0
  C  C65  1  0.08494004  0.67850894  0.15895770  1.0
  C  C66  1  0.30167172  0.95383026  0.11966136  1.0
  C  C67  1  0.33672542  0.93233706  0.07023567  1.0
  C  C68  1  0.33287717  0.86807864  0.07569923  1.0
  C  C69  1  0.08961071  0.85398580  0.33668372  1.0
  C  C70  1  0.08936169  0.91807228  0.34567450  1.0
  C  C71  1  0.13856925  0.94152873  0.30870064  1.0
  C  C72  1  0.82867923  0.31115680  0.09459657  1.0
  C  C73  1  0.88917871  0.33933674  0.10902412  1.0
  C  C74  1  0.90501623  0.31454289  0.16512013  1.0
  C  C75  1  0.72527343  0.02599996  0.07560014  1.0
  C  C76  1  0.67586165  0.04650054  0.03914280  1.0
  C  C77  1  0.67421279  0.10925507  0.05595345  1.0
  C  C78  1  0.91027620  0.12659630  0.32561724  1.0
  C  C79  1  0.92230365  0.06389096  0.32623028  1.0
  C  C80  1  0.89027958  0.03827697  0.27383623  1.0
  C  C81  1  0.87012911  0.67223457  0.91472577  1.0
  C  C82  1  0.93606883  0.67278006  0.92653555  1.0
  C  C83  1  0.96191758  0.72180633  0.89237888  1.0
  C  C84  1  0.66928267  0.88666654  0.81727835  1.0
  C  C85  1  0.65025662  0.88217722  0.87809238  1.0
  C  C86  1  0.68149028  0.83156150  0.89907719  1.0
  C  C87  1  0.95859458  0.90671555  0.72445242  1.0
  C  C88  1  0.93441401  0.93720298  0.67447205  1.0
  C  C89  1  0.86968144  0.91637017  0.67131847  1.0
  C  C90  1  0.96716038  0.97498521  0.57188793  1.0
  C  C91  1  0.00333898  0.01577113  0.53574901  1.0
  C  C92  1  0.04247885  0.06377933  0.56366301  1.0
  C  C93  1  0.04597805  0.07087228  0.62739475  1.0
  C  C94  1  0.00970428  0.02921525  0.66276186  1.0
  C  C95  1  0.97009100  0.98102469  0.63583612  1.0
  C  C96  1  0.00258521  0.00656083  0.46811061  1.0
  C  C97  1  0.96321076  0.03994800  0.43114909  1.0
  C  C98  1  0.96297510  0.03126719  0.36740970  1.0
  C  C99  1  0.00395580  0.98959346  0.34162362  1.0
  C  C100  1  0.04421665  0.95635740  0.37772451  1.0
  C  C101  1  0.04257270  0.96444385  0.44132286  1.0
  C  C102  1  0.93421432  0.43956438  0.06361775  1.0
  C  C103  1  0.97309381  0.46894662  0.02016325  1.0
  C  C104  1  0.00823970  0.43356198  0.98000301  1.0
  C  C105  1  0.00696437  0.36917106  0.98379728  1.0
  C  C106  1  0.96807488  0.34078554  0.02770237  1.0
  C  C107  1  0.93100130  0.37508774  0.06717396  1.0
  C  C108  1  0.98318179  0.53739714  0.01841208  1.0
  C  C109  1  0.02786247  0.56743238  0.05928612  1.0
  C  C110  1  0.04527845  0.63045675  0.05464331  1.0
  C  C111  1  0.01624298  0.66347352  0.00918411  1.0
  C  C112  1  0.96933452  0.63502070  0.96947433  1.0
  C  C113  1  0.95368392  0.57141446  0.97410763  1.0
  C  C114  1  0.42928827  0.95712596  0.00295943  1.0
  C  C115  1  0.45906000  0.99216935  0.95747848  1.0
  C  C116  1  0.42590258  0.03758495  0.92909815  1.0
  C  C117  1  0.36339568  0.04883613  0.94684387  1.0
  C  C118  1  0.33548391  0.01443462  0.99389326  1.0
  C  C119  1  0.36763547  0.96833854  0.02217990  1.0
  C  C120  1  0.52870128  0.98477910  0.94964190  1.0
  C  C121  1  0.55345870  0.93894021  0.91207965  1.0
  C  C122  1  0.61864386  0.92819058  0.91608073  1.0
  C  C123  1  0.65812275  0.96346801  0.95808086  1.0
  C  C124  1  0.63458391  0.01035799  0.99497878  1.0
  C  C125  1  0.56958314  0.02075732  0.98959570  1.0
  N  N126  1  0.09751803  0.29238293  0.86417469  1.0
  N  N127  1  0.11457730  0.26122932  0.91500801  1.0
  N  N128  1  0.24772564  0.15918547  0.90246135  1.0
  N  N129  1  0.27672593  0.14966108  0.84737146  1.0
  N  N130  1  0.16940491  0.16567167  0.71562427  1.0
  N  N131  1  0.11775400  0.20085599  0.72271239  1.0
  N  N132  1  0.13650840  0.71398066  0.18016807  1.0
  N  N133  1  0.17829237  0.72146112  0.13286534  1.0
  N  N134  1  0.29728569  0.85230568  0.12442542  1.0
  N  N135  1  0.27844325  0.90572084  0.15199490  1.0
  N  N136  1  0.16597583  0.89484460  0.27943325  1.0
  N  N137  1  0.13543257  0.84027522  0.29641121  1.0
  N  N138  1  0.85749167  0.27393384  0.18255516  1.0
  N  N139  1  0.80993291  0.27180202  0.13857869  1.0
  N  N140  1  0.71950670  0.12495125  0.09899795  1.0
  N  N141  1  0.75093708  0.07307042  0.11149427  1.0
  N  N142  1  0.86145809  0.08246612  0.24417007  1.0
  N  N143  1  0.87423385  0.13757795  0.27596210  1.0
  N  N144  1  0.91478303  0.74845016  0.86263705  1.0
  N  N145  1  0.85763827  0.71800883  0.87687677  1.0
  N  N146  1  0.71703603  0.80801023  0.85419146  1.0
  N  N147  1  0.70989979  0.84255418  0.80323929  1.0
  N  N148  1  0.85627170  0.87665925  0.71640006  1.0
  N  N149  1  0.91177922  0.87031175  0.74909755  1.0
