# generated using pymatgen
data_ZnH12C16NO5F
_symmetry_space_group_name_H-M   'P 1'
_cell_length_a   8.83511398
_cell_length_b   13.93567481
_cell_length_c   15.31280456
_cell_angle_alpha   91.47501774
_cell_angle_beta   91.05370653
_cell_angle_gamma   102.42894958
_symmetry_Int_Tables_number   1
_chemical_formula_structural   ZnH12C16NO5F
_chemical_formula_sum   'Zn2 H24 C32 N2 O10 F2'
_cell_volume   1840.01352230
_cell_formula_units_Z   2
loop_
 _symmetry_equiv_pos_site_id
 _symmetry_equiv_pos_as_xyz
  1  'x, y, z'
loop_
 _atom_site_type_symbol
 _atom_site_label
 _atom_site_symmetry_multiplicity
 _atom_site_fract_x
 _atom_site_fract_y
 _atom_site_fract_z
 _atom_site_occupancy
  Zn  Zn0  1  0.52406498  0.60244024  0.49929051  1.0
  Zn  Zn1  1  0.47698540  0.39587613  0.49944089  1.0
  H  H2  1  0.47003245  0.64922496  0.94239865  1.0
  H  H3  1  0.43953692  0.34589654  0.04724985  1.0
  H  H4  1  0.61970403  0.37665697  0.77464192  1.0
  H  H5  1  0.55682102  0.64895948  0.23431387  1.0
  H  H6  1  0.61655152  0.37238272  0.93689206  1.0
  H  H7  1  0.60035765  0.66116792  0.07451063  1.0
  H  H8  1  0.24642575  0.02933984  0.53294704  1.0
  H  H9  1  0.64876905  0.95315836  0.38946197  1.0
  H  H10  1  0.25018427  0.21022338  0.53135406  1.0
  H  H11  1  0.65942702  0.77494967  0.39506592  1.0
  H  H12  1  0.71474691  0.27937478  0.47227800  1.0
  H  H13  1  0.36303906  0.72971230  0.60285200  1.0
  H  H14  1  0.73204436  0.10187649  0.46918230  1.0
  H  H15  1  0.34276395  0.90657306  0.60899830  1.0
  H  H16  1  0.95351748  0.43798473  0.68770325  1.0
  H  H17  1  0.09955066  0.37198974  0.65909849  1.0
  H  H18  1  0.89534847  0.21604985  0.64136644  1.0
  H  H19  1  0.89161907  0.26879528  0.74829326  1.0
  H  H20  1  0.74937316  0.28199000  0.66782959  1.0
  H  H21  1  0.90983580  0.63902269  0.34475307  1.0
  H  H22  1  0.03618892  0.56025975  0.31256359  1.0
  H  H23  1  0.26556390  0.70052500  0.33147792  1.0
  H  H24  1  0.12841787  0.73022786  0.25530291  1.0
  H  H25  1  0.14172209  0.78016928  0.36428556  1.0
  C  C26  1  0.54942813  0.51154800  0.66887832  1.0
  C  C27  1  0.46229654  0.49208864  0.32924134  1.0
  C  C28  1  0.35316454  0.08198978  0.51942562  1.0
  C  C29  1  0.58550170  0.90684792  0.43887289  1.0
  C  C30  1  0.35360674  0.18171410  0.51842251  1.0
  C  C31  1  0.59120935  0.80816864  0.44095386  1.0
  C  C32  1  0.61415020  0.22060056  0.48363163  1.0
  C  C33  1  0.42461242  0.78268054  0.55757053  1.0
  C  C34  1  0.62201208  0.12208332  0.48237823  1.0
  C  C35  1  0.41296489  0.88063760  0.55960356  1.0
  C  C36  1  0.48970277  0.05029286  0.50045771  1.0
  C  C37  1  0.49535019  0.94519537  0.49966318  1.0
  C  C38  1  0.20429149  0.46929125  0.52319210  1.0
  C  C39  1  0.79739410  0.52748723  0.47623467  1.0
  C  C40  1  0.03286280  0.46482097  0.52145806  1.0
  C  C41  1  0.96886738  0.53189588  0.47866614  1.0
  C  C42  1  0.50801006  0.58960319  0.90780640  1.0
  C  C43  1  0.46970683  0.41382702  0.08664871  1.0
  C  C44  1  0.51515364  0.59138405  0.81732332  1.0
  C  C45  1  0.44758746  0.40919952  0.17619361  1.0
  C  C46  1  0.55308943  0.51491826  0.76699197  1.0
  C  C47  1  0.47770639  0.49314926  0.23170287  1.0
  C  C48  1  0.58930116  0.43647648  0.81293174  1.0
  C  C49  1  0.53200309  0.58338603  0.19173365  1.0
  C  C50  1  0.58524142  0.43374865  0.90348986  1.0
  C  C51  1  0.55516659  0.58983654  0.10249410  1.0
  C  C52  1  0.54134826  0.50973138  0.95251015  1.0
  C  C53  1  0.52376354  0.50466089  0.04808410  1.0
  C  C54  1  0.97611736  0.37396287  0.65030992  1.0
  C  C55  1  0.87176302  0.27954157  0.67852662  1.0
  C  C56  1  0.02855998  0.62668695  0.35155565  1.0
  C  C57  1  0.14855609  0.71481192  0.32407340  1.0
  N  N58  1  0.48163467  0.24949222  0.50080418  1.0
  N  N59  1  0.51301936  0.74760002  0.49955125  1.0
  O  O60  1  0.57419904  0.59281167  0.63038797  1.0
  O  O61  1  0.43979862  0.41002768  0.36609924  1.0
  O  O62  1  0.52065314  0.42594698  0.63265777  1.0
  O  O63  1  0.47736729  0.57630677  0.36762768  1.0
  O  O64  1  0.29496861  0.55313892  0.53007425  1.0
  O  O65  1  0.70760424  0.44296423  0.47499828  1.0
  O  O66  1  0.24480143  0.38677626  0.51712759  1.0
  O  O67  1  0.75577534  0.60955032  0.47606253  1.0
  O  O68  1  0.94126286  0.38534009  0.55898638  1.0
  O  O69  1  0.06248771  0.61079868  0.44212988  1.0
  F  F70  1  0.47526872  0.66959609  0.77854141  1.0
  F  F71  1  0.39173014  0.31854379  0.20777314  1.0
