# generated using pymatgen
data_ZnH8C12(IN2)2
_symmetry_space_group_name_H-M   'P 1'
_cell_length_a   14.77359659
_cell_length_b   18.97516318
_cell_length_c   31.17917132
_cell_angle_alpha   100.55903950
_cell_angle_beta   90.02106816
_cell_angle_gamma   112.88949955
_symmetry_Int_Tables_number   1
_chemical_formula_structural   ZnH8C12(IN2)2
_chemical_formula_sum   'Zn12 H96 C144 I24 N48'
_cell_volume   7891.08626346
_cell_formula_units_Z   12
loop_
 _symmetry_equiv_pos_site_id
 _symmetry_equiv_pos_as_xyz
  1  'x, y, z'
loop_
 _atom_site_type_symbol
 _atom_site_label
 _atom_site_symmetry_multiplicity
 _atom_site_fract_x
 _atom_site_fract_y
 _atom_site_fract_z
 _atom_site_occupancy
  Zn  Zn0  1  0.03192942  0.33633160  0.26768632  1.0
  Zn  Zn1  1  0.71916142  0.16614382  0.09148993  1.0
  Zn  Zn2  1  0.97697816  0.74970953  0.44144187  1.0
  Zn  Zn3  1  0.30446393  0.33626665  0.76772008  1.0
  Zn  Zn4  1  0.44699306  0.16599083  0.59148617  1.0
  Zn  Zn5  1  0.77276215  0.74969614  0.94141815  1.0
  Zn  Zn6  1  0.69553830  0.66373207  0.23228012  1.0
  Zn  Zn7  1  0.55300947  0.83401256  0.40851263  1.0
  Zn  Zn8  1  0.22723581  0.25030083  0.05858314  1.0
  Zn  Zn9  1  0.96806625  0.66366888  0.73231504  1.0
  Zn  Zn10  1  0.28083761  0.83385257  0.90851194  1.0
  Zn  Zn11  1  0.02301953  0.25029095  0.55855789  1.0
  H  H12  1  0.34136891  0.28288085  0.23445407  1.0
  H  H13  1  0.16156677  0.26025631  0.23158150  1.0
  H  H14  1  0.21765501  0.46825076  0.31838676  1.0
  H  H15  1  0.40021175  0.49960684  0.32492125  1.0
  H  H16  1  0.84912317  0.53975225  0.29893098  1.0
  H  H17  1  0.97572118  0.64764116  0.35374171  1.0
  H  H18  1  0.75931218  0.67418816  0.43157313  1.0
  H  H19  1  0.62454385  0.57216528  0.37890105  1.0
  H  H20  1  0.49254302  0.27462452  0.17828240  1.0
  H  H21  1  0.54162316  0.19494238  0.11813478  1.0
  H  H22  1  0.83780618  0.31093109  0.16156392  1.0
  H  H23  1  0.80006629  0.39383709  0.22559458  1.0
  H  H24  1  0.85624879  0.96352721  0.51390272  1.0
  H  H25  1  0.90389100  0.84797748  0.51010919  1.0
  H  H26  1  0.95034704  0.83877586  0.37861354  1.0
  H  H27  1  0.90584452  0.95351643  0.37703826  1.0
  H  H28  1  0.78310266  0.22169361  0.37721859  1.0
  H  H29  1  0.85851985  0.30201841  0.32045361  1.0
  H  H30  1  0.09825099  0.24000469  0.31836720  1.0
  H  H31  1  0.03278992  0.15791910  0.37490788  1.0
  H  H32  1  0.65343136  0.01254378  0.52254491  1.0
  H  H33  1  0.52546585  0.03833988  0.56954317  1.0
  H  H34  1  0.56269774  0.23564082  0.52083678  1.0
  H  H35  1  0.69318552  0.21873471  0.47252087  1.0
  H  H36  1  0.94162611  0.28287052  0.73437385  1.0
  H  H37  1  0.09879080  0.26015731  0.73156280  1.0
  H  H38  1  0.25055792  0.46801370  0.81845821  1.0
  H  H39  1  0.09936836  0.49939919  0.82497212  1.0
  H  H40  1  0.69058848  0.53967887  0.79895877  1.0
  H  H41  1  0.67201491  0.64768071  0.85375437  1.0
  H  H42  1  0.91498989  0.67409948  0.93159731  1.0
  H  H43  1  0.94764947  0.57199295  0.87893721  1.0
  H  H44  1  0.78195814  0.27439398  0.67830083  1.0
  H  H45  1  0.65305358  0.19470585  0.61819001  1.0
  H  H46  1  0.47289912  0.31072056  0.66167273  1.0
  H  H47  1  0.59371877  0.39370444  0.72564851  1.0
  H  H48  1  0.10698928  0.96330469  0.01386523  1.0
  H  H49  1  0.94392235  0.84776103  0.00996546  1.0
  H  H50  1  0.88861778  0.83872084  0.87843239  1.0
  H  H51  1  0.04772692  0.95353449  0.87698212  1.0
  H  H52  1  0.43863504  0.22162176  0.87734169  1.0
  H  H53  1  0.44347050  0.30195256  0.82056356  1.0
  H  H54  1  0.14182224  0.24013461  0.81846656  1.0
  H  H55  1  0.12522582  0.15799846  0.87500008  1.0
  H  H56  1  0.35942238  0.01235602  0.02266242  1.0
  H  H57  1  0.51338962  0.03830126  0.06955002  1.0
  H  H58  1  0.67281004  0.23565556  0.02081495  1.0
  H  H59  1  0.52529289  0.21861931  0.97253227  1.0
  H  H60  1  0.05837448  0.71712762  0.26562596  1.0
  H  H61  1  0.90121249  0.73984082  0.26843381  1.0
  H  H62  1  0.74944750  0.53198735  0.18153873  1.0
  H  H63  1  0.90063261  0.50059837  0.17502764  1.0
  H  H64  1  0.30941201  0.46032044  0.20104278  1.0
  H  H65  1  0.32798451  0.35231510  0.14624872  1.0
  H  H66  1  0.08501185  0.32589283  0.06840603  1.0
  H  H67  1  0.05235014  0.42800052  0.12106273  1.0
  H  H68  1  0.21804826  0.72561174  0.32169663  1.0
  H  H69  1  0.34694847  0.80529929  0.38180866  1.0
  H  H70  1  0.52709994  0.68928400  0.33832588  1.0
  H  H71  1  0.40628619  0.60630245  0.27434875  1.0
  H  H72  1  0.89301226  0.03669403  0.98613658  1.0
  H  H73  1  0.05607672  0.15224354  0.99003700  1.0
  H  H74  1  0.11137268  0.16128548  0.12157154  1.0
  H  H75  1  0.95227038  0.04646657  0.12302187  1.0
  H  H76  1  0.56136982  0.77838222  0.12266134  1.0
  H  H77  1  0.55653018  0.69804849  0.17943754  1.0
  H  H78  1  0.85817272  0.75985769  0.18153357  1.0
  H  H79  1  0.87477456  0.84199793  0.12500211  1.0
  H  H80  1  0.64057770  0.98763978  0.97734003  1.0
  H  H81  1  0.48661502  0.96169688  0.93045140  1.0
  H  H82  1  0.32718726  0.76434550  0.97918552  1.0
  H  H83  1  0.47470140  0.78137708  0.02746863  1.0
  H  H84  1  0.65863033  0.71712137  0.76554395  1.0
  H  H85  1  0.83843373  0.73974708  0.76841569  1.0
  H  H86  1  0.78234549  0.53175263  0.68161203  1.0
  H  H87  1  0.59978922  0.50039480  0.67507832  1.0
  H  H88  1  0.15087258  0.46024706  0.70107121  1.0
  H  H89  1  0.02427651  0.35235932  0.64626029  1.0
  H  H90  1  0.24068600  0.32581465  0.56842657  1.0
  H  H91  1  0.37545307  0.42784044  0.62109769  1.0
  H  H92  1  0.50746337  0.72538120  0.82171665  1.0
  H  H93  1  0.45837937  0.80505693  0.88186741  1.0
  H  H94  1  0.16219293  0.68906005  0.83843929  1.0
  H  H95  1  0.19993709  0.60615988  0.77440639  1.0
  H  H96  1  0.14374609  0.03647442  0.48609396  1.0
  H  H97  1  0.09610330  0.15202299  0.48988929  1.0
  H  H98  1  0.04964735  0.16121936  0.62138435  1.0
  H  H99  1  0.09415247  0.04647995  0.62295880  1.0
  H  H100  1  0.21689937  0.77830336  0.62278142  1.0
  H  H101  1  0.14147714  0.69797797  0.67954601  1.0
  H  H102  1  0.90175065  0.75999287  0.68163415  1.0
  H  H103  1  0.96720709  0.84208138  0.62509445  1.0
  H  H104  1  0.34656691  0.98745786  0.47745305  1.0
  H  H105  1  0.47453134  0.96165825  0.43045376  1.0
  H  H106  1  0.43730332  0.76435964  0.47916041  1.0
  H  H107  1  0.30681497  0.78126459  0.52747715  1.0
  C  C108  1  0.65080581  0.48442519  0.30318633  1.0
  C  C109  1  0.61293773  0.38601756  0.24381483  1.0
  C  C110  1  0.49121723  0.40961480  0.27981371  1.0
  C  C111  1  0.38436066  0.39284216  0.28041981  1.0
  C  C112  1  0.31627570  0.32441812  0.25410400  1.0
  C  C113  1  0.21723562  0.31156824  0.25251872  1.0
  C  C114  1  0.24862970  0.42845837  0.30102741  1.0
  C  C115  1  0.34922801  0.44550398  0.30451879  1.0
  C  C116  1  0.72679740  0.54762402  0.33478574  1.0
  C  C117  1  0.82681878  0.56932562  0.32761645  1.0
  C  C118  1  0.89691294  0.62812298  0.35792990  1.0
  C  C119  1  0.77605646  0.64340190  0.40162152  1.0
  C  C120  1  0.70133256  0.58629011  0.37242892  1.0
  C  C121  1  0.64243554  0.34024608  0.20707654  1.0
  C  C122  1  0.56962794  0.28386572  0.17613820  1.0
  C  C123  1  0.59709631  0.23977921  0.14231860  1.0
  C  C124  1  0.76241987  0.30532328  0.16662169  1.0
  C  C125  1  0.74103213  0.35133623  0.20196542  1.0
  C  C126  1  0.85446950  0.03573155  0.44534944  1.0
  C  C127  1  0.75938905  0.10259246  0.46673480  1.0
  C  C128  1  0.86084002  0.13455849  0.41279792  1.0
  C  C129  1  0.88071871  0.96826196  0.44590121  1.0
  C  C130  1  0.87797667  0.93771918  0.48363522  1.0
  C  C131  1  0.90380218  0.87416390  0.48169709  1.0
  C  C132  1  0.92995510  0.86870006  0.40788307  1.0
  C  C133  1  0.90624127  0.93236265  0.40719116  1.0
  C  C134  1  0.90250698  0.18356943  0.38006436  1.0
  C  C135  1  0.85295454  0.22466167  0.36473500  1.0
  C  C136  1  0.89394917  0.26853012  0.33333333  1.0
  C  C137  1  0.02837093  0.23404304  0.33207624  1.0
  C  C138  1  0.99223035  0.18871910  0.36327348  1.0
  C  C139  1  0.68272872  0.11419021  0.49415965  1.0
  C  C140  1  0.63484477  0.06238849  0.52147723  1.0
  C  C141  1  0.56457668  0.07627452  0.54727071  1.0
  C  C142  1  0.58575601  0.18731744  0.52011393  1.0
  C  C143  1  0.65677177  0.17749462  0.49337909  1.0
  C  C144  1  0.83359839  0.48433304  0.80318265  1.0
  C  C145  1  0.77311389  0.38594225  0.74379406  1.0
  C  C146  1  0.91842268  0.40953310  0.77980451  1.0
  C  C147  1  0.00849918  0.39274198  0.78040554  1.0
  C  C148  1  0.00819867  0.32433558  0.75406968  1.0
  C  C149  1  0.09438721  0.31146167  0.75249749  1.0
  C  C150  1  0.17980898  0.42823707  0.80107445  1.0
  C  C151  1  0.09623057  0.44529726  0.80456301  1.0
  C  C152  1  0.82082078  0.54748305  0.83482185  1.0
  C  C153  1  0.74249049  0.56921775  0.82764493  1.0
  C  C154  1  0.73122345  0.62804525  0.85795370  1.0
  C  C155  1  0.86740808  0.64330271  0.90165338  1.0
  C  C156  1  0.88498949  0.58615588  0.87246490  1.0
  C  C157  1  0.69781741  0.34016013  0.70706569  1.0
  C  C158  1  0.71411942  0.28368622  0.67615132  1.0
  C  C159  1  0.64252075  0.23962047  0.64235300  1.0
  C  C160  1  0.54273015  0.30514156  0.66666667  1.0
  C  C161  1  0.61020990  0.35118465  0.70200264  1.0
  C  C162  1  0.18113347  0.03564637  0.94538960  1.0
  C  C163  1  0.34304977  0.10247422  0.96683304  1.0
  C  C164  1  0.27361881  0.13443614  0.91284431  1.0
  C  C165  1  0.08743378  0.96817728  0.94586334  1.0
  C  C166  1  0.05957088  0.93754307  0.98356255  1.0
  C  C167  1  0.97026455  0.87396140  0.98157291  1.0
  C  C168  1  0.93881311  0.86860407  0.90775129  1.0
  C  C169  1  0.02612908  0.93229415  0.90710874  1.0
  C  C170  1  0.28108341  0.18346308  0.88010154  1.0
  C  C171  1  0.37173061  0.22455163  0.86481633  1.0
  C  C172  1  0.37458539  0.26843190  0.83336983  1.0
  C  C173  1  0.20573624  0.23407541  0.83214205  1.0
  C  C174  1  0.19653525  0.18869438  0.86331679  1.0
  C  C175  1  0.43138983  0.11407322  0.99424029  1.0
  C  C176  1  0.42768969  0.06227313  0.02154746  1.0
  C  C177  1  0.51196072  0.07622941  0.04730251  1.0
  C  C178  1  0.60152426  0.18725893  0.02010175  1.0
  C  C179  1  0.52056253  0.17740325  0.99341131  1.0
  C  C180  1  0.16640317  0.51566569  0.19681819  1.0
  C  C181  1  0.22689706  0.61406580  0.25620237  1.0
  C  C182  1  0.08157907  0.59046737  0.22019396  1.0
  C  C183  1  0.99150266  0.60725733  0.21959184  1.0
  C  C184  1  0.99180529  0.67566256  0.24592886  1.0
  C  C185  1  0.90561695  0.68853821  0.24749995  1.0
  C  C186  1  0.82019345  0.57176340  0.19892402  1.0
  C  C187  1  0.90376963  0.55470146  0.19543527  1.0
  C  C188  1  0.17917699  0.45251217  0.16517893  1.0
  C  C189  1  0.25750574  0.43077573  0.17235758  1.0
  C  C190  1  0.26877714  0.37195289  0.14204612  1.0
  C  C191  1  0.13258706  0.35668726  0.09835034  1.0
  C  C192  1  0.11500867  0.41383876  0.12753645  1.0
  C  C193  1  0.30219306  0.65984967  0.29293061  1.0
  C  C194  1  0.28588883  0.71632184  0.32384511  1.0
  C  C195  1  0.35747936  0.76038350  0.35764586  1.0
  C  C196  1  0.45727374  0.69486591  0.33333333  1.0
  C  C197  1  0.38979641  0.64882224  0.29799463  1.0
  C  C198  1  0.81886672  0.96435235  0.05461189  1.0
  C  C199  1  0.65695236  0.89752567  0.03316986  1.0
  C  C200  1  0.72638265  0.86556375  0.08715666  1.0
  C  C201  1  0.91256429  0.03182261  0.05413924  1.0
  C  C202  1  0.94042963  0.06246033  0.01644009  1.0
  C  C203  1  0.02973701  0.12604141  0.01843064  1.0
  C  C204  1  0.06118063  0.13139933  0.09225200  1.0
  C  C205  1  0.97386561  0.06770574  0.09289352  1.0
  C  C206  1  0.71891842  0.81653214  0.11989667  1.0
  C  C207  1  0.62827190  0.77544767  0.13518426  1.0
  C  C208  1  0.62541625  0.73156565  0.16663057  1.0
  C  C209  1  0.79426376  0.76592156  0.16785860  1.0
  C  C210  1  0.80346495  0.81130434  0.13668374  1.0
  C  C211  1  0.56861134  0.88592609  0.00576319  1.0
  C  C212  1  0.57230954  0.93772501  0.97845396  1.0
  C  C213  1  0.48803678  0.92376932  0.95270090  1.0
  C  C214  1  0.39847710  0.81273805  0.97989954  1.0
  C  C215  1  0.47943730  0.82260015  0.00659326  1.0
  C  C216  1  0.34919255  0.51557528  0.69681279  1.0
  C  C217  1  0.38706644  0.61398233  0.75618519  1.0
  C  C218  1  0.50878628  0.59038918  0.72018547  1.0
  C  C219  1  0.61564410  0.60716298  0.71957662  1.0
  C  C220  1  0.68372587  0.67558469  0.74589377  1.0
  C  C221  1  0.78276477  0.68843631  0.74747796  1.0
  C  C222  1  0.75137012  0.57154502  0.69897010  1.0
  C  C223  1  0.65077423  0.55449883  0.69547866  1.0
  C  C224  1  0.27319865  0.45237587  0.66521620  1.0
  C  C225  1  0.17317988  0.43067544  0.67238529  1.0
  C  C226  1  0.10308554  0.37188042  0.64207307  1.0
  C  C227  1  0.22393881  0.35659915  0.59837927  1.0
  C  C228  1  0.29866281  0.41371386  0.62757026  1.0
  C  C229  1  0.35757105  0.65975323  0.79292470  1.0
  C  C230  1  0.43037604  0.71613651  0.82386271  1.0
  C  C231  1  0.40290853  0.76022068  0.85768238  1.0
  C  C232  1  0.23758312  0.69467019  0.83338049  1.0
  C  C233  1  0.25896913  0.64866191  0.79803729  1.0
  C  C234  1  0.14552556  0.96426775  0.55464794  1.0
  C  C235  1  0.24060844  0.89740627  0.53326444  1.0
  C  C236  1  0.13916309  0.86544199  0.58720183  1.0
  C  C237  1  0.11927248  0.03173500  0.55409655  1.0
  C  C238  1  0.12201918  0.06227896  0.51636299  1.0
  C  C239  1  0.09619598  0.12583481  0.51830023  1.0
  C  C240  1  0.07003968  0.13129866  0.59211392  1.0
  C  C241  1  0.09375632  0.06763899  0.59280744  1.0
  C  C242  1  0.09749301  0.81642754  0.61993500  1.0
  C  C243  1  0.14704585  0.77533472  0.63526527  1.0
  C  C244  1  0.10604812  0.73146685  0.66670503  1.0
  C  C245  1  0.97162975  0.76595393  0.66792473  1.0
  C  C246  1  0.00777140  0.81128137  0.63672820  1.0
  C  C247  1  0.31726877  0.88580851  0.50583831  1.0
  C  C248  1  0.36514865  0.93761022  0.47852041  1.0
  C  C249  1  0.43542255  0.92372770  0.45272764  1.0
  C  C250  1  0.41424505  0.81268302  0.47988102  1.0
  C  C251  1  0.34322842  0.82250409  0.50661758  1.0
  I  I252  1  0.97310119  0.24398586  0.19343742  1.0
  I  I253  1  0.99593364  0.45831373  0.29392145  1.0
  I  I254  1  0.68206535  0.05406840  0.13186322  1.0
  I  I255  1  0.86942334  0.23826556  0.05285188  1.0
  I  I256  1  0.95033698  0.70346522  0.51366866  1.0
  I  I257  1  0.13681941  0.79666389  0.40246519  1.0
  I  I258  1  0.27105349  0.24398133  0.69345326  1.0
  I  I259  1  0.46223439  0.45831077  0.79403419  1.0
  I  I260  1  0.37230337  0.05394476  0.63191142  1.0
  I  I261  1  0.36878208  0.23828766  0.55300779  1.0
  I  I262  1  0.75335130  0.70356912  0.01368621  1.0
  I  I263  1  0.65975390  0.79675171  0.90253605  1.0
  I  I264  1  0.72895659  0.75602905  0.30654151  1.0
  I  I265  1  0.53776880  0.54168853  0.20596769  1.0
  I  I266  1  0.62769820  0.94605805  0.36808763  1.0
  I  I267  1  0.63121833  0.76171690  0.44699306  1.0
  I  I268  1  0.24664622  0.29643778  0.98631715  1.0
  I  I269  1  0.34025561  0.20325752  0.09746436  1.0
  I  I270  1  0.02689649  0.75601461  0.80656362  1.0
  I  I271  1  0.00405146  0.54167916  0.70608002  1.0
  I  I272  1  0.31793845  0.94593617  0.86814437  1.0
  I  I273  1  0.13058240  0.76174018  0.94715712  1.0
  I  I274  1  0.04965101  0.29652533  0.48632646  1.0
  I  I275  1  0.86317838  0.20333542  0.59753412  1.0
  N  N276  1  0.68323319  0.44675408  0.26995334  1.0
  N  N277  1  0.51595576  0.36389466  0.24816969  1.0
  N  N278  1  0.55528054  0.46890612  0.30933962  1.0
  N  N279  1  0.87199985  0.66421278  0.39447029  1.0
  N  N280  1  0.69156694  0.24987291  0.13756177  1.0
  N  N281  1  0.18369035  0.36270070  0.27548059  1.0
  N  N282  1  0.89424865  0.07902097  0.41536939  1.0
  N  N283  1  0.79044550  0.14659791  0.43631270  1.0
  N  N284  1  0.79120764  0.04789794  0.47362089  1.0
  N  N285  1  0.93008821  0.84080532  0.44463091  1.0
  N  N286  1  0.98015387  0.27319672  0.31713038  1.0
  N  N287  1  0.54074651  0.13786139  0.54681265  1.0
  N  N288  1  0.76350761  0.44666439  0.76993494  1.0
  N  N289  1  0.84797487  0.36380693  0.74815733  1.0
  N  N290  1  0.91361777  0.46879581  0.80934114  1.0
  N  N291  1  0.79226957  0.66415626  0.89449332  1.0
  N  N292  1  0.55810943  0.24970067  0.63761090  1.0
  N  N293  1  0.17903053  0.36252376  0.77549868  1.0
  N  N294  1  0.18467106  0.07895906  0.91540610  1.0
  N  N295  1  0.35600132  0.14644926  0.93639445  1.0
  N  N296  1  0.25655293  0.04778182  0.97369050  1.0
  N  N297  1  0.91070576  0.84066152  0.94448078  1.0
  N  N298  1  0.29307099  0.27316293  0.81719173  1.0
  N  N299  1  0.59726764  0.13784034  0.04680849  1.0
  N  N300  1  0.23649754  0.55334017  0.23006367  1.0
  N  N301  1  0.15203151  0.63619470  0.25183903  1.0
  N  N302  1  0.08638126  0.53120058  0.19066072  1.0
  N  N303  1  0.20772936  0.33583721  0.10550919  1.0
  N  N304  1  0.44189494  0.75030505  0.36238495  1.0
  N  N305  1  0.82097353  0.63747729  0.22449825  1.0
  N  N306  1  0.81533057  0.92103849  0.08459590  1.0
  N  N307  1  0.64399811  0.85355063  0.06360877  1.0
  N  N308  1  0.74344854  0.95221808  0.02631144  1.0
  N  N309  1  0.08929147  0.15934480  0.05552315  1.0
  N  N310  1  0.70692977  0.72683287  0.18280847  1.0
  N  N311  1  0.40273053  0.86215839  0.95319364  1.0
  N  N312  1  0.31676845  0.55324347  0.73004866  1.0
  N  N313  1  0.48404841  0.63610931  0.75182917  1.0
  N  N314  1  0.44471745  0.53109494  0.69066117  1.0
  N  N315  1  0.12799368  0.33578886  0.60553120  1.0
  N  N316  1  0.30843644  0.75012406  0.86244081  1.0
  N  N317  1  0.81630782  0.63730210  0.72451718  1.0
  N  N318  1  0.10574872  0.92097482  0.58462664  1.0
  N  N319  1  0.20955751  0.85340373  0.56368815  1.0
  N  N320  1  0.20878307  0.95209669  0.52637597  1.0
  N  N321  1  0.06990598  0.15919223  0.55536595  1.0
  N  N322  1  0.01984419  0.72679909  0.68287207  1.0
  N  N323  1  0.45925117  0.86213907  0.45318293  1.0
