# generated using pymatgen
data_ZnH9C22SNO7F2
_symmetry_space_group_name_H-M   'P 1'
_cell_length_a   13.79436735
_cell_length_b   15.69164958
_cell_length_c   15.72760926
_cell_angle_alpha   79.12805043
_cell_angle_beta   89.89852168
_cell_angle_gamma   83.59347143
_symmetry_Int_Tables_number   1
_chemical_formula_structural   ZnH9C22SNO7F2
_chemical_formula_sum   'Zn2 H18 C44 S2 N2 O14 F4'
_cell_volume   3321.71153136
_cell_formula_units_Z   2
loop_
 _symmetry_equiv_pos_site_id
 _symmetry_equiv_pos_as_xyz
  1  'x, y, z'
loop_
 _atom_site_type_symbol
 _atom_site_label
 _atom_site_symmetry_multiplicity
 _atom_site_fract_x
 _atom_site_fract_y
 _atom_site_fract_z
 _atom_site_occupancy
  Zn  Zn0  1  0.50130555  0.59380185  0.51475868  1.0
  Zn  Zn1  1  0.52387642  0.40102316  0.50307307  1.0
  H  H2  1  0.99992965  0.58331741  0.40751502  1.0
  H  H3  1  0.76916634  0.30208979  0.90065111  1.0
  H  H4  1  0.45108415  0.61423039  0.85388426  1.0
  H  H5  1  0.65227627  0.41894607  0.14626906  1.0
  H  H6  1  0.42228641  0.09242612  0.27767495  1.0
  H  H7  1  0.54674144  0.92170027  0.72801106  1.0
  H  H8  1  0.47858064  0.64940523  0.66240404  1.0
  H  H9  1  0.55492006  0.34679502  0.34848751  1.0
  H  H10  1  0.55677636  0.67575446  0.36750056  1.0
  H  H11  1  0.34691171  0.34754239  0.56451650  1.0
  H  H12  1  0.02041924  0.40555633  0.53458866  1.0
  H  H13  1  0.50859664  0.23435606  0.26668197  1.0
  H  H14  1  0.50006751  0.77184436  0.73906959  1.0
  H  H15  1  0.35757483  0.69550511  0.95067983  1.0
  H  H16  1  0.74375351  0.33723435  0.04915593  1.0
  H  H17  1  0.50503442  0.53436796  0.78197616  1.0
  H  H18  1  0.56181163  0.47148535  0.22528079  1.0
  H  H19  1  0.30763044  0.71212390  0.09785435  1.0
  C  C20  1  0.46437306  0.54260074  0.34532044  1.0
  C  C21  1  0.63287490  0.43388031  0.07753571  1.0
  C  C22  1  0.41169309  0.64079823  0.97722626  1.0
  C  C23  1  0.68477954  0.38776014  0.02331961  1.0
  C  C24  1  0.50670951  0.22307023  0.33714921  1.0
  C  C25  1  0.49323912  0.78330509  0.66867025  1.0
  C  C26  1  0.52892022  0.28643069  0.38104932  1.0
  C  C27  1  0.48316263  0.71547989  0.62716615  1.0
  C  C28  1  0.48529842  0.20599642  0.51279974  1.0
  C  C29  1  0.48859432  0.80460851  0.49082959  1.0
  C  C30  1  0.48801973  0.12909324  0.47703883  1.0
  C  C31  1  0.57211537  0.45254427  0.66273944  1.0
  C  C32  1  0.48133056  0.88219224  0.52757753  1.0
  C  C33  1  0.48154873  0.14319720  0.38461540  1.0
  C  C34  1  0.49780794  0.86766146  0.61962408  1.0
  C  C35  1  0.68900709  0.49865532  0.46156701  1.0
  C  C36  1  0.32575222  0.50194015  0.53181221  1.0
  C  C37  1  0.49259188  0.04050933  0.52428292  1.0
  C  C38  1  0.46790823  0.97256789  0.48275887  1.0
  C  C39  1  0.42790471  0.00132352  0.39681696  1.0
  C  C40  1  0.52957678  0.01613383  0.61120093  1.0
  C  C41  1  0.44365187  0.07890929  0.34596023  1.0
  C  C42  1  0.49776073  0.54727446  0.10415302  1.0
  C  C43  1  0.52476940  0.93534571  0.65988330  1.0
  C  C44  1  0.22438737  0.49336139  0.52220947  1.0
  C  C45  1  0.79131470  0.50321188  0.44428501  1.0
  C  C46  1  0.04341451  0.46605193  0.49780981  1.0
  C  C47  1  0.97716767  0.52320227  0.44533905  1.0
  C  C48  1  0.87848799  0.51073522  0.44155436  1.0
  C  C49  1  0.14017752  0.48134005  0.50919463  1.0
  C  C50  1  0.44912443  0.56722394  0.24944234  1.0
  C  C51  1  0.60847241  0.43442620  0.75465003  1.0
  C  C52  1  0.36474598  0.66018917  0.12432143  1.0
  C  C53  1  0.58699072  0.47196404  0.89898834  1.0
  C  C54  1  0.71064836  0.35358469  0.87641489  1.0
  C  C55  1  0.37707958  0.63485817  0.21244169  1.0
  C  C56  1  0.68375167  0.36848478  0.79002791  1.0
  C  C57  1  0.50738178  0.52420169  0.19520316  1.0
  C  C58  1  0.56330477  0.48486539  0.81031583  1.0
  C  C59  1  0.42468855  0.61708119  0.06880554  1.0
  C  C60  1  0.66210933  0.40373022  0.93289716  1.0
  C  C61  1  0.55585883  0.50140424  0.04640690  1.0
  C  C62  1  0.53570043  0.52313931  0.95605742  1.0
  C  C63  1  0.46435835  0.59500895  0.92345164  1.0
  S  S64  1  0.51567253  0.80803384  0.37533146  1.0
  S  S65  1  0.41712595  0.21491607  0.61223660  1.0
  N  N66  1  0.50997247  0.28103557  0.46707927  1.0
  N  N67  1  0.48846985  0.72464396  0.53922009  1.0
  O  O68  1  0.49064106  0.60219798  0.38334390  1.0
  O  O69  1  0.56614087  0.88383211  0.34936776  1.0
  O  O70  1  0.59310600  0.72650474  0.37868204  1.0
  O  O71  1  0.37876613  0.13313163  0.64132611  1.0
  O  O72  1  0.47551506  0.25192522  0.66835215  1.0
  O  O73  1  0.33007163  0.28150946  0.57123227  1.0
  O  O74  1  0.59181950  0.39486428  0.61673649  1.0
  O  O75  1  0.45254690  0.46643071  0.38299342  1.0
  O  O76  1  0.52085184  0.52627510  0.63779085  1.0
  O  O77  1  0.64902720  0.55890555  0.49815077  1.0
  O  O78  1  0.38324962  0.42943149  0.55288473  1.0
  O  O79  1  0.64936755  0.43569136  0.44042421  1.0
  O  O80  1  0.35396910  0.57699321  0.51874127  1.0
  O  O81  1  0.42929522  0.79496923  0.33090410  1.0
  F  F82  1  0.37149951  0.94932933  0.36537387  1.0
  F  F83  1  0.57282714  0.07508938  0.64577800  1.0
  F  F84  1  0.73282843  0.31894375  0.73856436  1.0
  F  F85  1  0.31612078  0.67278429  0.26571002  1.0
