# generated using pymatgen
data_ZnH12C29SN2Cl2O9
_symmetry_space_group_name_H-M   'P 1'
_cell_length_a   9.69812706
_cell_length_b   10.96353787
_cell_length_c   27.99638954
_cell_angle_alpha   88.42710775
_cell_angle_beta   89.71773693
_cell_angle_gamma   88.21136353
_symmetry_Int_Tables_number   1
_chemical_formula_structural   ZnH12C29SN2Cl2O9
_chemical_formula_sum   'Zn2 H24 C58 S2 N4 Cl4 O18'
_cell_volume   2974.14197199
_cell_formula_units_Z   2
loop_
 _symmetry_equiv_pos_site_id
 _symmetry_equiv_pos_as_xyz
  1  'x, y, z'
loop_
 _atom_site_type_symbol
 _atom_site_label
 _atom_site_symmetry_multiplicity
 _atom_site_fract_x
 _atom_site_fract_y
 _atom_site_fract_z
 _atom_site_occupancy
  Zn  Zn0  1  0.64433157  0.49729033  0.49998689  1.0
  Zn  Zn1  1  0.35880155  0.50067500  0.50050446  1.0
  H  H2  1  0.28211850  0.50846855  0.64293411  1.0
  H  H3  1  0.24256401  0.52287510  0.73085545  1.0
  H  H4  1  0.27036523  0.26933269  0.87950497  1.0
  H  H5  1  0.72163438  0.46885703  0.34893253  1.0
  H  H6  1  0.40300829  0.21677573  0.03485299  1.0
  H  H7  1  0.68256534  0.52662984  0.75095483  1.0
  H  H8  1  0.58422080  0.80555299  0.87621143  1.0
  H  H9  1  0.53357436  0.81987827  0.03327209  1.0
  H  H10  1  0.28396722  0.54031992  0.34808593  1.0
  H  H11  1  0.54958903  0.80875841  0.12141024  1.0
  H  H12  1  0.58340599  0.80517807  0.96472837  1.0
  H  H13  1  0.28756384  0.12101408  0.49716627  1.0
  H  H14  1  0.77103984  0.20590999  0.48450993  1.0
  H  H15  1  0.98656657  0.08553389  0.49785944  1.0
  H  H16  1  0.97681201  0.86814422  0.52778496  1.0
  H  H17  1  0.75310647  0.76689418  0.53138951  1.0
  H  H18  1  0.28325658  0.89194369  0.49973508  1.0
  H  H19  1  0.12905716  0.63144330  0.45396171  1.0
  H  H20  1  0.26385957  0.32602540  0.56429756  1.0
  H  H21  1  0.13798204  0.18231937  0.61745322  1.0
  H  H22  1  0.74854980  0.33201879  0.56620288  1.0
  H  H23  1  0.86704579  0.62932754  0.45281123  1.0
  H  H24  1  0.04586891  0.50059008  0.28260702  1.0
  H  H25  1  0.29883274  0.04235232  0.08947212  1.0
  C  C26  1  0.49807773  0.26283215  0.49771832  1.0
  C  C27  1  0.51164625  0.50414825  0.59354957  1.0
  C  C28  1  0.49244485  0.73345366  0.50244589  1.0
  C  C29  1  0.50386445  0.50446929  0.40717900  1.0
  C  C30  1  0.38123120  0.43232607  0.82082254  1.0
  C  C31  1  0.49565881  0.63448304  0.81980710  1.0
  C  C32  1  0.59387720  0.52331008  0.72740748  1.0
  C  C33  1  0.61492176  0.51720963  0.67817809  1.0
  C  C34  1  0.36891331  0.51337631  0.66726458  1.0
  C  C35  1  0.34660809  0.52143390  0.71611401  1.0
  C  C36  1  0.46064186  0.52602649  0.74606046  1.0
  C  C37  1  0.43888695  0.53087725  0.89851379  1.0
  C  C38  1  0.38067318  0.43447764  0.87366629  1.0
  C  C39  1  0.32083419  0.33993423  0.89901244  1.0
  C  C40  1  0.49170274  0.63170634  0.87257640  1.0
  C  C41  1  0.50185470  0.51147732  0.64692758  1.0
  C  C42  1  0.50303754  0.50490577  0.35342148  1.0
  C  C43  1  0.42528809  0.41085401  0.02700682  1.0
  C  C44  1  0.49105599  0.62856594  0.02593146  1.0
  C  C45  1  0.46515818  0.51685786  0.05133126  1.0
  C  C46  1  0.42220285  0.30027473  0.05300703  1.0
  C  C47  1  0.44540564  0.29173453  0.10233418  1.0
  C  C48  1  0.47182887  0.39646510  0.12783153  1.0
  C  C49  1  0.48234786  0.50979805  0.10211987  1.0
  C  C50  1  0.51300607  0.61765437  0.12647851  1.0
  C  C51  1  0.52801423  0.61729938  0.17887836  1.0
  C  C52  1  0.49169997  0.39144685  0.18027200  1.0
  C  C53  1  0.62749710  0.48425107  0.27907289  1.0
  C  C54  1  0.62680709  0.48458660  0.32879265  1.0
  C  C55  1  0.37933272  0.52420333  0.32842601  1.0
  C  C56  1  0.38075539  0.52273160  0.27874910  1.0
  C  C57  1  0.50466046  0.50319287  0.25351118  1.0
  C  C58  1  0.39597303  0.41990724  0.97567767  1.0
  C  C59  1  0.44287722  0.52578020  0.94956400  1.0
  C  C60  1  0.49275981  0.62871591  0.97380788  1.0
  C  C61  1  0.32628055  0.33340800  0.94907406  1.0
  C  C62  1  0.54344288  0.72902441  0.89690424  1.0
  C  C63  1  0.51887810  0.73245922  0.05169056  1.0
  C  C64  1  0.52828146  0.72747823  0.10142860  1.0
  C  C65  1  0.54236646  0.72753604  0.94670480  1.0
  C  C66  1  0.76695305  0.11011226  0.49492339  1.0
  C  C67  1  0.88726304  0.04251322  0.50268043  1.0
  C  C68  1  0.88205676  0.91912874  0.51812081  1.0
  C  C69  1  0.75726754  0.86246919  0.52041159  1.0
  C  C70  1  0.63161105  0.92723210  0.50896918  1.0
  C  C71  1  0.63540060  0.05729084  0.50073108  1.0
  C  C72  1  0.50706180  0.12627834  0.49801885  1.0
  C  C73  1  0.38319565  0.06631312  0.49908617  1.0
  C  C74  1  0.38056943  0.93861977  0.50159836  1.0
  C  C75  1  0.50165392  0.86890528  0.50595950  1.0
  C  C76  1  0.15194838  0.32647217  0.56442399  1.0
  C  C77  1  0.08193843  0.24768004  0.59417365  1.0
  C  C78  1  0.93579714  0.25129196  0.59491550  1.0
  C  C79  1  0.86031897  0.33180562  0.56592222  1.0
  C  C80  1  0.93011600  0.41220174  0.53467277  1.0
  C  C81  1  0.07827818  0.41129592  0.53426785  1.0
  C  C82  1  0.07230088  0.56828156  0.47685807  1.0
  C  C83  1  0.92710512  0.56708310  0.47626554  1.0
  S  S84  1  0.22661458  0.54912013  0.24428635  1.0
  S  S85  1  0.43957932  0.14039891  0.13054808  1.0
  N  N86  1  0.44402477  0.53146536  0.79705972  1.0
  N  N87  1  0.50357100  0.50455136  0.20238683  1.0
  N  N88  1  0.14556847  0.49163207  0.50496652  1.0
  N  N89  1  0.85800155  0.49077285  0.50432101  1.0
  Cl  Cl90  1  0.85145481  0.15186981  0.63255983  1.0
  Cl  Cl91  1  0.78049542  0.45984591  0.24841392  1.0
  Cl  Cl92  1  0.23506851  0.21380149  0.97437138  1.0
  Cl  Cl93  1  0.78551199  0.51440883  0.65963992  1.0
  O  O94  1  0.60455498  0.31908601  0.51061415  1.0
  O  O95  1  0.38337846  0.31576009  0.48689413  1.0
  O  O96  1  0.62347317  0.53126215  0.57274334  1.0
  O  O97  1  0.40328056  0.47097144  0.57232878  1.0
  O  O98  1  0.60014804  0.67587101  0.48771585  1.0
  O  O99  1  0.37746796  0.68486045  0.51222132  1.0
  O  O100  1  0.61841608  0.47624090  0.42725325  1.0
  O  O101  1  0.39037277  0.53145455  0.42805294  1.0
  O  O102  1  0.33310992  0.34851661  0.79855400  1.0
  O  O103  1  0.49742674  0.29635455  0.20423436  1.0
  O  O104  1  0.54264323  0.71977962  0.79615558  1.0
  O  O105  1  0.55864435  0.70637997  0.20155880  1.0
  O  O106  1  0.23683437  0.66467903  0.21950154  1.0
  O  O107  1  0.19533046  0.44081714  0.21882565  1.0
  O  O108  1  0.11255443  0.56525584  0.28607454  1.0
  O  O109  1  0.57793656  0.09946714  0.14108759  1.0
  O  O110  1  0.32458858  0.13267285  0.16284435  1.0
  O  O111  1  0.39648715  0.05954621  0.08460366  1.0
