# generated using pymatgen
data_ZnH6C27N6(Cl2O7)2
_symmetry_space_group_name_H-M   'P 1'
_cell_length_a   9.55670362
_cell_length_b   10.78923658
_cell_length_c   28.01157675
_cell_angle_alpha   90.48078709
_cell_angle_beta   91.21384000
_cell_angle_gamma   93.54321571
_symmetry_Int_Tables_number   1
_chemical_formula_structural   ZnH6C27N6(Cl2O7)2
_chemical_formula_sum   'Zn2 H12 C54 N12 Cl8 O28'
_cell_volume   2881.95660383
_cell_formula_units_Z   2
loop_
 _symmetry_equiv_pos_site_id
 _symmetry_equiv_pos_as_xyz
  1  'x, y, z'
loop_
 _atom_site_type_symbol
 _atom_site_label
 _atom_site_symmetry_multiplicity
 _atom_site_fract_x
 _atom_site_fract_y
 _atom_site_fract_z
 _atom_site_occupancy
  Zn  Zn0  1  0.64279492  0.50992448  0.50146922  1.0
  Zn  Zn1  1  0.34647569  0.49377314  0.49976601  1.0
  H  H2  1  0.27341059  0.46904178  0.64891642  1.0
  H  H3  1  0.27128823  0.48523537  0.34865485  1.0
  H  H4  1  0.37026307  0.19847576  0.87497172  1.0
  H  H5  1  0.36290406  0.78236481  0.12512719  1.0
  H  H6  1  0.71538756  0.49414498  0.26002987  1.0
  H  H7  1  0.71305370  0.54910978  0.74495863  1.0
  H  H8  1  0.73959720  0.93987847  0.50955645  1.0
  H  H9  1  0.25448494  0.06311237  0.48403752  1.0
  H  H10  1  0.08490730  0.47776446  0.42086653  1.0
  H  H11  1  0.90553102  0.52880667  0.58036644  1.0
  H  H12  1  0.86913239  0.32075147  0.46546545  1.0
  H  H13  1  0.12001003  0.68599431  0.53544022  1.0
  C  C14  1  0.49491087  0.26444996  0.49615297  1.0
  C  C15  1  0.49872324  0.73901661  0.50098546  1.0
  C  C16  1  0.49430936  0.50487829  0.59299128  1.0
  C  C17  1  0.49006516  0.49871299  0.40820325  1.0
  C  C18  1  0.45690502  0.38829488  0.81990816  1.0
  C  C19  1  0.44904888  0.60212192  0.18130172  1.0
  C  C20  1  0.51487976  0.61881113  0.82255538  1.0
  C  C21  1  0.52133123  0.38187007  0.17908735  1.0
  C  C22  1  0.61613313  0.53137599  0.72423088  1.0
  C  C23  1  0.61737628  0.49136897  0.27919614  1.0
  C  C24  1  0.61696448  0.53653915  0.67472953  1.0
  C  C25  1  0.61928295  0.48838464  0.32880102  1.0
  C  C26  1  0.36913681  0.48771396  0.67018346  1.0
  C  C27  1  0.36813308  0.48527088  0.32894914  1.0
  C  C28  1  0.36498569  0.48717922  0.71992390  1.0
  C  C29  1  0.36413732  0.48337693  0.27922406  1.0
  C  C30  1  0.48961601  0.50673634  0.74708933  1.0
  C  C31  1  0.48988898  0.48886530  0.25422792  1.0
  C  C32  1  0.47093605  0.50233103  0.89903545  1.0
  C  C33  1  0.47138684  0.49242217  0.10219472  1.0
  C  C34  1  0.44365681  0.39106865  0.87243202  1.0
  C  C35  1  0.43995908  0.59934349  0.12852612  1.0
  C  C36  1  0.40018001  0.28261808  0.89548223  1.0
  C  C37  1  0.39531285  0.70266811  0.10492209  1.0
  C  C38  1  0.50800913  0.61492765  0.87539214  1.0
  C  C39  1  0.51203699  0.38466941  0.12619809  1.0
  C  C40  1  0.49502508  0.51246882  0.64668917  1.0
  C  C41  1  0.49502280  0.48792244  0.35467835  1.0
  C  C42  1  0.47852585  0.38249275  0.02457299  1.0
  C  C43  1  0.47620270  0.61367164  0.97674901  1.0
  C  C44  1  0.44142060  0.60796152  0.02720762  1.0
  C  C45  1  0.44311449  0.38406031  0.97368764  1.0
  C  C46  1  0.46382536  0.49428407  0.05127472  1.0
  C  C47  1  0.46337444  0.50012213  0.94986426  1.0
  C  C48  1  0.53246788  0.28149808  0.04872196  1.0
  C  C49  1  0.52793707  0.72095413  0.95313791  1.0
  C  C50  1  0.54706414  0.28360188  0.09895607  1.0
  C  C51  1  0.54124858  0.72036514  0.90303229  1.0
  C  C52  1  0.39623465  0.28107257  0.94524374  1.0
  C  C53  1  0.39326301  0.70505269  0.05510659  1.0
  C  C54  1  0.57960118  0.04499825  0.46134562  1.0
  C  C55  1  0.41456809  0.95855264  0.53183675  1.0
  C  C56  1  0.44467785  0.95319346  0.45455158  1.0
  C  C57  1  0.54949887  0.04965114  0.53875656  1.0
  C  C58  1  0.50162457  0.87709017  0.49798911  1.0
  C  C59  1  0.49318085  0.12628181  0.49497576  1.0
  C  C60  1  0.63314411  0.96883790  0.50398829  1.0
  C  C61  1  0.36121563  0.03455490  0.48928528  1.0
  C  C62  1  0.03880740  0.48846509  0.45583013  1.0
  C  C63  1  0.95059244  0.51784111  0.54525360  1.0
  C  C64  1  0.96292209  0.60112095  0.47507760  1.0
  C  C65  1  0.02630720  0.40547739  0.52611128  1.0
  C  C66  1  0.93076101  0.40054611  0.48063451  1.0
  C  C67  1  0.05892093  0.60552518  0.52043964  1.0
  N  N68  1  0.48740567  0.50460905  0.79828314  1.0
  N  N69  1  0.48780101  0.49114300  0.20303112  1.0
  N  N70  1  0.85430233  0.51194540  0.50016507  1.0
  N  N71  1  0.13504425  0.49401451  0.50091062  1.0
  N  N72  1  0.66131067  0.09713065  0.42173361  1.0
  N  N73  1  0.33100434  0.90144817  0.56999845  1.0
  N  N74  1  0.75944373  0.48209944  0.35173690  1.0
  N  N75  1  0.75163935  0.57476299  0.65295940  1.0
  N  N76  1  0.60148160  0.17128091  0.12143194  1.0
  N  N77  1  0.59337902  0.83893960  0.88108943  1.0
  N  N78  1  0.32452318  0.16908655  0.96635866  1.0
  N  N79  1  0.32160633  0.80979669  0.03329720  1.0
  Cl  Cl80  1  0.91119225  0.72632782  0.44358301  1.0
  Cl  Cl81  1  0.07750272  0.28167949  0.55876656  1.0
  Cl  Cl82  1  0.20629196  0.46421652  0.74722517  1.0
  Cl  Cl83  1  0.20498558  0.47388727  0.24928122  1.0
  Cl  Cl84  1  0.59094163  0.15645357  0.01860210  1.0
  Cl  Cl85  1  0.58581957  0.85288839  0.98390092  1.0
  Cl  Cl86  1  0.38287761  0.88974915  0.40097931  1.0
  Cl  Cl87  1  0.61158104  0.11515398  0.59191203  1.0
  O  O88  1  0.61146335  0.32193289  0.48764510  1.0
  O  O89  1  0.38064244  0.68283208  0.49134270  1.0
  O  O90  1  0.38104665  0.30997670  0.50732988  1.0
  O  O91  1  0.61267836  0.69276047  0.51280081  1.0
  O  O92  1  0.60700042  0.47709315  0.57333414  1.0
  O  O93  1  0.37342577  0.46720654  0.42708666  1.0
  O  O94  1  0.37854499  0.52360313  0.57209333  1.0
  O  O95  1  0.60054916  0.54149082  0.42985669  1.0
  O  O96  1  0.44278280  0.29274429  0.79595931  1.0
  O  O97  1  0.42497247  0.69329754  0.20538365  1.0
  O  O98  1  0.55638969  0.29104351  0.20131836  1.0
  O  O99  1  0.54326317  0.71474538  0.80071587  1.0
  O  O100  1  0.79032744  0.08938876  0.42340409  1.0
  O  O101  1  0.59270328  0.14408851  0.38942590  1.0
  O  O102  1  0.20138989  0.90349015  0.56638545  1.0
  O  O103  1  0.39772543  0.85365145  0.60260554  1.0
  O  O104  1  0.85161540  0.56014883  0.33900709  1.0
  O  O105  1  0.77724246  0.39714167  0.38008573  1.0
  O  O106  1  0.85323053  0.51239004  0.66281115  1.0
  O  O107  1  0.75508119  0.66767711  0.62745730  1.0
  O  O108  1  0.51473048  0.08577010  0.12975427  1.0
  O  O109  1  0.72997733  0.17222589  0.12663634  1.0
  O  O110  1  0.50584730  0.91500242  0.87256098  1.0
  O  O111  1  0.72142836  0.85203073  0.87641576  1.0
  O  O112  1  0.32879619  0.07000623  0.94425063  1.0
  O  O113  1  0.25956575  0.18546158  0.00346580  1.0
  O  O114  1  0.32704445  0.90909883  0.05566159  1.0
  O  O115  1  0.25552999  0.78704577  0.99539827  1.0
