# generated using pymatgen
data_ZnH5C11N4Cl3O5
_symmetry_space_group_name_H-M   'P 1'
_cell_length_a   15.43894659
_cell_length_b   17.82900974
_cell_length_c   19.40076490
_cell_angle_alpha   88.92952393
_cell_angle_beta   87.67571111
_cell_angle_gamma   87.89036280
_symmetry_Int_Tables_number   1
_chemical_formula_structural   ZnH5C11N4Cl3O5
_chemical_formula_sum   'Zn8 H40 C88 N32 Cl24 O40'
_cell_volume   5331.47619456
_cell_formula_units_Z   8
loop_
 _symmetry_equiv_pos_site_id
 _symmetry_equiv_pos_as_xyz
  1  'x, y, z'
loop_
 _atom_site_type_symbol
 _atom_site_label
 _atom_site_symmetry_multiplicity
 _atom_site_fract_x
 _atom_site_fract_y
 _atom_site_fract_z
 _atom_site_occupancy
  Zn  Zn0  1  0.02590833  0.58705773  0.06299646  1.0
  Zn  Zn1  1  0.06547386  0.35734967  0.98359375  1.0
  Zn  Zn2  1  0.49062197  0.07552854  0.42791691  1.0
  Zn  Zn3  1  0.42557226  0.86370848  0.54224885  1.0
  Zn  Zn4  1  0.18193326  0.50052951  0.97346947  1.0
  Zn  Zn5  1  0.89955352  0.47806830  0.95325058  1.0
  Zn  Zn6  1  0.59432738  0.97590074  0.54425397  1.0
  Zn  Zn7  1  0.30338944  0.01913366  0.50608022  1.0
  H  H8  1  0.26146796  0.49134326  0.82122410  1.0
  H  H9  1  0.41510471  0.61608700  0.04372022  1.0
  H  H10  1  0.17577451  0.59731778  0.77518927  1.0
  H  H11  1  0.76785234  0.50048365  0.06579502  1.0
  H  H12  1  0.25968041  0.96032180  0.29628763  1.0
  H  H13  1  0.92664697  0.91553660  0.55075725  1.0
  H  H14  1  0.85993884  0.13135898  0.41190850  1.0
  H  H15  1  0.20860058  0.09616456  0.64334857  1.0
  H  H16  1  0.84934902  0.75208941  0.89092384  1.0
  H  H17  1  0.00796072  0.38366084  0.24624783  1.0
  H  H18  1  0.41435231  0.27186593  0.89510377  1.0
  H  H19  1  0.79508436  0.49708011  0.24449091  1.0
  H  H20  1  0.65988111  0.69550891  0.13065228  1.0
  H  H21  1  0.38933379  0.28011916  0.34301835  1.0
  H  H22  1  0.46302104  0.76713353  0.76649725  1.0
  H  H23  1  0.75391016  0.84649123  0.42661368  1.0
  H  H24  1  0.20062884  0.22437119  0.63724027  1.0
  H  H25  1  0.36914621  0.40538659  0.23686057  1.0
  H  H26  1  0.49051058  0.67714080  0.90569683  1.0
  H  H27  1  0.89076961  0.74564640  0.35234602  1.0
  H  H28  1  0.15929019  0.30258634  0.77193766  1.0
  H  H29  1  0.82303863  0.81411598  0.74964548  1.0
  H  H30  1  0.59742598  0.67256631  0.01156316  1.0
  H  H31  1  0.02709101  0.23879814  0.33715588  1.0
  H  H32  1  0.53230700  0.16443970  0.80576780  1.0
  H  H33  1  0.53060183  0.79496105  0.20685589  1.0
  H  H34  1  0.25718506  0.64661002  0.28792441  1.0
  H  H35  1  0.01264526  0.19369852  0.66538820  1.0
  H  H36  1  0.87123252  0.41404435  0.30271940  1.0
  H  H37  1  0.19087695  0.84622565  0.92052382  1.0
  H  H38  1  0.76492558  0.17220492  0.75077468  1.0
  H  H39  1  0.46105241  0.75752993  0.29681426  1.0
  H  H40  1  0.31161185  0.81980006  0.83108593  1.0
  H  H41  1  0.93078561  0.51841605  0.17751280  1.0
  H  H42  1  0.67615255  0.39452836  0.31951497  1.0
  H  H43  1  0.67650499  0.02815914  0.39421916  1.0
  H  H44  1  0.49943693  0.05358122  0.73209112  1.0
  H  H45  1  0.12787943  0.19244311  0.43019879  1.0
  H  H46  1  0.67667835  0.96569051  0.66000141  1.0
  H  H47  1  0.78987641  0.41675529  0.77485882  1.0
  C  C48  1  0.03079255  0.66942111  0.92514741  1.0
  C  C49  1  0.32367986  0.71249374  0.14502783  1.0
  C  C50  1  0.11559075  0.73101526  0.82059382  1.0
  C  C51  1  0.81005710  0.31336656  0.18800306  1.0
  C  C52  1  0.29567375  0.81023055  0.29506423  1.0
  C  C53  1  0.87997297  0.12697020  0.62367524  1.0
  C  C54  1  0.77562480  0.24127088  0.33657047  1.0
  C  C55  1  0.16917746  0.89102293  0.74331034  1.0
  C  C56  1  0.90732757  0.22647134  0.71294272  1.0
  C  C57  1  0.31224753  0.70284931  0.21408204  1.0
  C  C58  1  0.15163559  0.79482305  0.84249681  1.0
  C  C59  1  0.93569347  0.31216724  0.09719503  1.0
  C  C60  1  0.80591480  0.34367636  0.25168145  1.0
  C  C61  1  0.34261819  0.75013145  0.26939487  1.0
  C  C62  1  0.86148265  0.16381115  0.68412890  1.0
  C  C63  1  0.76245452  0.31290136  0.31305747  1.0
  C  C64  1  0.19651594  0.85108002  0.79947738  1.0
  C  C65  1  0.26406095  0.39278646  0.86084848  1.0
  C  C66  1  0.81997624  0.59196565  0.20076929  1.0
  C  C67  1  0.71034912  0.62913493  0.99720738  1.0
  C  C68  1  0.06135192  0.45509091  0.15982963  1.0
  C  C69  1  0.61534792  0.93793416  0.39095153  1.0
  C  C70  1  0.98354640  0.30525639  0.84839361  1.0
  C  C71  1  0.46789061  0.06093805  0.63922043  1.0
  C  C72  1  0.24453542  0.15677565  0.42264530  1.0
  C  C73  1  0.60963985  0.87802528  0.66788343  1.0
  C  C74  1  0.22496177  0.28666119  0.91149122  1.0
  C  C75  1  0.87966796  0.68514667  0.14268831  1.0
  C  C76  1  0.80597027  0.61389480  0.91131874  1.0
  C  C77  1  0.17642329  0.40639070  0.10200402  1.0
  C  C78  1  0.54261427  0.83918506  0.42320251  1.0
  C  C79  1  0.42506466  0.14801539  0.56465583  1.0
  C  C80  1  0.34949441  0.14948506  0.34249988  1.0
  C  C81  1  0.18072914  0.67099621  0.10449895  1.0
  C  C82  1  0.53912040  0.77583503  0.64905184  1.0
  C  C83  1  0.89193808  0.39832632  0.82474617  1.0
  C  C84  1  0.29150729  0.62004222  0.04559632  1.0
  C  C85  1  0.11682115  0.59501344  0.86337683  1.0
  C  C86  1  0.83863946  0.40633092  0.08700234  1.0
  C  C87  1  0.29870105  0.91901395  0.38030521  1.0
  C  C88  1  0.84968465  0.99682540  0.57271672  1.0
  C  C89  1  0.73730107  0.13472186  0.42098480  1.0
  C  C90  1  0.23088211  0.98891738  0.65121072  1.0
  C  C91  1  0.08631500  0.67029159  0.86581256  1.0
  C  C92  1  0.62573757  0.19377102  0.37394245  1.0
  C  C93  1  0.85984912  0.34315103  0.12910162  1.0
  C  C94  1  0.91507683  0.32446977  0.80437300  1.0
  C  C95  1  0.27187789  0.67218864  0.09831482  1.0
  C  C96  1  0.71688773  0.19768899  0.37839491  1.0
  C  C97  1  0.22918385  0.92168834  0.69128436  1.0
  C  C98  1  0.30451906  0.84252821  0.36208412  1.0
  C  C99  1  0.82676229  0.06957695  0.59822945  1.0
  C  C100  1  0.27505280  0.31399416  0.85474249  1.0
  C  C101  1  0.81087541  0.66973319  0.18999303  1.0
  C  C102  1  0.73409553  0.66016116  0.93142159  1.0
  C  C103  1  0.30010085  0.87949572  0.66211129  1.0
  C  C104  1  0.13920132  0.40958426  0.16805486  1.0
  C  C105  1  0.60987085  0.86166912  0.37753662  1.0
  C  C106  1  0.42508031  0.13206892  0.63584370  1.0
  C  C107  1  0.27187951  0.19112850  0.35939875  1.0
  C  C108  1  0.58895593  0.80817494  0.69903131  1.0
  C  C109  1  0.74220301  0.75878999  0.84010481  1.0
  C  C110  1  0.11140174  0.32525791  0.27058672  1.0
  C  C111  1  0.39635661  0.23221421  0.80542944  1.0
  C  C112  1  0.67243349  0.74521159  0.22065610  1.0
  C  C113  1  0.28774833  0.31051823  0.29227901  1.0
  C  C114  1  0.31509143  0.80593230  0.42643242  1.0
  C  C115  1  0.56737818  0.74724070  0.81607755  1.0
  C  C116  1  0.74737190  0.79323651  0.34036879  1.0
  C  C117  1  0.30332017  0.20865408  0.68845882  1.0
  C  C118  1  0.25660104  0.36577014  0.24654583  1.0
  C  C119  1  0.60184947  0.71419161  0.87504826  1.0
  C  C120  1  0.79494700  0.74686243  0.29404662  1.0
  C  C121  1  0.26865703  0.25588657  0.73981319  1.0
  C  C122  1  0.70997793  0.78529162  0.77751115  1.0
  C  C123  1  0.14373785  0.26847038  0.31446371  1.0
  C  C124  1  0.43173767  0.18659363  0.75304872  1.0
  C  C125  1  0.73619769  0.07218135  0.59308567  1.0
  C  C126  1  0.62513971  0.79108861  0.26762160  1.0
  C  C127  1  0.16879001  0.36890529  0.22950247  1.0
  C  C128  1  0.69145463  0.71484978  0.88582737  1.0
  C  C129  1  0.75822865  0.72215704  0.23360169  1.0
  C  C130  1  0.31536261  0.26899779  0.79877479  1.0
  C  C131  1  0.62186874  0.77892284  0.76396867  1.0
  C  C132  1  0.23350455  0.25558076  0.32196340  1.0
  C  C133  1  0.38727195  0.17624512  0.69240296  1.0
  C  C134  1  0.66130828  0.81552988  0.32793960  1.0
  C  C135  1  0.87063960  0.27774037  0.75813923  1.0
  N  N136  1  0.02993927  0.60121646  0.95612453  1.0
  N  N137  1  0.88733593  0.56449443  0.16098047  1.0
  N  N138  1  0.76344792  0.57176717  0.01520688  1.0
  N  N139  1  0.05674792  0.47965094  0.09286125  1.0
  N  N140  1  0.55231631  0.96108696  0.44073885  1.0
  N  N141  1  0.48815691  0.03579429  0.57547828  1.0
  N  N142  1  0.30358166  0.10425096  0.44259864  1.0
  N  N143  1  0.57531213  0.88519119  0.60562915  1.0
  N  N144  1  0.18585398  0.34283337  0.94693697  1.0
  N  N145  1  0.92660851  0.62266133  0.12478208  1.0
  N  N146  1  0.82342449  0.56298722  0.96141170  1.0
  N  N147  1  0.95887109  0.35195900  0.04062550  1.0
  N  N148  1  0.12671797  0.44517526  0.05475032  1.0
  N  N149  1  0.50545811  0.89570337  0.45914911  1.0
  N  N150  1  0.45960069  0.08953958  0.52871343  1.0
  N  N151  1  0.37099694  0.10033318  0.39321708  1.0
  N  N152  1  0.52855257  0.82189281  0.59372006  1.0
  N  N153  1  0.94309265  0.42058855  0.87480651  1.0
  N  N154  1  0.21869192  0.59098053  0.02305890  1.0
  N  N155  1  0.08582063  0.55377689  0.91714511  1.0
  N  N156  1  0.89858365  0.41113115  0.03400242  1.0
  N  N157  1  0.31038005  0.92669406  0.44828440  1.0
  N  N158  1  0.00166430  0.36209823  0.88929219  1.0
  N  N159  1  0.78124480  0.95912729  0.55555470  1.0
  N  N160  1  0.66645715  0.09707410  0.43963284  1.0
  N  N161  1  0.29652155  0.98447347  0.60222358  1.0
  N  N162  1  0.14917728  0.62333175  0.06087958  1.0
  N  N163  1  0.59630955  0.13430690  0.40975725  1.0
  N  N164  1  0.34103697  0.91603515  0.61074624  1.0
  N  N165  1  0.32194284  0.85489973  0.47741479  1.0
  N  N166  1  0.70944018  0.00661856  0.56890897  1.0
  N  N167  1  0.21263619  0.40970737  0.91654371  1.0
  Cl  Cl168  1  0.97099531  0.74250378  0.95878864  1.0
  Cl  Cl169  1  0.90315000  0.77303247  0.11441398  1.0
  Cl  Cl170  1  0.86455128  0.61101412  0.83507412  1.0
  Cl  Cl171  1  0.27189894  0.36141562  0.07803090  1.0
  Cl  Cl172  1  0.51634034  0.74854423  0.43861397  1.0
  Cl  Cl173  1  0.39606065  0.22999940  0.52388434  1.0
  Cl  Cl174  1  0.40718190  0.14744309  0.26585889  1.0
  Cl  Cl175  1  0.50294536  0.68622557  0.64897020  1.0
  Cl  Cl176  1  0.39216490  0.78188570  0.11205168  1.0
  Cl  Cl177  1  0.75599029  0.28995427  0.76447302  1.0
  Cl  Cl178  1  0.75302775  0.23373190  0.17169885  1.0
  Cl  Cl179  1  0.99606904  0.23482360  0.12043907  1.0
  Cl  Cl180  1  0.11648000  0.71111683  0.73269738  1.0
  Cl  Cl181  1  0.97320731  0.14625398  0.57219296  1.0
  Cl  Cl182  1  0.21502908  0.85396611  0.24505726  1.0
  Cl  Cl183  1  0.06002712  0.89756981  0.72583280  1.0
  Cl  Cl184  1  0.87083192  0.19154755  0.30767878  1.0
  Cl  Cl185  1  0.03586367  0.22016926  0.85578800  1.0
  Cl  Cl186  1  0.11204749  0.72043366  0.15853566  1.0
  Cl  Cl187  1  0.55891479  0.25224412  0.32869595  1.0
  Cl  Cl188  1  0.33009502  0.78897754  0.68144084  1.0
  Cl  Cl189  1  0.30992722  0.71246025  0.44469361  1.0
  Cl  Cl190  1  0.66462555  0.14524719  0.60958192  1.0
  Cl  Cl191  1  0.21599044  0.19582797  0.93817131  1.0
  O  O192  1  0.29910104  0.44522007  0.81909083  1.0
  O  O193  1  0.36911547  0.59720843  0.01648736  1.0
  O  O194  1  0.17393116  0.56337031  0.81583532  1.0
  O  O195  1  0.76981460  0.45172589  0.09661073  1.0
  O  O196  1  0.28028713  0.97898284  0.33988515  1.0
  O  O197  1  0.93153419  0.96658888  0.56726805  1.0
  O  O198  1  0.81496502  0.10796369  0.44131698  1.0
  O  O199  1  0.17839141  0.04989826  0.65848363  1.0
  O  O200  1  0.82726115  0.77501445  0.84863719  1.0
  O  O201  1  0.02307589  0.33229867  0.26615496  1.0
  O  O202  1  0.44565155  0.23860041  0.86239551  1.0
  O  O203  1  0.77258593  0.55034375  0.24433168  1.0
  O  O204  1  0.62708262  0.72662246  0.16461958  1.0
  O  O205  1  0.37438626  0.31523203  0.30575666  1.0
  O  O206  1  0.47821561  0.74529113  0.81129479  1.0
  O  O207  1  0.79025542  0.81236999  0.39802060  1.0
  O  O208  1  0.25176289  0.19015975  0.63468898  1.0
  O  O209  1  0.31203567  0.41753239  0.21878419  1.0
  O  O210  1  0.54897353  0.67688476  0.92319767  1.0
  O  O211  1  0.87816103  0.72371814  0.30819359  1.0
  O  O212  1  0.18716883  0.28575886  0.72855991  1.0
  O  O213  1  0.76633325  0.81414980  0.72886663  1.0
  O  O214  1  0.64349332  0.65133392  0.04075400  1.0
  O  O215  1  0.08578898  0.22214677  0.34982047  1.0
  O  O216  1  0.51202586  0.15078445  0.76072136  1.0
  O  O217  1  0.54002112  0.81222254  0.25374690  1.0
  O  O218  1  0.26729640  0.64184063  0.23820125  1.0
  O  O219  1  0.99435332  0.23211785  0.69920319  1.0
  O  O220  1  0.84232606  0.41347859  0.25886817  1.0
  O  O221  1  0.15922858  0.80094121  0.91262184  1.0
  O  O222  1  0.79720099  0.13251602  0.72543841  1.0
  O  O223  1  0.41400146  0.72073223  0.30149727  1.0
  O  O224  1  0.27818417  0.86661316  0.82290463  1.0
  O  O225  1  0.00260454  0.46958047  0.20756739  1.0
  O  O226  1  0.70619362  0.35987516  0.35077914  1.0
  O  O227  1  0.67248282  0.98280594  0.36180228  1.0
  O  O228  1  0.48713384  0.01885117  0.69489180  1.0
  O  O229  1  0.17164557  0.16960596  0.46135713  1.0
  O  O230  1  0.65522508  0.93068188  0.69639829  1.0
  O  O231  1  0.82781198  0.44517550  0.80317394  1.0
