# generated using pymatgen
data_CdH25C36N7O5
_symmetry_space_group_name_H-M   'P 1'
_cell_length_a   12.27380250
_cell_length_b   12.45368304
_cell_length_c   15.22151124
_cell_angle_alpha   88.11113427
_cell_angle_beta   77.19095588
_cell_angle_gamma   78.59374885
_symmetry_Int_Tables_number   1
_chemical_formula_structural   CdH25C36N7O5
_chemical_formula_sum   'Cd2 H50 C72 N14 O10'
_cell_volume   2223.81568165
_cell_formula_units_Z   2
loop_
 _symmetry_equiv_pos_site_id
 _symmetry_equiv_pos_as_xyz
  1  'x, y, z'
loop_
 _atom_site_type_symbol
 _atom_site_label
 _atom_site_symmetry_multiplicity
 _atom_site_fract_x
 _atom_site_fract_y
 _atom_site_fract_z
 _atom_site_occupancy
  Cd  Cd0  1  0.83209430  0.53801599  0.53737568  1.0
  Cd  Cd1  1  0.16790509  0.46198522  0.46262535  1.0
  H  H2  1  0.92127881  0.97125626  0.88053730  1.0
  H  H3  1  0.07872094  0.02874333  0.11946173  1.0
  H  H4  1  0.92245914  0.82653801  0.77386830  1.0
  H  H5  1  0.07753811  0.17346156  0.22613182  1.0
  H  H6  1  0.73333404  0.66019398  0.99171680  1.0
  H  H7  1  0.26666554  0.33980641  0.00828422  1.0
  H  H8  1  0.74065982  0.80060425  0.09788262  1.0
  H  H9  1  0.25934142  0.19939616  0.90211810  1.0
  H  H10  1  0.88480091  0.72175982  0.68354856  1.0
  H  H11  1  0.11519283  0.27824054  0.31645217  1.0
  H  H12  1  0.77664735  0.42252005  0.74253746  1.0
  H  H13  1  0.22335392  0.57747623  0.25746531  1.0
  H  H14  1  0.75651298  0.52932993  0.90437573  1.0
  H  H15  1  0.24348961  0.47066800  0.09562678  1.0
  H  H16  1  0.89799622  0.25430922  0.95530150  1.0
  H  H17  1  0.10200401  0.74569200  0.04470004  1.0
  H  H18  1  0.91799544  0.45029400  0.94378468  1.0
  H  H19  1  0.08200716  0.54970396  0.05621520  1.0
  H  H20  1  0.88432339  0.56267241  0.08286283  1.0
  H  H21  1  0.11567852  0.43732884  0.91713645  1.0
  H  H22  1  0.81156256  0.28376087  0.24465512  1.0
  H  H23  1  0.18844034  0.71623955  0.75534531  1.0
  H  H24  1  0.90309869  0.38038766  0.34004315  1.0
  H  H25  1  0.09689939  0.61961191  0.65995683  1.0
  H  H26  1  0.74762876  0.71441179  0.37937678  1.0
  H  H27  1  0.25237649  0.28558951  0.62061994  1.0
  H  H28  1  0.73949509  0.64904024  0.20735216  1.0
  H  H29  1  0.26051116  0.35096024  0.79264572  1.0
  H  H30  1  0.50811220  0.86210453  0.63370321  1.0
  H  H31  1  0.49188570  0.13789583  0.36630007  1.0
  H  H32  1  0.30251552  0.95092740  0.65642417  1.0
  H  H33  1  0.69748172  0.04907213  0.34357924  1.0
  H  H34  1  0.23797199  0.66938264  0.53407715  1.0
  H  H35  1  0.76202825  0.33061861  0.46592110  1.0
  H  H36  1  0.43930243  0.57891259  0.51725091  1.0
  H  H37  1  0.56069896  0.42109115  0.48274513  1.0
  H  H38  1  0.84434280  0.17248908  0.64556315  1.0
  H  H39  1  0.15565629  0.82750966  0.35443798  1.0
  H  H40  1  0.92131634  0.97575691  0.67605436  1.0
  H  H41  1  0.07868006  0.02424263  0.32394788  1.0
  H  H42  1  0.24809298  0.00628150  0.51240345  1.0
  H  H43  1  0.75190247  0.99371478  0.48759508  1.0
  H  H44  1  0.17150445  0.19971708  0.48184909  1.0
  H  H45  1  0.82849351  0.80027923  0.51814901  1.0
  H  H46  1  0.89998654  0.89868061  0.25383365  1.0
  H  H47  1  0.10001286  0.10132061  0.74616672  1.0
  H  H48  1  0.89558005  0.81036297  0.16479816  1.0
  H  H49  1  0.10441935  0.18963825  0.83520221  1.0
  H  H50  1  0.76652969  0.87273856  0.24063251  1.0
  H  H51  1  0.23346870  0.12726347  0.75936737  1.0
  C  C52  1  0.84046212  0.98360455  0.05574403  1.0
  C  C53  1  0.15953996  0.01639588  0.94425524  1.0
  C  C54  1  0.84794435  0.14058111  0.10260455  1.0
  C  C55  1  0.15205857  0.85941932  0.89739523  1.0
  C  C56  1  0.83481021  0.89516290  0.99719531  1.0
  C  C57  1  0.16519002  0.10483834  0.00280426  1.0
  C  C58  1  0.88144389  0.90201165  0.90455170  1.0
  C  C59  1  0.11855385  0.09798957  0.09544765  1.0
  C  C60  1  0.87980378  0.82150824  0.84431873  1.0
  C  C61  1  0.12019228  0.17849296  0.15568157  1.0
  C  C62  1  0.82692970  0.73315862  0.87520193  1.0
  C  C63  1  0.17306838  0.26684096  0.12479805  1.0
  C  C64  1  0.77740012  0.72656945  0.96692340  1.0
  C  C65  1  0.22259879  0.27343011  0.03307775  1.0
  C  C66  1  0.78224230  0.80625625  0.02726544  1.0
  C  C67  1  0.21775728  0.19374415  0.97273491  1.0
  C  C68  1  0.85237292  0.65517345  0.72143050  1.0
  C  C69  1  0.14762433  0.34482610  0.27857094  1.0
  C  C70  1  0.79555195  0.50115895  0.75566472  1.0
  C  C71  1  0.20445064  0.49883900  0.24433647  1.0
  C  C72  1  0.78570451  0.55326742  0.83567406  1.0
  C  C73  1  0.21429725  0.44673051  0.16432794  1.0
  C  C74  1  0.88396444  0.30459645  0.01547941  1.0
  C  C75  1  0.11603729  0.69540562  0.98451988  1.0
  C  C76  1  0.89377315  0.41404470  0.00952919  1.0
  C  C77  1  0.10622892  0.58595573  0.99047007  1.0
  C  C78  1  0.87483348  0.47739622  0.08728041  1.0
  C  C79  1  0.12516926  0.52260503  0.91271938  1.0
  C  C80  1  0.84597714  0.42959150  0.17153065  1.0
  C  C81  1  0.15402660  0.57040894  0.82846898  1.0
  C  C82  1  0.83583312  0.31968682  0.17876295  1.0
  C  C83  1  0.16417062  0.68031362  0.82123668  1.0
  C  C84  1  0.85545787  0.25655521  0.10014085  1.0
  C  C85  1  0.14454505  0.74344523  0.89985827  1.0
  C  C86  1  0.86134947  0.46342345  0.32835844  1.0
  C  C87  1  0.13865112  0.53657614  0.67164176  1.0
  C  C88  1  0.78082778  0.63628680  0.34437235  1.0
  C  C89  1  0.21917514  0.36371364  0.65562611  1.0
  C  C90  1  0.77671102  0.60557010  0.25967968  1.0
  C  C91  1  0.22329255  0.39443116  0.74031931  1.0
  C  C92  1  0.13151457  0.86120136  0.61505940  1.0
  C  C93  1  0.86848387  0.13879658  0.38493989  1.0
  C  C94  1  0.60947586  0.65975883  0.56454636  1.0
  C  C95  1  0.39052337  0.34024322  0.43545338  1.0
  C  C96  1  0.48634088  0.71448859  0.57602778  1.0
  C  C97  1  0.51365984  0.28551429  0.42397102  1.0
  C  C98  1  0.44736145  0.82032220  0.61338046  1.0
  C  C99  1  0.55263794  0.17967901  0.38662057  1.0
  C  C100  1  0.33311988  0.87028373  0.62465220  1.0
  C  C101  1  0.66687803  0.12971665  0.37534911  1.0
  C  C102  1  0.25576921  0.81520196  0.59815888  1.0
  C  C103  1  0.74422936  0.18479925  0.40184098  1.0
  C  C104  1  0.29591342  0.71020743  0.55895670  1.0
  C  C105  1  0.70408766  0.28979383  0.44104141  1.0
  C  C106  1  0.40981333  0.66011547  0.54826748  1.0
  C  C107  1  0.59018758  0.33988662  0.45172933  1.0
  C  C108  1  0.95362250  0.31432281  0.54294492  1.0
  C  C109  1  0.04637659  0.68567594  0.45705555  1.0
  C  C110  1  0.00296984  0.19797709  0.56256260  1.0
  C  C111  1  0.99702859  0.80202084  0.43743801  1.0
  C  C112  1  0.93286663  0.13467035  0.61782989  1.0
  C  C113  1  0.06713162  0.86532839  0.38217139  1.0
  C  C114  1  0.97573941  0.02613524  0.63486115  1.0
  C  C115  1  0.02425718  0.97386349  0.36513977  1.0
  C  C116  1  0.09021030  0.97883323  0.59829407  1.0
  C  C117  1  0.90978713  0.02116552  0.40170538  1.0
  C  C118  1  0.16001164  0.04261774  0.54303894  1.0
  C  C119  1  0.83998514  0.95738020  0.45695933  1.0
  C  C120  1  0.11672136  0.15115659  0.52492225  1.0
  C  C121  1  0.88327725  0.84884053  0.47507637  1.0
  C  C122  1  0.85147763  0.88424713  0.20455483  1.0
  C  C123  1  0.14852261  0.11575411  0.79544474  1.0
  N  N124  1  0.84366140  0.97798418  0.14522640  1.0
  N  N125  1  0.15633967  0.02201706  0.85477303  1.0
  N  N126  1  0.84811811  0.07782054  0.17596149  1.0
  N  N127  1  0.15188230  0.92217986  0.82403872  1.0
  N  N128  1  0.84434503  0.08574025  0.02751132  1.0
  N  N129  1  0.15565871  0.91426019  0.97248831  1.0
  N  N130  1  0.82262520  0.65164688  0.81383676  1.0
  N  N131  1  0.17737372  0.34835270  0.18616307  1.0
  N  N132  1  0.83682439  0.56568134  0.68559791  1.0
  N  N133  1  0.16317470  0.43431740  0.31440388  1.0
  N  N134  1  0.82768548  0.49528393  0.25014170  1.0
  N  N135  1  0.17231726  0.50471732  0.74985743  1.0
  N  N136  1  0.83429631  0.54720666  0.38583524  1.0
  N  N137  1  0.16570345  0.45279294  0.61416379  1.0
  O  O138  1  0.06215139  0.80010058  0.64187832  1.0
  O  O139  1  0.93784888  0.19989654  0.35812198  1.0
  O  O140  1  0.68391969  0.71934654  0.55823308  1.0
  O  O141  1  0.31608037  0.28065550  0.44176782  1.0
  O  O142  1  0.63289979  0.55512630  0.56080781  1.0
  O  O143  1  0.36709926  0.44487656  0.43919260  1.0
  O  O144  1  0.01316692  0.36891863  0.48599601  1.0
  O  O145  1  0.98683436  0.63107769  0.51400347  1.0
  O  O146  1  0.85146212  0.35312229  0.58336767  1.0
  O  O147  1  0.14853645  0.64687894  0.41663153  1.0
