# generated using pymatgen
data_Zn3H12C36(SO15)2
_symmetry_space_group_name_H-M   'P 1'
_cell_length_a   19.10694060
_cell_length_b   19.10694978
_cell_length_c   19.16146595
_cell_angle_alpha   111.29107697
_cell_angle_beta   111.29109867
_cell_angle_gamma   104.81808582
_symmetry_Int_Tables_number   1
_chemical_formula_structural   Zn3H12C36(SO15)2
_chemical_formula_sum   'Zn6 H24 C72 S4 O60'
_cell_volume   5434.19623143
_cell_formula_units_Z   2
loop_
 _symmetry_equiv_pos_site_id
 _symmetry_equiv_pos_as_xyz
  1  'x, y, z'
loop_
 _atom_site_type_symbol
 _atom_site_label
 _atom_site_symmetry_multiplicity
 _atom_site_fract_x
 _atom_site_fract_y
 _atom_site_fract_z
 _atom_site_occupancy
  Zn  Zn0  1  0.56581071  0.99148052  0.05878879  1.0
  Zn  Zn1  1  0.45341315  0.43037794  0.49632129  1.0
  Zn  Zn2  1  0.56962039  0.54658516  0.50367654  1.0
  Zn  Zn3  1  0.44009493  0.99138608  0.92820958  1.0
  Zn  Zn4  1  0.00851535  0.43419239  0.94120932  1.0
  Zn  Zn5  1  0.00861262  0.55990869  0.07179234  1.0
  H  H6  1  0.36374333  0.02809193  0.09028159  1.0
  H  H7  1  0.68721650  0.00021063  0.79969515  1.0
  H  H8  1  0.01475070  0.69505046  0.82743672  1.0
  H  H9  1  0.99978877  0.31278370  0.20030538  1.0
  H  H10  1  0.30494684  0.98524860  0.17256155  1.0
  H  H11  1  0.57320107  0.26691408  0.03514436  1.0
  H  H12  1  0.30683925  0.71736913  0.83292558  1.0
  H  H13  1  0.73308667  0.42679429  0.96485487  1.0
  H  H14  1  0.56897531  0.95694139  0.82402531  1.0
  H  H15  1  0.28263174  0.69316299  0.16707612  1.0
  H  H16  1  0.40375176  0.06262774  0.43934950  1.0
  H  H17  1  0.82199810  0.95572162  0.70909956  1.0
  H  H18  1  0.93737222  0.59624088  0.56065003  1.0
  H  H19  1  0.04427819  0.17799992  0.29089817  1.0
  H  H20  1  0.97190623  0.63626064  0.90972035  1.0
  H  H21  1  0.36992767  0.22229941  0.41281201  1.0
  H  H22  1  0.77683614  0.72215942  0.71032870  1.0
  H  H23  1  0.77770083  0.63006847  0.58718678  1.0
  H  H24  1  0.27784268  0.22316725  0.28967129  1.0
  H  H25  1  0.04305758  0.43102485  0.17597548  1.0
  H  H26  1  0.54980795  0.49919868  0.29579297  1.0
  H  H27  1  0.31498125  0.52685655  0.66501039  1.0
  H  H28  1  0.50079813  0.45019191  0.70420331  1.0
  H  H29  1  0.47314293  0.68501936  0.33499128  1.0
  C  C30  1  0.47827137  0.11007250  0.07912723  1.0
  C  C31  1  0.54717844  0.82652612  0.77354811  1.0
  C  C32  1  0.12127108  0.31148991  0.24322099  1.0
  C  C33  1  0.38260995  0.10790610  0.28953857  1.0
  C  C34  1  0.68851006  0.87872838  0.75677783  1.0
  C  C35  1  0.89209194  0.61738797  0.71046009  1.0
  C  C36  1  0.43763887  0.19180415  0.32766647  1.0
  C  C37  1  0.64880212  0.79562825  0.73426523  1.0
  C  C38  1  0.80819422  0.56235839  0.67233206  1.0
  C  C39  1  0.20437097  0.35119774  0.26573243  1.0
  C  C40  1  0.84178524  0.55795771  0.80559538  1.0
  C  C41  1  0.46403705  0.22090805  0.27777092  1.0
  C  C42  1  0.57152223  0.76581355  0.73351090  1.0
  C  C43  1  0.77909080  0.53596421  0.72222976  1.0
  C  C44  1  0.23418502  0.42847870  0.26648795  1.0
  C  C45  1  0.17347195  0.45282190  0.22644981  1.0
  C  C46  1  0.58788021  0.27537818  0.14123149  1.0
  C  C47  1  0.36265798  0.68715755  0.77185883  1.0
  C  C48  1  0.72462034  0.41212029  0.85876723  1.0
  C  C49  1  0.31284243  0.63734288  0.22814154  1.0
  C  C50  1  0.35687128  0.07496110  0.34095572  1.0
  C  C51  1  0.44204653  0.15821130  0.19440711  1.0
  C  C52  1  0.77252122  0.91526443  0.76463192  1.0
  C  C53  1  0.92503739  0.64312336  0.65904191  1.0
  C  C54  1  0.08473477  0.22747758  0.23536482  1.0
  C  C55  1  0.47989781  0.24533120  0.42467944  1.0
  C  C56  1  0.69613528  0.74417200  0.73457559  1.0
  C  C57  1  0.75466534  0.52009611  0.57531774  1.0
  C  C58  1  0.25582811  0.30386677  0.26542266  1.0
  C  C59  1  0.48289764  0.18102250  0.15168063  1.0
  C  C60  1  0.48137774  0.80160897  0.79110919  1.0
  C  C61  1  0.81897473  0.51710810  0.84832318  1.0
  C  C62  1  0.47260504  0.87096582  0.85175338  1.0
  C  C63  1  0.19838983  0.51862207  0.20888932  1.0
  C  C64  1  0.53863787  0.26296826  0.18588420  1.0
  C  C65  1  0.44111257  0.71900062  0.76907286  1.0
  C  C66  1  0.73702979  0.46136621  0.81411826  1.0
  C  C67  1  0.28099833  0.55888669  0.23092603  1.0
  C  C68  1  0.88992503  0.52173665  0.92087908  1.0
  C  C69  1  0.55158903  0.32820273  0.26316873  1.0
  C  C70  1  0.46686612  0.65943571  0.73009221  1.0
  C  C71  1  0.67179514  0.44841107  0.73683169  1.0
  C  C72  1  0.34056421  0.53313400  0.26990683  1.0
  C  C73  1  0.12903324  0.52739641  0.14824582  1.0
  C  C74  1  0.51369708  0.30778988  0.30791873  1.0
  C  C75  1  0.52265920  0.67856779  0.70152468  1.0
  C  C76  1  0.69220854  0.48630298  0.69208188  1.0
  C  C77  1  0.32143188  0.47734192  0.29847464  1.0
  C  C78  1  0.38930582  0.48072638  0.37370875  1.0
  C  C79  1  0.62664001  0.48640439  0.61932522  1.0
  C  C80  1  0.51927239  0.61069215  0.62628963  1.0
  C  C81  1  0.51359324  0.37335786  0.38067273  1.0
  C  C82  1  0.63736828  0.09026562  0.01247494  1.0
  C  C83  1  0.42046983  0.88459402  0.02132783  1.0
  C  C84  1  0.90973676  0.36264076  0.98753090  1.0
  C  C85  1  0.11540534  0.57953408  0.97867288  1.0
  C  C86  1  0.70117897  0.14609936  0.00963096  1.0
  C  C87  1  0.35999560  0.81839938  0.01763299  1.0
  C  C88  1  0.85390872  0.29883199  0.99038025  1.0
  C  C89  1  0.18159740  0.64000174  0.98237172  1.0
  C  C90  1  0.75156562  0.19424398  0.00339442  1.0
  C  C91  1  0.30311830  0.76006596  0.00613814  1.0
  C  C92  1  0.80576440  0.24844432  0.99662227  1.0
  C  C93  1  0.23993857  0.69688574  0.99387075  1.0
  C  C94  1  0.38325132  0.07373220  0.15627460  1.0
  C  C95  1  0.58958614  0.91117756  0.79649181  1.0
  C  C96  1  0.92626510  0.61675033  0.84372670  1.0
  C  C97  1  0.08882150  0.41041461  0.20350818  1.0
  C  C98  1  0.35099567  0.04953376  0.20155923  1.0
  C  C99  1  0.65581901  0.93561387  0.78364084  1.0
  C  C100  1  0.95046482  0.64900398  0.79843972  1.0
  C  C101  1  0.06438596  0.34418202  0.21635849  1.0
  S  S102  1  0.62547648  0.43177326  0.29250328  1.0
  S  S103  1  0.44197931  0.57111285  0.74722185  1.0
  S  S104  1  0.56822299  0.37452205  0.70749389  1.0
  S  S105  1  0.42888756  0.55802237  0.25277950  1.0
  O  O106  1  0.53071773  0.08315972  0.10527770  1.0
  O  O107  1  0.52432255  0.89962526  0.93053031  1.0
  O  O108  1  0.50309719  0.53952169  0.75079533  1.0
  O  O109  1  0.43460964  0.60249128  0.82348412  1.0
  O  O110  1  0.35396547  0.50028896  0.66469296  1.0
  O  O111  1  0.55035314  0.29356908  0.64437917  1.0
  O  O112  1  0.57639996  0.39068908  0.79052052  1.0
  O  O113  1  0.49712285  0.39666523  0.66284079  1.0
  O  O114  1  0.46047790  0.49690467  0.24920476  1.0
  O  O115  1  0.39751276  0.56539604  0.17651999  1.0
  O  O116  1  0.49970995  0.64603530  0.33531066  1.0
  O  O117  1  0.70643070  0.44964377  0.35561922  1.0
  O  O118  1  0.91932376  0.57599698  0.00032955  1.0
  O  O119  1  0.60931007  0.42359630  0.20947793  1.0
  O  O120  1  0.60333367  0.50287386  0.33715720  1.0
  O  O121  1  0.10037291  0.47567876  0.06946799  1.0
  O  O122  1  0.42401403  0.08067810  0.99967576  1.0
  O  O123  1  0.66234402  0.06478904  0.06641063  1.0
  O  O124  1  0.39067517  0.91139579  0.97145741  1.0
  O  O125  1  0.93520650  0.33766074  0.93358859  1.0
  O  O126  1  0.42052288  0.89862681  0.82378177  1.0
  O  O127  1  0.08860287  0.60932550  0.02854239  1.0
  O  O128  1  0.56178167  0.07031456  0.96062537  1.0
  O  O129  1  0.49844477  0.90985469  0.07389388  1.0
  O  O130  1  0.92968834  0.43822603  0.03938017  1.0
  O  O131  1  0.09013821  0.50155811  0.92610307  1.0
  O  O132  1  0.91683353  0.46928552  0.89472742  1.0
  O  O133  1  0.46536046  0.52555474  0.40022470  1.0
  O  O134  1  0.55447199  0.42490955  0.57096666  1.0
  O  O135  1  0.47444326  0.53463825  0.59977315  1.0
  O  O136  1  0.57508886  0.44552555  0.42903093  1.0
  O  O137  1  0.10137290  0.57947890  0.17621934  1.0
  O  O138  1  0.36444099  0.44549800  0.41126920  1.0
  O  O139  1  0.64842013  0.55225227  0.61324198  1.0
  O  O140  1  0.55450280  0.63555775  0.58873020  1.0
  O  O141  1  0.44774501  0.35157751  0.38675471  1.0
  O  O142  1  0.66012122  0.28530538  0.16911003  1.0
  O  O143  1  0.53817007  0.26174882  0.06152049  1.0
  O  O144  1  0.30079665  0.61987044  0.71346068  1.0
  O  O145  1  0.36246841  0.74140892  0.83982023  1.0
  O  O146  1  0.71469118  0.33987980  0.83088557  1.0
  O  O147  1  0.73825264  0.46182773  0.93848144  1.0
  O  O148  1  0.38012885  0.69920557  0.28654306  1.0
  O  O149  1  0.25859126  0.63753248  0.16017813  1.0
  O  O150  1  0.28493956  0.04736108  0.32671846  1.0
  O  O151  1  0.42268073  0.07880406  0.40386211  1.0
  O  O152  1  0.83882020  0.93280551  0.82441063  1.0
  O  O153  1  0.76508123  0.93020993  0.69887544  1.0
  O  O154  1  0.95263729  0.71505399  0.67327612  1.0
  O  O155  1  0.92119522  0.57731352  0.59613776  1.0
  O  O156  1  0.06719394  0.16117929  0.17558646  1.0
  O  O157  1  0.06979065  0.23491692  0.30112209  1.0
  O  O158  1  0.55526166  0.27781071  0.47062826  1.0
  O  O159  1  0.42848381  0.25122250  0.45944021  1.0
  O  O160  1  0.69996643  0.70747285  0.77528155  1.0
  O  O161  1  0.74051834  0.74817428  0.69328203  1.0
  O  O162  1  0.72218742  0.44473795  0.52937365  1.0
  O  O163  1  0.74877728  0.57151209  0.54055885  1.0
  O  O164  1  0.29252732  0.30003680  0.22471716  1.0
  O  O165  1  0.25182553  0.25948319  0.30671594  1.0
