# generated using pymatgen
data_Al2H14C25(ClO5)2
_symmetry_space_group_name_H-M   'P 1'
_cell_length_a   6.65974528
_cell_length_b   11.08008435
_cell_length_c   17.65803276
_cell_angle_alpha   89.64055774
_cell_angle_beta   81.06483803
_cell_angle_gamma   73.15751911
_symmetry_Int_Tables_number   1
_chemical_formula_structural   Al2H14C25(ClO5)2
_chemical_formula_sum   'Al2 H14 C25 Cl2 O10'
_cell_volume   1230.93580670
_cell_formula_units_Z   1
loop_
 _symmetry_equiv_pos_site_id
 _symmetry_equiv_pos_as_xyz
  1  'x, y, z'
loop_
 _atom_site_type_symbol
 _atom_site_label
 _atom_site_symmetry_multiplicity
 _atom_site_fract_x
 _atom_site_fract_y
 _atom_site_fract_z
 _atom_site_occupancy
  Al  Al0  1  0.00628677  0.48966250  0.50528370  1.0
  Al  Al1  1  0.50258987  0.49401651  0.50827588  1.0
  H  H2  1  0.32697013  0.43799212  0.41161732  1.0
  H  H3  1  0.67034490  0.63271244  0.56030609  1.0
  H  H4  1  0.33203985  0.89032247  0.55722144  1.0
  H  H5  1  0.79545857  0.85969333  0.46007197  1.0
  H  H6  1  0.20144202  0.12575628  0.54976022  1.0
  H  H7  1  0.06252150  0.62425785  0.28521461  1.0
  H  H8  1  0.13804769  0.64112454  0.14357614  1.0
  H  H9  1  0.66607965  0.45284916  0.11929632  1.0
  H  H10  1  0.38757061  0.41805788  0.89211997  1.0
  H  H11  1  0.83078485  0.54515428  0.72646789  1.0
  H  H12  1  0.72907208  0.58291785  0.86827141  1.0
  H  H13  1  0.48658324  0.16954348  0.47355524  1.0
  H  H14  1  0.65455699  0.16096470  0.38581732  1.0
  H  H15  1  0.56270531  0.02891915  0.41394233  1.0
  C  C16  1  0.79550257  0.52094299  0.36811690  1.0
  C  C17  1  0.86267699  0.26458229  0.49905028  1.0
  C  C18  1  0.20704050  0.46370350  0.64316921  1.0
  C  C19  1  0.13997718  0.72215878  0.51424529  1.0
  C  C20  1  0.92839049  0.12392271  0.49992005  1.0
  C  C21  1  0.06823682  0.86205959  0.50989922  1.0
  C  C22  1  0.80993723  0.05045173  0.47279756  1.0
  C  C23  1  0.18668011  0.93569158  0.53446893  1.0
  C  C24  1  0.88274590  0.91969812  0.47973270  1.0
  C  C25  1  0.11457526  0.06585696  0.53000392  1.0
  C  C26  1  0.82216597  0.53181602  0.28289342  1.0
  C  C27  1  0.97488344  0.58851928  0.24796216  1.0
  C  C28  1  0.01762586  0.59760745  0.16908218  1.0
  C  C29  1  0.90773593  0.54736458  0.12138113  1.0
  C  C30  1  0.75106904  0.49278522  0.15543984  1.0
  C  C31  1  0.70904216  0.48498158  0.23479131  1.0
  C  C32  1  0.95764101  0.54358735  0.04024005  1.0
  C  C33  1  0.00076107  0.52871667  0.97052414  1.0
  C  C34  1  0.05283239  0.50717151  0.88982452  1.0
  C  C35  1  0.26501421  0.44858940  0.85603068  1.0
  C  C36  1  0.31936367  0.42758927  0.77673397  1.0
  C  C37  1  0.16305192  0.46618897  0.72892448  1.0
  C  C38  1  0.95090204  0.51940875  0.76382901  1.0
  C  C39  1  0.89440963  0.54036383  0.84261610  1.0
  C  C40  1  0.61778398  0.10489900  0.43482894  1.0
  Cl  Cl41  1  0.52300400  0.40673760  0.26782427  1.0
  Cl  Cl42  1  0.58124980  0.34862557  0.74114322  1.0
  O  O43  1  0.95732346  0.51729774  0.39941053  1.0
  O  O44  1  0.66564906  0.32168866  0.50350583  1.0
  O  O45  1  0.38500620  0.47488006  0.61151601  1.0
  O  O46  1  0.99809239  0.66509760  0.51616345  1.0
  O  O47  1  0.05609096  0.45817357  0.60845416  1.0
  O  O48  1  0.33708560  0.67009260  0.51578474  1.0
  O  O49  1  0.61624898  0.51567254  0.40249044  1.0
  O  O50  1  0.00936384  0.31825496  0.49458374  1.0
  O  O51  1  0.29450223  0.44614519  0.46728351  1.0
  O  O52  1  0.71607524  0.54488307  0.54254385  1.0
