# generated using pymatgen
data_AlH20C21N2O5
_symmetry_space_group_name_H-M   'P 1'
_cell_length_a   6.67459750
_cell_length_b   22.83969257
_cell_length_c   26.27333365
_cell_angle_alpha   100.77670782
_cell_angle_beta   89.99932127
_cell_angle_gamma   89.99950521
_symmetry_Int_Tables_number   1
_chemical_formula_structural   AlH20C21N2O5
_chemical_formula_sum   'Al4 H80 C84 N8 O20'
_cell_volume   3934.61882465
_cell_formula_units_Z   4
loop_
 _symmetry_equiv_pos_site_id
 _symmetry_equiv_pos_as_xyz
  1  'x, y, z'
loop_
 _atom_site_type_symbol
 _atom_site_label
 _atom_site_symmetry_multiplicity
 _atom_site_fract_x
 _atom_site_fract_y
 _atom_site_fract_z
 _atom_site_occupancy
  Al  Al0  1  0.78042572  0.24901881  0.24930826  1.0
  Al  Al1  1  0.21665907  0.75001026  0.74958098  1.0
  Al  Al2  1  0.28042847  0.25097305  0.25069123  1.0
  Al  Al3  1  0.71666373  0.74998694  0.75041724  1.0
  H  H4  1  0.09081005  0.40475070  0.52264615  1.0
  H  H5  1  0.90352247  0.59581556  0.47711105  1.0
  H  H6  1  0.59079089  0.09524719  0.97735277  1.0
  H  H7  1  0.40351467  0.90418331  0.02288890  1.0
  H  H8  1  0.32493901  0.51057930  0.54269446  1.0
  H  H9  1  0.66916278  0.48995589  0.45697597  1.0
  H  H10  1  0.82492269  0.98941958  0.95730065  1.0
  H  H11  1  0.16914914  0.01004559  0.04302623  1.0
  H  H12  1  0.27559589  0.61915813  0.83645259  1.0
  H  H13  1  0.73735841  0.32208870  0.11699088  1.0
  H  H14  1  0.77559170  0.88084559  0.66354811  1.0
  H  H15  1  0.23735425  0.17791944  0.38301455  1.0
  H  H16  1  0.27352646  0.54844562  0.89858035  1.0
  H  H17  1  0.74500151  0.38366124  0.04747676  1.0
  H  H18  1  0.77350657  0.95155905  0.60142269  1.0
  H  H19  1  0.24501694  0.11635236  0.45253173  1.0
  H  H20  1  0.67041498  0.66874999  0.87985638  1.0
  H  H21  1  0.31395091  0.39046860  0.16911868  1.0
  H  H22  1  0.17042884  0.83124240  0.62013930  1.0
  H  H23  1  0.81395451  0.10953301  0.33088377  1.0
  H  H24  1  0.52610475  0.38409148  0.62141594  1.0
  H  H25  1  0.33579800  0.42774717  0.59977308  1.0
  H  H26  1  0.36451913  0.35158771  0.57017490  1.0
  H  H27  1  0.51089986  0.41673842  0.51263128  1.0
  H  H28  1  0.70020726  0.37427977  0.53489803  1.0
  H  H29  1  0.78455100  0.46271698  0.60591534  1.0
  H  H30  1  0.60099830  0.50514098  0.58132442  1.0
  H  H31  1  0.65918475  0.57265696  0.39989869  1.0
  H  H32  1  0.46868323  0.61617279  0.37811766  1.0
  H  H33  1  0.62985384  0.64880137  0.42942752  1.0
  H  H34  1  0.29417021  0.62604788  0.46455836  1.0
  H  H35  1  0.48339222  0.58369856  0.48697998  1.0
  H  H36  1  0.39327579  0.49512237  0.41843513  1.0
  H  H37  1  0.21012761  0.53752226  0.39367449  1.0
  H  H38  1  0.02611909  0.11591187  0.87858320  1.0
  H  H39  1  0.83580102  0.07225759  0.90022611  1.0
  H  H40  1  0.86452605  0.14841731  0.92982380  1.0
  H  H41  1  0.01089070  0.08326191  0.98736792  1.0
  H  H42  1  0.20020837  0.12571905  0.96510243  1.0
  H  H43  1  0.28454446  0.03727984  0.89408094  1.0
  H  H44  1  0.10097872  0.99486019  0.91867460  1.0
  H  H45  1  0.15918472  0.92733985  0.10010098  1.0
  H  H46  1  0.96867637  0.88382414  0.12188012  1.0
  H  H47  1  0.12985441  0.85119651  0.07057070  1.0
  H  H48  1  0.79418258  0.87394773  0.03543733  1.0
  H  H49  1  0.98341336  0.91629991  0.01301696  1.0
  H  H50  1  0.89326091  0.00487694  0.08155967  1.0
  H  H51  1  0.71012066  0.96247423  0.10632228  1.0
  H  H52  1  0.33729550  0.64809011  0.03174545  1.0
  H  H53  1  0.44069563  0.58174808  0.04650526  1.0
  H  H54  1  0.49472540  0.65165003  0.08689780  1.0
  H  H55  1  0.78562424  0.61447584  0.02794445  1.0
  H  H56  1  0.69340674  0.68256138  0.01523629  1.0
  H  H57  1  0.49853112  0.63081771  0.94047074  1.0
  H  H58  1  0.56392004  0.56057647  0.95472830  1.0
  H  H59  1  0.74907455  0.51848723  0.11878717  1.0
  H  H60  1  0.58344800  0.57271643  0.15301429  1.0
  H  H61  1  0.75325876  0.53446945  0.18754316  1.0
  H  H62  1  0.40430346  0.49242677  0.18954387  1.0
  H  H63  1  0.57504036  0.43900404  0.15747707  1.0
  H  H64  1  0.45903057  0.45766615  0.07144051  1.0
  H  H65  1  0.30278292  0.51479759  0.10140467  1.0
  H  H66  1  0.83730069  0.85191932  0.46825395  1.0
  H  H67  1  0.94071453  0.91825878  0.45349764  1.0
  H  H68  1  0.99473771  0.84835809  0.41310142  1.0
  H  H69  1  0.28563239  0.88552649  0.47205592  1.0
  H  H70  1  0.19341180  0.81743927  0.48476131  1.0
  H  H71  1  0.99852904  0.86918526  0.55953110  1.0
  H  H72  1  0.06392666  0.93942576  0.54527318  1.0
  H  H73  1  0.24908104  0.98151183  0.38121178  1.0
  H  H74  1  0.08345466  0.92728184  0.34698720  1.0
  H  H75  1  0.25325688  0.96553038  0.31245538  1.0
  H  H76  1  0.90430050  0.00757523  0.31045941  1.0
  H  H77  1  0.07503549  0.06099607  0.34252779  1.0
  H  H78  1  0.95902568  0.04233811  0.42856374  1.0
  H  H79  1  0.80278439  0.98520533  0.39860261  1.0
  H  H80  1  0.53515975  0.32541387  0.27651486  1.0
  H  H81  1  0.46673725  0.67424248  0.72464113  1.0
  H  H82  1  0.03516748  0.17457990  0.22348047  1.0
  H  H83  1  0.96672207  0.82574900  0.77535580  1.0
  C  C84  1  0.52960109  0.18483934  0.31283624  1.0
  C  C85  1  0.46711214  0.81402878  0.68596292  1.0
  C  C86  1  0.02959737  0.31515793  0.18716104  1.0
  C  C87  1  0.96711128  0.68596426  0.81403518  1.0
  C  C88  1  0.52830851  0.17278023  0.17304503  1.0
  C  C89  1  0.46634913  0.82805259  0.82630795  1.0
  C  C90  1  0.02829205  0.32721797  0.32695651  1.0
  C  C91  1  0.96634012  0.67194395  0.67369014  1.0
  C  C92  1  0.85721741  0.48443622  0.53279439  1.0
  C  C93  1  0.13684693  0.51600940  0.46687693  1.0
  C  C94  1  0.35720817  0.01556409  0.96720472  1.0
  C  C95  1  0.63684119  0.98398995  0.03312010  1.0
  C  C96  1  0.04967158  0.44772105  0.51303701  1.0
  C  C97  1  0.94452760  0.55281228  0.48669349  1.0
  C  C98  1  0.54965923  0.05227837  0.98696244  1.0
  C  C99  1  0.44452347  0.94718589  0.01330166  1.0
  C  C100  1  0.02313496  0.37293935  0.37263128  1.0
  C  C101  1  0.96775166  0.62663243  0.62769856  1.0
  C  C102  1  0.52314137  0.12705567  0.12736564  1.0
  C  C103  1  0.46775873  0.87337346  0.87230029  1.0
  C  C104  1  0.81438600  0.49510424  0.47651029  1.0
  C  C105  1  0.17964388  0.50542837  0.52320277  1.0
  C  C106  1  0.31438389  0.00489537  0.02349100  1.0
  C  C107  1  0.67962202  0.99456638  0.97678977  1.0
  C  C108  1  0.00461835  0.45697868  0.45592857  1.0
  C  C109  1  0.98925422  0.54350679  0.54378921  1.0
  C  C110  1  0.50460856  0.04301710  0.04406764  1.0
  C  C111  1  0.48925502  0.95649010  0.95621074  1.0
  C  C112  1  0.01488133  0.41193203  0.41120084  1.0
  C  C113  1  0.97782713  0.58827053  0.58870840  1.0
  C  C114  1  0.51488166  0.08806268  0.08879456  1.0
  C  C115  1  0.47781331  0.91172620  0.91128462  1.0
  C  C116  1  0.14453582  0.61487624  0.86020238  1.0
  C  C117  1  0.86424064  0.35091083  0.11300356  1.0
  C  C118  1  0.64452061  0.88512485  0.63979880  1.0
  C  C119  1  0.36423864  0.14909208  0.38700142  1.0
  C  C120  1  0.14363815  0.57622312  0.89507629  1.0
  C  C121  1  0.86824724  0.38549408  0.07491849  1.0
  C  C122  1  0.64363090  0.92377746  0.60492451  1.0
  C  C123  1  0.36825799  0.11451559  0.42509150  1.0
  C  C124  1  0.97438425  0.57062587  0.92592204  1.0
  C  C125  1  0.03067118  0.42373741  0.07041415  1.0
  C  C126  1  0.47438087  0.92937639  0.57408028  1.0
  C  C127  1  0.53067723  0.07627111  0.42959668  1.0
  C  C128  1  0.80087524  0.60562656  0.92193023  1.0
  C  C129  1  0.19447645  0.42771961  0.10558511  1.0
  C  C130  1  0.30087719  0.89437149  0.57806885  1.0
  C  C131  1  0.69447524  0.07228615  0.39441893  1.0
  C  C132  1  0.80345398  0.64267780  0.88504204  1.0
  C  C133  1  0.19019126  0.39029490  0.14209168  1.0
  C  C134  1  0.30345532  0.85731982  0.61495508  1.0
  C  C135  1  0.69019511  0.10970319  0.35791123  1.0
  C  C136  1  0.97156063  0.64758135  0.85424776  1.0
  C  C137  1  0.02846061  0.35258657  0.14633160  1.0
  C  C138  1  0.47155621  0.85241790  0.64574875  1.0
  C  C139  1  0.52846356  0.14741370  0.35367343  1.0
  C  C140  1  0.01994741  0.45748549  0.02797290  1.0
  C  C141  1  0.98868611  0.52638692  0.96001300  1.0
  C  C142  1  0.51995101  0.04252718  0.47203874  1.0
  C  C143  1  0.48868148  0.97361606  0.53999082  1.0
  C  C144  1  0.70689164  0.46781327  0.56987054  1.0
  C  C145  1  0.59239170  0.41056533  0.54774858  1.0
  C  C146  1  0.44655156  0.39241158  0.58680688  1.0
  C  C147  1  0.28754426  0.53250574  0.42976608  1.0
  C  C148  1  0.40210414  0.58975664  0.45179270  1.0
  C  C149  1  0.54816900  0.60793110  0.41276731  1.0
  C  C150  1  0.20687761  0.03218719  0.93012951  1.0
  C  C151  1  0.09239146  0.08943588  0.95224956  1.0
  C  C152  1  0.94655745  0.10759471  0.91319462  1.0
  C  C153  1  0.78753432  0.96748884  0.07022886  1.0
  C  C154  1  0.90211336  0.91024165  0.04820454  1.0
  C  C155  1  0.04817210  0.89206704  0.08723315  1.0
  C  C156  1  0.61864174  0.60616105  0.95593729  1.0
  C  C157  1  0.65460814  0.63523301  0.01295574  1.0
  C  C158  1  0.47188633  0.62899456  0.04656676  1.0
  C  C159  1  0.36527710  0.47140102  0.10612293  1.0
  C  C160  1  0.49785015  0.48083296  0.15452247  1.0
  C  C161  1  0.65448362  0.52935458  0.15352549  1.0
  C  C162  1  0.11864377  0.89383934  0.54406438  1.0
  C  C163  1  0.15461471  0.86477097  0.48704665  1.0
  C  C164  1  0.97188864  0.87101293  0.45343332  1.0
  C  C165  1  0.86527121  0.02860136  0.39388165  1.0
  C  C166  1  0.99784974  0.01916730  0.34548396  1.0
  C  C167  1  0.15449052  0.97064320  0.34647458  1.0
  N  N168  1  0.82150313  0.49800004  0.97205218  1.0
  N  N169  1  0.19061263  0.47404035  0.00649892  1.0
  N  N170  1  0.32150690  0.00200978  0.52795403  1.0
  N  N171  1  0.69060525  0.02596689  0.49350784  1.0
  N  N172  1  0.83723453  0.46390228  0.00699736  1.0
  N  N173  1  0.17422947  0.50956261  0.97257843  1.0
  N  N174  1  0.33724298  0.03611108  0.49301313  1.0
  N  N175  1  0.67421331  0.99044028  0.52742536  1.0
  O  O176  1  0.35953507  0.19149320  0.19223256  1.0
  O  O177  1  0.63707621  0.80987634  0.80822656  1.0
  O  O178  1  0.85954888  0.30851030  0.30775693  1.0
  O  O179  1  0.13706546  0.69011710  0.69177156  1.0
  O  O180  1  0.69968348  0.19679817  0.29523842  1.0
  O  O181  1  0.29577885  0.79906966  0.70066629  1.0
  O  O182  1  0.19965234  0.30320592  0.20477412  1.0
  O  O183  1  0.79578121  0.70092023  0.79932739  1.0
  O  O184  1  0.70043808  0.19022268  0.19059547  1.0
  O  O185  1  0.29621072  0.81030656  0.80743634  1.0
  O  O186  1  0.20044541  0.30976033  0.30941478  1.0
  O  O187  1  0.79619583  0.68968882  0.69256043  1.0
  O  O188  1  0.85933720  0.29900431  0.20148018  1.0
  O  O189  1  0.13621942  0.69942609  0.79688744  1.0
  O  O190  1  0.35935571  0.20097228  0.29850431  1.0
  O  O191  1  0.63621128  0.80056568  0.70311107  1.0
  O  O192  1  0.53158608  0.28632633  0.25442733  1.0
  O  O193  1  0.46666876  0.71366230  0.74619144  1.0
  O  O194  1  0.03158866  0.21366375  0.24557112  1.0
  O  O195  1  0.96667670  0.78633047  0.75380743  1.0
