# generated using pymatgen
data_ZnH24C36NO4
_symmetry_space_group_name_H-M   'P 1'
_cell_length_a   10.27625698
_cell_length_b   14.32896076
_cell_length_c   14.35723138
_cell_angle_alpha   87.09887406
_cell_angle_beta   73.62211146
_cell_angle_gamma   77.11637020
_symmetry_Int_Tables_number   1
_chemical_formula_structural   ZnH24C36NO4
_chemical_formula_sum   'Zn2 H48 C72 N2 O8'
_cell_volume   1977.05947513
_cell_formula_units_Z   2
loop_
 _symmetry_equiv_pos_site_id
 _symmetry_equiv_pos_as_xyz
  1  'x, y, z'
loop_
 _atom_site_type_symbol
 _atom_site_label
 _atom_site_symmetry_multiplicity
 _atom_site_fract_x
 _atom_site_fract_y
 _atom_site_fract_z
 _atom_site_occupancy
  Zn  Zn0  1  0.86357292  0.98233312  0.00847723  1.0
  Zn  Zn1  1  0.10886522  0.01872603  0.02652449  1.0
  H  H2  1  0.77560817  0.23594381  0.82866700  1.0
  H  H3  1  0.04460241  0.79922110  0.75850230  1.0
  H  H4  1  0.55765455  0.18231887  0.24138633  1.0
  H  H5  1  0.42264178  0.77914897  0.83706010  1.0
  H  H6  1  0.22044627  0.17889413  0.75146826  1.0
  H  H7  1  0.94167056  0.27212250  0.19683245  1.0
  H  H8  1  0.15699491  0.81581556  0.24843717  1.0
  H  H9  1  0.78194396  0.74954002  0.22233641  1.0
  H  H10  1  0.86237338  0.65705733  0.81489696  1.0
  H  H11  1  0.44813823  0.81210474  0.33289405  1.0
  H  H12  1  0.54909447  0.21802009  0.66342117  1.0
  H  H13  1  0.43653914  0.34203231  0.79713634  1.0
  H  H14  1  0.17124034  0.20027761  0.32784684  1.0
  H  H15  1  0.53541115  0.68435505  0.20270528  1.0
  H  H16  1  0.86117494  0.78514983  0.69015130  1.0
  H  H17  1  0.18025146  0.33118080  0.20269936  1.0
  H  H18  1  0.77433799  0.36204506  0.70220354  1.0
  H  H19  1  0.16844922  0.68143931  0.62447522  1.0
  H  H20  1  0.43660499  0.31544989  0.36156949  1.0
  H  H21  1  0.54846886  0.65918041  0.70366905  1.0
  H  H22  1  0.22180541  0.30408816  0.62452864  1.0
  H  H23  1  0.82344209  0.40414899  0.31853374  1.0
  H  H24  1  0.17720327  0.68543387  0.36875051  1.0
  H  H25  1  0.79604159  0.62273178  0.34584616  1.0
  H  H26  1  0.92246624  0.48700096  0.76443062  1.0
  H  H27  1  0.40057610  0.76769716  0.50512617  1.0
  H  H28  1  0.60526184  0.26547617  0.49397316  1.0
  H  H29  1  0.38561047  0.51303157  0.75642146  1.0
  H  H30  1  0.08605862  0.24135624  0.50112113  1.0
  H  H31  1  0.58714213  0.51485069  0.24605145  1.0
  H  H32  1  0.91622122  0.74459833  0.51760029  1.0
  H  H33  1  0.09642203  0.49966460  0.25468051  1.0
  H  H34  1  0.62387953  0.83751528  0.02221849  1.0
  H  H35  1  0.58679518  0.95293680  0.19845212  1.0
  H  H36  1  0.85133601  0.94935784  0.81978881  1.0
  H  H37  1  0.41699444  0.04593327  0.77652173  1.0
  H  H38  1  0.34750402  0.93122933  0.26406230  1.0
  H  H39  1  0.36504983  0.86538406  0.05880499  1.0
  H  H40  1  0.67502270  0.13529800  0.75288770  1.0
  H  H41  1  0.40846370  0.04977550  0.94802704  1.0
  H  H42  1  0.65248946  0.82113071  0.87511718  1.0
  H  H43  1  0.61835338  0.79311985  0.13986487  1.0
  H  H44  1  0.48675607  0.14801377  0.92782281  1.0
  H  H45  1  0.40442211  0.17013734  0.79542545  1.0
  H  H46  1  0.26412289  0.18987685  0.18012658  1.0
  H  H47  1  0.36857312  0.78916988  0.15978155  1.0
  H  H48  1  0.56575830  0.87844067  0.70353205  1.0
  H  H49  1  0.51234548  0.18323334  0.06261720  1.0
  C  C50  1  0.99833062  0.41883621  0.58070965  1.0
  C  C51  1  0.43640929  0.58792372  0.57601775  1.0
  C  C52  1  0.55496732  0.44402749  0.42569099  1.0
  C  C53  1  0.99622628  0.56712380  0.43870016  1.0
  C  C54  1  0.87294772  0.25106427  0.78307924  1.0
  C  C55  1  0.15533173  0.76913992  0.74551796  1.0
  C  C56  1  0.61493874  0.23172842  0.25820283  1.0
  C  C57  1  0.36775987  0.75745549  0.78986706  1.0
  C  C58  1  0.12330404  0.21921657  0.73993379  1.0
  C  C59  1  0.83100684  0.28260321  0.23338526  1.0
  C  C60  1  0.07936690  0.77223864  0.26955112  1.0
  C  C61  1  0.86807896  0.73559538  0.25487289  1.0
  C  C62  1  0.88678697  0.63771267  0.73839571  1.0
  C  C63  1  0.46668142  0.73679331  0.35255184  1.0
  C  C64  1  0.52504849  0.29362546  0.64637367  1.0
  C  C65  1  0.46242026  0.36381307  0.72136113  1.0
  C  C66  1  0.13687533  0.27533893  0.35034961  1.0
  C  C67  1  0.51814022  0.66481984  0.27874528  1.0
  C  C68  1  0.88629480  0.71056672  0.66767430  1.0
  C  C69  1  0.14095190  0.34887435  0.28006793  1.0
  C  C70  1  0.87260652  0.32175999  0.71264226  1.0
  C  C71  1  0.22518558  0.70300108  0.67046003  1.0
  C  C72  1  0.54760790  0.30612629  0.32553657  1.0
  C  C73  1  0.43789175  0.69033872  0.71514122  1.0
  C  C74  1  0.12348926  0.28914244  0.66884799  1.0
  C  C75  1  0.76424117  0.35643640  0.30098021  1.0
  C  C76  1  0.08968218  0.69968149  0.33730079  1.0
  C  C77  1  0.87688015  0.66396239  0.32372153  1.0
  C  C78  1  0.99821580  0.19939156  0.79812854  1.0
  C  C79  1  0.22534429  0.79752473  0.80629182  1.0
  C  C80  1  0.75757267  0.21886850  0.21192521  1.0
  C  C81  1  0.96940455  0.79059688  0.22668479  1.0
  C  C82  1  0.92057910  0.54315269  0.71045601  1.0
  C  C83  1  0.44070238  0.71222820  0.44875714  1.0
  C  C84  1  0.55660032  0.31983498  0.55095014  1.0
  C  C85  1  0.43382222  0.45918789  0.69886550  1.0
  C  C86  1  0.08904844  0.29804752  0.44754445  1.0
  C  C87  1  0.54677386  0.57008953  0.30265478  1.0
  C  C88  1  0.91758128  0.68796604  0.57112216  1.0
  C  C89  1  0.09413135  0.44328464  0.30861682  1.0
  C  C90  1  0.99803445  0.34199513  0.65461195  1.0
  C  C91  1  0.36731239  0.66198661  0.65429874  1.0
  C  C92  1  0.62186919  0.36867739  0.34877177  1.0
  C  C93  1  0.98833167  0.64435515  0.36543654  1.0
  C  C94  1  0.95738343  0.51597093  0.61037135  1.0
  C  C95  1  0.46583514  0.61430726  0.47726153  1.0
  C  C96  1  0.52630812  0.41775908  0.52416887  1.0
  C  C97  1  0.46533774  0.49006079  0.60029754  1.0
  C  C98  1  0.04320591  0.39526067  0.48073572  1.0
  C  C99  1  0.52394434  0.54138768  0.40151945  1.0
  C  C100  1  0.95632838  0.59068703  0.53846770  1.0
  C  C101  1  0.04315795  0.47013455  0.40899398  1.0
  C  C102  1  0.99871674  0.12531957  0.87614958  1.0
  C  C103  1  0.14739982  0.86947072  0.88691131  1.0
  C  C104  1  0.83412734  0.13794197  0.14126298  1.0
  C  C105  1  0.96235948  0.86675632  0.15097048  1.0
  C  C106  1  0.67473164  0.87455883  0.81977341  1.0
  C  C107  1  0.53435148  0.94733940  0.14247508  1.0
  C  C108  1  0.63635618  0.01776330  0.90580300  1.0
  C  C109  1  0.46961819  0.09813850  0.79482917  1.0
  C  C110  1  0.29615723  0.03306940  0.15755420  1.0
  C  C111  1  0.40554077  0.85070687  0.12228272  1.0
  C  C112  1  0.68765714  0.99030986  0.73060098  1.0
  C  C113  1  0.47769682  0.12062294  0.09850740  1.0
  C  C114  1  0.34125813  0.12459974  0.15597584  1.0
  C  C115  1  0.61855921  0.08379134  0.73785902  1.0
  C  C116  1  0.37577892  0.94193787  0.18521374  1.0
  C  C117  1  0.56375909  0.84623933  0.09854923  1.0
  C  C118  1  0.74231087  0.96060167  0.81992024  1.0
  C  C119  1  0.49373487  0.07748173  0.89823651  1.0
  C  C120  1  0.55848317  0.02926004  0.07524089  1.0
  C  C121  1  0.62880535  0.90521229  0.74104370  1.0
  N  N122  1  0.66415481  0.00468692  0.98940809  1.0
  N  N123  1  0.23152409  0.05614251  0.09503819  1.0
  O  O124  1  0.88516251  0.09826175  0.91398889  1.0
  O  O125  1  0.01580931  0.89554435  0.90067909  1.0
  O  O126  1  0.76854884  0.07620791  0.12785815  1.0
  O  O127  1  0.21649900  0.90001767  0.93525589  1.0
  O  O128  1  0.11167780  0.09495579  0.89928759  1.0
  O  O129  1  0.96117687  0.13574926  0.09897906  1.0
  O  O130  1  0.04845867  0.92108074  0.13733050  1.0
  O  O131  1  0.87111729  0.87153963  0.10492286  1.0
