# generated using pymatgen
data_Al2H15C30(O4F)3
_symmetry_space_group_name_H-M   'P 1'
_cell_length_a   3.99731468
_cell_length_b   17.24139790
_cell_length_c   17.24141524
_cell_angle_alpha   59.99999851
_cell_angle_beta   89.99996137
_cell_angle_gamma   89.99983387
_symmetry_Int_Tables_number   1
_chemical_formula_structural   Al2H15C30(O4F)3
_chemical_formula_sum   'Al2 H15 C30 O12 F3'
_cell_volume   1029.06865450
_cell_formula_units_Z   1
loop_
 _symmetry_equiv_pos_site_id
 _symmetry_equiv_pos_as_xyz
  1  'x, y, z'
loop_
 _atom_site_type_symbol
 _atom_site_label
 _atom_site_symmetry_multiplicity
 _atom_site_fract_x
 _atom_site_fract_y
 _atom_site_fract_z
 _atom_site_occupancy
  Al  Al0  1  0.99847596  0.99999878  0.50000097  1.0
  Al  Al1  1  0.99911765  0.66666641  0.16666673  1.0
  H  H2  1  0.51502924  0.41557773  0.16412412  1.0
  H  H3  1  0.27228838  0.41599248  0.47215132  1.0
  H  H4  1  0.71795256  0.41766461  0.46987856  1.0
  H  H5  1  0.72626909  0.24912682  0.55408536  1.0
  H  H6  1  0.28151302  0.24739241  0.55443060  1.0
  H  H7  1  0.51502362  0.66412413  0.42029617  1.0
  H  H8  1  0.27228913  0.97215308  0.11185595  1.0
  H  H9  1  0.71795584  0.96988053  0.11245511  1.0
  H  H10  1  0.72627578  0.05408651  0.19678723  1.0
  H  H11  1  0.28151720  0.05443092  0.19817758  1.0
  H  H12  1  0.51502887  0.92029571  0.91558038  1.0
  H  H13  1  0.27228784  0.61185497  0.91599256  1.0
  H  H14  1  0.71795202  0.61245488  0.91766514  1.0
  H  H15  1  0.72627480  0.69678735  0.74912821  1.0
  H  H16  1  0.28151621  0.69817721  0.74739222  1.0
  C  C17  1  0.49905092  0.93429558  0.63702560  1.0
  C  C18  1  0.49904992  0.13702349  0.42868033  1.0
  C  C19  1  0.49905372  0.92867853  0.43429647  1.0
  C  C20  1  0.49910024  0.52946060  0.23293283  1.0
  C  C21  1  0.49909896  0.73293331  0.23760600  1.0
  C  C22  1  0.49910171  0.73760592  0.02946119  1.0
  C  C23  1  0.49840784  0.42991995  0.28247055  1.0
  C  C24  1  0.50060290  0.23668603  0.37865363  1.0
  C  C25  1  0.49220887  0.38015133  0.37556909  1.0
  C  C26  1  0.49809101  0.28808075  0.28468462  1.0
  C  C27  1  0.50321428  0.28683176  0.42171091  1.0
  C  C28  1  0.50684387  0.38126972  0.23699338  1.0
  C  C29  1  0.49507815  0.38581589  0.46067913  1.0
  C  C30  1  0.50277891  0.27986865  0.51303966  1.0
  C  C31  1  0.49840689  0.78247066  0.28760809  1.0
  C  C32  1  0.50061515  0.87865268  0.38466006  1.0
  C  C33  1  0.49221471  0.87556989  0.24427865  1.0
  C  C34  1  0.49809399  0.78468415  0.42723399  1.0
  C  C35  1  0.50322425  0.92171065  0.29145657  1.0
  C  C36  1  0.50684022  0.73699363  0.38173574  1.0
  C  C37  1  0.49508122  0.96068061  0.15350453  1.0
  C  C38  1  0.50278599  0.01304045  0.20709127  1.0
  C  C39  1  0.49840852  0.78760766  0.92992168  1.0
  C  C40  1  0.50061214  0.88465956  0.73668838  1.0
  C  C41  1  0.49221220  0.74427773  0.88015225  1.0
  C  C42  1  0.49809512  0.92723337  0.78808345  1.0
  C  C43  1  0.50321691  0.79145653  0.78683308  1.0
  C  C44  1  0.50684616  0.88173491  0.88127178  1.0
  C  C45  1  0.49507969  0.65350378  0.88581624  1.0
  C  C46  1  0.50278466  0.70709118  0.77986896  1.0
  O  O47  1  0.73329814  0.98549461  0.41562022  1.0
  O  O48  1  0.73330084  0.91561884  0.59888582  1.0
  O  O49  1  0.73329734  0.09888522  0.48549634  1.0
  O  O50  1  0.26251245  0.91289186  0.48963546  1.0
  O  O51  1  0.26250889  0.09747025  0.41289434  1.0
  O  O52  1  0.26251182  0.98963443  0.59747377  1.0
  O  O53  1  0.73367903  0.75409583  0.06926912  1.0
  O  O54  1  0.73368005  0.56926831  0.17663520  1.0
  O  O55  1  0.73367927  0.67663542  0.25409578  1.0
  O  O56  1  0.26450702  0.68079788  0.06787309  1.0
  O  O57  1  0.26450643  0.75132941  0.18079820  1.0
  O  O58  1  0.26450999  0.56787147  0.25132933  1.0
  F  F59  1  0.49834402  0.24470796  0.23672185  1.0
  F  F60  1  0.49834684  0.73672043  0.51856820  1.0
  F  F61  1  0.49834227  0.01856787  0.74471070  1.0
