# generated using pymatgen
data_Zn3Cr3H45C69N9O25
_symmetry_space_group_name_H-M   'P 1'
_cell_length_a   14.66548087
_cell_length_b   16.92606713
_cell_length_c   16.92603653
_cell_angle_alpha   60.00042414
_cell_angle_beta   89.99990121
_cell_angle_gamma   89.99995719
_symmetry_Int_Tables_number   1
_chemical_formula_structural   Zn3Cr3H45C69N9O25
_chemical_formula_sum   'Zn3 Cr3 H45 C69 N9 O25'
_cell_volume   3638.64870406
_cell_formula_units_Z   1
loop_
 _symmetry_equiv_pos_site_id
 _symmetry_equiv_pos_as_xyz
  1  'x, y, z'
loop_
 _atom_site_type_symbol
 _atom_site_label
 _atom_site_symmetry_multiplicity
 _atom_site_fract_x
 _atom_site_fract_y
 _atom_site_fract_z
 _atom_site_occupancy
  Zn  Zn0  1  0.00000133  0.00000032  0.34279164  1.0
  Zn  Zn1  1  0.00000130  0.34278964  0.65721406  1.0
  Zn  Zn2  1  0.99999928  0.65720958  0.00000046  1.0
  Cr  Cr3  1  0.50000023  0.11450310  0.00000140  1.0
  Cr  Cr4  1  0.50000008  0.00000097  0.88549212  1.0
  Cr  Cr5  1  0.50000158  0.88549005  0.11451025  1.0
  H  H6  1  0.26992374  0.85287050  0.27215680  1.0
  H  H7  1  0.11877486  0.85872744  0.34112125  1.0
  H  H8  1  0.26992681  0.27215880  0.87497049  1.0
  H  H9  1  0.11877599  0.34112288  0.80015622  1.0
  H  H10  1  0.26992043  0.87497457  0.85286415  1.0
  H  H11  1  0.11877506  0.80015080  0.85872160  1.0
  H  H12  1  0.73007913  0.85287053  0.27216116  1.0
  H  H13  1  0.88122446  0.85872680  0.34112513  1.0
  H  H14  1  0.73007196  0.27216157  0.87496581  1.0
  H  H15  1  0.88122218  0.34112225  0.80015419  1.0
  H  H16  1  0.73007786  0.87497052  0.85287115  1.0
  H  H17  1  0.88122465  0.80015017  0.85872311  1.0
  H  H18  1  0.73007710  0.14712505  0.12503294  1.0
  H  H19  1  0.88122243  0.14127341  0.19985083  1.0
  H  H20  1  0.73008024  0.72784245  0.14712938  1.0
  H  H21  1  0.88122499  0.65887398  0.14127309  1.0
  H  H22  1  0.73007515  0.12503487  0.72783848  1.0
  H  H23  1  0.88122604  0.19984681  0.65888180  1.0
  H  H24  1  0.26992172  0.14712842  0.12503101  1.0
  H  H25  1  0.11877079  0.14127541  0.19984863  1.0
  H  H26  1  0.26992485  0.72784720  0.14712203  1.0
  H  H27  1  0.11877540  0.65887939  0.14127155  1.0
  H  H28  1  0.26992658  0.12503211  0.72784139  1.0
  H  H29  1  0.11877713  0.19984881  0.65887960  1.0
  H  H30  1  0.49999871  0.47126207  0.00000606  1.0
  H  H31  1  0.50000044  0.99999830  0.52873303  1.0
  H  H32  1  0.49999865  0.52873717  0.47126651  1.0
  H  H33  1  0.00000044  0.82749667  0.63301159  1.0
  H  H34  1  0.00000061  0.63301519  0.53948711  1.0
  H  H35  1  0.99999963  0.53948726  0.82749615  1.0
  H  H36  1  0.99999835  0.17250485  0.46051065  1.0
  H  H37  1  0.99999856  0.36698356  0.17250479  1.0
  H  H38  1  0.99999900  0.46050992  0.36698677  1.0
  H  H39  1  0.49999665  0.17645018  0.14096787  1.0
  H  H40  1  0.49999590  0.32112999  0.14752634  1.0
  H  H41  1  0.50000159  0.14096476  0.68258150  1.0
  H  H42  1  0.49999969  0.14752083  0.53134327  1.0
  H  H43  1  0.50000049  0.68257783  0.17645261  1.0
  H  H44  1  0.50000109  0.53134332  0.32113937  1.0
  H  H45  1  0.50000140  0.82354901  0.31741689  1.0
  H  H46  1  0.49999995  0.67886705  0.46865663  1.0
  H  H47  1  0.50000225  0.85903623  0.82354558  1.0
  H  H48  1  0.50000240  0.85247907  0.67886511  1.0
  H  H49  1  0.50000177  0.31741324  0.85904001  1.0
  H  H50  1  0.50000103  0.46865099  0.85248379  1.0
  C  C51  1  0.23923739  0.91784529  0.25589136  1.0
  C  C52  1  0.15644565  0.92040573  0.29435235  1.0
  C  C53  1  0.23923915  0.25589836  0.82626636  1.0
  C  C54  1  0.15644544  0.29435113  0.78524000  1.0
  C  C55  1  0.23923745  0.82626704  0.91783511  1.0
  C  C56  1  0.15644509  0.78524153  0.92040445  1.0
  C  C57  1  0.76075932  0.91784123  0.25589654  1.0
  C  C58  1  0.84356052  0.92040851  0.29435576  1.0
  C  C59  1  0.76075427  0.25589840  0.82626299  1.0
  C  C60  1  0.84355826  0.29435460  0.78523775  1.0
  C  C61  1  0.76076621  0.82626025  0.91784048  1.0
  C  C62  1  0.84355110  0.78523885  0.92041296  1.0
  C  C63  1  0.76075797  0.08215720  0.17373842  1.0
  C  C64  1  0.84355985  0.07958887  0.21476661  1.0
  C  C65  1  0.76076596  0.74410247  0.08215974  1.0
  C  C66  1  0.84355222  0.70565090  0.07958758  1.0
  C  C67  1  0.76075532  0.17373861  0.74410107  1.0
  C  C68  1  0.84355999  0.21476399  0.70564980  1.0
  C  C69  1  0.23923126  0.08216398  0.17373483  1.0
  C  C70  1  0.15644430  0.07958199  0.21476052  1.0
  C  C71  1  0.23923584  0.74410312  0.08215685  1.0
  C  C72  1  0.15644689  0.70565563  0.07958041  1.0
  C  C73  1  0.23923884  0.17373926  0.74410468  1.0
  C  C74  1  0.15644717  0.21475985  0.70565238  1.0
  C  C75  1  0.49999874  0.40681320  0.00000482  1.0
  C  C76  1  0.50000037  0.99999923  0.59318061  1.0
  C  C77  1  0.49999869  0.59317694  0.40682898  1.0
  C  C78  1  0.36913569  0.99999145  0.14939435  1.0
  C  C79  1  0.28223430  0.99999297  0.19457789  1.0
  C  C80  1  0.36913195  0.14939190  0.85061344  1.0
  C  C81  1  0.28223770  0.19457526  0.80542471  1.0
  C  C82  1  0.36913491  0.85061578  0.99998935  1.0
  C  C83  1  0.28223699  0.80542884  0.99999330  1.0
  C  C84  1  0.63086798  0.99999965  0.14939005  1.0
  C  C85  1  0.71776656  0.99999710  0.19457904  1.0
  C  C86  1  0.63086697  0.14939465  0.85060950  1.0
  C  C87  1  0.71776153  0.19458211  0.80542046  1.0
  C  C88  1  0.63086504  0.85060736  0.00000606  1.0
  C  C89  1  0.71776367  0.80542316  0.00000201  1.0
  C  C90  1  0.00000060  0.81414815  0.47863098  1.0
  C  C91  1  0.00000053  0.73828165  0.57598963  1.0
  C  C92  1  0.00000114  0.75710997  0.64764707  1.0
  C  C93  1  0.99999977  0.47863314  0.70721854  1.0
  C  C94  1  0.99999839  0.57598585  0.68573724  1.0
  C  C95  1  0.99999981  0.64765822  0.59522927  1.0
  C  C96  1  0.99999957  0.70722403  0.81414208  1.0
  C  C97  1  0.00000176  0.68572412  0.73828474  1.0
  C  C98  1  0.99999967  0.59524669  0.75709334  1.0
  C  C99  1  0.99999988  0.18585490  0.29277788  1.0
  C  C100  1  0.99999914  0.26171777  0.31427403  1.0
  C  C101  1  0.99999906  0.24289549  0.40475844  1.0
  C  C102  1  0.99999848  0.52136703  0.18585269  1.0
  C  C103  1  0.99999912  0.42401247  0.26172154  1.0
  C  C104  1  0.99999781  0.35234584  0.24289212  1.0
  C  C105  1  0.99999961  0.29278186  0.52136714  1.0
  C  C106  1  0.99999833  0.31426810  0.42401550  1.0
  C  C107  1  0.99999972  0.40476245  0.35234242  1.0
  C  C108  1  0.49999805  0.24299318  0.07904070  1.0
  C  C109  1  0.49999801  0.32381080  0.08187319  1.0
  C  C110  1  0.50000025  0.07903659  0.67796473  1.0
  C  C111  1  0.49999897  0.08186606  0.59431693  1.0
  C  C112  1  0.50000111  0.67795753  0.24300992  1.0
  C  C113  1  0.49999970  0.59432478  0.32380566  1.0
  C  C114  1  0.50000006  0.75699419  0.32204122  1.0
  C  C115  1  0.49999797  0.67619532  0.40567442  1.0
  C  C116  1  0.50000161  0.92096412  0.75700230  1.0
  C  C117  1  0.50000169  0.91813202  0.67618468  1.0
  C  C118  1  0.50000102  0.32202992  0.92096704  1.0
  C  C119  1  0.49999963  0.40567796  0.91813879  1.0
  N  N120  1  0.49999949  0.24196140  0.00000341  1.0
  N  N121  1  0.50000157  0.00000119  0.75803394  1.0
  N  N122  1  0.50000312  0.75803427  0.24196082  1.0
  N  N123  1  0.11601260  0.00000553  0.27458751  1.0
  N  N124  1  0.11601587  0.27459165  0.72541232  1.0
  N  N125  1  0.11601473  0.72541007  0.99999795  1.0
  N  N126  1  0.88398401  0.00000013  0.27459141  1.0
  N  N127  1  0.88398251  0.27459034  0.72541062  1.0
  N  N128  1  0.88398750  0.72540808  0.99999660  1.0
  O  O129  1  0.40269547  0.07768913  0.09240087  1.0
  O  O130  1  0.40269405  0.09239942  0.82991241  1.0
  O  O131  1  0.40269584  0.82991239  0.07768779  1.0
  O  O132  1  0.59730893  0.07768506  0.09240158  1.0
  O  O133  1  0.59730888  0.09239670  0.82991480  1.0
  O  O134  1  0.59730998  0.82991103  0.07768596  1.0
  O  O135  1  0.59730756  0.92230864  0.17008818  1.0
  O  O136  1  0.59730750  0.90760111  0.92231032  1.0
  O  O137  1  0.59730579  0.17008737  0.90760090  1.0
  O  O138  1  0.40268932  0.92231477  0.17008821  1.0
  O  O139  1  0.40269199  0.90759836  0.92231361  1.0
  O  O140  1  0.40269301  0.17008599  0.90760351  1.0
  O  O141  1  0.50000053  0.99999433  0.00000452  1.0
  O  O142  1  0.99999993  0.79640532  0.41485789  1.0
  O  O143  1  0.99999983  0.89600069  0.46720312  1.0
  O  O144  1  0.99999972  0.41486813  0.78872737  1.0
  O  O145  1  0.99999985  0.46720534  0.63678995  1.0
  O  O146  1  0.99999819  0.78873946  0.79639706  1.0
  O  O147  1  0.00000094  0.63680135  0.89599809  1.0
  O  O148  1  0.00000001  0.20359995  0.21126540  1.0
  O  O149  1  0.99999984  0.10400061  0.36320255  1.0
  O  O150  1  0.99999843  0.58513786  0.20359632  1.0
  O  O151  1  0.99999923  0.53279495  0.10399867  1.0
  O  O152  1  0.99999958  0.21126114  0.58514152  1.0
  O  O153  1  0.00000099  0.36319997  0.53280196  1.0
