# generated using pymatgen
data_AlH7C16Cl2O5
_symmetry_space_group_name_H-M   'P 1'
_cell_length_a   6.66864607
_cell_length_b   23.11003242
_cell_length_c   26.39414954
_cell_angle_alpha   89.99999089
_cell_angle_beta   89.99929465
_cell_angle_gamma   89.99942781
_symmetry_Int_Tables_number   1
_chemical_formula_structural   AlH7C16Cl2O5
_chemical_formula_sum   'Al4 H28 C64 Cl8 O20'
_cell_volume   4067.67171924
_cell_formula_units_Z   4
loop_
 _symmetry_equiv_pos_site_id
 _symmetry_equiv_pos_as_xyz
  1  'x, y, z'
loop_
 _atom_site_type_symbol
 _atom_site_label
 _atom_site_symmetry_multiplicity
 _atom_site_fract_x
 _atom_site_fract_y
 _atom_site_fract_z
 _atom_site_occupancy
  Al  Al0  1  0.26399393  0.75096346  0.25000114  1.0
  Al  Al1  1  0.73599721  0.24903564  0.75000062  1.0
  Al  Al2  1  0.76400100  0.74903537  0.25000148  1.0
  Al  Al3  1  0.23599314  0.25096286  0.75000142  1.0
  H  H4  1  0.27864067  0.38663289  0.65299613  1.0
  H  H5  1  0.72136547  0.61336361  0.34700222  1.0
  H  H6  1  0.72135809  0.61336882  0.15299711  1.0
  H  H7  1  0.27863455  0.38663374  0.84700428  1.0
  H  H8  1  0.77864436  0.11336937  0.84700237  1.0
  H  H9  1  0.22136478  0.88663232  0.15299409  1.0
  H  H10  1  0.22135866  0.88663749  0.34700451  1.0
  H  H11  1  0.77862499  0.11336376  0.65298930  1.0
  H  H12  1  0.70538197  0.40626828  0.53487761  1.0
  H  H13  1  0.29464666  0.59372822  0.46511620  1.0
  H  H14  1  0.29461492  0.59373128  0.03487691  1.0
  H  H15  1  0.70536723  0.40627084  0.96512296  1.0
  H  H16  1  0.20538306  0.09372902  0.96512605  1.0
  H  H17  1  0.79463507  0.90627051  0.03488633  1.0
  H  H18  1  0.79462933  0.90627134  0.46512031  1.0
  H  H19  1  0.20535432  0.09373078  0.53488790  1.0
  H  H20  1  0.29347925  0.46031775  0.58410470  1.0
  H  H21  1  0.70656737  0.53967961  0.41589290  1.0
  H  H22  1  0.70654678  0.53968613  0.08410611  1.0
  H  H23  1  0.29345036  0.46031469  0.91589679  1.0
  H  H24  1  0.79346997  0.03968749  0.91589489  1.0
  H  H25  1  0.20655117  0.96031550  0.08410309  1.0
  H  H26  1  0.20653127  0.96032109  0.41589783  1.0
  H  H27  1  0.79344188  0.03968233  0.58409825  1.0
  H  H28  1  0.50887243  0.67345301  0.24999015  1.0
  H  H29  1  0.49112321  0.32654695  0.74998926  1.0
  H  H30  1  0.00886450  0.82654922  0.24998676  1.0
  H  H31  1  0.99113114  0.17345031  0.74998848  1.0
  C  C32  1  0.51546355  0.81779074  0.32011703  1.0
  C  C33  1  0.48453659  0.18221052  0.67988473  1.0
  C  C34  1  0.48452425  0.18221051  0.82011846  1.0
  C  C35  1  0.51546539  0.81779032  0.17988558  1.0
  C  C36  1  0.01549795  0.68220973  0.17988373  1.0
  C  C37  1  0.98449019  0.31779109  0.82011804  1.0
  C  C38  1  0.98449653  0.31778764  0.67988506  1.0
  C  C39  1  0.01549761  0.68220842  0.32011632  1.0
  C  C40  1  0.16162222  0.43304149  0.58881618  1.0
  C  C41  1  0.83840192  0.56695068  0.41118369  1.0
  C  C42  1  0.83837510  0.56695893  0.08881452  1.0
  C  C43  1  0.16160704  0.43304363  0.91118573  1.0
  C  C44  1  0.66162130  0.06695508  0.91118951  1.0
  C  C45  1  0.33840733  0.93304229  0.08881453  1.0
  C  C46  1  0.33839065  0.93305005  0.41118900  1.0
  C  C47  1  0.66160349  0.06695770  0.58881163  1.0
  C  C48  1  0.15267560  0.39228907  0.62723456  1.0
  C  C49  1  0.84733354  0.60770743  0.37276796  1.0
  C  C50  1  0.84731840  0.60771048  0.12723211  1.0
  C  C51  1  0.15266975  0.39229035  0.87276852  1.0
  C  C52  1  0.65267524  0.10770666  0.87276964  1.0
  C  C53  1  0.34732340  0.89228897  0.12723212  1.0
  C  C54  1  0.34731756  0.89229674  0.37277025  1.0
  C  C55  1  0.65267959  0.10770755  0.62722848  1.0
  C  C56  1  0.98368723  0.35690615  0.63475953  1.0
  C  C57  1  0.01633240  0.64309424  0.36523579  1.0
  C  C58  1  0.01632140  0.64309945  0.13476085  1.0
  C  C59  1  0.98366825  0.35690484  0.86523788  1.0
  C  C60  1  0.48366304  0.14309589  0.86523831  1.0
  C  C61  1  0.51632360  0.85690710  0.13476383  1.0
  C  C62  1  0.51632111  0.85690795  0.36523725  1.0
  C  C63  1  0.48366703  0.14309461  0.63476451  1.0
  C  C64  1  0.82336608  0.36206002  0.60004831  1.0
  C  C65  1  0.17664606  0.63793864  0.39995156  1.0
  C  C66  1  0.17663820  0.63794300  0.10004381  1.0
  C  C67  1  0.82334994  0.36205956  0.89995530  1.0
  C  C68  1  0.32336289  0.13794037  0.89995460  1.0
  C  C69  1  0.67664325  0.86205656  0.10005171  1.0
  C  C70  1  0.67663610  0.86206086  0.39995113  1.0
  C  C71  1  0.32334604  0.13794169  0.60005063  1.0
  C  C72  1  0.83039628  0.40289422  0.56122416  1.0
  C  C73  1  0.16963085  0.59710487  0.43877420  1.0
  C  C74  1  0.16961585  0.59710577  0.06122310  1.0
  C  C75  1  0.83038279  0.40289635  0.93877828  1.0
  C  C76  1  0.33040451  0.09710052  0.93877645  1.0
  C  C77  1  0.66962562  0.90289641  0.06123024  1.0
  C  C78  1  0.66960463  0.90289595  0.43877565  1.0
  C  C79  1  0.33036402  0.09710185  0.56122763  1.0
  C  C80  1  0.99772066  0.43950187  0.55549118  1.0
  C  C81  1  0.00230647  0.56049636  0.44450604  1.0
  C  C82  1  0.00228724  0.56050245  0.05549180  1.0
  C  C83  1  0.99770540  0.43950184  0.94450883  1.0
  C  C84  1  0.49772977  0.06049667  0.94450965  1.0
  C  C85  1  0.50230636  0.93950502  0.05548984  1.0
  C  C86  1  0.50228960  0.93950542  0.44451014  1.0
  C  C87  1  0.49768055  0.06049800  0.55549011  1.0
  C  C88  1  0.99978582  0.48168225  0.51666249  1.0
  C  C89  1  0.00023682  0.51832074  0.48334041  1.0
  C  C90  1  0.00021494  0.51831991  0.01665630  1.0
  C  C91  1  0.99977470  0.48167745  0.98334546  1.0
  C  C92  1  0.49978839  0.01832320  0.98333757  1.0
  C  C93  1  0.50024024  0.98167243  0.01666533  1.0
  C  C94  1  0.50021563  0.98167845  0.48333806  1.0
  C  C95  1  0.49975752  0.01832151  0.51665953  1.0
  Cl  Cl96  1  0.61466021  0.31767962  0.60138833  1.0
  Cl  Cl97  1  0.38534743  0.68232077  0.39860737  1.0
  Cl  Cl98  1  0.38533951  0.68231820  0.10138734  1.0
  Cl  Cl99  1  0.61465163  0.31768392  0.89861102  1.0
  Cl  Cl100  1  0.11465120  0.18231493  0.89861334  1.0
  Cl  Cl101  1  0.88534444  0.81767853  0.10139487  1.0
  Cl  Cl102  1  0.88534336  0.81768327  0.39860656  1.0
  Cl  Cl103  1  0.11464778  0.18231842  0.60139899  1.0
  O  O104  1  0.68370474  0.80275416  0.19817232  1.0
  O  O105  1  0.31629240  0.19724537  0.80183248  1.0
  O  O106  1  0.31630087  0.19724624  0.69817163  1.0
  O  O107  1  0.68369477  0.80275588  0.30182938  1.0
  O  O108  1  0.18369537  0.69724752  0.30183208  1.0
  O  O109  1  0.81629427  0.30275288  0.69816931  1.0
  O  O110  1  0.81629780  0.30275590  0.80183319  1.0
  O  O111  1  0.18369634  0.69724233  0.19816933  1.0
  O  O112  1  0.34411456  0.80432024  0.30220803  1.0
  O  O113  1  0.65589158  0.19568015  0.69779070  1.0
  O  O114  1  0.65587409  0.19567971  0.80221043  1.0
  O  O115  1  0.34410355  0.80431549  0.19778944  1.0
  O  O116  1  0.84411679  0.69568093  0.19779055  1.0
  O  O117  1  0.15588035  0.30431947  0.80221084  1.0
  O  O118  1  0.15589033  0.30431818  0.69779262  1.0
  O  O119  1  0.84411430  0.69568135  0.30221028  1.0
  O  O120  1  0.51283210  0.71528116  0.25000226  1.0
  O  O121  1  0.48716804  0.28471880  0.75000064  1.0
  O  O122  1  0.01282697  0.78472106  0.25000116  1.0
  O  O123  1  0.98716117  0.21527890  0.75000061  1.0
