# generated using pymatgen
data_Zn4H16C28S4O25
_symmetry_space_group_name_H-M   'P 1'
_cell_length_a   13.02369286
_cell_length_b   13.07629127
_cell_length_c   15.55111623
_cell_angle_alpha   70.70287287
_cell_angle_beta   68.03888729
_cell_angle_gamma   85.32948727
_symmetry_Int_Tables_number   1
_chemical_formula_structural   Zn4H16C28S4O25
_chemical_formula_sum   'Zn4 H16 C28 S4 O25'
_cell_volume   2315.52142155
_cell_formula_units_Z   1
loop_
 _symmetry_equiv_pos_site_id
 _symmetry_equiv_pos_as_xyz
  1  'x, y, z'
loop_
 _atom_site_type_symbol
 _atom_site_label
 _atom_site_symmetry_multiplicity
 _atom_site_fract_x
 _atom_site_fract_y
 _atom_site_fract_z
 _atom_site_occupancy
  Zn  Zn0  1  0.44080028  0.40999524  0.44436232  1.0
  Zn  Zn1  1  0.57626215  0.40587178  0.57665591  1.0
  Zn  Zn2  1  0.37647509  0.55923099  0.58328198  1.0
  Zn  Zn3  1  0.58856226  0.62130748  0.38443407  1.0
  H  H4  1  0.23710641  0.42864329  0.88557383  1.0
  H  H5  1  0.23194251  0.48642732  0.17794805  1.0
  H  H6  1  0.10140675  0.27470866  0.17833999  1.0
  H  H7  1  0.57710060  0.48713735  0.83057137  1.0
  H  H8  1  0.97002573  0.56942585  0.06180441  1.0
  H  H9  1  0.82450069  0.52706322  0.75026013  1.0
  H  H10  1  0.37354449  0.51293719  0.23578486  1.0
  H  H11  1  0.88264509  0.44189976  0.54844139  1.0
  H  H12  1  0.11526857  0.54374584  0.39695253  1.0
  H  H13  1  0.95279491  0.60487152  0.33810371  1.0
  H  H14  1  0.46784180  0.09399353  0.47076607  1.0
  H  H15  1  0.81286937  0.63616174  0.92330651  1.0
  H  H16  1  0.09433802  0.27062708  0.71880662  1.0
  H  H17  1  0.47006184  0.86641555  0.62142051  1.0
  H  H18  1  0.51323306  0.04176318  0.66152669  1.0
  H  H19  1  0.48401869  0.95033659  0.40633085  1.0
  C  C20  1  0.78223252  0.53535428  0.42910876  1.0
  C  C21  1  0.49127010  0.48575321  0.87833389  1.0
  C  C22  1  0.29894600  0.44814952  0.90995943  1.0
  C  C23  1  0.21403801  0.48517093  0.52556803  1.0
  C  C24  1  0.59076673  0.54999450  0.13624321  1.0
  C  C25  1  0.09414784  0.46848092  0.54358654  1.0
  C  C26  1  0.05453597  0.50322969  0.47017173  1.0
  C  C27  1  0.90216341  0.54803439  0.40864387  1.0
  C  C28  1  0.94136067  0.49441347  0.47963913  1.0
  C  C29  1  0.47400617  0.89153330  0.47808254  1.0
  C  C30  1  0.47343605  0.92549373  0.55149786  1.0
  C  C31  1  0.73007468  0.60263460  0.97298204  1.0
  C  C32  1  0.49580206  0.08712566  0.59611951  1.0
  C  C33  1  0.47865619  0.03971793  0.53711203  1.0
  C  C34  1  0.49759652  0.20668720  0.56886391  1.0
  C  C35  1  0.47123413  0.77686279  0.48392157  1.0
  C  C36  1  0.44046758  0.45289354  0.74880634  1.0
  C  C37  1  0.55419868  0.53403057  0.24401351  1.0
  C  C38  1  0.26972025  0.45790819  0.00166200  1.0
  C  C39  1  0.41125061  0.46088895  0.84849185  1.0
  C  C40  1  0.69975151  0.58135851  0.07389380  1.0
  C  C41  1  0.65517628  0.58487156  0.93444959  1.0
  C  C42  1  0.54467421  0.54158276  0.99686105  1.0
  C  C43  1  0.51225492  0.53319704  0.09800785  1.0
  C  C44  1  0.46246992  0.50704963  0.96765152  1.0
  C  C45  1  0.34850428  0.48852689  0.03346609  1.0
  C  C46  1  0.31839890  0.49677344  0.12885168  1.0
  C  C47  1  0.39782029  0.51319135  0.16071227  1.0
  S  S48  1  0.00587119  0.40576161  0.66783843  1.0
  S  S49  1  0.12623017  0.43306968  0.07402491  1.0
  S  S50  1  0.79879150  0.60151553  0.12247483  1.0
  S  S51  1  0.70783473  0.64248777  0.80185117  1.0
  O  O52  1  0.49706658  0.49979875  0.49591409  1.0
  O  O53  1  0.53982915  0.43410964  0.70239243  1.0
  O  O54  1  0.56530272  0.61595052  0.26684445  1.0
  O  O55  1  0.36105982  0.46730965  0.71693148  1.0
  O  O56  1  0.51317329  0.44018562  0.30203386  1.0
  O  O57  1  0.96115983  0.48811826  0.71313346  1.0
  O  O58  1  0.93363628  0.32400536  0.67380503  1.0
  O  O59  1  0.09352188  0.34655156  0.71637517  1.0
  O  O60  1  0.08162011  0.52992309  0.09777096  1.0
  O  O61  1  0.07408192  0.38310855  0.03018284  1.0
  O  O62  1  0.12214008  0.34575468  0.17700962  1.0
  O  O63  1  0.45296334  0.25695634  0.50663717  1.0
  O  O64  1  0.79520609  0.71071339  0.12496524  1.0
  O  O65  1  0.78549140  0.51138886  0.21074690  1.0
  O  O66  1  0.90827316  0.58951746  0.03641056  1.0
  O  O67  1  0.61711834  0.68727992  0.77243244  1.0
  O  O68  1  0.80578054  0.70857320  0.77300212  1.0
  O  O69  1  0.74404945  0.54056784  0.76401316  1.0
  O  O70  1  0.52344141  0.75736924  0.40357175  1.0
  O  O71  1  0.73187073  0.44902564  0.49640529  1.0
  O  O72  1  0.23402041  0.53905101  0.57255035  1.0
  O  O73  1  0.74132327  0.61293707  0.37850310  1.0
  O  O74  1  0.28237149  0.44352838  0.46473436  1.0
  O  O75  1  0.54317045  0.25031696  0.60906803  1.0
  O  O76  1  0.41664451  0.70721059  0.56688639  1.0
