# generated using pymatgen
data_ZnH15C21N3O6F
_symmetry_space_group_name_H-M   'P 1'
_cell_length_a   14.68369085
_cell_length_b   16.06610437
_cell_length_c   19.20375353
_cell_angle_alpha   90.01496167
_cell_angle_beta   90.00506935
_cell_angle_gamma   89.99957266
_symmetry_Int_Tables_number   1
_chemical_formula_structural   ZnH15C21N3O6F
_chemical_formula_sum   'Zn2 H30 C42 N6 O12 F2'
_cell_volume   4530.35174873
_cell_formula_units_Z   2
loop_
 _symmetry_equiv_pos_site_id
 _symmetry_equiv_pos_as_xyz
  1  'x, y, z'
loop_
 _atom_site_type_symbol
 _atom_site_label
 _atom_site_symmetry_multiplicity
 _atom_site_fract_x
 _atom_site_fract_y
 _atom_site_fract_z
 _atom_site_occupancy
  Zn  Zn0  1  0.59534414  0.50119129  0.50026695  1.0
  Zn  Zn1  1  0.40464617  0.50118816  0.50025594  1.0
  H  H2  1  0.64586998  0.48207197  0.72063209  1.0
  H  H3  1  0.92035748  0.39665866  0.43113614  1.0
  H  H4  1  0.07923099  0.62010156  0.55645375  1.0
  H  H5  1  0.92076464  0.62010358  0.55644647  1.0
  H  H6  1  0.07936696  0.62436290  0.46445087  1.0
  H  H7  1  0.92062480  0.62436554  0.46444410  1.0
  H  H8  1  0.64655667  0.45757381  0.84988151  1.0
  H  H9  1  0.35343419  0.45757570  0.84986578  1.0
  H  H10  1  0.64652617  0.45946498  0.15035624  1.0
  H  H11  1  0.35345204  0.45947060  0.15034103  1.0
  H  H12  1  0.64587531  0.48437330  0.27953495  1.0
  H  H13  1  0.35411567  0.48206825  0.72061588  1.0
  H  H14  1  0.35411011  0.48438328  0.27952083  1.0
  H  H15  1  0.58599864  0.92821090  0.40780238  1.0
  H  H16  1  0.41154871  0.92813342  0.40916356  1.0
  H  H17  1  0.58566255  0.07441701  0.40745664  1.0
  H  H18  1  0.41217694  0.07434943  0.40865591  1.0
  H  H19  1  0.35274837  0.93211278  0.48956757  1.0
  H  H20  1  0.64698967  0.93202051  0.48726401  1.0
  H  H21  1  0.56143669  0.07416057  0.60180425  1.0
  H  H22  1  0.44112707  0.07409440  0.60266642  1.0
  H  H23  1  0.13746799  0.54226210  0.69902438  1.0
  H  H24  1  0.56156235  0.92834660  0.60219631  1.0
  H  H25  1  0.86247985  0.54225802  0.69900406  1.0
  H  H26  1  0.44123775  0.92831407  0.60313764  1.0
  H  H27  1  0.92463353  0.37924724  0.55398636  1.0
  H  H28  1  0.07534842  0.37924153  0.55398972  1.0
  H  H29  1  0.07944210  0.49635713  0.39231436  1.0
  H  H30  1  0.92054194  0.49635418  0.39230602  1.0
  H  H31  1  0.07963085  0.39665974  0.43113928  1.0
  C  C32  1  0.49999008  0.33890222  0.49969088  1.0
  C  C33  1  0.41500133  0.04866273  0.46172968  1.0
  C  C34  1  0.41437308  0.95315725  0.46236818  1.0
  C  C35  1  0.58464968  0.95315822  0.46106673  1.0
  C  C36  1  0.50000151  0.75347082  0.50015284  1.0
  C  C37  1  0.50001541  0.08302015  0.50005520  1.0
  C  C38  1  0.50001709  0.91936222  0.49988032  1.0
  C  C39  1  0.49999334  0.49580814  0.63604120  1.0
  C  C40  1  0.50102366  0.95293866  0.57561843  1.0
  C  C41  1  0.50096888  0.04916886  0.57563654  1.0
  C  C42  1  0.50001101  0.82909085  0.50000491  1.0
  C  C43  1  0.49999382  0.44133687  0.93290805  1.0
  C  C44  1  0.50000513  0.17329576  0.49957129  1.0
  C  C45  1  0.50000100  0.24884050  0.49948638  1.0
  C  C46  1  0.05377817  0.44304136  0.56604446  1.0
  C  C47  1  0.94620843  0.44304617  0.56604212  1.0
  C  C48  1  0.05268964  0.46011377  0.43622383  1.0
  C  C49  1  0.94729715  0.46011421  0.43622002  1.0
  C  C50  1  0.08777651  0.49947013  0.50509155  1.0
  C  C51  1  0.91221160  0.49947289  0.50508209  1.0
  C  C52  1  0.94746043  0.59024843  0.50952817  1.0
  C  C53  1  0.05253149  0.59024675  0.50953302  1.0
  C  C54  1  0.58279239  0.46544806  0.17894416  1.0
  C  C55  1  0.81345163  0.49992193  0.50395480  1.0
  C  C56  1  0.18653908  0.49991666  0.50396719  1.0
  C  C57  1  0.49999474  0.66336437  0.50023994  1.0
  C  C58  1  0.49999152  0.49657819  0.36439741  1.0
  C  C59  1  0.58251148  0.47760532  0.74991527  1.0
  C  C60  1  0.41747668  0.47760452  0.74990413  1.0
  C  C61  1  0.58282251  0.46394864  0.82134725  1.0
  C  C62  1  0.41716797  0.46394971  0.82133766  1.0
  C  C63  1  0.49999517  0.45659010  0.85768931  1.0
  C  C64  1  0.49999551  0.48430018  0.71359331  1.0
  C  C65  1  0.41718825  0.46545224  0.17893509  1.0
  C  C66  1  0.49999108  0.44201803  0.06744596  1.0
  C  C67  1  0.09656897  0.45831425  0.63746577  1.0
  C  C68  1  0.90342470  0.45832085  0.63745881  1.0
  C  C69  1  0.58249865  0.47915147  0.25038321  1.0
  C  C70  1  0.41748360  0.47915689  0.25037468  1.0
  C  C71  1  0.49999344  0.48552993  0.28675590  1.0
  C  C72  1  0.49998903  0.45778100  0.14260928  1.0
  C  C73  1  0.58407116  0.04865814  0.46053338  1.0
  N  N74  1  0.41927613  0.43055328  0.96596023  1.0
  N  N75  1  0.58070966  0.43055535  0.96597228  1.0
  N  N76  1  0.41927730  0.43089756  0.03446261  1.0
  N  N77  1  0.58070470  0.43090025  0.03447466  1.0
  N  N78  1  0.73467908  0.50076203  0.50181957  1.0
  N  N79  1  0.26531071  0.50076134  0.50182251  1.0
  O  O80  1  0.57769329  0.37413369  0.49978714  1.0
  O  O81  1  0.10871454  0.54025937  0.65291779  1.0
  O  O82  1  0.88250023  0.40224600  0.67667737  1.0
  O  O83  1  0.89122966  0.54025990  0.65290006  1.0
  O  O84  1  0.42229230  0.37412222  0.49972428  1.0
  O  O85  1  0.57735918  0.49976849  0.60623154  1.0
  O  O86  1  0.42263991  0.49969355  0.60621662  1.0
  O  O87  1  0.57772862  0.62819604  0.50022789  1.0
  O  O88  1  0.42227043  0.62820017  0.50027803  1.0
  O  O89  1  0.57737900  0.50019305  0.39423392  1.0
  O  O90  1  0.42261886  0.50024758  0.39422471  1.0
  O  O91  1  0.11752975  0.40224347  0.67667386  1.0
  F  F92  1  0.33595084  0.07854953  0.49574185  1.0
  F  F93  1  0.66393365  0.07846453  0.49350406  1.0
