# generated using pymatgen
data_Cu2H15C24I2(NO2)3
_symmetry_space_group_name_H-M   'P 1'
_cell_length_a   7.85720282
_cell_length_b   16.53462363
_cell_length_c   17.65800000
_cell_angle_alpha   112.75676296
_cell_angle_beta   90.00000000
_cell_angle_gamma   103.74526411
_symmetry_Int_Tables_number   1
_chemical_formula_structural   Cu2H15C24I2(NO2)3
_chemical_formula_sum   'Cu4 H30 C48 I4 N6 O12'
_cell_volume   2044.04533172
_cell_formula_units_Z   2
loop_
 _symmetry_equiv_pos_site_id
 _symmetry_equiv_pos_as_xyz
  1  'x, y, z'
loop_
 _atom_site_type_symbol
 _atom_site_label
 _atom_site_symmetry_multiplicity
 _atom_site_fract_x
 _atom_site_fract_y
 _atom_site_fract_z
 _atom_site_occupancy
  Cu  Cu0  1  0.94509028  0.97141480  0.72161861  1.0
  Cu  Cu1  1  0.97269378  0.02858751  0.27853231  1.0
  Cu  Cu2  1  0.08908859  0.03931742  0.86687117  1.0
  Cu  Cu3  1  0.04867583  0.96064281  0.13325544  1.0
  H  H4  1  0.80918673  0.38872828  0.56866208  1.0
  H  H5  1  0.41987767  0.61131476  0.43161458  1.0
  H  H6  1  0.57695320  0.14866634  0.34926934  1.0
  H  H7  1  0.42612637  0.85141267  0.65070208  1.0
  H  H8  1  0.57375209  0.41290722  0.35952665  1.0
  H  H9  1  0.16002639  0.58710731  0.64067456  1.0
  H  H10  1  0.03171737  0.71109174  0.47205719  1.0
  H  H11  1  0.32101677  0.28884066  0.52775522  1.0
  H  H12  1  0.08421015  0.87108190  0.57429212  1.0
  H  H13  1  0.21332563  0.12884167  0.42550068  1.0
  H  H14  1  0.73468301  0.79499786  0.72605407  1.0
  H  H15  1  0.93977035  0.20505060  0.27388873  1.0
  H  H16  1  0.67794477  0.63116997  0.63327345  1.0
  H  H17  1  0.04671061  0.36883641  0.36676680  1.0
  H  H18  1  0.98903786  0.15975463  0.54683587  1.0
  H  H19  1  0.82731866  0.84011872  0.45315053  1.0
  H  H20  1  0.10468572  0.08458149  0.62711612  1.0
  H  H21  1  0.01860154  0.91537874  0.37308581  1.0
  H  H22  1  0.60672935  0.99357713  0.68783270  1.0
  H  H23  1  0.61188002  0.00623241  0.31190067  1.0
  H  H24  1  0.46925996  0.06172003  0.60807206  1.0
  H  H25  1  0.40597140  0.93820897  0.39160831  1.0
  H  H26  1  0.19567531  0.17959559  0.17958087  1.0
  H  H27  1  0.01477791  0.82065244  0.82053219  1.0
  H  H28  1  0.01678772  0.10556481  0.04260755  1.0
  H  H29  1  0.91001390  0.89458004  0.95756385  1.0
  H  H30  1  0.46324657  0.08604898  0.91771958  1.0
  H  H31  1  0.37609958  0.91402325  0.08230035  1.0
  H  H32  1  0.66121280  0.15866318  0.05025580  1.0
  H  H33  1  0.50131529  0.84143348  0.94970785  1.0
  C  C34  1  0.69642229  0.41038086  0.46858269  1.0
  C  C35  1  0.28535352  0.58962485  0.53162721  1.0
  C  C36  1  0.74193400  0.35747933  0.50643500  1.0
  C  C37  1  0.38360221  0.64257592  0.49377586  1.0
  C  C38  1  0.69987268  0.26387774  0.46254507  1.0
  C  C39  1  0.43459963  0.73619855  0.53754939  1.0
  C  C40  1  0.61231313  0.22202107  0.38329137  1.0
  C  C41  1  0.38861165  0.77804505  0.61675183  1.0
  C  C42  1  0.56831663  0.27768313  0.34837745  1.0
  C  C43  1  0.28916693  0.72234565  0.65167941  1.0
  C  C44  1  0.60928121  0.37171302  0.38914411  1.0
  C  C45  1  0.23656131  0.62828115  0.61100498  1.0
  C  C46  1  0.82420148  0.56325689  0.48402458  1.0
  C  C47  1  0.26071570  0.43669858  0.51608275  1.0
  C  C48  1  0.63495978  0.16079993  0.52839129  1.0
  C  C49  1  0.47230496  0.83901029  0.47137177  1.0
  C  C50  1  0.56369642  0.22356322  0.20322644  1.0
  C  C51  1  0.33873631  0.77660675  0.79679095  1.0
  C  C52  1  0.84984772  0.65823637  0.54437633  1.0
  C  C53  1  0.19169813  0.34174015  0.45559874  1.0
  C  C54  1  0.96311560  0.72713637  0.52745249  1.0
  C  C55  1  0.23624663  0.27281096  0.47239648  1.0
  C  C56  1  0.99136785  0.81620449  0.58389674  1.0
  C  C57  1  0.17537302  0.18375234  0.41595001  1.0
  C  C58  1  0.79961244  0.77332764  0.66965351  1.0
  C  C59  1  0.02636432  0.22668961  0.33028591  1.0
  C  C60  1  0.76787498  0.68211530  0.61750226  1.0
  C  C61  1  0.08580791  0.31789244  0.38247619  1.0
  C  C62  1  0.71855800  0.11649495  0.57112654  1.0
  C  C63  1  0.60029434  0.88337297  0.42869027  1.0
  C  C64  1  0.89960887  0.12256649  0.57630567  1.0
  C  C65  1  0.77527356  0.87733468  0.42363532  1.0
  C  C66  1  0.96454379  0.08086254  0.62065581  1.0
  C  C67  1  0.88214456  0.91907529  0.37939076  1.0
  C  C68  1  0.68603044  0.02904772  0.65394648  1.0
  C  C69  1  0.65559005  0.97083649  0.34589152  1.0
  C  C70  1  0.61041028  0.06779497  0.61035685  1.0
  C  C71  1  0.54099620  0.93206887  0.38940808  1.0
  C  C72  1  0.44412072  0.17685066  0.12534221  1.0
  C  C73  1  0.26593896  0.82330301  0.87470439  1.0
  C  C74  1  0.26050243  0.16063770  0.12318303  1.0
  C  C75  1  0.09858876  0.83956417  0.87691105  1.0
  C  C76  1  0.16016794  0.11964509  0.04688359  1.0
  C  C77  1  0.03928620  0.88049297  0.95324740  1.0
  C  C78  1  0.40987265  0.10810203  0.97726934  1.0
  C  C79  1  0.30062689  0.89200481  0.02277446  1.0
  C  C80  1  0.51925192  0.14877562  0.05069470  1.0
  C  C81  1  0.36925134  0.85134683  0.94931115  1.0
  I  I82  1  0.75845179  0.98899140  0.85407577  1.0
  I  I83  1  0.76879176  0.01127156  0.14595945  1.0
  I  I84  1  0.29086888  0.04143991  0.75407557  1.0
  I  I85  1  0.24801835  0.95814699  0.24587165  1.0
  N  N86  1  0.90973765  0.83984450  0.65371040  1.0
  N  N87  1  0.06987199  0.16013067  0.34619736  1.0
  N  N88  1  0.86051197  0.03518374  0.65990839  1.0
  N  N89  1  0.82397448  0.96475069  0.34007579  1.0
  N  N90  1  0.23286672  0.09435162  0.97475792  1.0
  N  N91  1  0.13735939  0.90573553  0.02533481  1.0
  O  O92  1  0.73390174  0.50325685  0.51621931  1.0
  O  O93  1  0.23033288  0.49674003  0.48396078  1.0
  O  O94  1  0.75894978  0.21294531  0.49945357  1.0
  O  O95  1  0.54439984  0.78716492  0.50060448  1.0
  O  O96  1  0.46994654  0.23667898  0.27107939  1.0
  O  O97  1  0.23164304  0.76333691  0.72894505  1.0
  O  O98  1  0.87690112  0.54004112  0.41597518  1.0
  O  O99  1  0.33634604  0.45982137  0.58414830  1.0
  O  O100  1  0.47742966  0.15451389  0.52101588  1.0
  O  O101  1  0.32086363  0.84502618  0.47849869  1.0
  O  O102  1  0.72359848  0.24811141  0.20800774  1.0
  O  O103  1  0.47416038  0.75212915  0.79196669  1.0
