# generated using pymatgen
data_ZnH2C10NClO4
_symmetry_space_group_name_H-M   'P 1'
_cell_length_a   12.72296264
_cell_length_b   14.01005717
_cell_length_c   14.00986447
_cell_angle_alpha   89.36583645
_cell_angle_beta   87.35799848
_cell_angle_gamma   87.35599838
_symmetry_Int_Tables_number   1
_chemical_formula_structural   ZnH2C10NClO4
_chemical_formula_sum   'Zn2 H4 C20 N2 Cl2 O8'
_cell_volume   2491.84025395
_cell_formula_units_Z   2
loop_
 _symmetry_equiv_pos_site_id
 _symmetry_equiv_pos_as_xyz
  1  'x, y, z'
loop_
 _atom_site_type_symbol
 _atom_site_label
 _atom_site_symmetry_multiplicity
 _atom_site_fract_x
 _atom_site_fract_y
 _atom_site_fract_z
 _atom_site_occupancy
  Zn  Zn0  1  0.39186062  0.49272886  0.49273620  1.0
  Zn  Zn1  1  0.60813302  0.50726373  0.50727176  1.0
  H  H2  1  0.37961308  0.49354576  0.01561383  1.0
  H  H3  1  0.62039204  0.50643907  0.98439287  1.0
  H  H4  1  0.62038898  0.98439946  0.50644953  1.0
  H  H5  1  0.37962289  0.01560044  0.49354518  1.0
  C  C6  1  0.46657001  0.68495920  0.49789559  1.0
  C  C7  1  0.14239671  0.47252571  0.47250940  1.0
  C  C8  1  0.85759891  0.52749476  0.52748453  1.0
  C  C9  1  0.54318186  0.50256145  0.21190377  1.0
  C  C10  1  0.45679939  0.49744888  0.78808823  1.0
  C  C11  1  0.45682155  0.78807926  0.49742869  1.0
  C  C12  1  0.54319023  0.21189562  0.50256206  1.0
  C  C13  1  0.53344668  0.31504076  0.50210528  1.0
  C  C14  1  0.54490608  0.50247287  0.02454852  1.0
  C  C15  1  0.45511086  0.49751422  0.97546677  1.0
  C  C16  1  0.45510994  0.97547605  0.49751545  1.0
  C  C17  1  0.54491281  0.02452753  0.50248432  1.0
  C  C18  1  0.45542091  0.49736785  0.87530206  1.0
  C  C19  1  0.53343893  0.50207723  0.31506120  1.0
  C  C20  1  0.54457919  0.50263337  0.12470043  1.0
  C  C21  1  0.54457821  0.12470331  0.50263920  1.0
  C  C22  1  0.45543708  0.87529234  0.49735538  1.0
  C  C23  1  0.03138689  0.47076194  0.47073742  1.0
  C  C24  1  0.96858560  0.52927045  0.52923622  1.0
  C  C25  1  0.46653936  0.49791378  0.68496475  1.0
  N  N26  1  0.23349915  0.47377328  0.47375988  1.0
  N  N27  1  0.76649765  0.52624436  0.52624687  1.0
  Cl  Cl28  1  0.01845840  0.60649349  0.60645085  1.0
  Cl  Cl29  1  0.98152899  0.39354263  0.39353335  1.0
  O  O30  1  0.38229549  0.63966299  0.49364274  1.0
  O  O31  1  0.43977054  0.35088367  0.49738784  1.0
  O  O32  1  0.43978488  0.49734960  0.35088628  1.0
  O  O33  1  0.56020755  0.50263582  0.64911612  1.0
  O  O34  1  0.56024806  0.64911202  0.50261726  1.0
  O  O35  1  0.61771945  0.36032837  0.50636262  1.0
  O  O36  1  0.61771097  0.50632178  0.36032584  1.0
  O  O37  1  0.38225758  0.49365410  0.63967372  1.0
