# generated using pymatgen
data_Zn4H30C30ClO13
_symmetry_space_group_name_H-M   'P 1'
_cell_length_a   18.41946167
_cell_length_b   18.52741564
_cell_length_c   18.57356189
_cell_angle_alpha   90.85954778
_cell_angle_beta   119.49675621
_cell_angle_gamma   119.35449299
_symmetry_Int_Tables_number   1
_chemical_formula_structural   Zn4H30C30ClO13
_chemical_formula_sum   'Zn8 H60 C60 Cl2 O26'
_cell_volume   4525.68237060
_cell_formula_units_Z   2
loop_
 _symmetry_equiv_pos_site_id
 _symmetry_equiv_pos_as_xyz
  1  'x, y, z'
loop_
 _atom_site_type_symbol
 _atom_site_label
 _atom_site_symmetry_multiplicity
 _atom_site_fract_x
 _atom_site_fract_y
 _atom_site_fract_z
 _atom_site_occupancy
  Zn  Zn0  1  0.08516450  0.95471917  0.54484229  1.0
  Zn  Zn1  1  0.08855716  0.12853559  0.54051373  1.0
  Zn  Zn2  1  0.91518916  0.95300922  0.54508484  1.0
  Zn  Zn3  1  0.91160887  0.95643392  0.37175958  1.0
  Zn  Zn4  1  0.90666566  0.53979036  0.95672665  1.0
  Zn  Zn5  1  0.08470355  0.54228527  0.95901213  1.0
  Zn  Zn6  1  0.91912847  0.37393891  0.96035663  1.0
  Zn  Zn7  1  0.08537991  0.54474804  0.13289033  1.0
  H  H8  1  0.07062921  0.79945964  0.72382204  1.0
  H  H9  1  0.07496778  0.34338292  0.80895937  1.0
  H  H10  1  0.88936911  0.09370379  0.70144917  1.0
  H  H11  1  0.03736477  0.26278780  0.68988106  1.0
  H  H12  1  0.57439297  0.31909600  0.83397867  1.0
  H  H13  1  0.41983024  0.25404387  0.67141273  1.0
  H  H14  1  0.27616771  0.05627034  0.33728227  1.0
  H  H15  1  0.89976007  0.71324558  0.80724754  1.0
  H  H16  1  0.03306521  0.68519431  0.77265099  1.0
  H  H17  1  0.89364859  0.79737664  0.70510737  1.0
  H  H18  1  0.69610287  0.59120582  0.31326084  1.0
  H  H19  1  0.41111480  0.67508268  0.31113764  1.0
  H  H20  1  0.75448635  0.70603740  0.35192139  1.0
  H  H21  1  0.63231714  0.63806838  0.25128386  1.0
  H  H22  1  0.76866764  0.72315953  0.22473320  1.0
  H  H23  1  0.70619882  0.60863876  0.18178000  1.0
  H  H24  1  0.84709455  0.61294407  0.30645190  1.0
  H  H25  1  0.90080884  0.71921020  0.36713373  1.0
  H  H26  1  0.60812993  0.04919495  0.27967732  1.0
  H  H27  1  0.47648944  0.96206213  0.21150291  1.0
  H  H28  1  0.52924981  0.02876428  0.31628761  1.0
  H  H29  1  0.50573776  0.88598667  0.32621848  1.0
  H  H30  1  0.41456559  0.70449289  0.14979629  1.0
  H  H31  1  0.63665196  0.97086605  0.38916850  1.0
  H  H32  1  0.64075396  0.93002831  0.25973876  1.0
  H  H33  1  0.51145165  0.84283931  0.20312866  1.0
  H  H34  1  0.66875646  0.10564410  0.11160108  1.0
  H  H35  1  0.65437573  0.00319364  0.10318555  1.0
  H  H36  1  0.61216993  0.03378721  0.15785795  1.0
  H  H37  1  0.77859870  0.05518730  0.26780694  1.0
  H  H38  1  0.79296631  0.15722265  0.27684802  1.0
  H  H39  1  0.85632247  0.18381755  0.18050661  1.0
  H  H40  1  0.84655510  0.08377200  0.17568651  1.0
  H  H41  1  0.59456530  0.73042545  0.37459267  1.0
  H  H42  1  0.64610205  0.16939146  0.60487486  1.0
  H  H43  1  0.57963418  0.06321500  0.61063474  1.0
  H  H44  1  0.52099806  0.08593291  0.51341133  1.0
  H  H45  1  0.44999918  0.08703905  0.59803933  1.0
  H  H46  1  0.51734279  0.19274244  0.59408275  1.0
  H  H47  1  0.67276594  0.23406551  0.74588161  1.0
  H  H48  1  0.59897010  0.13068530  0.74964235  1.0
  H  H49  1  0.27856814  0.93048555  0.75736271  1.0
  H  H50  1  0.40476902  0.96192239  0.83486085  1.0
  H  H51  1  0.34147079  0.98250918  0.87098395  1.0
  H  H52  1  0.09282563  0.39944034  0.31296237  1.0
  H  H53  1  0.46585896  0.12249896  0.86719082  1.0
  H  H54  1  0.33972935  0.08910858  0.78946267  1.0
  H  H55  1  0.33773458  0.01855526  0.67102362  1.0
  H  H56  1  0.46661051  0.05754901  0.74974925  1.0
  H  H57  1  0.69999756  0.41022474  0.02231208  1.0
  H  H58  1  0.64473948  0.41993991  0.07456389  1.0
  H  H59  1  0.60525730  0.43120642  0.96925103  1.0
  H  H60  1  0.72345643  0.58029512  0.08497306  1.0
  H  H61  1  0.77800673  0.56987061  0.03337408  1.0
  H  H62  1  0.87835048  0.53283876  0.15667130  1.0
  H  H63  1  0.96842148  0.23678077  0.15190252  1.0
  H  H64  1  0.82303354  0.54028911  0.20834291  1.0
  H  H65  1  0.11325569  0.29662015  0.39463824  1.0
  H  H66  1  0.87746003  0.19142586  0.78160856  1.0
  H  H67  1  0.14410561  0.98110318  0.36591056  1.0
  C  C68  1  0.98514473  0.13418954  0.36073188  1.0
  C  C69  1  0.98936893  0.68025458  0.79831558  1.0
  C  C70  1  0.94763000  0.77939835  0.72728617  1.0
  C  C71  1  0.00820839  0.86558261  0.64503065  1.0
  C  C72  1  0.01254405  0.81208310  0.70308625  1.0
  C  C73  1  0.44610479  0.70267169  0.27610304  1.0
  C  C74  1  0.38431677  0.68409189  0.18906759  1.0
  C  C75  1  0.55630598  0.75411405  0.32572424  1.0
  C  C76  1  0.61589135  0.83008313  0.31862258  1.0
  C  C77  1  0.04942792  0.32935055  0.27730412  1.0
  C  C78  1  0.00693346  0.30450457  0.19015307  1.0
  C  C79  1  0.15585943  0.84512266  0.21468078  1.0
  C  C80  1  0.04553169  0.27025771  0.32769670  1.0
  C  C81  1  0.96638792  0.18590986  0.30106853  1.0
  C  C82  1  0.93805087  0.22147532  0.77135988  1.0
  C  C83  1  0.27432856  0.13686536  0.62951873  1.0
  C  C84  1  0.00986468  0.30883739  0.81292381  1.0
  C  C85  1  0.93697313  0.16461156  0.71588095  1.0
  C  C86  1  0.99031341  0.19324502  0.68035232  1.0
  C  C87  1  0.55530374  0.21765560  0.75691510  1.0
  C  C88  1  0.61184455  0.29703645  0.81853821  1.0
  C  C89  1  0.44480406  0.15923764  0.71739111  1.0
  C  C90  1  0.07837129  0.79844700  0.23015421  1.0
  C  C91  1  0.38524923  0.18802124  0.67523873  1.0
  C  C92  1  0.27279812  0.63425958  0.13880210  1.0
  C  C93  1  0.72390539  0.35838004  0.87035438  1.0
  C  C94  1  0.98708319  0.62574638  0.85546857  1.0
  C  C95  1  0.72734778  0.86945394  0.37039952  1.0
  C  C96  1  0.00761944  0.36460915  0.13908467  1.0
  C  C97  1  0.00541917  0.36388669  0.86661319  1.0
  C  C98  1  0.00096665  0.64408447  0.13730101  1.0
  C  C99  1  0.99262386  0.13393217  0.62900379  1.0
  C  C100  1  0.00094568  0.86238088  0.36399417  1.0
  C  C101  1  0.07561204  0.85010212  0.28621647  1.0
  C  C102  1  0.14716148  0.94283366  0.32365716  1.0
  C  C103  1  0.22081773  0.98517242  0.30834328  1.0
  C  C104  1  0.22522549  0.93606302  0.25369219  1.0
  C  C105  1  0.86020040  0.67644643  0.29995714  1.0
  C  C106  1  0.75696987  0.66427866  0.24328863  1.0
  C  C107  1  0.70704212  0.64891027  0.29242150  1.0
  C  C108  1  0.58227203  0.88351170  0.26887326  1.0
  C  C109  1  0.56769091  0.93420877  0.32129805  1.0
  C  C110  1  0.54417620  0.99706622  0.27988032  1.0
  C  C111  1  0.86132177  0.13888373  0.21752238  1.0
  C  C112  1  0.00154214  0.80689019  0.30459810  1.0
  C  C113  1  0.77712124  0.10268842  0.23323936  1.0
  C  C114  1  0.67230971  0.05896102  0.14683150  1.0
  C  C115  1  0.59449570  0.18194552  0.72221063  1.0
  C  C116  1  0.52687829  0.14309492  0.62119107  1.0
  C  C117  1  0.57081365  0.11384755  0.58556863  1.0
  C  C118  1  0.40939455  0.07142567  0.73155876  1.0
  C  C119  1  0.39331905  0.07115330  0.80562518  1.0
  C  C120  1  0.35238656  0.98155214  0.81796222  1.0
  C  C121  1  0.84768284  0.56743952  0.16618891  1.0
  C  C122  1  0.75384249  0.54498351  0.07634208  1.0
  C  C123  1  0.93018472  0.71646294  0.27018637  1.0
  C  C124  1  0.67137962  0.44620308  0.03331984  1.0
  C  C125  1  0.92949103  0.66513646  0.21140980  1.0
  C  C126  1  0.00344486  0.70560376  0.19413493  1.0
  C  C127  1  0.94383889  0.72288045  0.78051486  1.0
  Cl  Cl128  1  0.31954062  0.99312276  0.23682426  1.0
  Cl  Cl129  1  0.16607424  0.79200250  0.14668578  1.0
  O  O130  1  0.99989372  0.99887126  0.50026594  1.0
  O  O131  1  0.95601373  0.32701365  0.05592800  1.0
  O  O132  1  0.07433738  0.44663888  0.89729561  1.0
  O  O133  1  0.93480981  0.05159846  0.32207797  1.0
  O  O134  1  0.05607708  0.61661294  0.17795505  1.0
  O  O135  1  0.93417510  0.32556688  0.87789621  1.0
  O  O136  1  0.93924171  0.62100657  0.05457554  1.0
  O  O137  1  0.92750608  0.60713843  0.87932279  1.0
  O  O138  1  0.05623877  0.44640439  0.17916884  1.0
  O  O139  1  0.22793003  0.62207350  0.05627117  1.0
  O  O140  1  0.77390603  0.32415120  0.89025768  1.0
  O  O141  1  0.22635204  0.05596894  0.62356036  1.0
  O  O142  1  0.06378135  0.88117545  0.61691314  1.0
  O  O143  1  0.23279324  0.17785024  0.59744065  1.0
  O  O144  1  0.77140342  0.86560012  0.44753707  1.0
  O  O145  1  0.06224264  0.17247505  0.61569275  1.0
  O  O146  1  0.93430591  0.87900678  0.32573177  1.0
  O  O147  1  0.92712589  0.05098819  0.60344408  1.0
  O  O148  1  0.06648447  0.88778211  0.44639002  1.0
  O  O149  1  0.77002954  0.90407934  0.33132243  1.0
  O  O150  1  0.04948464  0.17491121  0.44330171  1.0
  O  O151  1  0.95024517  0.89139206  0.62692080  1.0
  O  O152  1  0.99940504  0.50260478  0.00348103  1.0
  O  O153  1  0.23027451  0.60845346  0.17942270  1.0
  O  O154  1  0.76204009  0.44085246  0.89346666  1.0
  O  O155  1  0.04755150  0.60217628  0.87603172  1.0
