# generated using pymatgen
data_Zn8H43C60NO26
_symmetry_space_group_name_H-M   'P 1'
_cell_length_a   18.41022838
_cell_length_b   18.48196234
_cell_length_c   18.50507218
_cell_angle_alpha   60.53389493
_cell_angle_beta   60.17997755
_cell_angle_gamma   60.21962137
_symmetry_Int_Tables_number   1
_chemical_formula_structural   Zn8H43C60NO26
_chemical_formula_sum   'Zn8 H43 C60 N1 O26'
_cell_volume   4483.53204333
_cell_formula_units_Z   1
loop_
 _symmetry_equiv_pos_site_id
 _symmetry_equiv_pos_as_xyz
  1  'x, y, z'
loop_
 _atom_site_type_symbol
 _atom_site_label
 _atom_site_symmetry_multiplicity
 _atom_site_fract_x
 _atom_site_fract_y
 _atom_site_fract_z
 _atom_site_occupancy
  Zn  Zn0  1  0.54622277  0.04397283  0.53645037  1.0
  Zn  Zn1  1  0.54673328  0.86861776  0.54254759  1.0
  Zn  Zn2  1  0.54484594  0.04221372  0.36672881  1.0
  Zn  Zn3  1  0.37221731  0.03991436  0.53631597  1.0
  Zn  Zn4  1  0.95276702  0.46067393  0.95435668  1.0
  Zn  Zn5  1  0.95804135  0.45567796  0.12675683  1.0
  Zn  Zn6  1  0.95779241  0.63006600  0.95511511  1.0
  Zn  Zn7  1  0.13028081  0.45693304  0.95505392  1.0
  H  H8  1  0.30909165  0.30324694  0.78652354  1.0
  H  H9  1  0.05443369  0.84939851  0.70104744  1.0
  H  H10  1  0.14970583  0.26844209  0.81091765  1.0
  H  H11  1  0.02635952  0.87659857  0.79373786  1.0
  H  H12  1  0.15176295  0.94413887  0.60677551  1.0
  H  H13  1  0.12363187  0.97276946  0.69855527  1.0
  H  H14  1  0.70551303  0.90961859  0.18277763  1.0
  H  H15  1  0.80221122  0.81446135  0.08770840  1.0
  H  H16  1  0.75434632  0.53042128  0.37005964  1.0
  H  H17  1  0.85115378  0.53046381  0.36993966  1.0
  H  H18  1  0.65812746  0.62674693  0.46684788  1.0
  H  H19  1  0.74442006  0.16791331  0.46254003  1.0
  H  H20  1  0.75483296  0.62729999  0.46623800  1.0
  H  H21  1  0.40285171  0.19451876  0.70721698  1.0
  H  H22  1  0.75724734  0.81479973  0.84071163  1.0
  H  H23  1  0.86794511  0.55502284  0.71856477  1.0
  H  H24  1  0.77511676  0.53200885  0.81297073  1.0
  H  H25  1  0.76739723  0.65443115  0.62625381  1.0
  H  H26  1  0.67472173  0.63189913  0.72109534  1.0
  H  H27  1  0.23248880  0.22885524  0.68424638  1.0
  H  H28  1  0.65072131  0.25099754  0.19083166  1.0
  H  H29  1  0.74106358  0.35044165  0.09519771  1.0
  H  H30  1  0.40901415  0.23962203  0.18578401  1.0
  H  H31  1  0.92034919  0.18914818  0.31643446  1.0
  H  H32  1  0.83327883  0.26995812  0.36676625  1.0
  H  H33  1  0.21546818  0.03982075  0.46273358  1.0
  H  H34  1  0.11067490  0.05525450  0.48858670  1.0
  H  H35  1  0.71686841  0.00051515  0.61719131  1.0
  H  H36  1  0.67009685  0.06591928  0.68501214  1.0
  H  H37  1  0.76787262  0.97235662  0.69202543  1.0
  H  H38  1  0.58242464  0.96811851  0.74503709  1.0
  H  H39  1  0.63356740  0.93957533  0.81927588  1.0
  H  H40  1  0.95072398  0.05865131  0.44276345  1.0
  H  H41  1  0.31332667  0.33720086  0.09177905  1.0
  H  H42  1  0.85954359  0.03588330  0.53891586  1.0
  H  H43  1  0.93916627  0.95354911  0.48873316  1.0
  H  H44  1  0.80165575  0.01988199  0.44990057  1.0
  H  H45  1  0.89122412  0.04550170  0.35455502  1.0
  H  H46  1  0.02448749  0.27881235  0.37206944  1.0
  H  H47  1  0.06755596  0.18768423  0.33480165  1.0
  H  H48  1  0.12109091  0.19199130  0.46502271  1.0
  H  H49  1  0.41141278  0.68435472  0.73035734  1.0
  H  H50  1  0.31570252  0.59005729  0.82386764  1.0
  C  C51  1  0.36447582  0.85936011  0.63582949  1.0
  C  C52  1  0.79268582  0.15545104  0.40015400  1.0
  C  C53  1  0.21780531  0.20067288  0.33171648  1.0
  C  C54  1  0.64202424  0.13637690  0.35642985  1.0
  C  C55  1  0.30673666  0.19270404  0.30058148  1.0
  C  C56  1  0.33977900  0.24390169  0.21239828  1.0
  C  C57  1  0.28604692  0.29868531  0.15980067  1.0
  C  C58  1  0.19610643  0.30571971  0.19198972  1.0
  C  C59  1  0.16406313  0.25486574  0.27916902  1.0
  C  C60  1  0.08483631  0.22658769  0.34984054  1.0
  C  C61  1  0.14470702  0.16713684  0.41085455  1.0
  C  C62  1  0.30223832  0.20253425  0.67829653  1.0
  C  C63  1  0.21689873  0.83647230  0.70397879  1.0
  C  C64  1  0.30701941  0.80321975  0.69262680  1.0
  C  C65  1  0.34125303  0.71260458  0.73742376  1.0
  C  C66  1  0.62982522  0.86561593  0.64547118  1.0
  C  C67  1  0.28764971  0.65973789  0.78977934  1.0
  C  C68  1  0.19646336  0.69396630  0.80045950  1.0
  C  C69  1  0.16319665  0.78345934  0.75616003  1.0
  C  C70  1  0.08119779  0.85820318  0.73655550  1.0
  C  C71  1  0.14204043  0.91811180  0.67741542  1.0
  C  C72  1  0.72757429  0.71020647  0.34030884  1.0
  C  C73  1  0.75280169  0.19825783  0.32766774  1.0
  C  C74  1  0.69879004  0.80192642  0.30524823  1.0
  C  C75  1  0.72698892  0.83811204  0.21240572  1.0
  C  C76  1  0.78111253  0.78476355  0.15914717  1.0
  C  C77  1  0.80987711  0.69185297  0.19521180  1.0
  C  C78  1  0.36435137  0.13355891  0.35623506  1.0
  C  C79  1  0.78119951  0.65668105  0.28685395  1.0
  C  C80  1  0.78479366  0.57196594  0.36449184  1.0
  C  C81  1  0.72433993  0.63254064  0.42497797  1.0
  C  C82  1  0.72204362  0.72085211  0.72128643  1.0
  C  C83  1  0.67999069  0.81122315  0.70850073  1.0
  C  C84  1  0.69659603  0.19531704  0.30005933  1.0
  C  C85  1  0.69157861  0.84507945  0.75532162  1.0
  C  C86  1  0.74782050  0.78817413  0.80599610  1.0
  C  C87  1  0.79345825  0.69813569  0.81473008  1.0
  C  C88  1  0.77719844  0.66563608  0.77237316  1.0
  C  C89  1  0.79799187  0.58448964  0.75459955  1.0
  C  C90  1  0.64165790  0.85957700  0.36135659  1.0
  C  C91  1  0.73522727  0.64694510  0.69674841  1.0
  C  C92  1  0.13973319  0.36295616  0.13491719  1.0
  C  C93  1  0.85543027  0.64190826  0.86599303  1.0
  C  C94  1  0.85606789  0.36868674  0.13269904  1.0
  C  C95  1  0.69381405  0.25184758  0.21454593  1.0
  C  C96  1  0.13982247  0.63700114  0.85628085  1.0
  C  C97  1  0.86735395  0.63584621  0.13741775  1.0
  C  C98  1  0.13426476  0.35544783  0.86878471  1.0
  C  C99  1  0.36205495  0.14428069  0.62358030  1.0
  C  C100  1  0.27608276  0.27606529  0.77532570  1.0
  C  C101  1  0.18740586  0.29532982  0.81591037  1.0
  C  C102  1  0.33142702  0.22138936  0.71897088  1.0
  C  C103  1  0.64672803  0.93983988  0.75423747  1.0
  C  C104  1  0.70381580  0.99814867  0.68281498  1.0
  C  C105  1  0.84716988  0.05734597  0.41807723  1.0
  C  C106  1  0.74426854  0.30778320  0.16100272  1.0
  C  C107  1  0.90215272  0.02456029  0.47525708  1.0
  C  C108  1  0.80058093  0.31067714  0.18980701  1.0
  C  C109  1  0.80306939  0.25446770  0.27408454  1.0
  C  C110  1  0.84791608  0.22117283  0.33968163  1.0
  N  N111  1  0.16415662  0.07251900  0.43852786  1.0
  O  O112  1  0.50237155  0.99804757  0.49596079  1.0
  O  O113  1  0.05615922  0.67652842  0.87185401  1.0
  O  O114  1  0.88395117  0.55268800  0.17610493  1.0
  O  O115  1  0.32412694  0.94259324  0.61113064  1.0
  O  O116  1  0.17544973  0.38252969  0.88403365  1.0
  O  O117  1  0.89519450  0.67509892  0.05467816  1.0
  O  O118  1  0.05000136  0.37549471  0.89408979  1.0
  O  O119  1  0.86536229  0.40329785  0.05081037  1.0
  O  O120  1  0.17902338  0.55406658  0.88381907  1.0
  O  O121  1  0.05605916  0.37982411  0.17449197  1.0
  O  O122  1  0.87086283  0.67953052  0.89668641  1.0
  O  O123  1  0.61253189  0.94894957  0.61578737  1.0
  O  O124  1  0.62789059  0.10750583  0.43928359  1.0
  O  O125  1  0.61023329  0.82339646  0.62362812  1.0
  O  O126  1  0.44731351  0.12171422  0.31847060  1.0
  O  O127  1  0.62272920  0.82070021  0.44459461  1.0
  O  O128  1  0.32327787  0.12349998  0.59867715  1.0
  O  O129  1  0.61656358  0.94263244  0.32182403  1.0
  O  O130  1  0.44565536  0.11956762  0.60605398  1.0
  O  O131  1  0.32557744  0.09904378  0.43823931  1.0
  O  O132  1  0.44828784  0.82053345  0.61617048  1.0
  O  O133  1  0.61369975  0.11953618  0.31789668  1.0
  O  O134  1  0.00012184  0.50072567  0.99749554  1.0
  O  O135  1  0.17911688  0.38997367  0.05194675  1.0
  O  O136  1  0.88893389  0.55992590  0.87433871  1.0
  O  O137  1  0.89067614  0.37829881  0.17119860  1.0
