# generated using pymatgen
data_ZnH12C27IN3O8
_symmetry_space_group_name_H-M   'P 1'
_cell_length_a   9.51104163
_cell_length_b   10.84901800
_cell_length_c   27.97673576
_cell_angle_alpha   87.12628885
_cell_angle_beta   87.75403061
_cell_angle_gamma   85.40299328
_symmetry_Int_Tables_number   1
_chemical_formula_structural   ZnH12C27IN3O8
_chemical_formula_sum   'Zn2 H24 C54 I2 N6 O16'
_cell_volume   2872.09312238
_cell_formula_units_Z   2
loop_
 _symmetry_equiv_pos_site_id
 _symmetry_equiv_pos_as_xyz
  1  'x, y, z'
loop_
 _atom_site_type_symbol
 _atom_site_label
 _atom_site_symmetry_multiplicity
 _atom_site_fract_x
 _atom_site_fract_y
 _atom_site_fract_z
 _atom_site_occupancy
  Zn  Zn0  1  0.34597686  0.51061546  0.49832029  1.0
  Zn  Zn1  1  0.64215168  0.48754618  0.50230453  1.0
  H  H2  1  0.30023737  0.49471572  0.34551467  1.0
  H  H3  1  0.24338557  0.49664369  0.65232589  1.0
  H  H4  1  0.32103880  0.49756178  0.25570097  1.0
  H  H5  1  0.23346494  0.49339748  0.74219502  1.0
  H  H6  1  0.63678375  0.18829774  0.12305154  1.0
  H  H7  1  0.37561068  0.81424540  0.87775745  1.0
  H  H8  1  0.68423435  0.55540487  0.65099939  1.0
  H  H9  1  0.75140598  0.45545023  0.35239205  1.0
  H  H10  1  0.67487320  0.55425052  0.74085793  1.0
  H  H11  1  0.77340338  0.45985017  0.26258434  1.0
  H  H12  1  0.48070985  0.20049459  0.88112740  1.0
  H  H13  1  0.53061365  0.80201140  0.11937033  1.0
  H  H14  1  0.50165294  0.19280995  0.96868186  1.0
  H  H15  1  0.51004577  0.80935709  0.03177541  1.0
  H  H16  1  0.50177122  0.04672008  0.58396380  1.0
  H  H17  1  0.49832842  0.95125147  0.41437118  1.0
  H  H18  1  0.28329724  0.92955113  0.53978276  1.0
  H  H19  1  0.71591603  0.06858757  0.45858770  1.0
  H  H20  1  0.10469511  0.41430850  0.57241327  1.0
  H  H21  1  0.88361971  0.58309587  0.42777832  1.0
  H  H22  1  0.92771194  0.28769505  0.51115389  1.0
  H  H23  1  0.06029393  0.70941072  0.48905521  1.0
  H  H24  1  0.10871040  0.38345658  0.43531160  1.0
  H  H25  1  0.87957747  0.61373052  0.56482311  1.0
  C  C26  1  0.50664352  0.25845175  0.50759666  1.0
  C  C27  1  0.49079151  0.73923008  0.49195392  1.0
  C  C28  1  0.51163171  0.47925923  0.40754771  1.0
  C  C29  1  0.47155549  0.52003545  0.59304233  1.0
  C  C30  1  0.57953389  0.37175637  0.18012306  1.0
  C  C31  1  0.43254392  0.63102532  0.82056780  1.0
  C  C32  1  0.54090880  0.60250007  0.17916969  1.0
  C  C33  1  0.46869000  0.40011967  0.82141947  1.0
  C  C34  1  0.67019526  0.46751679  0.28099627  1.0
  C  C35  1  0.58101882  0.54122723  0.72112836  1.0
  C  C36  1  0.65796464  0.46526623  0.33079404  1.0
  C  C37  1  0.58626959  0.54184289  0.67134096  1.0
  C  C38  1  0.40311488  0.48724158  0.32694409  1.0
  C  C39  1  0.33724367  0.50880838  0.67213543  1.0
  C  C40  1  0.41471033  0.48876470  0.27722322  1.0
  C  C41  1  0.33163120  0.50733170  0.72195875  1.0
  C  C42  1  0.54819382  0.48003056  0.25459858  1.0
  C  C43  1  0.45405524  0.52269077  0.74606628  1.0
  C  C44  1  0.54227600  0.49345855  0.10152302  1.0
  C  C45  1  0.47002149  0.50894385  0.89906583  1.0
  C  C46  1  0.57268416  0.37957279  0.12718008  1.0
  C  C47  1  0.44006385  0.62304545  0.87348174  1.0
  C  C48  1  0.60357424  0.27295714  0.10254393  1.0
  C  C49  1  0.40884788  0.72951109  0.89819086  1.0
  C  C50  1  0.53494604  0.60442634  0.12634320  1.0
  C  C51  1  0.47658762  0.39806423  0.87420904  1.0
  C  C52  1  0.52465195  0.47629884  0.35403643  1.0
  C  C53  1  0.46468196  0.52463020  0.64656105  1.0
  C  C54  1  0.51441130  0.38880371  0.97474651  1.0
  C  C55  1  0.49785542  0.61323639  0.02585171  1.0
  C  C56  1  0.46788751  0.62010906  0.97485279  1.0
  C  C57  1  0.54426482  0.38189557  0.02578181  1.0
  C  C58  1  0.48741919  0.50685869  0.94973543  1.0
  C  C59  1  0.52499541  0.49525516  0.05086291  1.0
  C  C60  1  0.50082160  0.28224112  0.94946222  1.0
  C  C61  1  0.51119808  0.71996490  0.05105342  1.0
  C  C62  1  0.48553316  0.28547085  0.90001296  1.0
  C  C63  1  0.52620020  0.71696647  0.10050596  1.0
  C  C64  1  0.59654008  0.27479684  0.05252182  1.0
  C  C65  1  0.41511759  0.72722209  0.94822875  1.0
  C  C66  1  0.49906464  0.02465615  0.54636873  1.0
  C  C67  1  0.50026635  0.97318602  0.45200557  1.0
  C  C68  1  0.61424307  0.94157845  0.51921137  1.0
  C  C69  1  0.38495710  0.05641089  0.47903917  1.0
  C  C70  1  0.49372667  0.87576730  0.49577055  1.0
  C  C71  1  0.50477589  0.12228870  0.50273910  1.0
  C  C72  1  0.37923960  0.96138456  0.52228998  1.0
  C  C73  1  0.61988780  0.03689471  0.47610586  1.0
  C  C74  1  0.96369472  0.38065004  0.50631866  1.0
  C  C75  1  0.02458199  0.61634432  0.49383494  1.0
  C  C76  1  0.04849686  0.45078897  0.54080558  1.0
  C  C77  1  0.93969807  0.54618675  0.45936356  1.0
  C  C78  1  0.05133112  0.43435639  0.46365398  1.0
  C  C79  1  0.93695670  0.56268627  0.53650403  1.0
  I  I80  1  0.69471716  0.10794565  0.02538492  1.0
  I  I81  1  0.31428186  0.89262838  0.97567131  1.0
  N  N82  1  0.55740425  0.48467524  0.20289846  1.0
  N  N83  1  0.45130754  0.51800904  0.79779126  1.0
  N  N84  1  0.13514932  0.50473332  0.49815553  1.0
  N  N85  1  0.85310196  0.49229311  0.50201547  1.0
  N  N86  1  0.73430161  0.87072092  0.54111145  1.0
  N  N87  1  0.26458818  0.12643334  0.45688180  1.0
  O  O88  1  0.38821799  0.32034630  0.50428026  1.0
  O  O89  1  0.60941054  0.67843174  0.48650343  1.0
  O  O90  1  0.62536943  0.29847036  0.51474758  1.0
  O  O91  1  0.36938932  0.69800319  0.49472778  1.0
  O  O92  1  0.38853620  0.50301592  0.42601097  1.0
  O  O93  1  0.59352859  0.52030135  0.57239252  1.0
  O  O94  1  0.62483472  0.45915167  0.43065830  1.0
  O  O95  1  0.35585328  0.51492564  0.57208200  1.0
  O  O96  1  0.60068420  0.27316345  0.20325926  1.0
  O  O97  1  0.41247161  0.72979192  0.79744496  1.0
  O  O98  1  0.47861236  0.30558789  0.79869442  1.0
  O  O99  1  0.52991709  0.69711074  0.20185080  1.0
  O  O100  1  0.71121077  0.81716717  0.58056000  1.0
  O  O101  1  0.84949786  0.86680261  0.51856428  1.0
  O  O102  1  0.15032719  0.13310016  0.48000305  1.0
  O  O103  1  0.28636122  0.17627021  0.41667789  1.0
