# generated using pymatgen
data_Al6H69C84S3NO37
_symmetry_space_group_name_H-M   'P 1'
_cell_length_a   13.17367018
_cell_length_b   13.27245313
_cell_length_c   28.22913651
_cell_angle_alpha   89.90427050
_cell_angle_beta   89.97805146
_cell_angle_gamma   119.34605539
_symmetry_Int_Tables_number   1
_chemical_formula_structural   Al6H69C84S3NO37
_chemical_formula_sum   'Al6 H69 C84 S3 N1 O37'
_cell_volume   4302.38686284
_cell_formula_units_Z   1
loop_
 _symmetry_equiv_pos_site_id
 _symmetry_equiv_pos_as_xyz
  1  'x, y, z'
loop_
 _atom_site_type_symbol
 _atom_site_label
 _atom_site_symmetry_multiplicity
 _atom_site_fract_x
 _atom_site_fract_y
 _atom_site_fract_z
 _atom_site_occupancy
  Al  Al0  1  0.58538730  0.16881599  0.50279176  1.0
  Al  Al1  1  0.58012301  0.92419465  0.49906181  1.0
  Al  Al2  1  0.35076257  0.92258408  0.50009245  1.0
  Al  Al3  1  0.07737748  0.16143616  0.00130818  1.0
  Al  Al4  1  0.31772840  0.40208486  0.99973468  1.0
  Al  Al5  1  0.09444822  0.41112673  0.99745917  1.0
  H  H6  1  0.57342214  0.80610187  0.79404371  1.0
  H  H7  1  0.14462772  0.01577166  0.71569382  1.0
  H  H8  1  0.12964268  0.08414822  0.79045149  1.0
  H  H9  1  0.20789575  0.23004665  0.77219831  1.0
  H  H10  1  0.50435701  0.27505742  0.70379739  1.0
  H  H11  1  0.39782224  0.31817499  0.70346371  1.0
  H  H12  1  0.50543737  0.26630177  0.78728079  1.0
  H  H13  1  0.43915964  0.06493414  0.72667107  1.0
  H  H14  1  0.39765395  0.05350638  0.80811616  1.0
  H  H15  1  0.43093462  0.34649549  0.78521900  1.0
  H  H16  1  0.73937765  0.26321604  0.79544595  1.0
  H  H17  1  0.72099644  0.24129904  0.71308601  1.0
  H  H18  1  0.96931619  0.18201290  0.70346987  1.0
  H  H19  1  0.92779720  0.28969586  0.69730138  1.0
  H  H20  1  0.95277298  0.32715028  0.77834864  1.0
  H  H21  1  0.00389212  0.22725257  0.78299755  1.0
  H  H22  1  0.67225337  0.93775251  0.72861815  1.0
  H  H23  1  0.81830270  0.97591257  0.71855891  1.0
  H  H24  1  0.71348205  0.97171781  0.81034784  1.0
  H  H25  1  0.61118439  0.09749113  0.72177910  1.0
  H  H26  1  0.64045487  0.11491549  0.80420574  1.0
  H  H27  1  0.48514359  0.93075696  0.74344833  1.0
  H  H28  1  0.86135292  0.01625553  0.79897881  1.0
  H  H29  1  0.17906661  0.67327260  0.20342732  1.0
  H  H30  1  0.17869340  0.68364190  0.28645470  1.0
  H  H31  1  0.35330573  0.53215666  0.30079418  1.0
  H  H32  1  0.21154707  0.51387940  0.30807338  1.0
  H  H33  1  0.17502547  0.48935035  0.22640736  1.0
  H  H34  1  0.30060541  0.47406811  0.22260417  1.0
  H  H35  1  0.50303379  0.84863859  0.27514206  1.0
  H  H36  1  0.52674254  0.73282265  0.29052054  1.0
  H  H37  1  0.49645721  0.79830127  0.19580979  1.0
  H  H38  1  0.27352393  0.81517947  0.79535538  1.0
  H  H39  1  0.29904812  0.82419134  0.28112014  1.0
  H  H40  1  0.31375520  0.80194951  0.19941271  1.0
  H  H41  1  0.51922019  0.25919617  0.20513405  1.0
  H  H42  1  0.52749691  0.21787956  0.28531675  1.0
  H  H43  1  0.27047692  0.26209506  0.30493731  1.0
  H  H44  1  0.42352363  0.33359170  0.29855776  1.0
  H  H45  1  0.40053914  0.35978330  0.21852309  1.0
  H  H46  1  0.24715788  0.27562950  0.22339404  1.0
  H  H47  1  0.22478846  0.96396059  0.28193252  1.0
  H  H48  1  0.18232391  0.63698731  0.72542826  1.0
  H  H49  1  0.15305328  0.04498274  0.29054672  1.0
  H  H50  1  0.22678678  0.99027878  0.19964561  1.0
  H  H51  1  0.44529123  0.06783115  0.27443429  1.0
  H  H52  1  0.44965188  0.10928079  0.19341129  1.0
  H  H53  1  0.14517599  0.06161262  0.20806151  1.0
  H  H54  1  0.74751494  0.02057517  0.19426315  1.0
  H  H55  1  0.71839161  0.98416281  0.27555456  1.0
  H  H56  1  0.00684645  0.23936566  0.30406310  1.0
  H  H57  1  0.93307137  0.08825222  0.29562305  1.0
  H  H58  1  0.96245314  0.11299210  0.21357579  1.0
  H  H59  1  0.04534294  0.26351692  0.22260049  1.0
  H  H60  1  0.74434587  0.27638249  0.28983642  1.0
  H  H61  1  0.89358728  0.34950966  0.30424340  1.0
  H  H62  1  0.79464773  0.32140125  0.20992455  1.0
  H  H63  1  0.63853728  0.05932468  0.27656143  1.0
  H  H64  1  0.67699537  0.10463270  0.19604171  1.0
  H  H65  1  0.94389920  0.38467524  0.22382448  1.0
  H  H66  1  0.24530561  0.97615031  0.79837114  1.0
  H  H67  1  0.29211896  0.95694589  0.71933441  1.0
  H  H68  1  0.63404155  0.61900001  0.76568894  1.0
  H  H69  1  0.71383471  0.79321190  0.18643487  1.0
  H  H70  1  0.16574850  0.48882414  0.84684966  1.0
  H  H71  1  0.15288192  0.14548109  0.65483895  1.0
  H  H72  1  0.19645402  0.25261406  0.69328176  1.0
  H  H73  1  0.68216022  0.36065376  0.47566771  1.0
  H  H74  1  0.97726930  0.97033157  0.97414703  1.0
  C  C75  1  0.70395524  0.08266586  0.56855874  1.0
  C  C76  1  0.39450904  0.76708032  0.61847294  1.0
  C  C77  1  0.31880900  0.60925651  0.76854759  1.0
  C  C78  1  0.36989757  0.70635252  0.80842839  1.0
  C  C79  1  0.26918452  0.67720848  0.74108153  1.0
  C  C80  1  0.38557964  0.74109178  0.71128403  1.0
  C  C81  1  0.31988007  0.77461253  0.77929786  1.0
  C  C82  1  0.43688143  0.83838221  0.75102363  1.0
  C  C83  1  0.35431769  0.67375619  0.85693545  1.0
  C  C84  1  0.39172075  0.75627960  0.66140445  1.0
  C  C85  1  0.34878073  0.04428610  0.73323841  1.0
  C  C86  1  0.40767905  0.79895216  0.56895828  1.0
  C  C87  1  0.20220204  0.10999253  0.71892247  1.0
  C  C88  1  0.20718688  0.14718575  0.77095760  1.0
  C  C89  1  0.30336614  0.20376427  0.88688955  1.0
  C  C90  1  0.32707062  0.13221860  0.70494417  1.0
  C  C91  1  0.32704165  0.05134857  0.78662211  1.0
  C  C92  1  0.31878170  0.16192897  0.79580121  1.0
  C  C93  1  0.42705747  0.26601337  0.77358389  1.0
  C  C94  1  0.42015250  0.25586668  0.71919252  1.0
  C  C95  1  0.31147817  0.18142376  0.84581179  1.0
  C  C96  1  0.33350129  0.11443224  0.65483301  1.0
  C  C97  1  0.37433685  0.08323995  0.56621736  1.0
  C  C98  1  0.34276135  0.10141214  0.61276077  1.0
  C  C99  1  0.70193220  0.15991798  0.73061680  1.0
  C  C100  1  0.91056981  0.21184617  0.71729567  1.0
  C  C101  1  0.93082195  0.23792299  0.77063580  1.0
  C  C102  1  0.89029390  0.21268947  0.88916776  1.0
  C  C103  1  0.78282200  0.11748179  0.70917150  1.0
  C  C104  1  0.71952723  0.17586355  0.78480647  1.0
  C  C105  1  0.82117855  0.15597690  0.79985417  1.0
  C  C106  1  0.78870968  0.02983690  0.78835938  1.0
  C  C107  1  0.76228576  0.00598151  0.73485798  1.0
  C  C108  1  0.71150542  0.09151811  0.43326856  1.0
  C  C109  1  0.85213838  0.18337240  0.84930794  1.0
  C  C110  1  0.76140775  0.09981080  0.65882054  1.0
  C  C111  1  0.74424189  0.09294590  0.61637512  1.0
  C  C112  1  0.26718991  0.73315171  0.27195870  1.0
  C  C113  1  0.29243476  0.55967731  0.28749742  1.0
  C  C114  1  0.26876080  0.53236362  0.23416534  1.0
  C  C115  1  0.29375179  0.58896585  0.11275914  1.0
  C  C116  1  0.34588789  0.69149229  0.29588205  1.0
  C  C117  1  0.26799049  0.71801953  0.21764639  1.0
  C  C118  1  0.32760494  0.64544599  0.20439947  1.0
  C  C119  1  0.39411843  0.78374467  0.43590919  1.0
  C  C120  1  0.45786600  0.72146736  0.21877256  1.0
  C  C121  1  0.46730897  0.75491689  0.27181227  1.0
  C  C122  1  0.31203883  0.61717709  0.15417869  1.0
  C  C123  1  0.35770293  0.71587011  0.34642815  1.0
  C  C124  1  0.36944294  0.73697155  0.38864683  1.0
  C  C125  1  0.44753828  0.15087248  0.26857782  1.0
  C  C126  1  0.34196048  0.26211593  0.28482914  1.0
  C  C127  1  0.32952105  0.27689163  0.23121843  1.0
  C  C128  1  0.31526544  0.21360998  0.11150863  1.0
  C  C129  1  0.34100341  0.14662600  0.29406868  1.0
  C  C130  1  0.38794539  0.08965944  0.43230590  1.0
  C  C131  1  0.44489273  0.17541496  0.21519538  1.0
  C  C132  1  0.33115931  0.17720051  0.20321322  1.0
  C  C133  1  0.22520022  0.06145081  0.21887255  1.0
  C  C134  1  0.22824705  0.04626547  0.27306827  1.0
  C  C135  1  0.32474126  0.19640450  0.15312111  1.0
  C  C136  1  0.34944815  0.12930628  0.34422464  1.0
  C  C137  1  0.36041074  0.11327180  0.38581397  1.0
  C  C138  1  0.72225767  0.06639356  0.26626016  1.0
  C  C139  1  0.93703012  0.16896020  0.28373603  1.0
  C  C140  1  0.96042158  0.18716873  0.22984271  1.0
  C  C141  1  0.43629987  0.67289222  0.74068926  1.0
  C  C142  1  0.91335880  0.23749107  0.11315180  1.0
  C  C143  1  0.82015306  0.16432711  0.29579621  1.0
  C  C144  1  0.74554252  0.09239326  0.21276456  1.0
  C  C145  1  0.86407158  0.20367319  0.20525350  1.0
  C  C146  1  0.85905283  0.30637303  0.22870853  1.0
  C  C147  1  0.82811528  0.28091706  0.28180461  1.0
  C  C148  1  0.88952383  0.22366481  0.15509238  1.0
  C  C149  1  0.79254385  0.14069930  0.34567495  1.0
  C  C150  1  0.76409321  0.11942872  0.38699283  1.0
  C  C151  1  0.27555537  0.23327654  0.93202589  1.0
  C  C152  1  0.48646621  0.77027260  0.77878854  1.0
  C  C153  1  0.29253771  0.55993850  0.93863074  1.0
  C  C154  1  0.95358095  0.24509115  0.93299621  1.0
  C  C155  1  0.28533352  0.23692265  0.06552535  1.0
  C  C156  1  0.27016490  0.53908928  0.06603873  1.0
  C  C157  1  0.96104044  0.25179722  0.06623675  1.0
  C  C158  1  0.33180435  0.63113573  0.89652671  1.0
  S  S159  1  0.51555215  0.61392648  0.71291523  1.0
  S  S160  1  0.54761594  0.65495152  0.20660387  1.0
  S  S161  1  0.23664556  0.46175107  0.78266328  1.0
  N  N162  1  0.15198671  0.16470600  0.68981679  1.0
  O  O163  1  0.47335053  0.15664993  0.55103405  1.0
  O  O164  1  0.49240361  0.80714560  0.45367753  1.0
  O  O165  1  0.31841286  0.80405565  0.45558766  1.0
  O  O166  1  0.31349610  0.99226380  0.45098598  1.0
  O  O167  1  0.50389358  0.00220240  0.50009838  1.0
  O  O168  1  0.97338477  0.17101308  0.95265326  1.0
  O  O169  1  0.17757503  0.16302311  0.94961806  1.0
  O  O170  1  0.35096535  0.33107905  0.95013380  1.0
  O  O171  1  0.36085657  0.52797628  0.95667071  1.0
  O  O172  1  0.18893836  0.52961763  0.95231551  1.0
  O  O173  1  0.98954189  0.34968139  0.94781747  1.0
  O  O174  1  0.67570208  0.15601763  0.55473528  1.0
  O  O175  1  0.98735264  0.17682879  0.05302527  1.0
  O  O176  1  0.18490804  0.16756765  0.05037892  1.0
  O  O177  1  0.36202011  0.32969411  0.04422606  1.0
  O  O178  1  0.34276617  0.51109758  0.04918062  1.0
  O  O179  1  0.17609337  0.52225434  0.04573685  1.0
  O  O180  1  0.97699905  0.34157577  0.04229672  1.0
  O  O181  1  0.16465494  0.32797914  0.99897505  1.0
  O  O182  1  0.69546966  0.99669539  0.54396432  1.0
  O  O183  1  0.50038736  0.81409358  0.54836039  1.0
  O  O184  1  0.32849296  0.81534010  0.55050261  1.0
  O  O185  1  0.30038489  0.98991291  0.54457583  1.0
  O  O186  1  0.48390309  0.16329455  0.44997275  1.0
  O  O187  1  0.69005448  0.16457936  0.45269160  1.0
  O  O188  1  0.68621511  0.99118755  0.44991975  1.0
  O  O189  1  0.43607544  0.51601938  0.68569418  1.0
  O  O190  1  0.61917105  0.70895279  0.69335360  1.0
  O  O191  1  0.55299432  0.56373002  0.75798431  1.0
  O  O192  1  0.52852414  0.57106490  0.24284277  1.0
  O  O193  1  0.54363758  0.62730923  0.15717903  1.0
  O  O194  1  0.67572313  0.76558760  0.21723335  1.0
  O  O195  1  0.17999378  0.39972349  0.74051209  1.0
  O  O196  1  0.30440013  0.42876884  0.81217250  1.0
  O  O197  1  0.13704046  0.46608862  0.81424518  1.0
  O  O198  1  0.65994941  0.31987084  0.50555860  1.0
  O  O199  1  0.99720563  0.01014053  0.00421048  1.0
