# generated using pymatgen
data_AlH13C18N2O7
_symmetry_space_group_name_H-M   'P 1'
_cell_length_a   6.75502215
_cell_length_b   23.65360149
_cell_length_c   27.78425237
_cell_angle_alpha   85.46823099
_cell_angle_beta   89.99881165
_cell_angle_gamma   89.99911170
_symmetry_Int_Tables_number   1
_chemical_formula_structural   AlH13C18N2O7
_chemical_formula_sum   'Al4 H52 C72 N8 O28'
_cell_volume   4425.50561800
_cell_formula_units_Z   4
loop_
 _symmetry_equiv_pos_site_id
 _symmetry_equiv_pos_as_xyz
  1  'x, y, z'
loop_
 _atom_site_type_symbol
 _atom_site_label
 _atom_site_symmetry_multiplicity
 _atom_site_fract_x
 _atom_site_fract_y
 _atom_site_fract_z
 _atom_site_occupancy
  Al  Al0  1  0.24687606  0.75189720  0.74801855  1.0
  Al  Al1  1  0.74201026  0.24888686  0.25114234  1.0
  Al  Al2  1  0.74686843  0.74810740  0.75198572  1.0
  Al  Al3  1  0.24200305  0.25111917  0.24886403  1.0
  H  H4  1  0.70299168  0.39223221  0.44570154  1.0
  H  H5  1  0.28174362  0.60555948  0.55610562  1.0
  H  H6  1  0.20303669  0.10774712  0.05432088  1.0
  H  H7  1  0.78177415  0.89443720  0.94389125  1.0
  H  H8  1  0.32365503  0.42881603  0.06347784  1.0
  H  H9  1  0.69933037  0.56577561  0.93936358  1.0
  H  H10  1  0.82365456  0.07119294  0.43651117  1.0
  H  H11  1  0.19935152  0.93421516  0.56062358  1.0
  H  H12  1  0.29991612  0.35757761  0.13237206  1.0
  H  H13  1  0.70053956  0.63400146  0.86808495  1.0
  H  H14  1  0.79986587  0.14242448  0.36761489  1.0
  H  H15  1  0.20053463  0.86599364  0.63191015  1.0
  H  H16  1  0.58713253  0.45649583  0.16399038  1.0
  H  H17  1  0.69408964  0.40296666  0.20593919  1.0
  H  H18  1  0.43618154  0.39994366  0.19003526  1.0
  H  H19  1  0.44605228  0.69053560  0.92756540  1.0
  H  H20  1  0.29740389  0.72684859  0.88083783  1.0
  H  H21  1  0.55376211  0.71370873  0.87010068  1.0
  H  H22  1  0.08713939  0.04350586  0.33598857  1.0
  H  H23  1  0.19408387  0.09704754  0.29405442  1.0
  H  H24  1  0.93616950  0.10005990  0.30995645  1.0
  H  H25  1  0.94605656  0.80946858  0.57242925  1.0
  H  H26  1  0.79741356  0.77315343  0.61916006  1.0
  H  H27  1  0.05378825  0.78629411  0.62989549  1.0
  H  H28  1  0.57883021  0.36148723  0.02185247  1.0
  H  H29  1  0.72556202  0.41020837  0.98360691  1.0
  H  H30  1  0.46902910  0.42494298  0.99385107  1.0
  H  H31  1  0.43842061  0.51554587  0.87025889  1.0
  H  H32  1  0.30270907  0.47075230  0.91425533  1.0
  H  H33  1  0.55983251  0.48567369  0.92377912  1.0
  H  H34  1  0.07879186  0.13850201  0.47814240  1.0
  H  H35  1  0.22552534  0.08978914  0.51639091  1.0
  H  H36  1  0.96900855  0.07504439  0.50614846  1.0
  H  H37  1  0.93841515  0.98445388  0.62973831  1.0
  H  H38  1  0.80270792  0.02924527  0.58573815  1.0
  H  H39  1  0.05985401  0.01433028  0.57622095  1.0
  H  H40  1  0.70015392  0.32841727  0.37777314  1.0
  H  H41  1  0.28636820  0.66849053  0.62464225  1.0
  H  H42  1  0.20017646  0.17156975  0.12223955  1.0
  H  H43  1  0.78639159  0.83151442  0.87534739  1.0
  H  H44  1  0.28971572  0.44849948  0.40412772  1.0
  H  H45  1  0.69808988  0.54777078  0.59882960  1.0
  H  H46  1  0.78979987  0.05150105  0.09586289  1.0
  H  H47  1  0.19811237  0.95222587  0.90118970  1.0
  H  H48  1  0.29048119  0.38130229  0.33866120  1.0
  H  H49  1  0.69896170  0.61400830  0.66505451  1.0
  H  H50  1  0.79057991  0.11871095  0.16132905  1.0
  H  H51  1  0.19894299  0.88600127  0.83495325  1.0
  H  H52  1  0.48384569  0.68040965  0.77526677  1.0
  H  H53  1  0.49895157  0.32080643  0.22961583  1.0
  H  H54  1  0.98386912  0.81959891  0.72473348  1.0
  H  H55  1  0.99895643  0.17919399  0.27037485  1.0
  C  C56  1  0.49671096  0.81784520  0.81053852  1.0
  C  C57  1  0.49265057  0.18628020  0.18625867  1.0
  C  C58  1  0.99671954  0.68215642  0.68945841  1.0
  C  C59  1  0.99262534  0.31371805  0.31374649  1.0
  C  C60  1  0.50375280  0.81629412  0.67914857  1.0
  C  C61  1  0.48717669  0.17911566  0.31760153  1.0
  C  C62  1  0.00373422  0.68371028  0.82085145  1.0
  C  C63  1  0.98721103  0.32089326  0.18240727  1.0
  C  C64  1  0.17900393  0.41512142  0.07688610  1.0
  C  C65  1  0.83901049  0.57918378  0.92278356  1.0
  C  C66  1  0.67899795  0.08487857  0.42310648  1.0
  C  C67  1  0.33903392  0.92080816  0.57721159  1.0
  C  C68  1  0.16594778  0.37688062  0.11704298  1.0
  C  C69  1  0.83999108  0.61943450  0.88387684  1.0
  C  C70  1  0.66592243  0.12312524  0.38295076  1.0
  C  C71  1  0.34000151  0.88056588  0.61611831  1.0
  C  C72  1  0.98385722  0.36223329  0.13896913  1.0
  C  C73  1  0.01666908  0.64183056  0.86379532  1.0
  C  C74  1  0.48382289  0.13776681  0.36103030  1.0
  C  C75  1  0.51667130  0.85817249  0.63620500  1.0
  C  C76  1  0.80889730  0.38576733  0.11771723  1.0
  C  C77  1  0.19832622  0.62132579  0.88375423  1.0
  C  C78  1  0.30888907  0.11422318  0.38228014  1.0
  C  C79  1  0.69832459  0.87867880  0.61624342  1.0
  C  C80  1  0.82031494  0.41975130  0.07387099  1.0
  C  C81  1  0.19764198  0.57589071  0.91965307  1.0
  C  C82  1  0.32031666  0.08023857  0.42612813  1.0
  C  C83  1  0.69766612  0.92410957  0.58034096  1.0
  C  C84  1  0.00587239  0.43687800  0.05401015  1.0
  C  C85  1  0.01832765  0.55537659  0.94065524  1.0
  C  C86  1  0.50587748  0.06311788  0.44598507  1.0
  C  C87  1  0.51836283  0.94461661  0.55934182  1.0
  C  C88  1  0.01409510  0.47639570  0.01309329  1.0
  C  C89  1  0.01949667  0.51242353  0.97906965  1.0
  C  C90  1  0.51410919  0.02359830  0.48689900  1.0
  C  C91  1  0.51950617  0.98756447  0.52092415  1.0
  C  C92  1  0.82891048  0.35448719  0.38437277  1.0
  C  C93  1  0.15766937  0.64233525  0.61815052  1.0
  C  C94  1  0.32889796  0.14550814  0.11563534  1.0
  C  C95  1  0.65768489  0.85766891  0.88184912  1.0
  C  C96  1  0.83023141  0.39010370  0.42182419  1.0
  C  C97  1  0.15557124  0.60716532  0.58039067  1.0
  C  C98  1  0.33023432  0.10989445  0.07818536  1.0
  C  C99  1  0.65559502  0.89283368  0.91961007  1.0
  C  C100  1  0.99622372  0.42447935  0.42896451  1.0
  C  C101  1  0.99026846  0.57242850  0.57355716  1.0
  C  C102  1  0.49622611  0.07552226  0.07104063  1.0
  C  C103  1  0.49030493  0.92757268  0.92645388  1.0
  C  C104  1  0.16228852  0.42153156  0.39863024  1.0
  C  C105  1  0.82521361  0.57486422  0.60426433  1.0
  C  C106  1  0.66232043  0.07847210  0.10136459  1.0
  C  C107  1  0.32523652  0.92514032  0.89575039  1.0
  C  C108  1  0.16230141  0.38465275  0.36209446  1.0
  C  C109  1  0.82595127  0.61127962  0.64114827  1.0
  C  C110  1  0.66232086  0.11535546  0.13790146  1.0
  C  C111  1  0.32594815  0.88872650  0.85885851  1.0
  C  C112  1  0.99492609  0.35146506  0.35437943  1.0
  C  C113  1  0.99307608  0.64458203  0.64874289  1.0
  C  C114  1  0.49491828  0.14853426  0.14562319  1.0
  C  C115  1  0.49307835  0.85541990  0.85125550  1.0
  C  C116  1  0.99157831  0.53321704  0.53502365  1.0
  C  C117  1  0.99511669  0.46360553  0.46756007  1.0
  C  C118  1  0.49157835  0.96677533  0.96498666  1.0
  C  C119  1  0.49514219  0.03639254  0.03244688  1.0
  C  C120  1  0.58524127  0.41123087  0.17676853  1.0
  C  C121  1  0.41999612  0.69702097  0.88839379  1.0
  C  C122  1  0.08523199  0.08877106  0.32322595  1.0
  C  C123  1  0.92001223  0.80298509  0.61160460  1.0
  C  C124  1  0.60427872  0.40646233  0.01009698  1.0
  C  C125  1  0.42022692  0.50293090  0.90901029  1.0
  C  C126  1  0.10424918  0.09353027  0.48990138  1.0
  C  C127  1  0.92024035  0.99706733  0.59098593  1.0
  N  N128  1  0.14576238  0.50137260  0.46888232  1.0
  N  N129  1  0.84161243  0.49524543  0.53388710  1.0
  N  N130  1  0.64577931  0.99861989  0.03112166  1.0
  N  N131  1  0.34163849  0.00474077  0.96613110  1.0
  N  N132  1  0.14398945  0.53669297  0.50315259  1.0
  N  N133  1  0.84344605  0.45986468  0.49964315  1.0
  N  N134  1  0.64400442  0.96329475  0.99685181  1.0
  N  N135  1  0.34347703  0.04012269  0.00037246  1.0
  O  O136  1  0.66405834  0.79870953  0.69904356  1.0
  O  O137  1  0.32347065  0.19640038  0.29925678  1.0
  O  O138  1  0.16407456  0.70129245  0.80095208  1.0
  O  O139  1  0.82349400  0.30363297  0.20076546  1.0
  O  O140  1  0.33030105  0.80632177  0.79199352  1.0
  O  O141  1  0.66000203  0.19835994  0.20393274  1.0
  O  O142  1  0.83035482  0.69368670  0.70800601  1.0
  O  O143  1  0.15995409  0.30165792  0.29605958  1.0
  O  O144  1  0.33061471  0.80163714  0.69404464  1.0
  O  O145  1  0.65780554  0.19480428  0.30179692  1.0
  O  O146  1  0.83062738  0.69836159  0.80595958  1.0
  O  O147  1  0.15784118  0.30519295  0.19819902  1.0
  O  O148  1  0.16622089  0.69932125  0.70217581  1.0
  O  O149  1  0.82329308  0.29772582  0.29984935  1.0
  O  O150  1  0.66620511  0.80068255  0.79782741  1.0
  O  O151  1  0.32333997  0.20226645  0.20016456  1.0
  O  O152  1  0.49450143  0.71506243  0.75419184  1.0
  O  O153  1  0.49331445  0.28458166  0.24850211  1.0
  O  O154  1  0.99449681  0.78494458  0.74581087  1.0
  O  O155  1  0.99332193  0.21542614  0.25150485  1.0
  O  O156  1  0.62421337  0.37667654  0.13743578  1.0
  O  O157  1  0.37864247  0.64314727  0.86915777  1.0
  O  O158  1  0.12420041  0.12331476  0.36256645  1.0
  O  O159  1  0.87862744  0.85685776  0.63084009  1.0
  O  O160  1  0.64875121  0.43815275  0.05105405  1.0
  O  O161  1  0.37379092  0.55155271  0.93513719  1.0
  O  O162  1  0.14876827  0.06183666  0.44894914  1.0
  O  O163  1  0.87380767  0.94844841  0.56485744  1.0
