# generated using pymatgen
data_AlH8C14NO8
_symmetry_space_group_name_H-M   'P 1'
_cell_length_a   6.65783088
_cell_length_b   11.05231324
_cell_length_c   17.02358477
_cell_angle_alpha   85.79934834
_cell_angle_beta   81.52234646
_cell_angle_gamma   73.42744616
_symmetry_Int_Tables_number   1
_chemical_formula_structural   AlH8C14NO8
_chemical_formula_sum   'Al2 H16 C28 N2 O16'
_cell_volume   1186.87189025
_cell_formula_units_Z   2
loop_
 _symmetry_equiv_pos_site_id
 _symmetry_equiv_pos_as_xyz
  1  'x, y, z'
loop_
 _atom_site_type_symbol
 _atom_site_label
 _atom_site_symmetry_multiplicity
 _atom_site_fract_x
 _atom_site_fract_y
 _atom_site_fract_z
 _atom_site_occupancy
  Al  Al0  1  0.48657701  0.50267701  0.49588841  1.0
  Al  Al1  1  0.98762968  0.50069297  0.49726742  1.0
  H  H2  1  0.17857289  0.65043951  0.44995915  1.0
  H  H3  1  0.79652808  0.34696965  0.52201554  1.0
  H  H4  1  0.81834817  0.52155693  0.73969243  1.0
  H  H5  1  0.76769154  0.51807701  0.88786722  1.0
  H  H6  1  0.43633555  0.46154665  0.88524401  1.0
  H  H7  1  0.55869618  0.52084403  0.10557321  1.0
  H  H8  1  0.22649072  0.46038176  0.10701215  1.0
  H  H9  1  0.16845573  0.46262320  0.25518308  1.0
  H  H10  1  0.85631829  0.76882617  0.61370808  1.0
  H  H11  1  0.63276234  0.23866746  0.59949309  1.0
  H  H12  1  0.18619198  0.11382901  0.44252733  1.0
  H  H13  1  0.29954429  0.87828914  0.44991669  1.0
  H  H14  1  0.52026753  0.46636569  0.67425521  1.0
  H  H15  1  0.46418230  0.52781437  0.31659406  1.0
  H  H16  1  0.87285418  0.80067656  0.76651997  1.0
  H  H17  1  0.02294882  0.24134352  0.60830152  1.0
  C  C18  1  0.61998104  0.72686291  0.51145286  1.0
  C  C19  1  0.80327539  0.49763138  0.35160346  1.0
  C  C20  1  0.35677446  0.27215394  0.49681991  1.0
  C  C21  1  0.17678743  0.49874628  0.64165670  1.0
  C  C22  1  0.15420581  0.49593938  0.72828676  1.0
  C  C23  1  0.95187166  0.51054401  0.77203310  1.0
  C  C24  1  0.92264454  0.50819407  0.85380123  1.0
  C  C25  1  0.09987628  0.49047527  0.89438275  1.0
  C  C26  1  0.30165711  0.47561665  0.85284600  1.0
  C  C27  1  0.33166608  0.47754322  0.76960927  1.0
  C  C28  1  0.69117329  0.50780563  0.13903719  1.0
  C  C29  1  0.89469382  0.49084044  0.09848041  1.0
  C  C30  1  0.06964466  0.47347139  0.14019639  1.0
  C  C31  1  0.03621988  0.47439005  0.22202979  1.0
  C  C32  1  0.83174975  0.49290167  0.26479770  1.0
  C  C33  1  0.65677239  0.50983492  0.22215637  1.0
  C  C34  1  0.55105075  0.86692548  0.51754743  1.0
  C  C35  1  0.65550708  0.93398175  0.55887855  1.0
  C  C36  1  0.38063323  0.93155807  0.47897120  1.0
  C  C37  1  0.81036945  0.87161931  0.60866108  1.0
  C  C38  1  0.90199412  0.93880131  0.65085210  1.0
  C  C39  1  0.42352769  0.13245101  0.50942941  1.0
  C  C40  1  0.31653802  0.06382794  0.47505240  1.0
  C  C41  1  0.59177642  0.06971094  0.55425109  1.0
  C  C42  1  0.68975996  0.13607368  0.59835214  1.0
  C  C43  1  0.84349424  0.07321059  0.64477099  1.0
  C  C44  1  0.07463847  0.87089133  0.69936239  1.0
  C  C45  1  0.92860601  0.14261758  0.69896166  1.0
  N  N46  1  0.08968315  0.48614751  0.97810395  1.0
  N  N47  1  0.90676124  0.49388537  0.01472587  1.0
  O  O48  1  0.47486875  0.67166528  0.51518510  1.0
  O  O49  1  0.96303499  0.48401697  0.38782349  1.0
  O  O50  1  0.15736391  0.32570683  0.50322399  1.0
  O  O51  1  0.36709358  0.48110592  0.60373429  1.0
  O  O52  1  0.49900992  0.32934361  0.47988303  1.0
  O  O53  1  0.01416146  0.51652339  0.60631880  1.0
  O  O54  1  0.81772845  0.67247785  0.49918914  1.0
  O  O55  1  0.61081422  0.51768694  0.38788726  1.0
  O  O56  1  0.22215487  0.56023838  0.46172755  1.0
  O  O57  1  0.75405142  0.43764940  0.52912214  1.0
  O  O58  1  0.53031917  0.46123224  0.73240699  1.0
  O  O59  1  0.45635374  0.52896803  0.25829051  1.0
  O  O60  1  0.02436584  0.79321495  0.75945646  1.0
  O  O61  1  0.25387125  0.88100353  0.68420543  1.0
  O  O62  1  0.01161783  0.23641015  0.66651559  1.0
  O  O63  1  0.92066829  0.11672594  0.76978769  1.0
