# generated using pymatgen
data_ZnH9C17(NO2)3
_symmetry_space_group_name_H-M   'P 1'
_cell_length_a   14.10106034
_cell_length_b   16.03852252
_cell_length_c   17.27678401
_cell_angle_alpha   93.52155881
_cell_angle_beta   91.64033952
_cell_angle_gamma   98.03841033
_symmetry_Int_Tables_number   1
_chemical_formula_structural   ZnH9C17(NO2)3
_chemical_formula_sum   'Zn2 H18 C34 N6 O12'
_cell_volume   3858.88510969
_cell_formula_units_Z   2
loop_
 _symmetry_equiv_pos_site_id
 _symmetry_equiv_pos_as_xyz
  1  'x, y, z'
loop_
 _atom_site_type_symbol
 _atom_site_label
 _atom_site_symmetry_multiplicity
 _atom_site_fract_x
 _atom_site_fract_y
 _atom_site_fract_z
 _atom_site_occupancy
  Zn  Zn0  1  0.49548815  0.41094039  0.49975337  1.0
  Zn  Zn1  1  0.50450439  0.58905362  0.50024695  1.0
  H  H2  1  0.98269419  0.40336624  0.50524857  1.0
  H  H3  1  0.44444946  0.62963356  0.74432223  1.0
  H  H4  1  0.44294155  0.09193516  0.39747134  1.0
  H  H5  1  0.55708956  0.90806140  0.60252272  1.0
  H  H6  1  0.40871213  0.84682095  0.38022059  1.0
  H  H7  1  0.59129244  0.15317768  0.61978305  1.0
  H  H8  1  0.43089767  0.69424889  0.39474729  1.0
  H  H9  1  0.56909710  0.30574579  0.60525425  1.0
  H  H10  1  0.40176502  0.25115614  0.26652495  1.0
  H  H11  1  0.59823936  0.74883178  0.73346939  1.0
  H  H12  1  0.01730079  0.59668636  0.49475112  1.0
  H  H13  1  0.57649637  0.40451114  0.75049127  1.0
  H  H14  1  0.42349031  0.59548152  0.24950947  1.0
  H  H15  1  0.57005311  0.41133164  0.89597921  1.0
  H  H16  1  0.42996566  0.58867730  0.10402408  1.0
  H  H17  1  0.56407906  0.36439305  0.10970138  1.0
  H  H18  1  0.43594349  0.63561785  0.89029975  1.0
  H  H19  1  0.55554653  0.37036492  0.25567782  1.0
  C  C20  1  0.48923563  0.49051780  0.34782402  1.0
  C  C21  1  0.47026218  0.13745791  0.44490403  1.0
  C  C22  1  0.48451172  0.88848193  0.48931678  1.0
  C  C23  1  0.51550235  0.11151434  0.51067934  1.0
  C  C24  1  0.44640515  0.82806023  0.43077801  1.0
  C  C25  1  0.55359913  0.17193650  0.56922379  1.0
  C  C26  1  0.45874394  0.74434324  0.43839946  1.0
  C  C27  1  0.54125512  0.25565152  0.56160331  1.0
  C  C28  1  0.31496470  0.49068590  0.50592756  1.0
  C  C29  1  0.68502998  0.50931822  0.49407511  1.0
  C  C30  1  0.78842184  0.52072409  0.49370294  1.0
  C  C31  1  0.51075051  0.50947107  0.65217534  1.0
  C  C32  1  0.21157677  0.47928765  0.50630197  1.0
  C  C33  1  0.97604712  0.53394914  0.49733225  1.0
  C  C34  1  0.02395027  0.46609594  0.50266068  1.0
  C  C35  1  0.12425466  0.47305764  0.50476325  1.0
  C  C36  1  0.87574282  0.52697737  0.49523430  1.0
  C  C37  1  0.48972548  0.48374715  0.26091629  1.0
  C  C38  1  0.51026391  0.51624492  0.73908155  1.0
  C  C39  1  0.45405192  0.54515355  0.21812081  1.0
  C  C40  1  0.54594232  0.45484238  0.78188080  1.0
  C  C41  1  0.45772713  0.54174840  0.13791165  1.0
  C  C42  1  0.53286887  0.41420090  0.14141037  1.0
  C  C43  1  0.54228328  0.45825662  0.86209071  1.0
  C  C44  1  0.49904516  0.47676513  0.09902776  1.0
  C  C45  1  0.50097182  0.52324630  0.90097564  1.0
  C  C46  1  0.40306786  0.24976009  0.37581635  1.0
  C  C47  1  0.59694739  0.75022865  0.62418629  1.0
  C  C48  1  0.46714537  0.58580607  0.85859332  1.0
  C  C49  1  0.52808522  0.41759231  0.22187770  1.0
  C  C50  1  0.47191281  0.58240558  0.77812176  1.0
  C  C51  1  0.53983740  0.77775931  0.55758992  1.0
  C  C52  1  0.46017005  0.22223496  0.44240888  1.0
  C  C53  1  0.52975333  0.86253838  0.55509327  1.0
  N  N54  1  0.50995945  0.46886185  0.01801399  1.0
  N  N55  1  0.49006474  0.53115033  0.98198956  1.0
  N  N56  1  0.50604227  0.71967752  0.49980634  1.0
  N  N57  1  0.49395721  0.28031536  0.50019459  1.0
  N  N58  1  0.47249789  0.97331557  0.47839096  1.0
  N  N59  1  0.52752064  0.02668204  0.52160645  1.0
  O  O60  1  0.49503969  0.42328049  0.38222100  1.0
  O  O61  1  0.44144349  0.23057909  0.30679736  1.0
  O  O62  1  0.67033286  0.71969919  0.61653183  1.0
  O  O63  1  0.55856065  0.76940694  0.69319860  1.0
  O  O64  1  0.50496424  0.57670869  0.61777977  1.0
  O  O65  1  0.48441048  0.56309148  0.38041872  1.0
  O  O66  1  0.51556804  0.43689348  0.61958204  1.0
  O  O67  1  0.35511824  0.42461514  0.51020580  1.0
  O  O68  1  0.64487134  0.57538386  0.48978724  1.0
  O  O69  1  0.35605619  0.56608885  0.50119291  1.0
  O  O70  1  0.64394046  0.43390839  0.49881576  1.0
  O  O71  1  0.32967093  0.28029943  0.38346717  1.0
