# generated using pymatgen
data_Cu4H8C21N8
_symmetry_space_group_name_H-M   'P 1'
_cell_length_a   28.12351806
_cell_length_b   28.13627623
_cell_length_c   28.13518550
_cell_angle_alpha   109.31808646
_cell_angle_beta   109.51651092
_cell_angle_gamma   109.57625765
_symmetry_Int_Tables_number   1
_chemical_formula_structural   Cu4H8C21N8
_chemical_formula_sum   'Cu24 H48 C126 N48'
_cell_volume   17138.68078842
_cell_formula_units_Z   6
loop_
 _symmetry_equiv_pos_site_id
 _symmetry_equiv_pos_as_xyz
  1  'x, y, z'
loop_
 _atom_site_type_symbol
 _atom_site_label
 _atom_site_symmetry_multiplicity
 _atom_site_fract_x
 _atom_site_fract_y
 _atom_site_fract_z
 _atom_site_occupancy
  Cu  Cu0  1  0.62122552  0.54462195  0.56969329  1.0
  Cu  Cu1  1  0.57006529  0.62358572  0.54310625  1.0
  Cu  Cu2  1  0.54330366  0.57124299  0.62224485  1.0
  Cu  Cu3  1  0.87870585  0.94872909  0.42333014  1.0
  Cu  Cu4  1  0.93020523  0.97305698  0.55329891  1.0
  Cu  Cu5  1  0.95692470  0.07901309  0.52807722  1.0
  Cu  Cu6  1  0.52507551  0.95492125  0.07685234  1.0
  Cu  Cu7  1  0.41938478  0.87675284  0.94668037  1.0
  Cu  Cu8  1  0.55082521  0.92914317  0.97236996  1.0
  Cu  Cu9  1  0.97465129  0.55119457  0.93035314  1.0
  Cu  Cu10  1  0.08027294  0.52668241  0.95702633  1.0
  Cu  Cu11  1  0.94898568  0.42093330  0.87794088  1.0
  Cu  Cu12  1  0.12236660  0.07112400  0.04597146  1.0
  Cu  Cu13  1  0.07008031  0.04297533  0.12379435  1.0
  Cu  Cu14  1  0.04354443  0.12246313  0.07191996  1.0
  Cu  Cu15  1  0.37771127  0.92334913  0.44888218  1.0
  Cu  Cu16  1  0.43016121  0.05345224  0.47294522  1.0
  Cu  Cu17  1  0.45672911  0.02810374  0.57893196  1.0
  Cu  Cu18  1  0.02549737  0.57649116  0.45373619  1.0
  Cu  Cu19  1  0.91955433  0.44639506  0.37627292  1.0
  Cu  Cu20  1  0.05106623  0.47185013  0.42848861  1.0
  Cu  Cu21  1  0.47455874  0.42984535  0.05080179  1.0
  Cu  Cu22  1  0.58047145  0.45712694  0.02659682  1.0
  Cu  Cu23  1  0.44899189  0.37737465  0.92057562  1.0
  H  H24  1  0.69066985  0.54436458  0.50092211  1.0
  H  H25  1  0.62148143  0.65240153  0.46431541  1.0
  H  H26  1  0.54480688  0.50213639  0.69245227  1.0
  H  H27  1  0.65101197  0.46641570  0.62019974  1.0
  H  H28  1  0.50139939  0.69326675  0.54414945  1.0
  H  H29  1  0.46504618  0.62213357  0.65112012  1.0
  H  H30  1  0.80916691  0.81066450  0.35336493  1.0
  H  H31  1  0.87891189  0.84283156  0.53044934  1.0
  H  H32  1  0.95557497  0.14794768  0.45775688  1.0
  H  H33  1  0.84890867  0.96964283  0.31559814  1.0
  H  H34  1  0.99897785  0.04236696  0.69164594  1.0
  H  H35  1  0.03527689  0.18597304  0.65728897  1.0
  H  H36  1  0.45662385  0.95467554  0.14646128  1.0
  H  H37  1  0.31187658  0.84814517  0.96927264  1.0
  H  H38  1  0.69027195  0.99849558  0.04294873  1.0
  H  H39  1  0.65378362  0.03275477  0.18488279  1.0
  H  H40  1  0.35061068  0.80749927  0.80840765  1.0
  H  H41  1  0.52880951  0.87864683  0.84322193  1.0
  H  H42  1  0.04293710  0.68921486  0.99891841  1.0
  H  H43  1  0.18776548  0.65683315  0.03539674  1.0
  H  H44  1  0.80971096  0.35210965  0.80731190  1.0
  H  H45  1  0.84597595  0.53044402  0.87985208  1.0
  H  H46  1  0.14913422  0.45716712  0.95646570  1.0
  H  H47  1  0.97097129  0.31380474  0.84928929  1.0
  H  H48  1  0.19199768  0.00260265  0.04561327  1.0
  H  H49  1  0.12068595  0.96340459  0.15143932  1.0
  H  H50  1  0.04420182  0.19222641  0.00227800  1.0
  H  H51  1  0.15226331  0.12204987  0.96800614  1.0
  H  H52  1  0.00091086  0.04313388  0.19302526  1.0
  H  H53  1  0.96487749  0.15062566  0.12258962  1.0
  H  H54  1  0.30788070  0.85334422  0.31082186  1.0
  H  H55  1  0.37932226  0.03037178  0.34270403  1.0
  H  H56  1  0.45609645  0.95796670  0.64813947  1.0
  H  H57  1  0.34780695  0.81553342  0.47002855  1.0
  H  H58  1  0.49971548  0.19188617  0.54233814  1.0
  H  H59  1  0.53563808  0.15730755  0.68574587  1.0
  H  H60  1  0.95730655  0.64642125  0.45350057  1.0
  H  H61  1  0.81220758  0.46933938  0.34824095  1.0
  H  H62  1  0.19049890  0.54223732  0.49842782  1.0
  H  H63  1  0.15442465  0.68440865  0.53187324  1.0
  H  H64  1  0.85064543  0.30796576  0.30759326  1.0
  H  H65  1  0.02874193  0.34266858  0.37834993  1.0
  H  H66  1  0.54286614  0.49878494  0.18896805  1.0
  H  H67  1  0.68784394  0.53635090  0.15671457  1.0
  H  H68  1  0.30955850  0.30697222  0.85160642  1.0
  H  H69  1  0.34562231  0.37911826  0.02984030  1.0
  H  H70  1  0.64948103  0.45661316  0.95724472  1.0
  H  H71  1  0.47147967  0.34878279  0.81375124  1.0
  C  C72  1  0.66903280  0.56956642  0.49764489  1.0
  C  C73  1  0.66816950  0.60125695  0.46804817  1.0
  C  C74  1  0.63355530  0.62490640  0.47894357  1.0
  C  C75  1  0.56939099  0.49912066  0.67007823  1.0
  C  C76  1  0.60116619  0.46972636  0.66838277  1.0
  C  C77  1  0.62381427  0.48079041  0.63309366  1.0
  C  C78  1  0.49820573  0.67118671  0.56903189  1.0
  C  C79  1  0.46859341  0.66970144  0.60063411  1.0
  C  C80  1  0.47959603  0.63473206  0.62381214  1.0
  C  C81  1  0.83092248  0.82889217  0.40018106  1.0
  C  C82  1  0.83196174  0.80008989  0.43265605  1.0
  C  C83  1  0.86670152  0.84548383  0.49093451  1.0
  C  C84  1  0.93087122  0.10101543  0.43006693  1.0
  C  C85  1  0.89903405  0.06763617  0.36891191  1.0
  C  C86  1  0.87623046  0.00969655  0.35721086  1.0
  C  C87  1  0.00215870  0.07054375  0.67287300  1.0
  C  C88  1  0.03173925  0.13175067  0.70111222  1.0
  C  C89  1  0.02074238  0.14407978  0.65524897  1.0
  C  C90  1  0.42812400  0.92984283  0.09963185  1.0
  C  C91  1  0.36683343  0.89853620  0.06706778  1.0
  C  C92  1  0.35402429  0.87527245  0.00882679  1.0
  C  C93  1  0.67092368  0.00114033  0.07055363  1.0
  C  C94  1  0.69865201  0.03017739  0.13170376  1.0
  C  C95  1  0.65230638  0.01875881  0.14331715  1.0
  C  C96  1  0.39759678  0.82955083  0.82728287  1.0
  C  C97  1  0.43071697  0.83109963  0.79918708  1.0
  C  C98  1  0.48888206  0.86601478  0.84515625  1.0
  C  C99  1  0.07146848  0.67091077  0.00219067  1.0
  C  C100  1  0.13275807  0.69964546  0.03168580  1.0
  C  C101  1  0.14560673  0.65422891  0.02083033  1.0
  C  C102  1  0.82898128  0.39903934  0.82977490  1.0
  C  C103  1  0.80121985  0.43244321  0.83146685  1.0
  C  C104  1  0.84750059  0.49037514  0.86688985  1.0
  C  C105  1  0.10215554  0.42906122  0.93150601  1.0
  C  C106  1  0.06907028  0.36786663  0.89991622  1.0
  C  C107  1  0.01089393  0.35565587  0.87662212  1.0
  C  C108  1  0.16989821  0.99875552  0.07035949  1.0
  C  C109  1  0.16831730  0.96836965  0.10125614  1.0
  C  C110  1  0.13330376  0.97872661  0.12455286  1.0
  C  C111  1  0.06930358  0.17039953  0.99963760  1.0
  C  C112  1  0.10131049  0.16908225  0.97042461  1.0
  C  C113  1  0.12465236  0.13446817  0.98205464  1.0
  C  C114  1  0.99782549  0.06819844  0.17113512  1.0
  C  C115  1  0.96819870  0.09976146  0.16972930  1.0
  C  C116  1  0.97940658  0.12324857  0.13502617  1.0
  C  C117  1  0.33002356  0.90017028  0.32902113  1.0
  C  C118  1  0.33156079  0.93258844  0.30015494  1.0
  C  C119  1  0.36667478  0.99090105  0.34546403  1.0
  C  C120  1  0.43093104  0.93018456  0.60123175  1.0
  C  C121  1  0.39886926  0.86898609  0.56797897  1.0
  C  C122  1  0.37546340  0.85720093  0.51001238  1.0
  C  C123  1  0.50273416  0.17302681  0.57043951  1.0
  C  C124  1  0.53239042  0.20120880  0.63162218  1.0
  C  C125  1  0.52112023  0.15528971  0.64387813  1.0
  C  C126  1  0.92868042  0.59958846  0.42890662  1.0
  C  C127  1  0.86735540  0.56713532  0.39807615  1.0
  C  C128  1  0.85442621  0.50883892  0.37500682  1.0
  C  C129  1  0.17126964  0.56993453  0.50084204  1.0
  C  C130  1  0.19911838  0.63112948  0.52990816  1.0
  C  C131  1  0.15282416  0.64278137  0.51799444  1.0
  C  C132  1  0.89762991  0.32686443  0.32952215  1.0
  C  C133  1  0.93066867  0.29871407  0.33109273  1.0
  C  C134  1  0.98885920  0.34466244  0.36578188  1.0
  C  C135  1  0.57144148  0.50226571  0.17069510  1.0
  C  C136  1  0.63274947  0.53213940  0.19947846  1.0
  C  C137  1  0.64565248  0.52147156  0.15407697  1.0
  C  C138  1  0.32878806  0.32932450  0.89852623  1.0
  C  C139  1  0.30094010  0.33102149  0.93189139  1.0
  C  C140  1  0.34722579  0.36626012  0.98980639  1.0
  C  C141  1  0.60250422  0.43148951  0.92910676  1.0
  C  C142  1  0.56952349  0.39978703  0.86793454  1.0
  C  C143  1  0.51131013  0.37626643  0.85564782  1.0
  C  C144  1  0.62620222  0.37606092  0.74972211  1.0
  C  C145  1  0.87379185  0.12381613  0.25017610  1.0
  C  C146  1  0.37420491  0.75026913  0.62437982  1.0
  C  C147  1  0.12585847  0.24975508  0.87601379  1.0
  C  C148  1  0.74998233  0.62491957  0.37457169  1.0
  C  C149  1  0.24974303  0.87479027  0.12513432  1.0
  C  C150  1  0.69590109  0.60830406  0.43544810  1.0
  C  C151  1  0.71986279  0.61489868  0.40747416  1.0
  C  C152  1  0.80421327  0.73979203  0.41195753  1.0
  C  C153  1  0.78020566  0.68789950  0.39468575  1.0
  C  C154  1  0.32719978  0.89146953  0.08771575  1.0
  C  C155  1  0.29262747  0.88483224  0.10505731  1.0
  C  C156  1  0.17233451  0.75992663  0.06424425  1.0
  C  C157  1  0.20685274  0.81184237  0.09224897  1.0
  C  C158  1  0.60903251  0.43714390  0.69597321  1.0
  C  C159  1  0.61616409  0.40922132  0.71989340  1.0
  C  C160  1  0.74104766  0.41268284  0.80374460  1.0
  C  C161  1  0.68921379  0.39596222  0.77968504  1.0
  C  C162  1  0.89117017  0.08739526  0.32851904  1.0
  C  C163  1  0.88388066  0.10403489  0.29336161  1.0
  C  C164  1  0.75886409  0.06277166  0.17210282  1.0
  C  C165  1  0.81075028  0.09068519  0.20707228  1.0
  C  C166  1  0.43579558  0.69709621  0.60793064  1.0
  C  C167  1  0.40761175  0.72071502  0.61468677  1.0
  C  C168  1  0.41063247  0.80369360  0.73902166  1.0
  C  C169  1  0.39386111  0.77999658  0.68725827  1.0
  C  C170  1  0.08918694  0.32780505  0.89266021  1.0
  C  C171  1  0.10603539  0.29286161  0.88586595  1.0
  C  C172  1  0.06446284  0.17172403  0.76130676  1.0
  C  C173  1  0.09255184  0.20660392  0.81310456  1.0
  C  C174  1  0.19586791  0.93565846  0.10820355  1.0
  C  C175  1  0.21969574  0.90766772  0.11506430  1.0
  C  C176  1  0.30385976  0.91188749  0.23988564  1.0
  C  C177  1  0.27985644  0.89476105  0.18804264  1.0
  C  C178  1  0.82769970  0.58777967  0.39116544  1.0
  C  C179  1  0.79289785  0.60484113  0.38451613  1.0
  C  C180  1  0.67238702  0.56457767  0.25976338  1.0
  C  C181  1  0.70704426  0.59222593  0.31163389  1.0
  C  C182  1  0.10884933  0.19639862  0.93751780  1.0
  C  C183  1  0.11587993  0.22003061  0.90932053  1.0
  C  C184  1  0.24070444  0.30345043  0.91217313  1.0
  C  C185  1  0.18887687  0.27960658  0.89564727  1.0
  C  C186  1  0.39129286  0.82861529  0.58784506  1.0
  C  C187  1  0.38423204  0.79347340  0.60455095  1.0
  C  C188  1  0.25935308  0.67161820  0.56286783  1.0
  C  C189  1  0.31119020  0.70688432  0.59107277  1.0
  C  C190  1  0.93527581  0.10694279  0.19699743  1.0
  C  C191  1  0.90701306  0.11386153  0.22048059  1.0
  C  C192  1  0.91051024  0.23852330  0.30375053  1.0
  C  C193  1  0.89366252  0.18674112  0.27995194  1.0
  C  C194  1  0.58965212  0.39260401  0.82787167  1.0
  C  C195  1  0.60632674  0.38580828  0.79278173  1.0
  C  C196  1  0.56519778  0.26139211  0.67164145  1.0
  C  C197  1  0.59316471  0.31316483  0.70660394  1.0
  N  N198  1  0.61540413  0.60846483  0.51241015  1.0
  N  N199  1  0.63739878  0.57418786  0.52397958  1.0
  N  N200  1  0.60673590  0.51414005  0.61538014  1.0
  N  N201  1  0.57302596  0.52552456  0.63827931  1.0
  N  N202  1  0.51311277  0.61696819  0.60719884  1.0
  N  N203  1  0.52465336  0.63956081  0.57324384  1.0
  N  N204  1  0.88476491  0.89713492  0.49274265  1.0
  N  N205  1  0.86258837  0.88681922  0.43652746  1.0
  N  N206  1  0.89327048  0.00895498  0.40758082  1.0
  N  N207  1  0.92711056  0.06549076  0.45272665  1.0
  N  N208  1  0.98724565  0.09404044  0.60392530  1.0
  N  N209  1  0.97572299  0.04846373  0.61484134  1.0
  N  N210  1  0.40394601  0.89158102  0.00713248  1.0
  N  N211  1  0.44981176  0.92536897  0.06337002  1.0
  N  N212  1  0.60122233  0.98552955  0.09290823  1.0
  N  N213  1  0.61269361  0.97458228  0.04780095  1.0
  N  N214  1  0.49002739  0.88368536  0.89641828  1.0
  N  N215  1  0.43345146  0.86107754  0.88532631  1.0
  N  N216  1  0.09571158  0.60260966  0.98746780  1.0
  N  N217  1  0.04983263  0.61298265  0.97594612  1.0
  N  N218  1  0.89860476  0.49107447  0.88469228  1.0
  N  N219  1  0.88718650  0.43453302  0.86172449  1.0
  N  N220  1  0.00972502  0.40575490  0.89315074  1.0
  N  N221  1  0.06627668  0.45125083  0.92716040  1.0
  N  N222  1  0.11560171  0.01266659  0.10867650  1.0
  N  N223  1  0.13827361  0.02506198  0.07510956  1.0
  N  N224  1  0.10777194  0.11678632  0.01553978  1.0
  N  N225  1  0.07347469  0.13902799  0.02645714  1.0
  N  N226  1  0.01306028  0.10686137  0.11732485  1.0
  N  N227  1  0.02447565  0.07274089  0.13970823  1.0
  N  N228  1  0.38446469  0.99278520  0.39713246  1.0
  N  N229  1  0.36175357  0.93657920  0.38692489  1.0
  N  N230  1  0.39235817  0.90752392  0.50913452  1.0
  N  N231  1  0.42672504  0.95276158  0.56563025  1.0
  N  N232  1  0.48737179  0.10397047  0.59382558  1.0
  N  N233  1  0.47597690  0.11496970  0.54831184  1.0
  N  N234  1  0.90426089  0.50699983  0.39095522  1.0
  N  N235  1  0.95024197  0.56322837  0.42434179  1.0
  N  N236  1  0.10165957  0.59239970  0.48447884  1.0
  N  N237  1  0.11304987  0.54724357  0.47383334  1.0
  N  N238  1  0.99009260  0.39596732  0.38328109  1.0
  N  N239  1  0.93354122  0.38493785  0.36080498  1.0
  N  N240  1  0.59578903  0.48781218  0.10245996  1.0
  N  N241  1  0.54982920  0.47592099  0.11276505  1.0
  N  N242  1  0.39839671  0.38395120  0.99056752  1.0
  N  N243  1  0.38700682  0.36107896  0.93402075  1.0
  N  N244  1  0.50999760  0.39277680  0.90567424  1.0
  N  N245  1  0.56652300  0.42700511  0.95120713  1.0
