# generated using pymatgen
data_Zn4H10C28S2O13F4
_symmetry_space_group_name_H-M   'P 1'
_cell_length_a   18.56547126
_cell_length_b   19.73412267
_cell_length_c   32.84842037
_cell_angle_alpha   86.05312899
_cell_angle_beta   73.58454714
_cell_angle_gamma   61.93930909
_symmetry_Int_Tables_number   1
_chemical_formula_structural   Zn4H10C28S2O13F4
_chemical_formula_sum   'Zn16 H40 C112 S8 O52 F16'
_cell_volume   10157.93867980
_cell_formula_units_Z   4
loop_
 _symmetry_equiv_pos_site_id
 _symmetry_equiv_pos_as_xyz
  1  'x, y, z'
loop_
 _atom_site_type_symbol
 _atom_site_label
 _atom_site_symmetry_multiplicity
 _atom_site_fract_x
 _atom_site_fract_y
 _atom_site_fract_z
 _atom_site_occupancy
  Zn  Zn0  1  0.87383855  0.55740944  0.51918811  1.0
  Zn  Zn1  1  0.03907172  0.48357341  0.43815620  1.0
  Zn  Zn2  1  0.04115516  0.39878929  0.52376919  1.0
  Zn  Zn3  1  0.04725124  0.55943250  0.51816835  1.0
  Zn  Zn4  1  0.62485355  0.19067567  0.73197228  1.0
  Zn  Zn5  1  0.46377271  0.35115044  0.72630823  1.0
  Zn  Zn6  1  0.45868772  0.26505539  0.81249819  1.0
  Zn  Zn7  1  0.45251817  0.19308045  0.72941395  1.0
  Zn  Zn8  1  0.46181402  0.76360629  0.31302089  1.0
  Zn  Zn9  1  0.45461206  0.69139935  0.23042269  1.0
  Zn  Zn10  1  0.62502110  0.69318498  0.22941183  1.0
  Zn  Zn11  1  0.45877655  0.85129999  0.22629761  1.0
  Zn  Zn12  1  0.03628732  0.89890469  0.02382359  1.0
  Zn  Zn13  1  0.04970725  0.05733030  0.01910579  1.0
  Zn  Zn14  1  0.87638838  0.05881367  0.01966215  1.0
  Zn  Zn15  1  0.03640196  0.98496760  0.93753468  1.0
  H  H16  1  0.69681131  0.78272426  0.59430337  1.0
  H  H17  1  0.80288714  0.96711258  0.65568368  1.0
  H  H18  1  0.18850464  0.27418350  0.34878810  1.0
  H  H19  1  0.31168004  0.97520411  0.40150011  1.0
  H  H20  1  0.54262967  0.48269626  0.62164011  1.0
  H  H21  1  0.54792894  0.52278230  0.66693506  1.0
  H  H22  1  0.64394766  0.57093144  0.61890306  1.0
  H  H23  1  0.63873043  0.53085076  0.57354152  1.0
  H  H24  1  0.35295147  0.67382518  0.43079857  1.0
  H  H25  1  0.26229489  0.76201350  0.42826021  1.0
  H  H26  1  0.16605630  0.71395685  0.47625755  1.0
  H  H27  1  0.25661304  0.62580609  0.47881844  1.0
  H  H28  1  0.54741078  0.76212772  0.42813183  1.0
  H  H29  1  0.54232558  0.67398283  0.43063634  1.0
  H  H30  1  0.63848724  0.62582886  0.47868532  1.0
  H  H31  1  0.64360958  0.71395416  0.47617756  1.0
  H  H32  1  0.33379962  0.17918851  0.63115200  1.0
  H  H33  1  0.24325086  0.21921771  0.67649553  1.0
  H  H34  1  0.14697854  0.26730703  0.62841886  1.0
  H  H35  1  0.23761225  0.22722454  0.58311795  1.0
  H  H36  1  0.31145774  0.58990810  0.78706789  1.0
  H  H37  1  0.18865307  0.66015907  0.96294829  1.0
  H  H38  1  0.95733402  0.07629995  0.81937010  1.0
  H  H39  1  0.95212438  0.98828320  0.82196198  1.0
  H  H40  1  0.85606387  0.03620579  0.77389222  1.0
  H  H41  1  0.86113037  0.12431128  0.77124930  1.0
  H  H42  1  0.16624036  0.21375129  0.97603892  1.0
  H  H43  1  0.25691084  0.12568083  0.97864490  1.0
  H  H44  1  0.35302138  0.17377439  0.93056107  1.0
  H  H45  1  0.26237279  0.26178002  0.92799365  1.0
  H  H46  1  0.57469105  0.46705262  0.15573383  1.0
  H  H47  1  0.92660161  0.28291476  0.09430501  1.0
  H  H48  1  0.25689031  0.03104638  0.07349936  1.0
  H  H49  1  0.16610525  0.07129359  0.11881034  1.0
  H  H50  1  0.26216208  0.02310143  0.16692274  1.0
  H  H51  1  0.35287677  0.98293889  0.12165309  1.0
  H  H52  1  0.95208208  0.72691404  0.08313537  1.0
  H  H53  1  0.95734334  0.76707428  0.12841767  1.0
  H  H54  1  0.86116080  0.71905111  0.17652672  1.0
  H  H55  1  0.85599149  0.67884362  0.13123787  1.0
  C  C56  1  0.86256777  0.56822555  0.43116512  1.0
  C  C57  1  0.12353390  0.31520657  0.43849828  1.0
  C  C58  1  0.86323857  0.43073508  0.56863745  1.0
  C  C59  1  0.13796118  0.43198960  0.56849149  1.0
  C  C60  1  0.87617513  0.68437738  0.56112590  1.0
  C  C61  1  0.13759512  0.56868258  0.43091038  1.0
  C  C62  1  0.63854118  0.31795266  0.68143413  1.0
  C  C63  1  0.37708609  0.43469997  0.81121765  1.0
  C  C64  1  0.63645568  0.18130840  0.81926320  1.0
  C  C65  1  0.36197831  0.18119890  0.81826818  1.0
  C  C66  1  0.62338110  0.06555085  0.68851100  1.0
  C  C67  1  0.36313718  0.31941386  0.68093021  1.0
  C  C68  1  0.36304980  0.68082080  0.31870704  1.0
  C  C69  1  0.62304053  0.56555606  0.18824565  1.0
  C  C70  1  0.63775504  0.68110188  0.31844490  1.0
  C  C71  1  0.63655023  0.81937310  0.18097920  1.0
  C  C72  1  0.37681816  0.93360967  0.31184803  1.0
  C  C73  1  0.36226068  0.81828525  0.18112044  1.0
  C  C74  1  0.13726109  0.93090292  0.06866488  1.0
  C  C75  1  0.87871054  0.18439412  0.06141791  1.0
  C  C76  1  0.86173256  0.93168413  0.06878966  1.0
  C  C77  1  0.86181761  0.06914526  0.93147343  1.0
  C  C78  1  0.12184165  0.81540298  0.93881033  1.0
  C  C79  1  0.13727456  0.06845678  0.93106384  1.0
  C  C80  1  0.73913924  0.80173804  0.60062567  1.0
  C  C81  1  0.76064478  0.94796123  0.64936673  1.0
  C  C82  1  0.82688010  0.75893983  0.58625644  1.0
  C  C83  1  0.67285400  0.99074439  0.66362553  1.0
  C  C84  1  0.78496619  0.87910543  0.62639296  1.0
  C  C85  1  0.71490503  0.87056657  0.62356570  1.0
  C  C86  1  0.20128958  0.22750005  0.36984500  1.0
  C  C87  1  0.29907409  0.02174628  0.38037359  1.0
  C  C88  1  0.17291397  0.24039363  0.41375063  1.0
  C  C89  1  0.32747324  0.00862492  0.33650472  1.0
  C  C90  1  0.25319360  0.10134848  0.39255613  1.0
  C  C91  1  0.24734424  0.14787723  0.35758290  1.0
  C  C92  1  0.69669012  0.34481546  0.65285916  1.0
  C  C93  1  0.80799374  0.40077430  0.59704378  1.0
  C  C94  1  0.66621726  0.41713390  0.63638483  1.0
  C  C95  1  0.83963431  0.32763024  0.61342390  1.0
  C  C96  1  0.71920719  0.44372551  0.60983371  1.0
  C  C97  1  0.78621261  0.30077273  0.64018285  1.0
  C  C98  1  0.58553006  0.49008924  0.63593097  1.0
  C  C99  1  0.64568248  0.52027191  0.60582674  1.0
  C  C100  1  0.30583303  0.65209786  0.34623530  1.0
  C  C101  1  0.19420973  0.59641512  0.40181279  1.0
  C  C102  1  0.28014477  0.66358880  0.39060967  1.0
  C  C103  1  0.21958989  0.58431556  0.35704088  1.0
  C  C104  1  0.22702440  0.63710026  0.41706484  1.0
  C  C105  1  0.27314254  0.61112847  0.33033329  1.0
  C  C106  1  0.28831040  0.69916787  0.42737853  1.0
  C  C107  1  0.22802242  0.66905164  0.45742422  1.0
  C  C108  1  0.69604525  0.65213269  0.34611132  1.0
  C  C109  1  0.80745953  0.59623788  0.40195913  1.0
  C  C110  1  0.66569295  0.66363237  0.39049551  1.0
  C  C111  1  0.83911964  0.58424070  0.35718252  1.0
  C  C112  1  0.71871114  0.63705968  0.41702895  1.0
  C  C113  1  0.78560259  0.61111988  0.33038975  1.0
  C  C114  1  0.58507912  0.69927263  0.42722837  1.0
  C  C115  1  0.64531321  0.66910534  0.45732701  1.0
  C  C116  1  0.30592484  0.34943135  0.65275680  1.0
  C  C117  1  0.19432615  0.40519469  0.59706946  1.0
  C  C118  1  0.27280104  0.30639018  0.64011185  1.0
  C  C119  1  0.22709278  0.44934171  0.60968679  1.0
  C  C120  1  0.21969200  0.33291514  0.61358765  1.0
  C  C121  1  0.28061442  0.42260604  0.63640691  1.0
  C  C122  1  0.27179456  0.22984914  0.64420923  1.0
  C  C123  1  0.21154544  0.25993413  0.61411470  1.0
  C  C124  1  0.29884868  0.58155884  0.82091754  1.0
  C  C125  1  0.20127547  0.66852156  0.92909717  1.0
  C  C126  1  0.32732924  0.50918746  0.83632765  1.0
  C  C127  1  0.17253154  0.74087573  0.91369693  1.0
  C  C128  1  0.24725115  0.61041199  0.89537955  1.0
  C  C129  1  0.25290800  0.63965290  0.85464029  1.0
  C  C130  1  0.80353700  0.09825889  0.90389244  1.0
  C  C131  1  0.69192113  0.15386947  0.84826828  1.0
  C  C132  1  0.83384438  0.08681105  0.85951167  1.0
  C  C133  1  0.66046764  0.16590338  0.89302681  1.0
  C  C134  1  0.78073850  0.11328024  0.83300092  1.0
  C  C135  1  0.71400599  0.13924782  0.91976213  1.0
  C  C136  1  0.91447107  0.05113412  0.82280847  1.0
  C  C137  1  0.85424824  0.08118155  0.79269217  1.0
  C  C138  1  0.19409135  0.09606198  0.90185239  1.0
  C  C139  1  0.30553189  0.15182994  0.84598470  1.0
  C  C140  1  0.22718798  0.13665863  0.91693998  1.0
  C  C141  1  0.27269240  0.11081745  0.83029096  1.0
  C  C142  1  0.28020956  0.16323581  0.89038412  1.0
  C  C143  1  0.21921610  0.08406490  0.85707938  1.0
  C  C144  1  0.22823276  0.16883007  0.95722461  1.0
  C  C145  1  0.28844380  0.19892918  0.92710761  1.0
  C  C146  1  0.64241279  0.44790403  0.14940034  1.0
  C  C147  1  0.85894773  0.30189291  0.10063408  1.0
  C  C148  1  0.67324516  0.49066887  0.16359830  1.0
  C  C149  1  0.82836466  0.25904398  0.08633450  1.0
  C  C150  1  0.79137141  0.37058684  0.12361392  1.0
  C  C151  1  0.70994748  0.37904393  0.12645861  1.0
  C  C152  1  0.19398305  0.90104856  0.09706324  1.0
  C  C153  1  0.30548183  0.84520306  0.15278039  1.0
  C  C154  1  0.22697182  0.94409443  0.10982207  1.0
  C  C155  1  0.27274257  0.80102718  0.14015049  1.0
  C  C156  1  0.27997463  0.91754373  0.13637315  1.0
  C  C157  1  0.21918907  0.82787273  0.11341521  1.0
  C  C158  1  0.22808301  0.02058824  0.10578435  1.0
  C  C159  1  0.28825940  0.99040027  0.13592438  1.0
  C  C160  1  0.80350630  0.90485053  0.09714191  1.0
  C  C161  1  0.69193168  0.84927704  0.15279280  1.0
  C  C162  1  0.83385143  0.83255963  0.11360133  1.0
  C  C163  1  0.66042001  0.92247438  0.13646442  1.0
  C  C164  1  0.78073779  0.80607208  0.14012602  1.0
  C  C165  1  0.71396464  0.94918181  0.10973736  1.0
  C  C166  1  0.91446420  0.75964907  0.11412846  1.0
  C  C167  1  0.85422513  0.72956606  0.14424376  1.0
  S  S168  1  0.88036048  0.80176366  0.60053918  1.0
  S  S169  1  0.61946442  0.94790364  0.64930560  1.0
  S  S170  1  0.20166894  0.15645795  0.44034049  1.0
  S  S171  1  0.29885158  0.09251812  0.30983880  1.0
  S  S172  1  0.29872957  0.51115868  0.89160260  1.0
  S  S173  1  0.20122652  0.73891773  0.85841838  1.0
  S  S174  1  0.78376909  0.44788259  0.14934029  1.0
  S  S175  1  0.71779833  0.30170881  0.10059809  1.0
  O  O176  1  0.99890992  0.50041503  0.50053181  1.0
  O  O177  1  0.82370653  0.58442491  0.47095232  1.0
  O  O178  1  0.10365024  0.37493902  0.41736970  1.0
  O  O179  1  0.94326869  0.38738955  0.55884769  1.0
  O  O180  1  0.94248828  0.53094817  0.41435505  1.0
  O  O181  1  0.82411774  0.49826877  0.55665645  1.0
  O  O182  1  0.10500866  0.31368085  0.47908378  1.0
  O  O183  1  0.11504686  0.38419593  0.55979252  1.0
  O  O184  1  0.95725755  0.65592785  0.55098940  1.0
  O  O185  1  0.11772316  0.49881900  0.55525853  1.0
  O  O186  1  0.83407678  0.65493842  0.55168762  1.0
  O  O187  1  0.11235626  0.53068788  0.41421259  1.0
  O  O188  1  0.11946329  0.58588611  0.47064656  1.0
  O  O189  1  0.49996388  0.24998421  0.74998433  1.0
  O  O190  1  0.67188318  0.25109914  0.69460293  1.0
  O  O191  1  0.39799872  0.43641752  0.77075064  1.0
  O  O192  1  0.55638233  0.21821807  0.83591310  1.0
  O  O193  1  0.55913280  0.36577915  0.69014254  1.0
  O  O194  1  0.67554029  0.16468155  0.77952782  1.0
  O  O195  1  0.39495455  0.37469793  0.83231815  1.0
  O  O196  1  0.38490167  0.21818208  0.83778426  1.0
  O  O197  1  0.54227833  0.09537911  0.69745335  1.0
  O  O198  1  0.38232289  0.16749072  0.77824105  1.0
  O  O199  1  0.66552810  0.09390793  0.69891065  1.0
  O  O200  1  0.38963609  0.36289249  0.69102529  1.0
  O  O201  1  0.38047903  0.25151425  0.69243037  1.0
  O  O202  1  0.50011806  0.75051811  0.25052277  1.0
  O  O203  1  0.38667061  0.71732227  0.33816056  1.0
  O  O204  1  0.54217112  0.59425610  0.19810302  1.0
  O  O205  1  0.67131670  0.66785266  0.27845672  1.0
  O  O206  1  0.38349668  0.66666667  0.27875810  1.0
  O  O207  1  0.55822239  0.71708067  0.33802065  1.0
  O  O208  1  0.66510045  0.59536279  0.19756530  1.0
  O  O209  1  0.67561644  0.75149486  0.19252948  1.0
  O  O210  1  0.39500517  0.93555143  0.27132206  1.0
  O  O211  1  0.55646405  0.86282167  0.19105660  1.0
  O  O212  1  0.39678846  0.87370638  0.33290740  1.0
  O  O213  1  0.38356739  0.75097479  0.19372137  1.0
  O  O214  1  0.38464320  0.86621451  0.19025429  1.0
  O  O215  1  0.00123465  0.99992185  0.99995387  1.0
  O  O216  1  0.11038482  0.88750055  0.05890435  1.0
  O  O217  1  0.95973620  0.15496488  0.05160738  1.0
  O  O218  1  0.82836351  0.99893662  0.05610033  1.0
  O  O219  1  0.12077665  0.99841773  0.05664810  1.0
  O  O220  1  0.94118209  0.88377903  0.05973832  1.0
  O  O221  1  0.83603372  0.15559920  0.05184334  1.0
  O  O222  1  0.82845887  0.08370701  0.97143201  1.0
  O  O223  1  0.10198291  0.87532621  0.91761997  1.0
  O  O224  1  0.94125010  0.03161840  0.91201506  1.0
  O  O225  1  0.10209362  0.81369275  0.97925203  1.0
  O  O226  1  0.12082314  0.08426642  0.97080276  1.0
  O  O227  1  0.11037722  0.03210871  0.91426342  1.0
  F  F228  1  0.92391150  0.27880583  0.60431208  1.0
  F  F229  1  0.82606027  0.22965313  0.65330439  1.0
  F  F230  1  0.19357722  0.54606139  0.33717487  1.0
  F  F231  1  0.29157141  0.59518633  0.28825746  1.0
  F  F232  1  0.92326382  0.54602126  0.33735126  1.0
  F  F233  1  0.82540680  0.59517398  0.28829993  1.0
  F  F234  1  0.20884921  0.52047872  0.59653123  1.0
  F  F235  1  0.30692140  0.47149429  0.64551454  1.0
  F  F236  1  0.57619975  0.20397736  0.91289164  1.0
  F  F237  1  0.67436880  0.15508202  0.96184929  1.0
  F  F238  1  0.29090813  0.09490089  0.78815944  1.0
  F  F239  1  0.19294150  0.04592249  0.83722356  1.0
  F  F240  1  0.29100092  0.72994500  0.15323102  1.0
  F  F241  1  0.19297587  0.77897910  0.10427490  1.0
  F  F242  1  0.57615558  0.97136167  0.14559891  1.0
  F  F243  1  0.67436844  0.02023987  0.09659545  1.0
