# generated using pymatgen
data_MgH7C11O3
_symmetry_space_group_name_H-M   'P 1'
_cell_length_a   6.77202713
_cell_length_b   27.99472566
_cell_length_c   28.00055643
_cell_angle_alpha   119.33341745
_cell_angle_beta   94.62695376
_cell_angle_gamma   94.63199944
_symmetry_Int_Tables_number   1
_chemical_formula_structural   MgH7C11O3
_chemical_formula_sum   'Mg6 H42 C66 O18'
_cell_volume   4568.27314660
_cell_formula_units_Z   6
loop_
 _symmetry_equiv_pos_site_id
 _symmetry_equiv_pos_as_xyz
  1  'x, y, z'
loop_
 _atom_site_type_symbol
 _atom_site_label
 _atom_site_symmetry_multiplicity
 _atom_site_fract_x
 _atom_site_fract_y
 _atom_site_fract_z
 _atom_site_occupancy
  Mg  Mg0  1  0.95824104  0.67853841  0.30250386  1.0
  Mg  Mg1  1  0.76003980  0.32730230  0.70150500  1.0
  Mg  Mg2  1  0.65562639  0.69747985  0.37587451  1.0
  Mg  Mg3  1  0.05862844  0.29851656  0.62592326  1.0
  Mg  Mg4  1  0.27972724  0.62407711  0.32146272  1.0
  Mg  Mg5  1  0.43280517  0.37413619  0.67267953  1.0
  H  H6  1  0.76818988  0.84076417  0.40147227  1.0
  H  H7  1  0.18413551  0.12669287  0.57298647  1.0
  H  H8  1  0.32591566  0.15331305  0.51144333  1.0
  H  H9  1  0.49911094  0.07120316  0.47599968  1.0
  H  H10  1  0.56536793  0.88905274  0.39784420  1.0
  H  H11  1  0.52105671  0.00965534  0.48834722  1.0
  H  H12  1  0.20568183  0.98900503  0.53707432  1.0
  H  H13  1  0.15119658  0.11216985  0.62688683  1.0
  H  H14  1  0.31781553  0.07784700  0.57928986  1.0
  H  H15  1  0.96100443  0.16249847  0.61721266  1.0
  H  H16  1  0.54730829  0.87125768  0.45004655  1.0
  H  H17  1  0.40778232  0.92150436  0.44868300  1.0
  H  H18  1  0.22613604  0.92178457  0.54439718  1.0
  H  H19  1  0.39240440  0.83822782  0.50333502  1.0
  H  H20  1  0.36698996  0.59863225  0.43932635  1.0
  H  H21  1  0.61105344  0.42699216  0.55370044  1.0
  H  H22  1  0.81489061  0.48860498  0.64191530  1.0
  H  H23  1  0.02334243  0.52400489  0.59516774  1.0
  H  H24  1  0.16760497  0.60220725  0.49115227  1.0
  H  H25  1  0.03265488  0.51167403  0.52130786  1.0
  H  H26  1  0.66863795  0.46300161  0.45199673  1.0
  H  H27  1  0.52425292  0.37308684  0.48530648  1.0
  H  H28  1  0.73847435  0.42071026  0.49858039  1.0
  H  H29  1  0.34381241  0.38275987  0.54527797  1.0
  H  H30  1  0.09751573  0.55000247  0.42119326  1.0
  H  H31  1  0.95908081  0.55135209  0.47275267  1.0
  H  H32  1  0.68175994  0.45562790  0.37750042  1.0
  H  H33  1  0.88898875  0.49664514  0.33494224  1.0
  H  H34  1  0.92773141  0.56060511  0.15924232  1.0
  H  H35  1  0.05769101  0.44633411  0.87336472  1.0
  H  H36  1  0.17294605  0.35810916  0.84676342  1.0
  H  H37  1  0.42832431  0.40474695  0.92881207  1.0
  H  H38  1  0.67624854  0.50875642  0.11098191  1.0
  H  H39  1  0.51162098  0.47855076  0.99031760  1.0
  H  H40  1  0.21690192  0.54802140  0.01104405  1.0
  H  H41  1  0.03926057  0.51475389  0.88786418  1.0
  H  H42  1  0.24026568  0.50146446  0.92218146  1.0
  H  H43  1  0.79870684  0.45470560  0.83746363  1.0
  H  H44  1  0.67624363  0.57872182  0.12868393  1.0
  H  H45  1  0.48626223  0.52715032  0.07849043  1.0
  H  H46  1  0.30408742  0.62260454  0.07812385  1.0
  H  H47  1  0.55411094  0.66511363  0.16163001  1.0
  C  C48  1  0.54777745  0.20470165  0.58169357  1.0
  C  C49  1  0.46856552  0.15457728  0.53339143  1.0
  C  C50  1  0.56374886  0.10813625  0.51455397  1.0
  C  C51  1  0.42106379  0.24871288  0.60493310  1.0
  C  C52  1  0.97867559  0.79138400  0.40659281  1.0
  C  C53  1  0.90106783  0.84188331  0.42648333  1.0
  C  C54  1  0.98913590  0.89053657  0.47443631  1.0
  C  C55  1  0.91622058  0.94463152  0.49263671  1.0
  C  C56  1  0.71944944  0.95173670  0.47808227  1.0
  C  C57  1  0.67535989  0.00559146  0.49840631  1.0
  C  C58  1  0.81188934  0.05418083  0.53106537  1.0
  C  C59  1  0.00798097  0.04715756  0.54643206  1.0
  C  C60  1  0.05204518  0.99320307  0.52636191  1.0
  C  C61  1  0.17317854  0.09347926  0.58308208  1.0
  C  C62  1  0.73768224  0.10763848  0.54624409  1.0
  C  C63  1  0.82515665  0.15859445  0.59154715  1.0
  C  C64  1  0.74335095  0.20817707  0.60754924  1.0
  C  C65  1  0.55219311  0.90584660  0.44202293  1.0
  C  C66  1  0.16011930  0.88665470  0.50456516  1.0
  C  C67  1  0.25150717  0.83937245  0.48234632  1.0
  C  C68  1  0.17155560  0.79176694  0.43164515  1.0
  C  C69  1  0.29491051  0.74744256  0.40444822  1.0
  C  C70  1  0.96642732  0.41833772  0.62308674  1.0
  C  C71  1  0.93553616  0.46664051  0.62123760  1.0
  C  C72  1  0.04944346  0.48546327  0.59359692  1.0
  C  C73  1  0.81638875  0.39510366  0.64387056  1.0
  C  C74  1  0.57202074  0.59340382  0.38472581  1.0
  C  C75  1  0.47471819  0.57357672  0.41541987  1.0
  C  C76  1  0.51480370  0.52561810  0.41616025  1.0
  C  C77  1  0.42363318  0.50742250  0.45204792  1.0
  C  C78  1  0.24135153  0.52196644  0.47367053  1.0
  C  C79  1  0.17692257  0.50162735  0.50719496  1.0
  C  C80  1  0.28081042  0.46893960  0.52310734  1.0
  C  C81  1  0.46150587  0.45357651  0.50073545  1.0
  C  C82  1  0.52569050  0.47367908  0.46687605  1.0
  C  C83  1  0.59001041  0.41690462  0.51041015  1.0
  C  C84  1  0.19150481  0.45374875  0.56139148  1.0
  C  C85  1  0.23368305  0.40843012  0.56704404  1.0
  C  C86  1  0.13602039  0.39245341  0.60066892  1.0
  C  C87  1  0.11025525  0.55802071  0.46379045  1.0
  C  C88  1  0.65558694  0.49546089  0.38216369  1.0
  C  C89  1  0.76911951  0.51764716  0.35704813  1.0
  C  C90  1  0.73977410  0.56831786  0.36005265  1.0
  C  C91  1  0.89026305  0.59552641  0.34290677  1.0
  C  C92  1  0.34328455  0.37694338  0.79530957  1.0
  C  C93  1  0.31433107  0.37876706  0.84544884  1.0
  C  C94  1  0.45601057  0.40636001  0.89186681  1.0
  C  C95  1  0.17247913  0.35616802  0.75131081  1.0
  C  C96  1  0.18737209  0.61526112  0.20859733  1.0
  C  C97  1  0.05930971  0.58457105  0.15810915  1.0
  C  C98  1  0.09861960  0.58387030  0.10943729  1.0
  C  C99  1  0.97167351  0.54794055  0.05535457  1.0
  C  C100  1  0.76778685  0.52626036  0.04824330  1.0
  C  C101  1  0.66997279  0.49270992  0.99439013  1.0
  C  C102  1  0.75799958  0.47683297  0.94582332  1.0
  C  C103  1  0.96107287  0.49924803  0.95286577  1.0
  C  C104  1  0.05903929  0.53311293  0.00681362  1.0
  C  C105  1  0.07996545  0.48962692  0.90656145  1.0
  C  C106  1  0.63035339  0.43857439  0.89235873  1.0
  C  C107  1  0.66676615  0.43294694  0.84139799  1.0
  C  C108  1  0.53535925  0.39932981  0.79182030  1.0
  C  C109  1  0.64639856  0.53611740  0.09413055  1.0
  C  C110  1  0.27335512  0.61789898  0.11326975  1.0
  C  C111  1  0.41210284  0.64298473  0.16052662  1.0
  C  C112  1  0.37981503  0.63993549  0.20816677  1.0
  C  C113  1  0.54754573  0.65710669  0.25249791  1.0
  O  O114  1  0.86729041  0.74584372  0.36453488  1.0
  O  O115  1  0.23696066  0.24031637  0.58540040  1.0
  O  O116  1  0.49714913  0.29591758  0.64785183  1.0
  O  O117  1  0.47887065  0.75339955  0.42296084  1.0
  O  O118  1  0.21509048  0.70299640  0.35900433  1.0
  O  O119  1  0.85365352  0.25583263  0.64657288  1.0
  O  O120  1  0.50260921  0.63541968  0.38115705  1.0
  O  O121  1  0.65192056  0.41467895  0.65504361  1.0
  O  O122  1  0.84938350  0.35214789  0.64813175  1.0
  O  O123  1  0.05575010  0.57704016  0.33038121  1.0
  O  O124  1  0.85585103  0.64096465  0.34385670  1.0
  O  O125  1  0.20735173  0.35343835  0.60933807  1.0
  O  O126  1  0.12151012  0.61881048  0.25416675  1.0
  O  O127  1  0.99679027  0.34501082  0.75970552  1.0
  O  O128  1  0.20128781  0.35190912  0.70410898  1.0
  O  O129  1  0.72554725  0.66965157  0.24652126  1.0
  O  O130  1  0.51214904  0.65615191  0.29697249  1.0
  O  O131  1  0.59799283  0.39063931  0.74414235  1.0
