# generated using pymatgen
data_ZnH24C39S2N2(O2F3)2
_symmetry_space_group_name_H-M   'P 1'
_cell_length_a   7.10601715
_cell_length_b   24.77552864
_cell_length_c   29.18926409
_cell_angle_alpha   90.00018421
_cell_angle_beta   90.00043293
_cell_angle_gamma   89.99983824
_symmetry_Int_Tables_number   1
_chemical_formula_structural   ZnH24C39S2N2(O2F3)2
_chemical_formula_sum   'Zn4 H96 C156 S8 N8 O16 F24'
_cell_volume   5138.92556296
_cell_formula_units_Z   4
loop_
 _symmetry_equiv_pos_site_id
 _symmetry_equiv_pos_as_xyz
  1  'x, y, z'
loop_
 _atom_site_type_symbol
 _atom_site_label
 _atom_site_symmetry_multiplicity
 _atom_site_fract_x
 _atom_site_fract_y
 _atom_site_fract_z
 _atom_site_occupancy
  Zn  Zn0  1  0.41040145  0.03861836  0.73433309  1.0
  Zn  Zn1  1  0.08959481  0.96138131  0.23433104  1.0
  Zn  Zn2  1  0.91040355  0.46138161  0.26566935  1.0
  Zn  Zn3  1  0.58960112  0.53861737  0.76566635  1.0
  H  H4  1  0.28270578  0.93349666  0.76733400  1.0
  H  H5  1  0.21729151  0.06650435  0.26733351  1.0
  H  H6  1  0.78271355  0.56650388  0.23266512  1.0
  H  H7  1  0.71729995  0.43349376  0.73266515  1.0
  H  H8  1  0.39824111  0.81942262  0.69549521  1.0
  H  H9  1  0.10174550  0.18057892  0.19549276  1.0
  H  H10  1  0.89824718  0.68057863  0.30450515  1.0
  H  H11  1  0.60175026  0.31942494  0.80450671  1.0
  H  H12  1  0.20900634  0.83521119  0.01647828  1.0
  H  H13  1  0.29099441  0.16478927  0.51647771  1.0
  H  H14  1  0.70899848  0.66478981  0.98352344  1.0
  H  H15  1  0.79099748  0.33521161  0.48352314  1.0
  H  H16  1  0.47461429  0.96463307  0.18987362  1.0
  H  H17  1  0.02538903  0.03536765  0.68987358  1.0
  H  H18  1  0.97461497  0.53536812  0.81012688  1.0
  H  H19  1  0.52538545  0.46463103  0.31012576  1.0
  H  H20  1  0.60746435  0.87729709  0.74929608  1.0
  H  H21  1  0.89252011  0.12269981  0.24929641  1.0
  H  H22  1  0.10746750  0.62269915  0.25070751  1.0
  H  H23  1  0.39253208  0.37729493  0.75070257  1.0
  H  H24  1  0.79066495  0.05743694  0.82158541  1.0
  H  H25  1  0.70932879  0.94256346  0.32158558  1.0
  H  H26  1  0.29066694  0.44256434  0.17841544  1.0
  H  H27  1  0.20932899  0.55743633  0.67841545  1.0
  H  H28  1  0.13381055  0.64464795  0.74785919  1.0
  H  H29  1  0.36619598  0.35535056  0.24785805  1.0
  H  H30  1  0.63380201  0.85535109  0.25214034  1.0
  H  H31  1  0.86618535  0.14464985  0.75214157  1.0
  H  H32  1  0.81103882  0.79654274  0.75735631  1.0
  H  H33  1  0.68895152  0.20345863  0.25735649  1.0
  H  H34  1  0.31103671  0.70345656  0.24264525  1.0
  H  H35  1  0.18895418  0.29654031  0.74264349  1.0
  H  H36  1  0.92029695  0.72108876  0.73484838  1.0
  H  H37  1  0.57969972  0.27890889  0.23484548  1.0
  H  H38  1  0.42029902  0.77891005  0.26515270  1.0
  H  H39  1  0.07969538  0.22108974  0.76515464  1.0
  H  H40  1  0.98706472  0.94396091  0.65027176  1.0
  H  H41  1  0.51291948  0.05603521  0.15027018  1.0
  H  H42  1  0.48709412  0.55603583  0.34973082  1.0
  H  H43  1  0.01294090  0.44396347  0.84972639  1.0
  H  H44  1  0.01037685  0.89452169  0.80916003  1.0
  H  H45  1  0.48962455  0.10547947  0.30916015  1.0
  H  H46  1  0.51037872  0.60547825  0.19083995  1.0
  H  H47  1  0.98963629  0.39452044  0.69084038  1.0
  H  H48  1  0.08454572  0.08930973  0.78292299  1.0
  H  H49  1  0.41545205  0.91068931  0.28292140  1.0
  H  H50  1  0.58454962  0.41069091  0.21707783  1.0
  H  H51  1  0.91544651  0.58930950  0.71707762  1.0
  H  H52  1  0.61905994  0.93386824  0.11929331  1.0
  H  H53  1  0.88094581  0.06613462  0.61929298  1.0
  H  H54  1  0.11905789  0.56613646  0.88070757  1.0
  H  H55  1  0.38094291  0.43386376  0.38070564  1.0
  H  H56  1  0.73509555  0.86441310  0.83117766  1.0
  H  H57  1  0.76489709  0.13558653  0.33117813  1.0
  H  H58  1  0.23509744  0.63558707  0.16882309  1.0
  H  H59  1  0.26491227  0.36441276  0.66882370  1.0
  H  H60  1  0.95350820  0.90077221  0.15472509  1.0
  H  H61  1  0.54649865  0.09922716  0.65472766  1.0
  H  H62  1  0.45350191  0.59922698  0.84527195  1.0
  H  H63  1  0.04649639  0.40077231  0.34527480  1.0
  H  H64  1  0.19082171  0.86286267  0.65668937  1.0
  H  H65  1  0.30916932  0.13713468  0.15668548  1.0
  H  H66  1  0.69083926  0.63713592  0.34331266  1.0
  H  H67  1  0.80917767  0.36286739  0.84331164  1.0
  H  H68  1  0.60712802  0.74053464  0.70675046  1.0
  H  H69  1  0.89286497  0.25946775  0.20675013  1.0
  H  H70  1  0.10712975  0.75946685  0.29324834  1.0
  H  H71  1  0.39286412  0.24053627  0.79325090  1.0
  H  H72  1  0.17477164  0.91150877  0.92474757  1.0
  H  H73  1  0.32522773  0.08849243  0.42474700  1.0
  H  H74  1  0.67477289  0.58849266  0.07525272  1.0
  H  H75  1  0.82523431  0.41150883  0.57525289  1.0
  H  H76  1  0.18797124  0.98253286  0.91668547  1.0
  H  H77  1  0.31203490  0.01746911  0.41668502  1.0
  H  H78  1  0.68797063  0.51746855  0.08331279  1.0
  H  H79  1  0.81203400  0.48253296  0.58331382  1.0
  H  H80  1  0.31665881  0.95112893  0.96162432  1.0
  H  H81  1  0.18334592  0.04887241  0.46162407  1.0
  H  H82  1  0.81666213  0.54887360  0.03837554  1.0
  H  H83  1  0.68334252  0.45112654  0.53837624  1.0
  H  H84  1  0.07870637  0.86396595  0.08175151  1.0
  H  H85  1  0.42130344  0.13603314  0.58175282  1.0
  H  H86  1  0.57869536  0.63603354  0.91824620  1.0
  H  H87  1  0.92129998  0.36396722  0.41824896  1.0
  H  H88  1  0.81504926  0.82236814  0.93051934  1.0
  H  H89  1  0.68495209  0.17763267  0.43052012  1.0
  H  H90  1  0.31505328  0.67763075  0.06947881  1.0
  H  H91  1  0.18495334  0.32237031  0.56947985  1.0
  H  H92  1  0.95008035  0.85804611  0.97169903  1.0
  H  H93  1  0.54992790  0.14195203  0.47169639  1.0
  H  H94  1  0.45007360  0.64194985  0.02830211  1.0
  H  H95  1  0.04992048  0.35804985  0.52830231  1.0
  H  H96  1  0.82648143  0.89381565  0.92826313  1.0
  H  H97  1  0.67352407  0.10618515  0.42826130  1.0
  H  H98  1  0.32647779  0.60618323  0.07173778  1.0
  H  H99  1  0.17352609  0.39381703  0.57173865  1.0
  C  C100  1  0.78599659  0.91609044  0.69987059  1.0
  C  C101  1  0.71398211  0.08390748  0.19987254  1.0
  C  C102  1  0.28601574  0.58390727  0.30013093  1.0
  C  C103  1  0.21400227  0.41609184  0.80012645  1.0
  C  C104  1  0.44090168  0.87676304  0.05001999  1.0
  C  C105  1  0.05910574  0.12323714  0.55001991  1.0
  C  C106  1  0.94089459  0.62323696  0.94998147  1.0
  C  C107  1  0.55910314  0.37676231  0.44998017  1.0
  C  C108  1  0.51132706  0.64054453  0.73597433  1.0
  C  C109  1  0.98867528  0.35945514  0.23597480  1.0
  C  C110  1  0.01132268  0.85945501  0.26402360  1.0
  C  C111  1  0.48866747  0.14054598  0.76402710  1.0
  C  C112  1  0.17116377  0.95906914  0.78094510  1.0
  C  C113  1  0.32883394  0.04093192  0.28094372  1.0
  C  C114  1  0.67116997  0.54093108  0.21905415  1.0
  C  C115  1  0.82883748  0.45906812  0.71905446  1.0
  C  C116  1  0.40939593  0.81646894  0.93299315  1.0
  C  C117  1  0.09059806  0.18353309  0.43299241  1.0
  C  C118  1  0.90939740  0.68353109  0.06700723  1.0
  C  C119  1  0.59060673  0.31646875  0.56700670  1.0
  C  C120  1  0.50361204  0.88959055  0.87724236  1.0
  C  C121  1  0.99638625  0.11041047  0.37724148  1.0
  C  C122  1  0.00361275  0.61041062  0.12275967  1.0
  C  C123  1  0.49639271  0.38958944  0.62276044  1.0
  C  C124  1  0.43218148  0.83638689  0.88987358  1.0
  C  C125  1  0.06781257  0.16361337  0.38987308  1.0
  C  C126  1  0.93218168  0.66361312  0.11012821  1.0
  C  C127  1  0.56782379  0.33638769  0.61012770  1.0
  C  C128  1  0.33782506  0.78092097  0.70606337  1.0
  C  C129  1  0.16216469  0.21907900  0.20606183  1.0
  C  C130  1  0.83782761  0.71907912  0.29393688  1.0
  C  C131  1  0.66216528  0.28092360  0.79393639  1.0
  C  C132  1  0.71184037  0.95093642  0.84326165  1.0
  C  C133  1  0.78815686  0.04906326  0.34326124  1.0
  C  C134  1  0.21184274  0.54906377  0.15673871  1.0
  C  C135  1  0.28816518  0.45093641  0.65673926  1.0
  C  C136  1  0.43193900  0.93796092  0.89439216  1.0
  C  C137  1  0.06806364  0.06203936  0.39439070  1.0
  C  C138  1  0.93193584  0.56203828  0.10560894  1.0
  C  C139  1  0.56807371  0.43796211  0.60560974  1.0
  C  C140  1  0.32196464  0.76126047  0.93197755  1.0
  C  C141  1  0.17802368  0.23874157  0.43197678  1.0
  C  C142  1  0.82197827  0.73874044  0.06802301  1.0
  C  C143  1  0.67803292  0.26126061  0.56802215  1.0
  C  C144  1  0.38356878  0.68754336  0.72779490  1.0
  C  C145  1  0.11643009  0.31245588  0.22779387  1.0
  C  C146  1  0.88356692  0.81245669  0.27220371  1.0
  C  C147  1  0.61642107  0.18754595  0.77220529  1.0
  C  C148  1  0.35375400  0.84918863  0.01479425  1.0
  C  C149  1  0.14625092  0.15081223  0.51479407  1.0
  C  C150  1  0.85375055  0.65081387  0.98520671  1.0
  C  C151  1  0.64624687  0.34918796  0.48520618  1.0
  C  C152  1  0.47093868  0.84161115  0.97571272  1.0
  C  C153  1  0.02906368  0.15838944  0.47571213  1.0
  C  C154  1  0.97092922  0.65838722  0.02428709  1.0
  C  C155  1  0.52906373  0.34161165  0.52428789  1.0
  C  C156  1  0.67259947  0.96706134  0.69890342  1.0
  C  C157  1  0.82738202  0.03293657  0.19890510  1.0
  C  C158  1  0.17261352  0.53293686  0.30109960  1.0
  C  C159  1  0.32739889  0.46706105  0.80109410  1.0
  C  C160  1  0.38970147  0.94221335  0.16532065  1.0
  C  C161  1  0.11030390  0.05778848  0.66532014  1.0
  C  C162  1  0.88969707  0.55778750  0.83467935  1.0
  C  C163  1  0.61029989  0.44221012  0.33467901  1.0
  C  C164  1  0.73573000  0.87359899  0.72912268  1.0
  C  C165  1  0.76424680  0.12639743  0.22912313  1.0
  C  C166  1  0.23574641  0.62639674  0.27088046  1.0
  C  C167  1  0.26426506  0.37359863  0.77087527  1.0
  C  C168  1  0.87478068  0.97269124  0.81955003  1.0
  C  C169  1  0.62522004  0.02730915  0.31954961  1.0
  C  C170  1  0.37478259  0.52731003  0.18045029  1.0
  C  C171  1  0.12522607  0.47269065  0.68044991  1.0
  C  C172  1  0.89829907  0.02828715  0.81180242  1.0
  C  C173  1  0.60169577  0.97171362  0.31180248  1.0
  C  C174  1  0.39830530  0.47171364  0.18819760  1.0
  C  C175  1  0.10169656  0.52828706  0.68819734  1.0
  C  C176  1  0.18974024  0.68303578  0.73587098  1.0
  C  C177  1  0.31026170  0.31696349  0.23586860  1.0
  C  C178  1  0.68973527  0.81696442  0.26412900  1.0
  C  C179  1  0.81024825  0.18303818  0.76413091  1.0
  C  C180  1  0.01846877  0.82388083  0.70819234  1.0
  C  C181  1  0.48152246  0.17611713  0.20819024  1.0
  C  C182  1  0.51847167  0.67611750  0.29180937  1.0
  C  C183  1  0.98152818  0.32388319  0.79180753  1.0
  C  C184  1  0.85016710  0.82840516  0.73339793  1.0
  C  C185  1  0.64981546  0.17159248  0.23339726  1.0
  C  C186  1  0.35017731  0.67159289  0.26660474  1.0
  C  C187  1  0.14981995  0.32840649  0.76660230  1.0
  C  C188  1  0.65201761  0.86202720  0.98232253  1.0
  C  C189  1  0.84799098  0.13797300  0.48232282  1.0
  C  C190  1  0.15201056  0.63797223  0.01767737  1.0
  C  C191  1  0.34799163  0.36202823  0.51767779  1.0
  C  C192  1  0.14294107  0.77674072  0.71418569  1.0
  C  C193  1  0.35705175  0.22325725  0.21418383  1.0
  C  C194  1  0.64294895  0.72325710  0.28581557  1.0
  C  C195  1  0.85705775  0.27674317  0.78581543  1.0
  C  C196  1  0.36233364  0.89515711  0.09328962  1.0
  C  C197  1  0.13767372  0.10484323  0.59329032  1.0
  C  C198  1  0.86232538  0.60484416  0.90670896  1.0
  C  C199  1  0.63766819  0.39515535  0.40670991  1.0
  C  C200  1  0.07068166  0.72682136  0.72911605  1.0
  C  C201  1  0.42931866  0.27317667  0.22911411  1.0
  C  C202  1  0.57068155  0.77317773  0.27088439  1.0
  C  C203  1  0.92931202  0.22682369  0.77088391  1.0
  C  C204  1  0.95018241  0.91131020  0.67363712  1.0
  C  C205  1  0.54980110  0.08868681  0.17363536  1.0
  C  C206  1  0.45020514  0.58868777  0.32636539  1.0
  C  C207  1  0.04981368  0.41131345  0.82636163  1.0
  C  C208  1  0.01801093  0.93793872  0.80399896  1.0
  C  C209  1  0.48199171  0.06206202  0.30399826  1.0
  C  C210  1  0.51801339  0.56206123  0.19600105  1.0
  C  C211  1  0.98200038  0.43793830  0.69600123  1.0
  C  C212  1  0.05795025  0.04658696  0.78932903  1.0
  C  C213  1  0.44204771  0.95341332  0.28932795  1.0
  C  C214  1  0.55795495  0.45341330  0.21067105  1.0
  C  C215  1  0.94204520  0.54658547  0.71067078  1.0
  C  C216  1  0.47138945  0.92404007  0.12508947  1.0
  C  C217  1  0.02861749  0.07596121  0.62508852  1.0
  C  C218  1  0.97138753  0.57596274  0.87491103  1.0
  C  C219  1  0.52861068  0.42403625  0.37491014  1.0
  C  C220  1  0.66012819  0.89745383  0.84758504  1.0
  C  C221  1  0.83986918  0.10254707  0.34758556  1.0
  C  C222  1  0.16013130  0.60254721  0.15241557  1.0
  C  C223  1  0.33988352  0.39745417  0.65241607  1.0
  C  C224  1  0.37624121  0.79549811  0.85416925  1.0
  C  C225  1  0.12375455  0.20450241  0.35416862  1.0
  C  C226  1  0.87624774  0.70450235  0.14583210  1.0
  C  C227  1  0.62375461  0.29549860  0.64583192  1.0
  C  C228  1  0.10067445  0.90604790  0.14526844  1.0
  C  C229  1  0.39933171  0.09395062  0.64526959  1.0
  C  C230  1  0.60066891  0.59395036  0.85473172  1.0
  C  C231  1  0.89932867  0.40604856  0.35473215  1.0
  C  C232  1  0.06441366  0.86596865  0.67769767  1.0
  C  C233  1  0.43557240  0.13402838  0.17769468  1.0
  C  C234  1  0.56442918  0.63402883  0.32230550  1.0
  C  C235  1  0.93558147  0.36597278  0.82230164  1.0
  C  C236  1  0.45630806  0.73700259  0.71275047  1.0
  C  C237  1  0.04368471  0.26299820  0.21274951  1.0
  C  C238  1  0.95630997  0.76299780  0.28724828  1.0
  C  C239  1  0.54368411  0.23700489  0.78725054  1.0
  C  C240  1  0.26927590  0.94646218  0.92592896  1.0
  C  C241  1  0.23073054  0.05353983  0.42592778  1.0
  C  C242  1  0.76927606  0.55353958  0.07407116  1.0
  C  C243  1  0.73072970  0.44645988  0.57407159  1.0
  C  C244  1  0.17214152  0.88606639  0.10453329  1.0
  C  C245  1  0.32786900  0.11393400  0.60453505  1.0
  C  C246  1  0.67213283  0.61393464  0.89546494  1.0
  C  C247  1  0.82786884  0.38606523  0.39546655  1.0
  C  C248  1  0.25848952  0.75274151  0.88123965  1.0
  C  C249  1  0.24150286  0.24725831  0.38123902  1.0
  C  C250  1  0.75849761  0.74725905  0.11875874  1.0
  C  C251  1  0.74150672  0.25274220  0.61875969  1.0
  C  C252  1  0.81950197  0.85901442  0.95163914  1.0
  C  C253  1  0.68049722  0.14098526  0.45163879  1.0
  C  C254  1  0.31950147  0.64098366  0.04836004  1.0
  C  C255  1  0.18050027  0.35901651  0.54836152  1.0
  S  S256  1  0.67178880  0.89130227  0.03527199  1.0
  S  S257  1  0.82821715  0.10869745  0.53527168  1.0
  S  S258  1  0.17178332  0.60869876  0.96472726  1.0
  S  S259  1  0.32821447  0.39130178  0.46472821  1.0
  S  S260  1  0.55872393  0.99177885  0.87396874  1.0
  S  S261  1  0.94127425  0.00822175  0.37396782  1.0
  S  S262  1  0.05872575  0.50822146  0.12603236  1.0
  S  S263  1  0.44128263  0.49177861  0.62603262  1.0
  N  N264  1  0.19156933  0.01258033  0.77368842  1.0
  N  N265  1  0.30842956  0.98742070  0.27368616  1.0
  N  N266  1  0.69157418  0.48742103  0.22631190  1.0
  N  N267  1  0.80842927  0.51257740  0.72631163  1.0
  N  N268  1  0.20717607  0.93386771  0.17531626  1.0
  N  N269  1  0.29282680  0.06613254  0.67531749  1.0
  N  N270  1  0.70717269  0.56613289  0.82468169  1.0
  N  N271  1  0.79282678  0.43386591  0.32468302  1.0
  O  O272  1  0.53519947  0.96839786  0.72844464  1.0
  O  O273  1  0.96479420  0.03160260  0.22844828  1.0
  O  O274  1  0.03520135  0.53160288  0.27155882  1.0
  O  O275  1  0.46480451  0.46839653  0.77155358  1.0
  O  O276  1  0.42468672  0.59447775  0.74184998  1.0
  O  O277  1  0.07531822  0.40552195  0.24185187  1.0
  O  O278  1  0.92467929  0.90552186  0.25814700  1.0
  O  O279  1  0.57530967  0.09447991  0.75814995  1.0
  O  O280  1  0.71418826  0.00497807  0.67246297  1.0
  O  O281  1  0.78580929  0.99501773  0.17246549  1.0
  O  O282  1  0.21420141  0.49501883  0.32753842  1.0
  O  O283  1  0.28581041  0.50498079  0.82753261  1.0
  O  O284  1  0.68608318  0.64647693  0.73749869  1.0
  O  O285  1  0.81391921  0.35352194  0.23749951  1.0
  O  O286  1  0.18607599  0.85352086  0.26250025  1.0
  O  O287  1  0.31391130  0.14648013  0.76250412  1.0
  F  F288  1  0.45183384  0.72200961  0.94434415  1.0
  F  F289  1  0.04815206  0.27799368  0.44434119  1.0
  F  F290  1  0.95185937  0.77799038  0.05565904  1.0
  F  F291  1  0.54815426  0.22201022  0.55565750  1.0
  F  F292  1  0.17322218  0.75562236  0.96182777  1.0
  F  F293  1  0.32676285  0.24438261  0.46182831  1.0
  F  F294  1  0.67324327  0.74438271  0.03816875  1.0
  F  F295  1  0.82676559  0.25562066  0.53817021  1.0
  F  F296  1  0.53203857  0.77107028  0.83469405  1.0
  F  F297  1  0.96795417  0.22892977  0.33469309  1.0
  F  F298  1  0.03204225  0.72893046  0.16530598  1.0
  F  F299  1  0.46795890  0.27107097  0.66530431  1.0
  F  F300  1  0.27435789  0.81763485  0.81897679  1.0
  F  F301  1  0.22563960  0.18236151  0.31897698  1.0
  F  F302  1  0.77436010  0.68236488  0.18102334  1.0
  F  F303  1  0.72563913  0.31763499  0.68102375  1.0
  F  F304  1  0.28446190  0.70133792  0.86631494  1.0
  F  F305  1  0.21553424  0.29866265  0.36631474  1.0
  F  F306  1  0.78445868  0.79866301  0.13368384  1.0
  F  F307  1  0.71553907  0.20133748  0.63368426  1.0
  F  F308  1  0.07093568  0.76501659  0.87736547  1.0
  F  F309  1  0.42906081  0.23498604  0.37736583  1.0
  F  F310  1  0.57093837  0.73498492  0.12263292  1.0
  F  F311  1  0.92906185  0.26501715  0.62263528  1.0
