# generated using pymatgen
data_ZnH6C12N5(OF)2
_symmetry_space_group_name_H-M   'P 1'
_cell_length_a   15.82770850
_cell_length_b   17.27983385
_cell_length_c   18.34284983
_cell_angle_alpha   89.96748388
_cell_angle_beta   89.99849983
_cell_angle_gamma   89.09662883
_symmetry_Int_Tables_number   1
_chemical_formula_structural   ZnH6C12N5(OF)2
_chemical_formula_sum   'Zn8 H48 C96 N40 O16 F16'
_cell_volume   5016.14824334
_cell_formula_units_Z   8
loop_
 _symmetry_equiv_pos_site_id
 _symmetry_equiv_pos_as_xyz
  1  'x, y, z'
loop_
 _atom_site_type_symbol
 _atom_site_label
 _atom_site_symmetry_multiplicity
 _atom_site_fract_x
 _atom_site_fract_y
 _atom_site_fract_z
 _atom_site_occupancy
  Zn  Zn0  1  0.99324579  0.65507898  0.99020283  1.0
  Zn  Zn1  1  0.00067222  0.34484611  0.99433287  1.0
  Zn  Zn2  1  0.49969974  0.15566526  0.49454290  1.0
  Zn  Zn3  1  0.50577884  0.84509364  0.49180005  1.0
  Zn  Zn4  1  0.85591619  0.49062988  0.99748338  1.0
  Zn  Zn5  1  0.13726849  0.50974240  0.99910976  1.0
  Zn  Zn6  1  0.36257400  0.99112310  0.49964302  1.0
  Zn  Zn7  1  0.64348439  0.00915971  0.49874561  1.0
  H  H8  1  0.70724432  0.40006300  0.09470219  1.0
  H  H9  1  0.19307822  0.51074133  0.83176921  1.0
  H  H10  1  0.28274568  0.60061066  0.09928440  1.0
  H  H11  1  0.80846001  0.48929496  0.82858752  1.0
  H  H12  1  0.21523613  0.90033446  0.59832044  1.0
  H  H13  1  0.69228667  0.01020413  0.32994902  1.0
  H  H14  1  0.79269108  0.09925190  0.59568575  1.0
  H  H15  1  0.30730580  0.98986052  0.33276199  1.0
  H  H16  1  0.14922819  0.52718000  0.16944449  1.0
  H  H17  1  0.66618078  0.58950641  0.95075018  1.0
  H  H18  1  0.84707023  0.47334418  0.16858017  1.0
  H  H19  1  0.32659652  0.41163116  0.95164292  1.0
  H  H20  1  0.65148048  0.02707303  0.66976481  1.0
  H  H21  1  0.17379628  0.08945651  0.45082692  1.0
  H  H22  1  0.34966238  0.97445004  0.67016940  1.0
  H  H23  1  0.83251607  0.91024473  0.45132183  1.0
  H  H24  1  0.83016563  0.24655689  0.79498086  1.0
  H  H25  1  0.31873634  0.88333970  0.06312128  1.0
  H  H26  1  0.17705184  0.75207126  0.79611759  1.0
  H  H27  1  0.67795934  0.11448441  0.06220639  1.0
  H  H28  1  0.32007991  0.74765598  0.29798416  1.0
  H  H29  1  0.82598061  0.38368486  0.56086573  1.0
  H  H30  1  0.66912494  0.25447882  0.29459862  1.0
  H  H31  1  0.17993872  0.61676961  0.56118778  1.0
  H  H32  1  0.39223004  0.68949960  0.16665594  1.0
  H  H33  1  0.75195584  0.43916127  0.69131041  1.0
  H  H34  1  0.59566068  0.30758438  0.16190619  1.0
  H  H35  1  0.25276318  0.55946669  0.69147841  1.0
  H  H36  1  0.90407417  0.19081159  0.66347312  1.0
  H  H37  1  0.24657567  0.94111992  0.19343151  1.0
  H  H38  1  0.10424768  0.80977863  0.66478304  1.0
  H  H39  1  0.75153014  0.06167192  0.19384653  1.0
  H  H40  1  0.46533269  0.83539914  0.14079260  1.0
  H  H41  1  0.68180059  0.29084914  0.71575307  1.0
  H  H42  1  0.52903253  0.15864975  0.13835166  1.0
  H  H43  1  0.32492602  0.70673620  0.71687938  1.0
  H  H44  1  0.97343349  0.33846645  0.63866396  1.0
  H  H45  1  0.17268617  0.79456212  0.21875390  1.0
  H  H46  1  0.03285274  0.66316861  0.63890243  1.0
  H  H47  1  0.81893759  0.21120782  0.21704043  1.0
  H  H48  1  0.72312191  0.85416874  0.88167578  1.0
  H  H49  1  0.05598583  0.30774784  0.31259264  1.0
  H  H50  1  0.27112433  0.14708019  0.88129906  1.0
  H  H51  1  0.94750779  0.69090240  0.31094170  1.0
  H  H52  1  0.22973719  0.35414424  0.38050747  1.0
  H  H53  1  0.54954705  0.81006444  0.81228116  1.0
  H  H54  1  0.77444366  0.64629616  0.38110222  1.0
  H  H55  1  0.44479463  0.19330340  0.81311561  1.0
  C  C56  1  0.96093974  0.62894048  0.15628312  1.0
  C  C57  1  0.17510185  0.28498165  0.95233400  1.0
  C  C58  1  0.03401073  0.37224410  0.15993719  1.0
  C  C59  1  0.81905381  0.71482874  0.94837312  1.0
  C  C60  1  0.46571792  0.12882975  0.66017872  1.0
  C  C61  1  0.67981069  0.78474725  0.45041863  1.0
  C  C62  1  0.53587125  0.87253581  0.65802896  1.0
  C  C63  1  0.32566161  0.21576282  0.45160738  1.0
  C  C64  1  0.75542819  0.36075776  0.07320828  1.0
  C  C65  1  0.13697600  0.54679020  0.83995056  1.0
  C  C66  1  0.23548268  0.63996909  0.07639265  1.0
  C  C67  1  0.86418446  0.45335891  0.83884004  1.0
  C  C68  1  0.26256773  0.86095529  0.57560204  1.0
  C  C69  1  0.63667880  0.04639335  0.33988754  1.0
  C  C70  1  0.74481204  0.13873561  0.57394726  1.0
  C  C71  1  0.36307718  0.95340431  0.34108704  1.0
  C  C72  1  0.83479823  0.26288504  0.03999233  1.0
  C  C73  1  0.03101884  0.62799214  0.83313197  1.0
  C  C74  1  0.15775466  0.73798342  0.04073472  1.0
  C  C75  1  0.97038640  0.37218144  0.83606210  1.0
  C  C76  1  0.34020199  0.76290423  0.53998676  1.0
  C  C77  1  0.53096343  0.12807123  0.33651183  1.0
  C  C78  1  0.66615947  0.23691416  0.54017166  1.0
  C  C79  1  0.46813906  0.87121747  0.33462417  1.0
  C  C80  1  0.10927089  0.47814345  0.15821318  1.0
  C  C81  1  0.72257103  0.62428157  0.95296617  1.0
  C  C82  1  0.88646822  0.52253822  0.15641993  1.0
  C  C83  1  0.27065102  0.37636153  0.95498880  1.0
  C  C84  1  0.61161856  0.97816626  0.65776332  1.0
  C  C85  1  0.22981706  0.12461163  0.45425626  1.0
  C  C86  1  0.38988120  0.02328029  0.65878456  1.0
  C  C87  1  0.77621223  0.87539444  0.45411407  1.0
  C  C88  1  0.91508724  0.58048869  0.20417395  1.0
  C  C89  1  0.26262253  0.29710935  0.93813844  1.0
  C  C90  1  0.08210586  0.42013588  0.20660244  1.0
  C  C91  1  0.73093827  0.70354410  0.93621016  1.0
  C  C92  1  0.41748290  0.08119473  0.70702623  1.0
  C  C93  1  0.76771115  0.79618473  0.43730242  1.0
  C  C94  1  0.58188233  0.92089880  0.70578694  1.0
  C  C95  1  0.23813994  0.20381469  0.43725395  1.0
  C  C96  1  0.76063314  0.27987490  0.07892560  1.0
  C  C97  1  0.10059351  0.60184519  0.79246773  1.0
  C  C98  1  0.23054339  0.72089676  0.08157946  1.0
  C  C99  1  0.90282270  0.39818213  0.79287053  1.0
  C  C100  1  0.26696131  0.77995691  0.58018223  1.0
  C  C101  1  0.59869366  0.10176990  0.29367926  1.0
  C  C102  1  0.74027890  0.21967252  0.57910770  1.0
  C  C103  1  0.39851237  0.89749082  0.29406597  1.0
  C  C104  1  0.35956425  0.74546658  0.17294241  1.0
  C  C105  1  0.78570581  0.38367670  0.68571062  1.0
  C  C106  1  0.63064004  0.25293505  0.16933613  1.0
  C  C107  1  0.21977226  0.61536831  0.68614165  1.0
  C  C108  1  0.86991825  0.24600944  0.67000879  1.0
  C  C109  1  0.27891510  0.88491458  0.18806343  1.0
  C  C110  1  0.13757640  0.75412535  0.67105989  1.0
  C  C111  1  0.71690511  0.11660885  0.18733971  1.0
  C  C112  1  0.82819959  0.27589663  0.74206773  1.0
  C  C113  1  0.31911462  0.85313464  0.11560502  1.0
  C  C114  1  0.17868353  0.72316831  0.74301440  1.0
  C  C115  1  0.67597932  0.14563648  0.11414943  1.0
  C  C116  1  0.31880328  0.77668499  0.24491325  1.0
  C  C117  1  0.82691173  0.35317581  0.61319101  1.0
  C  C118  1  0.67207548  0.22450918  0.24205703  1.0
  C  C119  1  0.17923889  0.64690947  0.61367536  1.0
  C  C120  1  0.86713743  0.35869626  0.72933680  1.0
  C  C121  1  0.27843175  0.77156933  0.12971818  1.0
  C  C122  1  0.13846159  0.64100242  0.72965331  1.0
  C  C123  1  0.71312864  0.22885098  0.12705697  1.0
  C  C124  1  0.35997870  0.85847346  0.23154522  1.0
  C  C125  1  0.78823458  0.27067275  0.62685749  1.0
  C  C126  1  0.63464140  0.14101914  0.23006093  1.0
  C  C127  1  0.21899928  0.72884355  0.62787237  1.0
  C  C128  1  0.40021233  0.82624536  0.15852918  1.0
  C  C129  1  0.74711474  0.30224199  0.69997198  1.0
  C  C130  1  0.59354200  0.17045500  0.15623761  1.0
  C  C131  1  0.25951495  0.69621100  0.70089585  1.0
  C  C132  1  0.90853852  0.32780162  0.65620395  1.0
  C  C133  1  0.23823795  0.80442764  0.20276101  1.0
  C  C134  1  0.09784927  0.67295346  0.65663256  1.0
  C  C135  1  0.75400220  0.19875367  0.20088776  1.0
  C  C136  1  0.11842207  0.40671511  0.27754656  1.0
  C  C137  1  0.66391505  0.74992675  0.90560514  1.0
  C  C138  1  0.88177748  0.59350105  0.27623249  1.0
  C  C139  1  0.32943897  0.25158275  0.90617486  1.0
  C  C140  1  0.61491246  0.90787122  0.77794556  1.0
  C  C141  1  0.17145886  0.24948591  0.40521669  1.0
  C  C142  1  0.38165023  0.09466272  0.77812892  1.0
  C  C143  1  0.83427843  0.75005141  0.40572014  1.0
  C  C144  1  0.10937584  0.34504015  0.32297497  1.0
  C  C145  1  0.66568038  0.82143822  0.87430505  1.0
  C  C146  1  0.89374312  0.65430818  0.32212322  1.0
  C  C147  1  0.32816993  0.18046068  0.87414874  1.0
  C  C148  1  0.60329386  0.84665967  0.82349696  1.0
  C  C149  1  0.17271933  0.32073530  0.37334437  1.0
  C  C150  1  0.39129676  0.15616864  0.82361073  1.0
  C  C151  1  0.83187673  0.67901503  0.37361318  1.0
  N  N152  1  0.95802312  0.60239819  0.08739582  1.0
  N  N153  1  0.13717281  0.35087907  0.97450582  1.0
  N  N154  1  0.03476361  0.39896860  0.09097669  1.0
  N  N155  1  0.85699671  0.64843042  0.96928216  1.0
  N  N156  1  0.46472683  0.10203155  0.59128290  1.0
  N  N157  1  0.64207916  0.85104698  0.47183891  1.0
  N  N158  1  0.53978380  0.89841208  0.58891808  1.0
  N  N159  1  0.36331344  0.14980397  0.47403553  1.0
  N  N160  1  0.82184573  0.38808482  0.03518459  1.0
  N  N161  1  0.09255978  0.54307359  0.90288852  1.0
  N  N162  1  0.17021691  0.61268972  0.03695306  1.0
  N  N163  1  0.90551350  0.45723999  0.90328130  1.0
  N  N164  1  0.32854522  0.88826321  0.53702628  1.0
  N  N165  1  0.59489260  0.04270951  0.40413349  1.0
  N  N166  1  0.67808689  0.11161401  0.53621671  1.0
  N  N167  1  0.40798614  0.95748330  0.40373795  1.0
  N  N168  1  0.87245199  0.32613142  0.01450581  1.0
  N  N169  1  0.02603204  0.59468106  0.89885881  1.0
  N  N170  1  0.12061920  0.67471153  0.01470565  1.0
  N  N171  1  0.97219879  0.40565550  0.90181193  1.0
  N  N172  1  0.37803047  0.82619015  0.51479577  1.0
  N  N173  1  0.52851342  0.09461492  0.40227131  1.0
  N  N174  1  0.62795384  0.17376852  0.51517604  1.0
  N  N175  1  0.47397992  0.90527035  0.39992367  1.0
  N  N176  1  0.08066468  0.46405011  0.09027597  1.0
  N  N177  1  0.79850082  0.59342982  0.97211198  1.0
  N  N178  1  0.91261961  0.53699873  0.08784265  1.0
  N  N179  1  0.19509771  0.40642599  0.97607910  1.0
  N  N180  1  0.58595911  0.96336466  0.58911966  1.0
  N  N181  1  0.30522208  0.09440524  0.47559701  1.0
  N  N182  1  0.41846725  0.03716709  0.59079372  1.0
  N  N183  1  0.70053951  0.90610091  0.47411446  1.0
  N  N184  1  0.00174543  0.70090390  0.16965741  1.0
  N  N185  1  0.12173307  0.22012695  0.94777848  1.0
  N  N186  1  0.99156032  0.30137504  0.17442953  1.0
  N  N187  1  0.87276150  0.77942662  0.94344140  1.0
  N  N188  1  0.50868535  0.19946944  0.67447154  1.0
  N  N189  1  0.62610046  0.72013155  0.44594452  1.0
  N  N190  1  0.49353269  0.80147863  0.67200281  1.0
  N  N191  1  0.37926152  0.28045138  0.44697463  1.0
  O  O192  1  0.03606134  0.71045309  0.23008025  1.0
  O  O193  1  0.00006451  0.74977508  0.11968101  1.0
  O  O194  1  0.04366823  0.23026516  0.96319101  1.0
  O  O195  1  0.15074570  0.15616598  0.92956968  1.0
  O  O196  1  0.96081264  0.29177061  0.23627929  1.0
  O  O197  1  0.98795769  0.25342550  0.12381821  1.0
  O  O198  1  0.95106762  0.76881207  0.95770026  1.0
  O  O199  1  0.84391437  0.84372147  0.92605243  1.0
  O  O200  1  0.53953116  0.20900065  0.73628257  1.0
  O  O201  1  0.51263377  0.24728162  0.62371784  1.0
  O  O202  1  0.54791105  0.73079287  0.46065833  1.0
  O  O203  1  0.65484600  0.65581264  0.42857049  1.0
  O  O204  1  0.45877996  0.79327105  0.73245087  1.0
  O  O205  1  0.49433300  0.75202534  0.62258829  1.0
  O  O206  1  0.45719110  0.27018822  0.46285742  1.0
  O  O207  1  0.35060998  0.34438842  0.42822926  1.0
  F  F208  1  0.86880077  0.19267530  0.02736679  1.0
  F  F209  1  0.97324272  0.68238145  0.81342127  1.0
  F  F210  1  0.12460442  0.80823153  0.02662184  1.0
  F  F211  1  0.02897010  0.31761895  0.81861987  1.0
  F  F212  1  0.37330047  0.69263535  0.52596000  1.0
  F  F213  1  0.47274424  0.18284248  0.31867291  1.0
  F  F214  1  0.63262758  0.30724856  0.52715074  1.0
  F  F215  1  0.52525320  0.81610404  0.31528870  1.0
  F  F216  1  0.59065802  0.70857611  0.89943536  1.0
  F  F217  1  0.18077611  0.45856606  0.29291952  1.0
  F  F218  1  0.40226516  0.29358992  0.89990719  1.0
  F  F219  1  0.81899486  0.54247773  0.29279164  1.0
  F  F220  1  0.09860735  0.20753279  0.39877512  1.0
  F  F221  1  0.67760347  0.95890650  0.79466257  1.0
  F  F222  1  0.90755962  0.79133143  0.39938984  1.0
  F  F223  1  0.31909593  0.04307573  0.79370622  1.0
