# generated using pymatgen
data_AgH24C34N2O4F3
_symmetry_space_group_name_H-M   'P 1'
_cell_length_a   10.35693543
_cell_length_b   13.19406071
_cell_length_c   14.43913364
_cell_angle_alpha   71.05172310
_cell_angle_beta   86.00075394
_cell_angle_gamma   75.49605803
_symmetry_Int_Tables_number   1
_chemical_formula_structural   AgH24C34N2O4F3
_chemical_formula_sum   'Ag2 H48 C68 N4 O8 F6'
_cell_volume   1806.57033465
_cell_formula_units_Z   2
loop_
 _symmetry_equiv_pos_site_id
 _symmetry_equiv_pos_as_xyz
  1  'x, y, z'
loop_
 _atom_site_type_symbol
 _atom_site_label
 _atom_site_symmetry_multiplicity
 _atom_site_fract_x
 _atom_site_fract_y
 _atom_site_fract_z
 _atom_site_occupancy
  Ag  Ag0  1  0.08292052  0.09009752  0.46520374  1.0
  Ag  Ag1  1  0.91708067  0.90990050  0.53479484  1.0
  H  H2  1  0.99881995  0.06269120  0.67800113  1.0
  H  H3  1  0.00117955  0.93730929  0.32199472  1.0
  H  H4  1  0.80085096  0.13645653  0.76949815  1.0
  H  H5  1  0.19915359  0.86354316  0.23050048  1.0
  H  H6  1  0.60183504  0.27048279  0.67268815  1.0
  H  H7  1  0.39816880  0.72951607  0.32731076  1.0
  H  H8  1  0.82175756  0.25979999  0.41042479  1.0
  H  H9  1  0.17824145  0.74019884  0.58957434  1.0
  H  H10  1  0.55972184  0.32195385  0.41455157  1.0
  H  H11  1  0.44027763  0.67804663  0.58544775  1.0
  H  H12  1  0.49218965  0.37173823  0.51370022  1.0
  H  H13  1  0.50780984  0.62825894  0.48630145  1.0
  H  H14  1  0.39834052  0.44871818  0.34247253  1.0
  H  H15  1  0.60165990  0.55128231  0.65752813  1.0
  H  H16  1  0.29134388  0.58327792  0.19070299  1.0
  H  H17  1  0.70865924  0.41672011  0.80929619  1.0
  H  H18  1  0.28731630  0.75096566  0.04775114  1.0
  H  H19  1  0.71268682  0.24903237  0.95224735  1.0
  H  H20  1  0.38802520  0.90530005  0.95473147  1.0
  H  H21  1  0.61197497  0.09470126  0.04526966  1.0
  H  H22  1  0.60129801  0.92119686  0.01388611  1.0
  H  H23  1  0.39870094  0.07880527  0.98611552  1.0
  H  H24  1  0.71067027  0.78515074  0.16631770  1.0
  H  H25  1  0.28933041  0.21484892  0.83368250  1.0
  H  H26  1  0.79343688  0.45367827  0.25091105  1.0
  H  H27  1  0.20656235  0.54631973  0.74909179  1.0
  H  H28  1  0.00767828  0.32200654  0.25267614  1.0
  H  H29  1  0.99231999  0.67799145  0.74732605  1.0
  H  H30  1  0.21246092  0.33886630  0.32437679  1.0
  H  H31  1  0.78753904  0.66113253  0.67562438  1.0
  H  H32  1  0.19474012  0.48990641  0.39704309  1.0
  H  H33  1  0.80525983  0.51009242  0.60295878  1.0
  H  H34  1  0.06145100  0.64788566  0.44057041  1.0
  H  H35  1  0.93854991  0.35211317  0.55943279  1.0
  H  H36  1  0.84645358  0.77847264  0.44394968  1.0
  H  H37  1  0.15354517  0.22152701  0.55604991  1.0
  H  H38  1  0.68577136  0.90671744  0.38042663  1.0
  H  H39  1  0.31423081  0.09328058  0.61957121  1.0
  H  H40  1  0.59683521  0.84146577  0.48402520  1.0
  H  H41  1  0.40316427  0.15853472  0.51597273  1.0
  H  H42  1  0.54395116  0.97526103  0.20989666  1.0
  H  H43  1  0.45605071  0.02474113  0.79010137  1.0
  H  H44  1  0.33183592  0.11330473  0.13703233  1.0
  H  H45  1  0.66816476  0.88669493  0.86296787  1.0
  H  H46  1  0.14532291  0.15508834  0.24986889  1.0
  H  H47  1  0.85467803  0.84491050  0.75013015  1.0
  H  H48  1  0.37147029  0.94921379  0.49532125  1.0
  H  H49  1  0.62853258  0.05078506  0.50467770  1.0
  C  C50  1  0.19069944  0.87858073  0.68498840  1.0
  C  C51  1  0.80929398  0.12142054  0.31501166  1.0
  C  C52  1  0.31274862  0.79399666  0.74818022  1.0
  C  C53  1  0.68723933  0.20601282  0.25182946  1.0
  C  C54  1  0.91194516  0.12463424  0.64020193  1.0
  C  C55  1  0.08805457  0.87536543  0.35979554  1.0
  C  C56  1  0.80156115  0.16491500  0.68974966  1.0
  C  C57  1  0.19844001  0.83508633  0.31024795  1.0
  C  C58  1  0.69157434  0.24048968  0.63612376  1.0
  C  C59  1  0.30842586  0.75951164  0.36387390  1.0
  C  C60  1  0.69619845  0.27572863  0.53404366  1.0
  C  C61  1  0.30380515  0.72427106  0.46595293  1.0
  C  C62  1  0.81169787  0.23316974  0.48980706  1.0
  C  C63  1  0.18830476  0.76682994  0.51019027  1.0
  C  C64  1  0.58199202  0.35575386  0.47036528  1.0
  C  C65  1  0.41800891  0.64424498  0.52963446  1.0
  C  C66  1  0.56163071  0.52696926  0.33725603  1.0
  C  C67  1  0.43836876  0.47303122  0.66274398  1.0
  C  C68  1  0.44361199  0.51585145  0.30175136  1.0
  C  C69  1  0.55638773  0.48414821  0.69824819  1.0
  C  C70  1  0.38385388  0.59135414  0.21627516  1.0
  C  C71  1  0.61614730  0.40864387  0.78372481  1.0
  C  C72  1  0.43942540  0.68042038  0.16184458  1.0
  C  C73  1  0.56057702  0.31957682  0.83815280  1.0
  C  C74  1  0.37883683  0.75983288  0.07412880  1.0
  C  C75  1  0.62116604  0.24016598  0.92587015  1.0
  C  C76  1  0.43528282  0.84552640  0.02231044  1.0
  C  C77  1  0.56471761  0.15447409  0.97768953  1.0
  C  C78  1  0.55608677  0.85410196  0.05583224  1.0
  C  C79  1  0.44391705  0.14589690  0.94416875  1.0
  C  C80  1  0.61724449  0.77867124  0.14091593  1.0
  C  C81  1  0.38275765  0.22132678  0.85908468  1.0
  C  C82  1  0.56043155  0.69061853  0.19723123  1.0
  C  C83  1  0.43956817  0.30938113  0.80276763  1.0
  C  C84  1  0.62032900  0.61342212  0.28668615  1.0
  C  C85  1  0.37967244  0.38657507  0.71331336  1.0
  C  C86  1  0.74317292  0.62353937  0.32661470  1.0
  C  C87  1  0.25682729  0.37645864  0.67338532  1.0
  C  C88  1  0.86791207  0.54811625  0.32408224  1.0
  C  C89  1  0.13208596  0.45188256  0.67591972  1.0
  C  C90  1  0.88106512  0.46188348  0.28277541  1.0
  C  C91  1  0.11893607  0.53811453  0.71722456  1.0
  C  C92  1  0.00233574  0.38849905  0.28313810  1.0
  C  C93  1  0.99766786  0.61150065  0.71685849  1.0
  C  C94  1  0.11743057  0.39810196  0.32397895  1.0
  C  C95  1  0.88256964  0.60189604  0.67602246  1.0
  C  C96  1  0.10825427  0.48160997  0.36365969  1.0
  C  C97  1  0.89174544  0.51838968  0.63634125  1.0
  C  C98  1  0.98489381  0.55812589  0.36469501  1.0
  C  C99  1  0.01510421  0.44187292  0.63530625  1.0
  C  C100  1  0.97328762  0.64276821  0.40694047  1.0
  C  C101  1  0.02671426  0.35723063  0.59306199  1.0
  C  C102  1  0.85272939  0.71571148  0.40887285  1.0
  C  C103  1  0.14727179  0.28428653  0.59112782  1.0
  C  C104  1  0.73750984  0.70637593  0.36828257  1.0
  C  C105  1  0.26249012  0.29362290  0.63171721  1.0
  C  C106  1  0.60089154  0.86845977  0.40330850  1.0
  C  C107  1  0.39910941  0.13153907  0.59668985  1.0
  C  C108  1  0.47518566  0.95145022  0.35832587  1.0
  C  C109  1  0.52481769  0.04855030  0.64167187  1.0
  C  C110  1  0.46244612  0.99889441  0.25651236  1.0
  C  C111  1  0.53755525  0.00110939  0.74348728  1.0
  C  C112  1  0.34472341  0.07436135  0.21591883  1.0
  C  C113  1  0.65527458  0.92564078  0.78408147  1.0
  C  C114  1  0.24159372  0.10004662  0.27784972  1.0
  C  C115  1  0.75840503  0.89995303  0.72214988  1.0
  C  C116  1  0.36830531  0.98315957  0.41543439  1.0
  C  C117  1  0.63169513  0.01684092  0.58456349  1.0
  N  N118  1  0.91644049  0.15818394  0.54143218  1.0
  N  N119  1  0.08356044  0.84181490  0.45856686  1.0
  N  N120  1  0.25349538  0.05564755  0.37604169  1.0
  N  N121  1  0.74650653  0.94435130  0.62395730  1.0
  O  O122  1  0.22068613  0.96228113  0.62404517  1.0
  O  O123  1  0.77932632  0.03771203  0.37594046  1.0
  O  O124  1  0.08031615  0.85408654  0.70379810  1.0
  O  O125  1  0.91968301  0.14592803  0.29618809  1.0
  O  O126  1  0.62375427  0.45654490  0.42304486  1.0
  O  O127  1  0.37624471  0.54345392  0.57695774  1.0
  O  O128  1  0.61374626  0.77558831  0.36853505  1.0
  O  O129  1  0.38625371  0.22441052  0.63146404  1.0
  F  F130  1  0.33178683  0.82367483  0.82794049  1.0
  F  F131  1  0.66819839  0.17634705  0.17206082  1.0
  F  F132  1  0.29786782  0.68850804  0.78262353  1.0
  F  F133  1  0.70210259  0.31150790  0.21739959  1.0
  F  F134  1  0.43008959  0.78997052  0.69708257  1.0
  F  F135  1  0.56990336  0.21001581  0.30293852  1.0
