# generated using pymatgen
data_Zn2H20C33(NO6)2
_symmetry_space_group_name_H-M   'P 1'
_cell_length_a   9.74138474
_cell_length_b   11.04122332
_cell_length_c   16.05372844
_cell_angle_alpha   93.17816525
_cell_angle_beta   90.44900699
_cell_angle_gamma   91.28362236
_symmetry_Int_Tables_number   1
_chemical_formula_structural   Zn2H20C33(NO6)2
_chemical_formula_sum   'Zn2 H20 C33 N2 O12'
_cell_volume   1723.52809684
_cell_formula_units_Z   1
loop_
 _symmetry_equiv_pos_site_id
 _symmetry_equiv_pos_as_xyz
  1  'x, y, z'
loop_
 _atom_site_type_symbol
 _atom_site_label
 _atom_site_symmetry_multiplicity
 _atom_site_fract_x
 _atom_site_fract_y
 _atom_site_fract_z
 _atom_site_occupancy
  Zn  Zn0  1  0.36034305  0.49077685  0.50105070  1.0
  Zn  Zn1  1  0.64674212  0.49723358  0.50179142  1.0
  H  H2  1  0.61109541  0.70861722  0.97756329  1.0
  H  H3  1  0.18317873  0.10831425  0.45400764  1.0
  H  H4  1  0.18144539  0.87640717  0.55253742  1.0
  H  H5  1  0.17766509  0.88115108  0.44105785  1.0
  H  H6  1  0.86841246  0.40819947  0.38344044  1.0
  H  H7  1  0.12773454  0.40109433  0.38432364  1.0
  H  H8  1  0.13589765  0.55088079  0.69758534  1.0
  H  H9  1  0.14978170  0.69215059  0.64959533  1.0
  H  H10  1  0.87770614  0.56239483  0.69461748  1.0
  H  H11  1  0.73159188  0.51091816  0.05435388  1.0
  H  H12  1  0.61294008  0.34856827  0.92815897  1.0
  H  H13  1  0.37571803  0.32289476  0.02840954  1.0
  H  H14  1  0.25601394  0.52160520  0.95136824  1.0
  H  H15  1  0.72123425  0.88364120  0.49542053  1.0
  H  H16  1  0.72464039  0.10957705  0.50624097  1.0
  H  H17  1  0.92456925  0.79567403  0.60016165  1.0
  H  H18  1  0.76270874  0.73930067  0.63354817  1.0
  H  H19  1  0.89063647  0.79001943  0.70868067  1.0
  H  H20  1  0.38439108  0.83366015  0.17035979  1.0
  H  H21  1  0.02454511  0.21423476  0.62943957  1.0
  C  C22  1  0.50089803  0.72832978  0.49051929  1.0
  C  C23  1  0.49403018  0.53200585  0.91813161  1.0
  C  C24  1  0.42842255  0.40825510  0.01573432  1.0
  C  C25  1  0.49534118  0.49704872  0.08628181  1.0
  C  C26  1  0.56058901  0.42216840  0.96228423  1.0
  C  C27  1  0.62641626  0.51256888  0.03033566  1.0
  C  C28  1  0.49766583  0.54306099  0.83075740  1.0
  C  C29  1  0.49395099  0.48124309  0.17303035  1.0
  C  C30  1  0.38122456  0.92980839  0.49886729  1.0
  C  C31  1  0.50129631  0.86351932  0.49489510  1.0
  C  C32  1  0.62517478  0.93243039  0.49826352  1.0
  C  C33  1  0.50650650  0.53089795  0.66480739  1.0
  C  C34  1  0.62710242  0.05903072  0.50471621  1.0
  C  C35  1  0.50494621  0.12519125  0.50921432  1.0
  C  C36  1  0.38355663  0.05601905  0.50643120  1.0
  C  C37  1  0.22786761  0.06480180  0.50734955  1.0
  C  C38  1  0.22592500  0.92000795  0.49883376  1.0
  C  C39  1  0.93536361  0.54531570  0.56323668  1.0
  C  C40  1  0.92903906  0.44627582  0.43632966  1.0
  C  C41  1  0.07202624  0.44173914  0.43702928  1.0
  C  C42  1  0.07815773  0.53951469  0.56433125  1.0
  C  C43  1  0.09275410  0.60519255  0.64894580  1.0
  C  C44  1  0.50661610  0.26033917  0.51311785  1.0
  C  C45  1  0.92929533  0.61504107  0.64733216  1.0
  C  C46  1  0.49813798  0.46550897  0.33788494  1.0
  C  C47  1  0.42669727  0.60790160  0.04156557  1.0
  C  C48  1  0.56026478  0.62179714  0.98860116  1.0
  C  C49  1  0.50310183  0.54274128  0.75489905  1.0
  C  C50  1  0.49514347  0.46917964  0.24802005  1.0
  C  C51  1  0.36184535  0.51752665  0.97396527  1.0
  C  C52  1  0.87316271  0.74270430  0.64742232  1.0
  C  C53  1  0.35277484  0.70495743  0.08889482  1.0
  C  C54  1  0.16636250  0.11472001  0.58776172  1.0
  N  N55  1  0.85750790  0.49927191  0.50041167  1.0
  N  N56  1  0.14985004  0.48886277  0.50212769  1.0
  O  O57  1  0.38451158  0.67362748  0.48305038  1.0
  O  O58  1  0.61701405  0.67807673  0.49599755  1.0
  O  O59  1  0.39090359  0.53232630  0.62718455  1.0
  O  O60  1  0.62377009  0.51834541  0.63129085  1.0
  O  O61  1  0.39027595  0.31083850  0.51867896  1.0
  O  O62  1  0.62293410  0.31455923  0.50902909  1.0
  O  O63  1  0.38251692  0.45529383  0.37386984  1.0
  O  O64  1  0.61593832  0.47496873  0.37294231  1.0
  O  O65  1  0.22880459  0.71943834  0.08692825  1.0
  O  O66  1  0.44086475  0.77603620  0.13799400  1.0
  O  O67  1  0.20035498  0.08850657  0.65763258  1.0
  O  O68  1  0.06051697  0.19099892  0.57406536  1.0
