# generated using pymatgen
data_LaCoH18C36(NO2)6
_symmetry_space_group_name_H-M   'P 1'
_cell_length_a   18.33555528
_cell_length_b   18.33555827
_cell_length_c   21.68976066
_cell_angle_alpha   110.35731501
_cell_angle_beta   110.35699085
_cell_angle_gamma   100.11907139
_symmetry_Int_Tables_number   1
_chemical_formula_structural   LaCoH18C36(NO2)6
_chemical_formula_sum   'La4 Co4 H72 C144 N24 O48'
_cell_volume   6033.30163892
_cell_formula_units_Z   4
loop_
 _symmetry_equiv_pos_site_id
 _symmetry_equiv_pos_as_xyz
  1  'x, y, z'
loop_
 _atom_site_type_symbol
 _atom_site_label
 _atom_site_symmetry_multiplicity
 _atom_site_fract_x
 _atom_site_fract_y
 _atom_site_fract_z
 _atom_site_occupancy
  La  La0  1  0.60370073  0.35366561  0.74992243  1.0
  La  La1  1  0.14633466  0.89629859  0.75007611  1.0
  La  La2  1  0.39629904  0.64633643  0.25007852  1.0
  La  La3  1  0.85366382  0.10369949  0.24991964  1.0
  Co  Co4  1  0.10949165  0.39050700  0.74999976  1.0
  Co  Co5  1  0.64058874  0.85941134  0.75000052  1.0
  Co  Co6  1  0.89050734  0.60949262  0.25000125  1.0
  Co  Co7  1  0.35941238  0.14059007  0.25000104  1.0
  H  H8  1  0.05421413  0.45992410  0.86951008  1.0
  H  H9  1  0.91444102  0.45799686  0.86490033  1.0
  H  H10  1  0.80442545  0.30588237  0.63362051  1.0
  H  H11  1  0.82931618  0.24033483  0.54309002  1.0
  H  H12  1  0.02111896  0.21431199  0.47711241  1.0
  H  H13  1  0.12598909  0.30310279  0.60880580  1.0
  H  H14  1  0.76897180  0.00801948  0.77296526  1.0
  H  H15  1  0.76533729  0.14667748  0.77800382  1.0
  H  H16  1  0.51558633  0.07714152  0.74751361  1.0
  H  H17  1  0.81516515  0.90937402  0.86952941  1.0
  H  H18  1  0.95039246  0.90688718  0.86497828  1.0
  H  H19  1  0.82949073  0.82808971  0.63368094  1.0
  H  H20  1  0.71411860  0.80325460  0.54311060  1.0
  H  H21  1  0.45644521  0.76327497  0.47728908  1.0
  H  H22  1  0.48312632  0.80597951  0.60895233  1.0
  H  H23  1  0.00405884  0.26474256  0.77289823  1.0
  H  H24  1  0.01281700  0.13121583  0.77805062  1.0
  H  H25  1  0.23214285  0.17031968  0.74757265  1.0
  H  H26  1  0.04007493  0.44578638  0.63048850  1.0
  H  H27  1  0.04200381  0.58555878  0.63509763  1.0
  H  H28  1  0.19411566  0.69557470  0.86637775  1.0
  H  H29  1  0.25966131  0.67068364  0.95690487  1.0
  H  H30  1  0.28568718  0.47888594  0.02288683  1.0
  H  H31  1  0.19690011  0.37401419  0.89119803  1.0
  H  H32  1  0.49197752  0.73102770  0.72703171  1.0
  H  H33  1  0.35332067  0.73466351  0.72199439  1.0
  H  H34  1  0.42286035  0.98441625  0.75248719  1.0
  H  H35  1  0.59062432  0.68483467  0.63046792  1.0
  H  H36  1  0.59311036  0.54960620  0.63501863  1.0
  H  H37  1  0.67190934  0.67050579  0.86631551  1.0
  H  H38  1  0.69674452  0.78587986  0.95688824  1.0
  H  H39  1  0.73672554  0.04355467  0.02270935  1.0
  H  H40  1  0.69401972  0.01687120  0.89104714  1.0
  H  H41  1  0.23525960  0.49594075  0.72710136  1.0
  H  H42  1  0.36878466  0.48718305  0.72194910  1.0
  H  H43  1  0.32968138  0.26785984  0.75243056  1.0
  H  H44  1  0.94578466  0.54007299  0.13048840  1.0
  H  H45  1  0.08555599  0.54200242  0.13509786  1.0
  H  H46  1  0.19557399  0.69411626  0.36637641  1.0
  H  H47  1  0.17068372  0.75966425  0.45690736  1.0
  H  H48  1  0.97888410  0.78568868  0.52288718  1.0
  H  H49  1  0.87401295  0.69689853  0.39119630  1.0
  H  H50  1  0.23103344  0.99198122  0.22703497  1.0
  H  H51  1  0.23466652  0.85332405  0.22199910  1.0
  H  H52  1  0.48441656  0.92285908  0.25248839  1.0
  H  H53  1  0.18483870  0.09062668  0.13046959  1.0
  H  H54  1  0.04961088  0.09311243  0.13501963  1.0
  H  H55  1  0.17050523  0.17190775  0.36631483  1.0
  H  H56  1  0.28587892  0.19674577  0.45688868  1.0
  H  H57  1  0.54355390  0.23672647  0.52270942  1.0
  H  H58  1  0.51686990  0.19402212  0.39104699  1.0
  H  H59  1  0.99593813  0.73525515  0.22710334  1.0
  H  H60  1  0.98718272  0.86878024  0.22195241  1.0
  H  H61  1  0.76785684  0.82967972  0.25242690  1.0
  H  H62  1  0.95992580  0.55421621  0.36951362  1.0
  H  H63  1  0.95799859  0.41444513  0.36490459  1.0
  H  H64  1  0.80588801  0.30442833  0.13362419  1.0
  H  H65  1  0.74033684  0.32931770  0.04309663  1.0
  H  H66  1  0.71431416  0.52111900  0.97711765  1.0
  H  H67  1  0.80310429  0.62598868  0.10880685  1.0
  H  H68  1  0.50801707  0.26896984  0.27296722  1.0
  H  H69  1  0.64667687  0.26534025  0.27800582  1.0
  H  H70  1  0.57714180  0.01558450  0.24751186  1.0
  H  H71  1  0.40937237  0.31516503  0.36953132  1.0
  H  H72  1  0.40688496  0.45039074  0.36497908  1.0
  H  H73  1  0.32809043  0.32949386  0.13368491  1.0
  H  H74  1  0.30325435  0.21411987  0.04311165  1.0
  H  H75  1  0.26327157  0.95644542  0.97728595  1.0
  H  H76  1  0.30597766  0.98312727  0.10895025  1.0
  H  H77  1  0.76474392  0.50406039  0.27289868  1.0
  H  H78  1  0.63121925  0.51281690  0.27805039  1.0
  H  H79  1  0.67031746  0.73214027  0.24756909  1.0
  C  C80  1  0.99806499  0.42707063  0.81809115  1.0
  C  C81  1  0.92112344  0.42568413  0.81556517  1.0
  C  C82  1  0.85041970  0.38215284  0.74831786  1.0
  C  C83  1  0.85971272  0.34059331  0.68576419  1.0
  C  C84  1  0.93844070  0.34479188  0.69123365  1.0
  C  C85  1  0.95563664  0.30525516  0.62937339  1.0
  C  C86  1  0.89517171  0.25507735  0.55789587  1.0
  C  C87  1  0.91786534  0.22166773  0.50205452  1.0
  C  C88  1  0.00210378  0.23931327  0.52019097  1.0
  C  C89  1  0.06008942  0.28878844  0.59280938  1.0
  C  C90  1  0.76540807  0.37935268  0.74339058  1.0
  C  C91  1  0.85027257  0.16842522  0.42354585  1.0
  C  C92  1  0.71417051  0.02524933  0.76818109  1.0
  C  C93  1  0.71190798  0.10134648  0.77051478  1.0
  C  C94  1  0.63944119  0.12001853  0.76202831  1.0
  C  C95  1  0.57204573  0.06232665  0.75425676  1.0
  C  C96  1  0.57812850  0.98750521  0.75386921  1.0
  C  C97  1  0.63277824  0.19956116  0.75805414  1.0
  C  C98  1  0.81999430  0.89090019  0.81812548  1.0
  C  C99  1  0.89445776  0.88989978  0.81562686  1.0
  C  C100  1  0.89800395  0.86632815  0.74837754  1.0
  C  C101  1  0.82624593  0.84542438  0.68581999  1.0
  C  C102  1  0.75297901  0.84661433  0.69128384  1.0
  C  C103  1  0.67402382  0.82441685  0.62942488  1.0
  C  C104  1  0.66307467  0.80329084  0.55794305  1.0
  C  C105  1  0.58456488  0.78081025  0.50213157  1.0
  C  C106  1  0.51850216  0.78136636  0.52034148  1.0
  C  C107  1  0.53305837  0.80436780  0.59295320  1.0
  C  C108  1  0.97803595  0.86410177  0.74336588  1.0
  C  C109  1  0.57353960  0.75522709  0.42352255  1.0
  C  C110  1  0.05413497  0.24278629  0.76819096  1.0
  C  C111  1  0.05878314  0.16905269  0.77057393  1.0
  C  C112  1  0.12280250  0.14193573  0.76212336  1.0
  C  C113  1  0.18240058  0.19184374  0.75430404  1.0
  C  C114  1  0.17588145  0.26626347  0.75389723  1.0
  C  C115  1  0.12548316  0.05844930  0.75816051  1.0
  C  C116  1  0.07292943  0.50193511  0.68190530  1.0
  C  C117  1  0.07431644  0.57887812  0.68443251  1.0
  C  C118  1  0.11784990  0.64958121  0.75168337  1.0
  C  C119  1  0.15940679  0.64028483  0.81423434  1.0
  C  C120  1  0.15520813  0.56155704  0.80876330  1.0
  C  C121  1  0.19474440  0.54436228  0.87062498  1.0
  C  C122  1  0.24492177  0.60483007  0.94210194  1.0
  C  C123  1  0.27833388  0.58213858  0.99794416  1.0
  C  C124  1  0.26068576  0.49790123  0.97980911  1.0
  C  C125  1  0.21121143  0.43991456  0.90719191  1.0
  C  C126  1  0.12065617  0.73459647  0.75661529  1.0
  C  C127  1  0.33157750  0.64973615  0.07645257  1.0
  C  C128  1  0.47474792  0.78582884  0.73181507  1.0
  C  C129  1  0.39865139  0.78809223  0.72948183  1.0
  C  C130  1  0.37998220  0.86056231  0.73797447  1.0
  C  C131  1  0.43767369  0.92795666  0.74574378  1.0
  C  C132  1  0.51249633  0.92187354  0.74613374  1.0
  C  C133  1  0.30044040  0.86722436  0.74194913  1.0
  C  C134  1  0.60909809  0.68000638  0.68187341  1.0
  C  C135  1  0.61009830  0.60554316  0.68437159  1.0
  C  C136  1  0.63366620  0.60199358  0.75161915  1.0
  C  C137  1  0.65457245  0.67375142  0.81417757  1.0
  C  C138  1  0.65338458  0.74701890  0.80871332  1.0
  C  C139  1  0.67558263  0.82597355  0.87057370  1.0
  C  C140  1  0.69671008  0.83692440  0.94205658  1.0
  C  C141  1  0.71918631  0.91543283  0.99786684  1.0
  C  C142  1  0.71863197  0.98149615  0.97965894  1.0
  C  C143  1  0.69563042  0.96693966  0.90704867  1.0
  C  C144  1  0.63589412  0.52196117  0.75663069  1.0
  C  C145  1  0.74477208  0.92645614  0.07647587  1.0
  C  C146  1  0.25721573  0.44586640  0.73181044  1.0
  C  C147  1  0.33094985  0.44121904  0.72942947  1.0
  C  C148  1  0.35806865  0.37720051  0.73787990  1.0
  C  C149  1  0.30815780  0.31760174  0.74569834  1.0
  C  C150  1  0.23373708  0.32411964  0.74610155  1.0
  C  C151  1  0.44155268  0.37451796  0.74184088  1.0
  C  C152  1  0.00193542  0.57292955  0.18190732  1.0
  C  C153  1  0.07887614  0.57431538  0.18443325  1.0
  C  C154  1  0.14957906  0.61784702  0.25168091  1.0
  C  C155  1  0.14028519  0.65940588  0.31423454  1.0
  C  C156  1  0.06155757  0.65520651  0.30876428  1.0
  C  C157  1  0.04436254  0.69474314  0.37062507  1.0
  C  C158  1  0.10482855  0.74492094  0.44210071  1.0
  C  C159  1  0.08213794  0.77833364  0.49794329  1.0
  C  C160  1  0.99790113  0.76068685  0.47980993  1.0
  C  C161  1  0.93991354  0.71120903  0.40719257  1.0
  C  C162  1  0.23459257  0.62065203  0.25661120  1.0
  C  C163  1  0.14973606  0.83157732  0.57645065  1.0
  C  C164  1  0.28583239  0.97475083  0.23181674  1.0
  C  C165  1  0.28809120  0.89865137  0.22947951  1.0
  C  C166  1  0.36055683  0.87997908  0.23796698  1.0
  C  C167  1  0.42795686  0.93767016  0.24574144  1.0
  C  C168  1  0.42187412  0.01249362  0.24612977  1.0
  C  C169  1  0.36721913  0.80043970  0.24194378  1.0
  C  C170  1  0.18000795  0.10909844  0.18187392  1.0
  C  C171  1  0.10554561  0.11009945  0.18437129  1.0
  C  C172  1  0.10199469  0.13366943  0.25161958  1.0
  C  C173  1  0.17375356  0.15457488  0.31417757  1.0
  C  C174  1  0.24701971  0.15338590  0.30871468  1.0
  C  C175  1  0.32597337  0.17558055  0.37057453  1.0
  C  C176  1  0.33692287  0.19670576  0.44205556  1.0
  C  C177  1  0.41543235  0.21918539  0.49786794  1.0
  C  C178  1  0.48149473  0.21863109  0.47965922  1.0
  C  C179  1  0.46694024  0.19563161  0.40704822  1.0
  C  C180  1  0.02196295  0.13589614  0.25662971  1.0
  C  C181  1  0.42646023  0.24477319  0.57647850  1.0
  C  C182  1  0.94586407  0.75721396  0.23181069  1.0
  C  C183  1  0.94121515  0.83094477  0.22942801  1.0
  C  C184  1  0.87719912  0.85806576  0.23787891  1.0
  C  C185  1  0.81759740  0.80815470  0.24569518  1.0
  C  C186  1  0.82411643  0.73373610  0.24610125  1.0
  C  C187  1  0.87451913  0.94154996  0.24183951  1.0
  C  C188  1  0.92706853  0.49806471  0.31809405  1.0
  C  C189  1  0.92568379  0.42112438  0.31556891  1.0
  C  C190  1  0.88215276  0.35042109  0.24832094  1.0
  C  C191  1  0.84059616  0.35971502  0.18576814  1.0
  C  C192  1  0.84479375  0.43844239  0.19123690  1.0
  C  C193  1  0.80525711  0.45563694  0.12937564  1.0
  C  C194  1  0.75507794  0.39517033  0.05789799  1.0
  C  C195  1  0.72166469  0.41786360  0.00205756  1.0
  C  C196  1  0.73931501  0.50210098  0.02019325  1.0
  C  C197  1  0.78879108  0.56008823  0.09281103  1.0
  C  C198  1  0.87935160  0.26540768  0.24338963  1.0
  C  C199  1  0.66841882  0.35026674  0.92354800  1.0
  C  C200  1  0.52524955  0.21417090  0.26818358  1.0
  C  C201  1  0.60135072  0.21191173  0.27052167  1.0
  C  C202  1  0.62001940  0.13944340  0.26203264  1.0
  C  C203  1  0.56232732  0.07204486  0.25425667  1.0
  C  C204  1  0.48750562  0.07812514  0.25386695  1.0
  C  C205  1  0.69955986  0.13278060  0.25805723  1.0
  C  C206  1  0.39090129  0.31999444  0.31812758  1.0
  C  C207  1  0.38989889  0.39445764  0.31562874  1.0
  C  C208  1  0.36632663  0.39800476  0.24837935  1.0
  C  C209  1  0.34542311  0.32624767  0.18582292  1.0
  C  C210  1  0.34661291  0.25297945  0.19128518  1.0
  C  C211  1  0.32441946  0.17402557  0.12942433  1.0
  C  C212  1  0.30329336  0.16307409  0.05794206  1.0
  C  C213  1  0.28081759  0.08456612  0.00213226  1.0
  C  C214  1  0.28136941  0.01850320  0.02034055  1.0
  C  C215  1  0.30436837  0.03305982  0.09295035  1.0
  C  C216  1  0.36410106  0.47803771  0.24337021  1.0
  C  C217  1  0.25522579  0.07354242  0.92352223  1.0
  C  C218  1  0.74278612  0.55413340  0.26818951  1.0
  C  C219  1  0.66905246  0.55878122  0.27057095  1.0
  C  C220  1  0.64193340  0.62279943  0.26212205  1.0
  C  C221  1  0.69184196  0.68239929  0.25430223  1.0
  C  C222  1  0.76626223  0.67588193  0.25389895  1.0
  C  C223  1  0.55844992  0.62548031  0.25816187  1.0
  N  N224  1  0.00686821  0.38789351  0.75708974  1.0
  N  N225  1  0.03763587  0.32178667  0.64652392  1.0
  N  N226  1  0.64864726  0.96926565  0.75985923  1.0
  N  N227  1  0.75027918  0.86913929  0.75711904  1.0
  N  N228  1  0.60916465  0.82494791  0.64659580  1.0
  N  N229  1  0.11133551  0.29048213  0.75986691  1.0
  N  N230  1  0.11210527  0.49313031  0.74290695  1.0
  N  N231  1  0.17821501  0.46236383  0.85347606  1.0
  N  N232  1  0.53073287  0.85135274  0.74013903  1.0
  N  N233  1  0.63085982  0.74972072  0.74288005  1.0
  N  N234  1  0.67505083  0.89083451  0.85340460  1.0
  N  N235  1  0.20951735  0.38866483  0.74013141  1.0
  N  N236  1  0.99313012  0.61210550  0.24290881  1.0
  N  N237  1  0.96236441  0.67821307  0.35347721  1.0
  N  N238  1  0.35135386  0.03073191  0.24013725  1.0
  N  N239  1  0.24972227  0.13085930  0.24288094  1.0
  N  N240  1  0.39083402  0.17504975  0.35340572  1.0
  N  N241  1  0.88866295  0.70951778  0.24013315  1.0
  N  N242  1  0.88789410  0.50686951  0.25709365  1.0
  N  N243  1  0.82178791  0.53763640  0.14652617  1.0
  N  N244  1  0.46926718  0.14864585  0.25985971  1.0
  N  N245  1  0.36914045  0.25028140  0.25712161  1.0
  N  N246  1  0.32494830  0.10916555  0.14659375  1.0
  N  N247  1  0.79048137  0.61133540  0.25986712  1.0
  O  O248  1  0.76352993  0.42635208  0.80122156  1.0
  O  O249  1  0.70384249  0.32966453  0.68287359  1.0
  O  O250  1  0.77743530  0.15387250  0.41491309  1.0
  O  O251  1  0.87869888  0.14646320  0.37666979  1.0
  O  O252  1  0.69916579  0.25643494  0.78035819  1.0
  O  O253  1  0.56017272  0.20128794  0.73031681  1.0
  O  O254  1  0.03767737  0.87479333  0.80117479  1.0
  O  O255  1  0.97913226  0.85328942  0.68283127  1.0
  O  O256  1  0.63763211  0.76098386  0.41470127  1.0
  O  O257  1  0.49822720  0.73013846  0.37674144  1.0
  O  O258  1  0.08121451  0.02379058  0.78032223  1.0
  O  O259  1  0.17049333  0.02906155  0.73053291  1.0
  O  O260  1  0.07366577  0.73647752  0.69878277  1.0
  O  O261  1  0.17033482  0.79615758  0.81713898  1.0
  O  O262  1  0.34613308  0.72257500  0.08508694  1.0
  O  O263  1  0.35353555  0.62130892  0.12332851  1.0
  O  O264  1  0.24356836  0.80083664  0.71964615  1.0
  O  O265  1  0.29871170  0.93983001  0.76968589  1.0
  O  O266  1  0.62520540  0.46232150  0.69882228  1.0
  O  O267  1  0.64670934  0.52086371  0.81716624  1.0
  O  O268  1  0.73901197  0.86236058  0.08529356  1.0
  O  O269  1  0.76985900  0.00176582  0.12326033  1.0
  O  O270  1  0.47620953  0.41878262  0.71967556  1.0
  O  O271  1  0.47094050  0.32950763  0.76946705  1.0
  O  O272  1  0.23647360  0.57365722  0.19878048  1.0
  O  O273  1  0.29615516  0.67033718  0.31713136  1.0
  O  O274  1  0.22257201  0.84613029  0.58508305  1.0
  O  O275  1  0.12130966  0.85353613  0.62332907  1.0
  O  O276  1  0.30083536  0.74356892  0.21964831  1.0
  O  O277  1  0.43982784  0.79871652  0.26968409  1.0
  O  O278  1  0.96232309  0.12520703  0.19882016  1.0
  O  O279  1  0.02086271  0.14670549  0.31716255  1.0
  O  O280  1  0.36236367  0.23901592  0.58529743  1.0
  O  O281  1  0.50176860  0.26986040  0.62326128  1.0
  O  O282  1  0.91878222  0.97620591  0.21967256  1.0
  O  O283  1  0.82951163  0.97093921  0.26946862  1.0
  O  O284  1  0.92634769  0.26352599  0.30121966  1.0
  O  O285  1  0.82966614  0.20384522  0.18286954  1.0
  O  O286  1  0.65386156  0.27742895  0.91491408  1.0
  O  O287  1  0.64646084  0.37869323  0.87667255  1.0
  O  O288  1  0.75643100  0.19916557  0.28035498  1.0
  O  O289  1  0.70128128  0.06017123  0.23031489  1.0
  O  O290  1  0.37479197  0.53767980  0.30117981  1.0
  O  O291  1  0.35328995  0.47913731  0.18283802  1.0
  O  O292  1  0.26097699  0.13763255  0.91469911  1.0
  O  O293  1  0.23013870  0.99823028  0.87673964  1.0
  O  O294  1  0.52379488  0.58121548  0.28032826  1.0
  O  O295  1  0.52906012  0.67048791  0.23053235  1.0
