# generated using pymatgen
data_Al2H11C22S2ClO12
_symmetry_space_group_name_H-M   'P 1'
_cell_length_a   6.63014614
_cell_length_b   12.69130654
_cell_length_c   15.29675762
_cell_angle_alpha   80.13265472
_cell_angle_beta   78.98296228
_cell_angle_gamma   75.71041620
_symmetry_Int_Tables_number   1
_chemical_formula_structural   Al2H11C22S2ClO12
_chemical_formula_sum   'Al2 H11 C22 S2 Cl1 O12'
_cell_volume   1213.85604134
_cell_formula_units_Z   1
loop_
 _symmetry_equiv_pos_site_id
 _symmetry_equiv_pos_as_xyz
  1  'x, y, z'
loop_
 _atom_site_type_symbol
 _atom_site_label
 _atom_site_symmetry_multiplicity
 _atom_site_fract_x
 _atom_site_fract_y
 _atom_site_fract_z
 _atom_site_occupancy
  Al  Al0  1  0.49614757  0.50546474  0.49908423  1.0
  Al  Al1  1  0.99642446  0.50229158  0.50017167  1.0
  H  H2  1  0.23141748  0.61435454  0.40902143  1.0
  H  H3  1  0.77346733  0.37332196  0.56168804  1.0
  H  H4  1  0.15875677  0.54414585  0.23301825  1.0
  H  H5  1  0.84746142  0.45349523  0.76534659  1.0
  H  H6  1  0.40145555  0.56688365  0.77149862  1.0
  H  H7  1  0.31014003  0.55984450  0.93509061  1.0
  H  H8  1  0.60059012  0.43450885  0.22722611  1.0
  H  H9  1  0.69823846  0.43490867  0.06424092  1.0
  H  H10  1  0.31221257  0.86104646  0.44070321  1.0
  H  H11  1  0.37137213  0.56114438  0.11022294  1.0
  H  H12  1  0.64347317  0.42725771  0.88935808  1.0
  C  C13  1  0.66335094  0.69893875  0.49692022  1.0
  C  C14  1  0.81241798  0.49873589  0.33931192  1.0
  C  C15  1  0.33143993  0.30737498  0.50478576  1.0
  C  C16  1  0.18485518  0.50811435  0.65852066  1.0
  C  C17  1  0.87018951  0.49305292  0.24103291  1.0
  C  C18  1  0.13199639  0.50842512  0.75747119  1.0
  C  C19  1  0.05576233  0.52145558  0.19500156  1.0
  C  C20  1  0.11248140  0.52259648  0.10219936  1.0
  C  C21  1  0.95036782  0.47584308  0.80365359  1.0
  C  C22  1  0.89828428  0.46998874  0.89692330  1.0
  C  C23  1  0.26137643  0.53858598  0.80667045  1.0
  C  C24  1  0.20841622  0.53414540  0.89934556  1.0
  C  C25  1  0.74244681  0.46112053  0.19206758  1.0
  C  C26  1  0.79924740  0.46144303  0.09979329  1.0
  C  C27  1  0.98187505  0.49448747  0.04928675  1.0
  C  C28  1  0.02838296  0.49847027  0.94985610  1.0
  C  C29  1  0.57217834  0.11538314  0.53665294  1.0
  C  C30  1  0.42546972  0.88879637  0.46897613  1.0
  C  C31  1  0.39969791  0.18823911  0.50465057  1.0
  C  C32  1  0.60035444  0.81799946  0.49913736  1.0
  C  C33  1  0.41755043  0.99766497  0.48093541  1.0
  C  C34  1  0.58441950  0.00672565  0.52209647  1.0
  S  S35  1  0.25033911  0.12304213  0.45880913  1.0
  S  S36  1  0.75491000  0.88228810  0.54324066  1.0
  Cl  Cl37  1  0.74683051  0.14605289  0.59219351  1.0
  O  O38  1  0.53076609  0.65343855  0.47621684  1.0
  O  O39  1  0.94709517  0.52256376  0.37797579  1.0
  O  O40  1  0.14579836  0.35201934  0.48758949  1.0
  O  O41  1  0.36032121  0.52987364  0.61935009  1.0
  O  O42  1  0.46187319  0.35675639  0.52194942  1.0
  O  O43  1  0.05126764  0.48295298  0.62025260  1.0
  O  O44  1  0.84624308  0.65075103  0.51508696  1.0
  O  O45  1  0.63230669  0.48208074  0.37743765  1.0
  O  O46  1  0.24102333  0.55314299  0.45645389  1.0
  O  O47  1  0.75132987  0.45162885  0.54202888  1.0
  O  O48  1  0.29840142  0.55174960  0.06332386  1.0
  O  O49  1  0.71725750  0.43588854  0.93624417  1.0
