# generated using pymatgen
data_AlH6C11O5F
_symmetry_space_group_name_H-M   'P 1'
_cell_length_a   6.65746056
_cell_length_b   11.09115828
_cell_length_c   11.23121235
_cell_angle_alpha   80.06083114
_cell_angle_beta   72.81201186
_cell_angle_gamma   73.15047031
_symmetry_Int_Tables_number   1
_chemical_formula_structural   AlH6C11O5F
_chemical_formula_sum   'Al2 H12 C22 O10 F2'
_cell_volume   754.81596570
_cell_formula_units_Z   2
loop_
 _symmetry_equiv_pos_site_id
 _symmetry_equiv_pos_as_xyz
  1  'x, y, z'
loop_
 _atom_site_type_symbol
 _atom_site_label
 _atom_site_symmetry_multiplicity
 _atom_site_fract_x
 _atom_site_fract_y
 _atom_site_fract_z
 _atom_site_occupancy
  Al  Al0  1  0.48484344  0.51477671  0.49271295  1.0
  Al  Al1  1  0.98376723  0.51471653  0.49433951  1.0
  H  H2  1  0.26174932  0.60274356  0.34848921  1.0
  H  H3  1  0.78064224  0.35975362  0.55682811  1.0
  H  H4  1  0.82193056  0.29120758  0.89934510  1.0
  H  H5  1  0.61272821  0.43135944  0.88293517  1.0
  H  H6  1  0.49371216  0.43374523  0.11911876  1.0
  H  H7  1  0.70411316  0.29357164  0.13242908  1.0
  H  H8  1  0.83708336  0.76963852  0.66211732  1.0
  H  H9  1  0.97672172  0.88060100  0.77968669  1.0
  H  H10  1  0.57710941  0.23731882  0.66734503  1.0
  H  H11  1  0.84316439  0.11549396  0.78359005  1.0
  H  H12  1  0.18521962  0.13284034  0.41950146  1.0
  H  H13  1  0.29970677  0.89666278  0.42754325  1.0
  C  C14  1  0.61404444  0.73905612  0.51210577  1.0
  C  C15  1  0.84710180  0.52303549  0.26591606  1.0
  C  C16  1  0.34353087  0.28448240  0.50183685  1.0
  C  C17  1  0.12122537  0.51626526  0.71810072  1.0
  C  C18  1  0.04918630  0.52237287  0.85611709  1.0
  C  C19  1  0.91380715  0.52524561  0.12691873  1.0
  C  C20  1  0.88898917  0.46504284  0.93293176  1.0
  C  C21  1  0.07359091  0.58492944  0.05010036  1.0
  C  C22  1  0.82392199  0.46642021  0.06261749  1.0
  C  C23  1  0.13836763  0.58390852  0.91960784  1.0
  C  C24  1  0.73896678  0.38524328  0.93234735  1.0
  C  C25  1  0.66493179  0.38666802  0.07984355  1.0
  C  C26  1  0.53813848  0.87764580  0.52662014  1.0
  C  C27  1  0.63094475  0.93942710  0.59112538  1.0
  C  C28  1  0.37375696  0.94665554  0.47124413  1.0
  C  C29  1  0.78269253  0.87201263  0.66103369  1.0
  C  C30  1  0.85971306  0.93427401  0.72724377  1.0
  C  C31  1  0.40399283  0.14344574  0.52139740  1.0
  C  C32  1  0.30823901  0.07904506  0.46768554  1.0
  C  C33  1  0.55934632  0.07527682  0.59014224  1.0
  C  C34  1  0.63814888  0.13558567  0.66246041  1.0
  C  C35  1  0.78541351  0.06693362  0.72883701  1.0
  O  O36  1  0.47249491  0.68481680  0.50759478  1.0
  O  O37  1  0.99314055  0.51773329  0.31979790  1.0
  O  O38  1  0.14710556  0.33879928  0.49976160  1.0
  O  O39  1  0.32114072  0.50630244  0.66478377  1.0
  O  O40  1  0.49290944  0.34053246  0.48658876  1.0
  O  O41  1  0.97480105  0.51771380  0.66609925  1.0
  O  O42  1  0.81498181  0.68555415  0.49971799  1.0
  O  O43  1  0.64859082  0.52471754  0.31829301  1.0
  O  O44  1  0.23488315  0.57151641  0.43646096  1.0
  O  O45  1  0.73901079  0.45161094  0.54514317  1.0
  F  F46  1  0.16741926  0.65062071  0.09984452  1.0
  F  F47  1  0.28692074  0.64928072  0.85551982  1.0
