# generated using pymatgen
data_Al6H40C95Cl8O33
_symmetry_space_group_name_H-M   'P 1'
_cell_length_a   12.05239105
_cell_length_b   12.22573414
_cell_length_c   27.89734165
_cell_angle_alpha   85.68031918
_cell_angle_beta   85.35539718
_cell_angle_gamma   61.26549110
_symmetry_Int_Tables_number   1
_chemical_formula_structural   Al6H40C95Cl8O33
_chemical_formula_sum   'Al6 H40 C95 Cl8 O33'
_cell_volume   3589.50281046
_cell_formula_units_Z   1
loop_
 _symmetry_equiv_pos_site_id
 _symmetry_equiv_pos_as_xyz
  1  'x, y, z'
loop_
 _atom_site_type_symbol
 _atom_site_label
 _atom_site_symmetry_multiplicity
 _atom_site_fract_x
 _atom_site_fract_y
 _atom_site_fract_z
 _atom_site_occupancy
  Al  Al0  1  0.58910128  0.59851882  0.49503826  1.0
  Al  Al1  1  0.33714316  0.57443649  0.50268216  1.0
  Al  Al2  1  0.58570042  0.33656134  0.50525113  1.0
  Al  Al3  1  0.09418809  0.06921357  0.01021136  1.0
  Al  Al4  1  0.09135434  0.33231652  0.00555386  1.0
  Al  Al5  1  0.34450722  0.09797857  0.00603079  1.0
  H  H6  1  0.12539941  0.40177409  0.32034762  1.0
  H  H7  1  0.01751528  0.50839877  0.70986264  1.0
  H  H8  1  0.50948005  0.19394406  0.87949464  1.0
  H  H9  1  0.64359362  0.14773175  0.80285276  1.0
  H  H10  1  0.65980523  0.16622815  0.71394073  1.0
  H  H11  1  0.55735685  0.25456279  0.63647099  1.0
  H  H12  1  0.72655906  0.53412527  0.70743928  1.0
  H  H13  1  0.28359041  0.68337028  0.73302664  1.0
  H  H14  1  0.30252103  0.71935550  0.81787841  1.0
  H  H15  1  0.41140038  0.99936770  0.76887854  1.0
  H  H16  1  0.39353463  0.96260121  0.68398596  1.0
  H  H17  1  0.74820171  0.20305512  0.37957831  1.0
  H  H18  1  0.53336181  0.20132829  0.29741079  1.0
  H  H19  1  0.91770634  0.47204303  0.12969210  1.0
  H  H20  1  0.85867716  0.60047129  0.20183947  1.0
  H  H21  1  0.90886214  0.12450175  0.14042219  1.0
  H  H22  1  0.25432039  0.63726863  0.07727199  1.0
  H  H23  1  0.34944928  0.71384319  0.06471763  1.0
  H  H24  1  0.18512932  0.79270428  0.04957356  1.0
  H  H25  1  0.27720299  0.55926963  0.37491685  1.0
  H  H26  1  0.13943022  0.61178593  0.34109271  1.0
  H  H27  1  0.12583914  0.61156879  0.40568751  1.0
  H  H28  1  0.09706379  0.75215198  0.29335416  1.0
  H  H29  1  0.95715766  0.76921194  0.24749797  1.0
  H  H30  1  0.08617647  0.61305669  0.24720688  1.0
  H  H31  1  0.98516556  0.67512539  0.19713627  1.0
  H  H32  1  0.59839031  0.68218309  0.76149561  1.0
  H  H33  1  0.74594257  0.68371019  0.74712298  1.0
  H  H34  1  0.65792361  0.74461866  0.80273170  1.0
  H  H35  1  0.07546455  0.12314605  0.83807977  1.0
  H  H36  1  0.10928415  0.02494473  0.78793936  1.0
  H  H37  1  0.07167640  0.97866891  0.84720034  1.0
  H  H38  1  0.46870233  0.95258583  0.13305288  1.0
  H  H39  1  0.55491132  0.95205603  0.21054806  1.0
  H  H40  1  0.55188796  0.92464368  0.29888130  1.0
  H  H41  1  0.10334808  0.40493493  0.23230690  1.0
  H  H42  1  0.10526280  0.42616409  0.87684279  1.0
  H  H43  1  0.00141993  0.49630248  0.79868469  1.0
  H  H44  1  0.67156596  0.72456860  0.51758064  1.0
  H  H45  1  0.97621436  0.97739525  0.98658777  1.0
  C  C46  1  0.36795248  0.72210806  0.42852568  1.0
  C  C47  1  0.83852518  0.43443039  0.30427724  1.0
  C  C48  1  0.87633599  0.41552205  0.20155732  1.0
  C  C49  1  0.39502298  0.35934365  0.44723367  1.0
  C  C50  1  0.86085190  0.52276639  0.22431198  1.0
  C  C51  1  0.84273946  0.53270337  0.27317201  1.0
  C  C52  1  0.90312250  0.40223066  0.15181396  1.0
  C  C53  1  0.91479393  0.29718976  0.13057421  1.0
  C  C54  1  0.77975916  0.26213111  0.35821601  1.0
  C  C55  1  0.81265513  0.24380422  0.30908408  1.0
  C  C56  1  0.83649181  0.33406315  0.28108240  1.0
  C  C57  1  0.42586348  0.25142113  0.23399711  1.0
  C  C58  1  0.81953420  0.13957474  0.28561711  1.0
  C  C59  1  0.84911047  0.12534498  0.23703737  1.0
  C  C60  1  0.86857572  0.21731851  0.20778001  1.0
  C  C61  1  0.73058624  0.38236668  0.43157462  1.0
  C  C62  1  0.85991805  0.32238477  0.23041577  1.0
  C  C63  1  0.89742768  0.20582005  0.15816591  1.0
  C  C64  1  0.78710091  0.35536936  0.38136113  1.0
  C  C65  1  0.24893116  0.77522367  0.35188870  1.0
  C  C66  1  0.24903462  0.79384508  0.30120465  1.0
  C  C67  1  0.26240424  0.81185770  0.19803993  1.0
  C  C68  1  0.43925583  0.24654611  0.28321787  1.0
  C  C69  1  0.17832095  0.77267055  0.22458307  1.0
  C  C70  1  0.16743469  0.77198992  0.27403282  1.0
  C  C71  1  0.27235768  0.82180509  0.14658082  1.0
  C  C72  1  0.34087452  0.88113761  0.12389301  1.0
  C  C73  1  0.36725028  0.72390937  0.56529694  1.0
  C  C74  1  0.41566816  0.83225050  0.35440961  1.0
  C  C75  1  0.41475120  0.85613011  0.30397616  1.0
  C  C76  1  0.33487669  0.83022171  0.27685288  1.0
  C  C77  1  0.49263158  0.90270771  0.27839118  1.0
  C  C78  1  0.49429660  0.91755338  0.22944442  1.0
  C  C79  1  0.33081713  0.30222912  0.31462034  1.0
  C  C80  1  0.41827618  0.88858680  0.20134368  1.0
  C  C81  1  0.33720471  0.84412171  0.22540513  1.0
  C  C82  1  0.41604646  0.90856450  0.15140839  1.0
  C  C83  1  0.33985424  0.78262987  0.37888650  1.0
  C  C84  1  0.23601817  0.41538507  0.65318414  1.0
  C  C85  1  0.38122860  0.38804395  0.57701331  1.0
  C  C86  1  0.22316194  0.40503164  0.70400240  1.0
  C  C87  1  0.20458275  0.38858612  0.80682926  1.0
  C  C88  1  0.09386525  0.45303672  0.77934187  1.0
  C  C89  1  0.10266654  0.45987481  0.73019690  1.0
  C  C90  1  0.30441361  0.30927518  0.21468414  1.0
  C  C91  1  0.19713322  0.38114574  0.85726842  1.0
  C  C92  1  0.30672662  0.31147925  0.88299852  1.0
  C  C93  1  0.46496918  0.29462347  0.65580700  1.0
  C  C94  1  0.45713167  0.28012931  0.70602377  1.0
  C  C95  1  0.33527775  0.33821801  0.73060002  1.0
  C  C96  1  0.56764913  0.21075426  0.73337167  1.0
  C  C97  1  0.72233461  0.37816352  0.56847672  1.0
  C  C98  1  0.55863414  0.20047732  0.78246306  1.0
  C  C99  1  0.43783622  0.25954643  0.80839700  1.0
  C  C100  1  0.32588019  0.32896531  0.78182753  1.0
  C  C101  1  0.29258783  0.31280992  0.16459159  1.0
  C  C102  1  0.42582993  0.25001283  0.85881983  1.0
  C  C103  1  0.35695155  0.36361311  0.62912361  1.0
  C  C104  1  0.77005115  0.35004499  0.61591153  1.0
  C  C105  1  0.76887588  0.44887378  0.72989866  1.0
  C  C106  1  0.78359457  0.45105279  0.77870045  1.0
  C  C107  1  0.87586664  0.22305625  0.78510637  1.0
  C  C108  1  0.86422466  0.22127884  0.73567984  1.0
  C  C109  1  0.36386581  0.32178409  0.40504391  1.0
  C  C110  1  0.80959423  0.33449183  0.70794661  1.0
  C  C111  1  0.83826582  0.33750986  0.80689175  1.0
  C  C112  1  0.34692612  0.30840970  0.36384667  1.0
  C  C113  1  0.86085934  0.33523609  0.85571346  1.0
  C  C114  1  0.79161151  0.33768685  0.65843532  1.0
  C  C115  1  0.88935914  0.32438271  0.89741019  1.0
  C  C116  1  0.33467447  0.77483246  0.61243307  1.0
  C  C117  1  0.31188754  0.75205556  0.74106184  1.0
  C  C118  1  0.32291806  0.77171361  0.78836252  1.0
  C  C119  1  0.38418495  0.92988576  0.76082003  1.0
  C  C120  1  0.37365801  0.90988650  0.71349499  1.0
  C  C121  1  0.20907644  0.35877109  0.29598254  1.0
  C  C122  1  0.33713392  0.82087917  0.70286100  1.0
  C  C123  1  0.28739597  0.31142029  0.12116805  1.0
  C  C124  1  0.35854446  0.86134209  0.79900537  1.0
  C  C125  1  0.36100946  0.88631751  0.84748984  1.0
  C  C126  1  0.33146875  0.79779920  0.65444591  1.0
  C  C127  1  0.35330565  0.91113599  0.88955548  1.0
  C  C128  1  0.95722543  0.27517987  0.07895615  1.0
  C  C129  1  0.27374559  0.29141550  0.07251451  1.0
  C  C130  1  0.31499732  0.93945484  0.07483483  1.0
  C  C131  1  0.94939528  0.29281035  0.94243621  1.0
  C  C132  1  0.29050433  0.29320771  0.93585699  1.0
  C  C133  1  0.19694456  0.36125372  0.24687043  1.0
  C  C134  1  0.83118762  0.43181751  0.35526304  1.0
  C  C135  1  0.31760299  0.95974901  0.93714009  1.0
  C  C136  1  0.25378736  0.72761309  0.07519911  1.0
  C  C137  1  0.17619886  0.62631142  0.37354898  1.0
  C  C138  1  0.03023028  0.69714772  0.22466843  1.0
  C  C139  1  0.68425752  0.67318920  0.77636721  1.0
  C  C140  1  0.05277810  0.05759677  0.82180351  1.0
  Cl  Cl141  1  0.86414153  0.99811009  0.20952835  1.0
  Cl  Cl142  1  0.79224926  0.03084088  0.31993254  1.0
  Cl  Cl143  1  0.50947440  0.87027294  0.38571808  1.0
  Cl  Cl144  1  0.10032750  0.48827487  0.62130111  1.0
  Cl  Cl145  1  0.55863899  0.18779926  0.19591541  1.0
  Cl  Cl146  1  0.91710626  0.08085049  0.70925052  1.0
  Cl  Cl147  1  0.88778064  0.50929967  0.38608984  1.0
  Cl  Cl148  1  0.80502290  0.67556947  0.29509917  1.0
  O  O149  1  0.69685441  0.48950689  0.44591746  1.0
  O  O150  1  0.36156579  0.19252994  0.05356749  1.0
  O  O151  1  0.39527233  0.97145248  0.05325722  1.0
  O  O152  1  0.47117471  0.69932579  0.44554374  1.0
  O  O153  1  0.20916803  0.97995330  0.95386151  1.0
  O  O154  1  0.97841147  0.18563850  0.96129569  1.0
  O  O155  1  0.97403070  0.37458059  0.95867401  1.0
  O  O156  1  0.18579908  0.37065198  0.95660840  1.0
  O  O157  1  0.37742871  0.19702903  0.95709635  1.0
  O  O158  1  0.39616864  0.98231499  0.95753291  1.0
  O  O159  1  0.17771676  0.16818676  0.00618230  1.0
  O  O160  1  0.30180502  0.49042279  0.55682117  1.0
  O  O161  1  0.29079889  0.68661272  0.45058074  1.0
  O  O162  1  0.31441259  0.46465483  0.46394708  1.0
  O  O163  1  0.50504286  0.28762348  0.46310399  1.0
  O  O164  1  0.71017023  0.29835728  0.45511732  1.0
  O  O165  1  0.69676779  0.48347858  0.54918307  1.0
  O  O166  1  0.47647756  0.69968562  0.54794839  1.0
  O  O167  1  0.28691720  0.70236532  0.54588290  1.0
  O  O168  1  0.21446747  0.77380064  0.12292117  1.0
  O  O169  1  0.15656279  0.75185598  0.37421684  1.0
  O  O170  1  0.10928385  0.73989004  0.19853020  1.0
  O  O171  1  0.48600661  0.30899261  0.55698973  1.0
  O  O172  1  0.74953989  0.55604287  0.80254363  1.0
  O  O173  1  0.91943630  0.11550441  0.81294546  1.0
  O  O174  1  0.70442342  0.29304710  0.55086697  1.0
  O  O175  1  0.50363581  0.50094425  0.50196281  1.0
  O  O176  1  0.21075425  0.96463243  0.05786617  1.0
  O  O177  1  0.98704023  0.16979346  0.06342784  1.0
  O  O178  1  0.96625332  0.36421802  0.05396329  1.0
  O  O179  1  0.17169897  0.37031699  0.05260437  1.0
  O  O180  1  0.67420473  0.68187946  0.48938123  1.0
  O  O181  1  0.02475917  0.97081870  0.01361884  1.0
