# generated using pymatgen
data_MgH7(C4O)3
_symmetry_space_group_name_H-M   'P 1'
_cell_length_a   6.80212465
_cell_length_b   37.69806328
_cell_length_c   37.69384508
_cell_angle_alpha   119.64406356
_cell_angle_beta   93.44693864
_cell_angle_gamma   93.44287076
_symmetry_Int_Tables_number   1
_chemical_formula_structural   MgH7(C4O)3
_chemical_formula_sum   'Mg6 H42 C72 O18'
_cell_volume   8340.38512483
_cell_formula_units_Z   6
loop_
 _symmetry_equiv_pos_site_id
 _symmetry_equiv_pos_as_xyz
  1  'x, y, z'
loop_
 _atom_site_type_symbol
 _atom_site_label
 _atom_site_symmetry_multiplicity
 _atom_site_fract_x
 _atom_site_fract_y
 _atom_site_fract_z
 _atom_site_occupancy
  Mg  Mg0  1  0.78663866  0.67089823  0.36310458  1.0
  Mg  Mg1  1  0.61558558  0.33263975  0.63840054  1.0
  Mg  Mg2  1  0.42361271  0.63694228  0.30783124  1.0
  Mg  Mg3  1  0.97709136  0.36156795  0.69419764  1.0
  Mg  Mg4  1  0.11571240  0.69218678  0.32913281  1.0
  Mg  Mg5  1  0.28283207  0.30576579  0.66730989  1.0
  H  H6  1  0.92940823  0.18971686  0.60137407  1.0
  H  H7  1  0.85873466  0.11741036  0.56166529  1.0
  H  H8  1  0.42989390  0.08416540  0.52210649  1.0
  H  H9  1  0.35015041  0.01405972  0.48156609  1.0
  H  H10  1  0.43241254  0.94284939  0.44895685  1.0
  H  H11  1  0.03730164  0.98614024  0.50293674  1.0
  H  H12  1  0.95519460  0.05730769  0.53548456  1.0
  H  H13  1  0.95745688  0.91634525  0.46346365  1.0
  H  H14  1  0.53096439  0.88200626  0.42280092  1.0
  H  H15  1  0.46337289  0.80904788  0.38665834  1.0
  H  H16  1  0.16520749  0.79096328  0.41055184  1.0
  H  H17  1  0.06593630  0.86058550  0.43653118  1.0
  H  H18  1  0.32711391  0.14113489  0.54862947  1.0
  H  H19  1  0.23193365  0.21148613  0.57937198  1.0
  H  H20  1  0.32824600  0.39867300  0.58835502  1.0
  H  H21  1  0.29691355  0.43840181  0.55572032  1.0
  H  H22  1  0.90746545  0.47792851  0.56209037  1.0
  H  H23  1  0.86858209  0.51859168  0.53258101  1.0
  H  H24  1  0.98355173  0.55115903  0.49395210  1.0
  H  H25  1  0.53406738  0.49699367  0.48318677  1.0
  H  H26  1  0.41913924  0.46445915  0.52179390  1.0
  H  H27  1  0.49422577  0.53651377  0.45290822  1.0
  H  H28  1  0.10837092  0.57717171  0.45919644  1.0
  H  H29  1  0.07687290  0.61337849  0.42240245  1.0
  H  H30  1  0.75466520  0.58938282  0.38036266  1.0
  H  H31  1  0.62927943  0.56334547  0.42394302  1.0
  H  H32  1  0.77844254  0.45133280  0.59244087  1.0
  H  H33  1  0.65261198  0.42064544  0.63211229  1.0
  H  H34  1  0.73955939  0.41164806  0.81025460  1.0
  H  H35  1  0.74106068  0.44427368  0.88260936  1.0
  H  H36  1  0.34546120  0.43792501  0.91585737  1.0
  H  H37  1  0.33616535  0.46742164  0.98599424  1.0
  H  H38  1  0.48953556  0.50604460  0.05719090  1.0
  H  H39  1  0.05091896  0.51681984  0.01384726  1.0
  H  H40  1  0.89772699  0.47814174  0.94269452  1.0
  H  H41  1  0.04127163  0.54709034  0.08362978  1.0
  H  H42  1  0.64917382  0.54079150  0.11800790  1.0
  H  H43  1  0.65457632  0.57759124  0.19100445  1.0
  H  H44  1  0.37432855  0.61960487  0.20904232  1.0
  H  H45  1  0.20535740  0.57603825  0.13943021  1.0
  H  H46  1  0.18582404  0.40750039  0.85884766  1.0
  H  H47  1  0.02041478  0.36781690  0.78848548  1.0
  C  C48  1  0.52376420  0.24109187  0.60697246  1.0
  C  C49  1  0.72440451  0.23427540  0.61325692  1.0
  C  C50  1  0.77546016  0.19377108  0.59570854  1.0
  C  C51  1  0.63840629  0.15940401  0.57201276  1.0
  C  C52  1  0.70201102  0.11840854  0.55412984  1.0
  C  C53  1  0.58618169  0.08276708  0.52959475  1.0
  C  C54  1  0.64522384  0.04146724  0.51117436  1.0
  C  C55  1  0.50161636  0.00793022  0.48634104  1.0
  C  C56  1  0.54817911  0.96772484  0.46790913  1.0
  C  C57  1  0.74228813  0.95870580  0.47331105  1.0
  C  C58  1  0.88592816  0.99225479  0.49810447  1.0
  C  C59  1  0.83945244  0.03244268  0.51650613  1.0
  C  C60  1  0.80166754  0.91746029  0.45533189  1.0
  C  C61  1  0.68763223  0.88153406  0.43092435  1.0
  C  C62  1  0.75385760  0.84082986  0.41457237  1.0
  C  C63  1  0.61825964  0.80583752  0.39272626  1.0
  C  C64  1  0.67176156  0.76576263  0.37795503  1.0
  C  C65  1  0.87340771  0.76009047  0.38511168  1.0
  C  C66  1  0.01103529  0.79549412  0.40595024  1.0
  C  C67  1  0.95361194  0.83437484  0.42027886  1.0
  C  C68  1  0.51602783  0.73112247  0.35543114  1.0
  C  C69  1  0.44019087  0.16686612  0.56664233  1.0
  C  C70  1  0.38517034  0.20618846  0.58359234  1.0
  C  C71  1  0.88169828  0.26804331  0.63796974  1.0
  C  C72  1  0.91687860  0.39302965  0.63410244  1.0
  C  C73  1  0.11131561  0.38676673  0.62101875  1.0
  C  C74  1  0.17991218  0.40432347  0.59806563  1.0
  C  C75  1  0.06641949  0.42799800  0.58737346  1.0
  C  C76  1  0.14768390  0.44590469  0.56426115  1.0
  C  C77  1  0.05623275  0.47044179  0.55317894  1.0
  C  C78  1  0.13368725  0.48887357  0.53030868  1.0
  C  C79  1  0.01519340  0.51377387  0.52165257  1.0
  C  C80  1  0.08026261  0.53218777  0.49987128  1.0
  C  C81  1  0.26896729  0.52673011  0.48543187  1.0
  C  C82  1  0.38757835  0.50188474  0.49416842  1.0
  C  C83  1  0.32250856  0.48346960  0.51592787  1.0
  C  C84  1  0.34655832  0.54467120  0.46215141  1.0
  C  C85  1  0.25689422  0.56904009  0.45058234  1.0
  C  C86  1  0.33927104  0.58535748  0.42619390  1.0
  C  C87  1  0.22563988  0.60726469  0.41310597  1.0
  C  C88  1  0.29395237  0.62207188  0.38782709  1.0
  C  C89  1  0.48837821  0.61488451  0.37496257  1.0
  C  C90  1  0.60505362  0.59397923  0.38947328  1.0
  C  C91  1  0.53328581  0.57963447  0.41401175  1.0
  C  C92  1  0.16073765  0.64463362  0.37574796  1.0
  C  C93  1  0.87351684  0.43334432  0.60019641  1.0
  C  C94  1  0.80159822  0.41640497  0.62257849  1.0
  C  C95  1  0.24381048  0.36204210  0.63007223  1.0
  C  C96  1  0.28257231  0.36584318  0.75886439  1.0
  C  C97  1  0.49006816  0.37895221  0.76569428  1.0
  C  C98  1  0.58156297  0.40193084  0.80621067  1.0
  C  C99  1  0.47888297  0.41263128  0.84059207  1.0
  C  C100  1  0.58334838  0.43573405  0.88160812  1.0
  C  C101  1  0.50313556  0.44680496  0.91724512  1.0
  C  C102  1  0.60359306  0.46965189  0.95854513  1.0
  C  C103  1  0.49371906  0.47832959  0.99210978  1.0
  C  C104  1  0.58044739  0.50011711  0.03231469  1.0
  C  C105  1  0.78355785  0.51456145  0.04131582  1.0
  C  C106  1  0.89346883  0.50581931  0.00774252  1.0
  C  C107  1  0.80681953  0.48400141  0.96755316  1.0
  C  C108  1  0.88437503  0.53785607  0.08254590  1.0
  C  C109  1  0.80628868  0.54939523  0.11848172  1.0
  C  C110  1  0.91309569  0.57377968  0.15919074  1.0
  C  C111  1  0.81260995  0.58689752  0.19419503  1.0
  C  C112  1  0.90615260  0.61219776  0.23427616  1.0
  C  C113  1  0.11345182  0.62504212  0.23995347  1.0
  C  C114  1  0.21558666  0.61050073  0.20452891  1.0
  C  C115  1  0.11926557  0.58595915  0.16564988  1.0
  C  C116  1  0.78492578  0.62428573  0.26890261  1.0
  C  C117  1  0.27321660  0.39977964  0.83311380  1.0
  C  C118  1  0.17893171  0.37737156  0.79378222  1.0
  C  C119  1  0.61359732  0.36990733  0.73191834  1.0
  O  O120  1  0.34107246  0.73679358  0.34679302  1.0
  O  O121  1  0.56079069  0.69449946  0.34495669  1.0
  O  O122  1  0.93961637  0.72345145  0.37323551  1.0
  O  O123  1  0.05561202  0.26092798  0.64534604  1.0
  O  O124  1  0.83964559  0.30544836  0.65183422  1.0
  O  O125  1  0.45928252  0.27830151  0.62195810  1.0
  O  O126  1  0.99450716  0.65330292  0.39009929  1.0
  O  O127  1  0.21590859  0.65510139  0.34958803  1.0
  O  O128  1  0.56655525  0.62676759  0.35021002  1.0
  O  O129  1  0.41037481  0.35466381  0.61558708  1.0
  O  O130  1  0.18773398  0.34814999  0.65358285  1.0
  O  O131  1  0.83737081  0.37800884  0.65629294  1.0
  O  O132  1  0.60429742  0.60997449  0.26320731  1.0
  O  O133  1  0.86625451  0.65041993  0.30553991  1.0
  O  O134  1  0.21629056  0.64979520  0.27658946  1.0
  O  O135  1  0.79459072  0.38441381  0.73901227  1.0
  O  O136  1  0.53409845  0.34637027  0.69451328  1.0
  O  O137  1  0.18083203  0.34364492  0.72165353  1.0
