# generated using pymatgen
data_Zn6H66C73(NO8)4
_symmetry_space_group_name_H-M   'P 1'
_cell_length_a   21.30989408
_cell_length_b   21.38197067
_cell_length_c   21.83754712
_cell_angle_alpha   118.96025089
_cell_angle_beta   119.06884584
_cell_angle_gamma   90.26759869
_symmetry_Int_Tables_number   1
_chemical_formula_structural   Zn6H66C73(NO8)4
_chemical_formula_sum   'Zn6 H66 C73 N4 O32'
_cell_volume   7225.18036281
_cell_formula_units_Z   1
loop_
 _symmetry_equiv_pos_site_id
 _symmetry_equiv_pos_as_xyz
  1  'x, y, z'
loop_
 _atom_site_type_symbol
 _atom_site_label
 _atom_site_symmetry_multiplicity
 _atom_site_fract_x
 _atom_site_fract_y
 _atom_site_fract_z
 _atom_site_occupancy
  Zn  Zn0  1  0.49601490  0.93468283  0.50181790  1.0
  Zn  Zn1  1  0.49526034  0.05987973  0.49913913  1.0
  Zn  Zn2  1  0.07477642  0.50348370  0.50370582  1.0
  Zn  Zn3  1  0.94923658  0.50184671  0.50533632  1.0
  Zn  Zn4  1  0.03415327  0.03904265  0.57908962  1.0
  Zn  Zn5  1  0.95049988  0.95664528  0.40894626  1.0
  H  H6  1  0.39924153  0.81427878  0.07790605  1.0
  H  H7  1  0.33917926  0.65606182  0.95696357  1.0
  H  H8  1  0.26718386  0.83137792  0.96900425  1.0
  H  H9  1  0.19969485  0.81857646  0.04868877  1.0
  H  H10  1  0.13893669  0.66057264  0.92796957  1.0
  H  H11  1  0.27083649  0.64222487  0.03562398  1.0
  H  H12  1  0.71135619  0.96588709  0.55664886  1.0
  H  H13  1  0.76227885  0.06145247  0.61252779  1.0
  H  H14  1  0.85493379  0.01678887  0.59154912  1.0
  H  H15  1  0.79265309  0.92370087  0.51409740  1.0
  H  H16  1  0.63612796  0.89045502  0.40088456  1.0
  H  H17  1  0.71948433  0.87641653  0.35690215  1.0
  H  H18  1  0.72773471  0.13092689  0.55126010  1.0
  H  H19  1  0.83344613  0.11352026  0.54836439  1.0
  H  H20  1  0.77900033  0.07938052  0.43994143  1.0
  H  H21  1  0.59760818  0.93168919  0.34290845  1.0
  H  H22  1  0.70107783  0.94535870  0.33346181  1.0
  H  H23  1  0.71107563  0.22121355  0.06970456  1.0
  H  H24  1  0.80761038  0.36171354  0.04499675  1.0
  H  H25  1  0.88720683  0.19332512  0.04714818  1.0
  H  H26  1  0.73847289  0.10030537  0.96090962  1.0
  H  H27  1  0.25482224  0.89394188  0.39550866  1.0
  H  H28  1  0.24077306  0.94851626  0.35252282  1.0
  H  H29  1  0.12748423  0.95762336  0.34396703  1.0
  H  H30  1  0.12940757  0.88326823  0.35792446  1.0
  H  H31  1  0.33215856  0.95555058  0.55252054  1.0
  H  H32  1  0.32199466  0.13497422  0.55934287  1.0
  H  H33  1  0.26458464  0.08891742  0.44898644  1.0
  H  H34  1  0.16164689  0.09109408  0.46204033  1.0
  H  H35  1  0.21808929  0.11482310  0.56675031  1.0
  H  H36  1  0.34678331  0.05208481  0.61917880  1.0
  H  H37  1  0.23137576  0.02015280  0.59757159  1.0
  H  H38  1  0.10479923  0.37486163  0.64652579  1.0
  H  H39  1  0.11384434  0.34459915  0.56112610  1.0
  H  H40  1  0.10663411  0.22291876  0.53306903  1.0
  H  H41  1  0.12183555  0.26162456  0.63313904  1.0
  H  H42  1  0.97212817  0.36975381  0.62110416  1.0
  H  H43  1  0.01607003  0.27867020  0.64763436  1.0
  H  H44  1  0.00205453  0.25678273  0.41747191  1.0
  H  H45  1  0.98569184  0.14702996  0.40686370  1.0
  H  H46  1  0.89416819  0.30109856  0.51878509  1.0
  H  H47  1  0.92198181  0.22008162  0.56468219  1.0
  H  H48  1  0.09634922  0.73497647  0.61086022  1.0
  H  H49  1  0.02670462  0.76051965  0.63157545  1.0
  H  H50  1  0.06982930  0.87475657  0.65186955  1.0
  H  H51  1  0.11625775  0.83659237  0.60027827  1.0
  H  H52  1  0.06442956  0.68748428  0.46906177  1.0
  H  H53  1  0.04355710  0.77983370  0.43825256  1.0
  H  H54  1  0.89495797  0.70551396  0.52166924  1.0
  H  H55  1  0.93424255  0.82749222  0.56987551  1.0
  H  H56  1  0.94494620  0.74311368  0.38075937  1.0
  H  H57  1  0.64275949  0.32413214  0.00340514  1.0
  H  H58  1  0.63238256  0.29094850  0.90578556  1.0
  H  H59  1  0.58856968  0.22915281  0.91641014  1.0
  H  H60  1  0.20068294  0.85846342  0.45936950  1.0
  H  H61  1  0.24380659  0.89556333  0.56775934  1.0
  H  H62  1  0.14749774  0.88756397  0.50500155  1.0
  H  H63  1  0.84351153  0.25165436  0.38263978  1.0
  H  H64  1  0.89310119  0.29803867  0.36276056  1.0
  H  H65  1  0.86370169  0.19853254  0.30571042  1.0
  H  H66  1  0.84203646  0.65266007  0.34111389  1.0
  H  H67  1  0.83279742  0.59447674  0.37461343  1.0
  H  H68  1  0.78649186  0.66391240  0.38265680  1.0
  H  H69  1  0.86630230  0.86710805  0.47574384  1.0
  H  H70  1  0.84179581  0.77871010  0.38519446  1.0
  H  H71  1  0.80436539  0.78697712  0.44484746  1.0
  C  C72  1  0.60807439  0.01744671  0.48934908  1.0
  C  C73  1  0.41584818  0.88845972  0.34237418  1.0
  C  C74  1  0.37653106  0.02012450  0.49804360  1.0
  C  C75  1  0.58192008  0.05348983  0.66063621  1.0
  C  C76  1  0.30848074  0.69228602  0.97819186  1.0
  C  C77  1  0.34121247  0.77945139  0.04337997  1.0
  C  C78  1  0.37380728  0.84200634  0.25215093  1.0
  C  C79  1  0.16677072  0.63105698  0.75331881  1.0
  C  C80  1  0.26981052  0.68398356  0.02022904  1.0
  C  C81  1  0.30358878  0.77188230  0.08787290  1.0
  C  C82  1  0.19711317  0.69480720  0.96199564  1.0
  C  C83  1  0.23476028  0.70169357  0.91739501  1.0
  C  C84  1  0.23007370  0.78198043  0.02728886  1.0
  C  C85  1  0.26854411  0.79004759  0.98504801  1.0
  C  C86  1  0.34053718  0.80912452  0.17588524  1.0
  C  C87  1  0.19891880  0.66486715  0.82956969  1.0
  C  C88  1  0.73750679  0.00650685  0.55231289  1.0
  C  C89  1  0.79789630  0.98270101  0.53462509  1.0
  C  C90  1  0.64937381  0.93658696  0.39554646  1.0
  C  C91  1  0.71196646  0.08060410  0.49099042  1.0
  C  C92  1  0.67425659  0.01104049  0.47981026  1.0
  C  C93  1  0.78784087  0.99107851  0.46420934  1.0
  C  C94  1  0.71355839  0.93303344  0.38076950  1.0
  C  C95  1  0.78227403  0.07077105  0.48693217  1.0
  C  C96  1  0.73809387  0.22508003  0.03948041  1.0
  C  C97  1  0.70901904  0.25259099  0.97850331  1.0
  C  C98  1  0.63189156  0.09758918  0.75133874  1.0
  C  C99  1  0.91284635  0.36738164  0.25472569  1.0
  C  C100  1  0.75379591  0.15868384  0.98040960  1.0
  C  C101  1  0.72334154  0.18374467  0.91673166  1.0
  C  C102  1  0.83584435  0.20951385  0.02791624  1.0
  C  C103  1  0.82141465  0.27727531  0.08942773  1.0
  C  C104  1  0.80703986  0.23768415  0.96845528  1.0
  C  C105  1  0.79140641  0.30370297  0.02632238  1.0
  C  C106  1  0.67461766  0.13735813  0.82793732  1.0
  C  C107  1  0.87148710  0.32573221  0.17815183  1.0
  C  C108  1  0.24020628  0.94474010  0.40073153  1.0
  C  C109  1  0.16157045  0.94100344  0.38720927  1.0
  C  C110  1  0.30739517  0.00104689  0.55573369  1.0
  C  C111  1  0.27602912  0.08388572  0.50091275  1.0
  C  C112  1  0.30143166  0.01420397  0.48982674  1.0
  C  C113  1  0.17142018  0.99450679  0.47218542  1.0
  C  C114  1  0.22872887  0.98094930  0.53973091  1.0
  C  C115  1  0.20471834  0.07642977  0.50274801  1.0
  C  C116  1  0.99450947  0.39235852  0.51992390  1.0
  C  C117  1  0.12031381  0.58677492  0.66295318  1.0
  C  C118  1  0.98172995  0.61607026  0.49696427  1.0
  C  C119  1  0.95703269  0.41646386  0.34517397  1.0
  C  C120  1  0.00446074  0.89231736  0.52146614  1.0
  C  C121  1  0.85737369  0.98496746  0.46064571  1.0
  C  C122  1  0.00844978  0.13432525  0.53194298  1.0
  C  C123  1  0.09766769  0.98839355  0.46708231  1.0
  C  C124  1  0.08079105  0.32929967  0.58044872  1.0
  C  C125  1  0.08444753  0.25340922  0.57153430  1.0
  C  C126  1  0.95514590  0.31573548  0.56298572  1.0
  C  C127  1  0.96184533  0.25364004  0.43453236  1.0
  C  C128  1  0.99774068  0.32443522  0.52607302  1.0
  C  C129  1  0.00420186  0.20452196  0.53011620  1.0
  C  C130  1  0.97263705  0.25414062  0.58068383  1.0
  C  C131  1  0.96030756  0.18248226  0.43819530  1.0
  C  C132  1  0.04577869  0.75271544  0.59048728  1.0
  C  C133  1  0.06306347  0.82593688  0.59566241  1.0
  C  C134  1  0.00575289  0.68853895  0.44300169  1.0
  C  C135  1  0.90707109  0.70820359  0.47929599  1.0
  C  C136  1  0.98131418  0.68814442  0.49845256  1.0
  C  C137  1  0.99784508  0.81856134  0.51619747  1.0
  C  C138  1  0.99761052  0.75806245  0.43923810  1.0
  C  C139  1  0.92252405  0.79241879  0.50608103  1.0
  C  C140  1  0.63936953  0.27533654  0.94936480  1.0
  C  C141  1  0.20346634  0.90109708  0.51624645  1.0
  C  C142  1  0.88610006  0.25026567  0.36783393  1.0
  C  C143  1  0.83856334  0.65176912  0.38924526  1.0
  C  C144  1  0.85506329  0.80672388  0.44941166  1.0
  N  N145  1  0.66051363  0.09899167  0.42762346  1.0
  N  N146  1  0.84037602  0.24017151  0.92429854  1.0
  N  N147  1  0.87946336  0.13073973  0.38339313  1.0
  N  N148  1  0.96529293  0.61731178  0.35324200  1.0
  O  O149  1  0.58309275  0.96736273  0.49430608  1.0
  O  O150  1  0.58146638  0.07198788  0.49193999  1.0
  O  O151  1  0.43550680  0.85541100  0.38213671  1.0
  O  O152  1  0.43109734  0.95916029  0.37637121  1.0
  O  O153  1  0.40674923  0.97031503  0.50311102  1.0
  O  O154  1  0.40498118  0.07364051  0.49823735  1.0
  O  O155  1  0.56147673  0.98126492  0.62307925  1.0
  O  O156  1  0.56229899  0.08912033  0.62526488  1.0
  O  O157  1  0.04292019  0.41559607  0.51159237  1.0
  O  O158  1  0.94119869  0.42053589  0.52010205  1.0
  O  O159  1  0.15360576  0.56620053  0.62340442  1.0
  O  O160  1  0.04924504  0.57030528  0.62854323  1.0
  O  O161  1  0.03726567  0.59257579  0.50099250  1.0
  O  O162  1  0.92965001  0.58719115  0.49829814  1.0
  O  O163  1  0.02954997  0.43909484  0.38327735  1.0
  O  O164  1  0.92129317  0.43303111  0.38065359  1.0
  O  O165  1  0.03830462  0.95499223  0.59431716  1.0
  O  O166  1  0.97438503  0.88689466  0.45195284  1.0
  O  O167  1  0.92069803  0.01829718  0.53137481  1.0
  O  O168  1  0.84949788  0.94829173  0.38880553  1.0
  O  O169  1  0.04402821  0.14216509  0.60379590  1.0
  O  O170  1  0.97638802  0.07176603  0.46116895  1.0
  O  O171  1  0.10366399  0.02124360  0.53715516  1.0
  O  O172  1  0.03450104  0.95243269  0.39429569  1.0
  O  O173  1  0.62137681  0.04747166  0.35184766  1.0
  O  O174  1  0.66378284  0.16579551  0.45660247  1.0
  O  O175  1  0.84133354  0.29378403  0.91651230  1.0
  O  O176  1  0.86242406  0.18623680  0.89520173  1.0
  O  O177  1  0.84020362  0.14469107  0.41267241  1.0
  O  O178  1  0.85685804  0.07904076  0.31071098  1.0
  O  O179  1  0.97348243  0.62277728  0.30352896  1.0
  O  O180  1  0.92984237  0.55925707  0.33636456  1.0
