# generated using pymatgen
data_ZnH9C28N2O6F5
_symmetry_space_group_name_H-M   'P 1'
_cell_length_a   12.64552716
_cell_length_b   13.33954955
_cell_length_c   23.64440421
_cell_angle_alpha   86.81160272
_cell_angle_beta   77.07926309
_cell_angle_gamma   80.74418230
_symmetry_Int_Tables_number   1
_chemical_formula_structural   ZnH9C28N2O6F5
_chemical_formula_sum   'Zn2 H18 C56 N4 O12 F10'
_cell_volume   3836.06880631
_cell_formula_units_Z   2
loop_
 _symmetry_equiv_pos_site_id
 _symmetry_equiv_pos_as_xyz
  1  'x, y, z'
loop_
 _atom_site_type_symbol
 _atom_site_label
 _atom_site_symmetry_multiplicity
 _atom_site_fract_x
 _atom_site_fract_y
 _atom_site_fract_z
 _atom_site_occupancy
  Zn  Zn0  1  0.61322017  0.51892927  0.49267375  1.0
  Zn  Zn1  1  0.39253450  0.48742504  0.51021420  1.0
  H  H2  1  0.68379717  0.56295323  0.19169413  1.0
  H  H3  1  0.39407326  0.43145005  0.34235055  1.0
  H  H4  1  0.69122894  0.56187389  0.29687256  1.0
  H  H5  1  0.67433638  0.90254750  0.48114357  1.0
  H  H6  1  0.71474652  0.68826245  0.43409106  1.0
  H  H7  1  0.10578508  0.68161069  0.39618745  1.0
  H  H8  1  0.90535464  0.73407437  0.40295976  1.0
  H  H9  1  0.29373729  0.32587442  0.57035019  1.0
  H  H10  1  0.64493939  0.50724112  0.77013214  1.0
  H  H11  1  0.29976204  0.48842427  0.81016770  1.0
  H  H12  1  0.55076894  0.82675460  0.49313170  1.0
  H  H13  1  0.76731302  0.19425288  0.49385489  1.0
  H  H14  1  0.40154981  0.26818947  0.45728942  1.0
  H  H15  1  0.81737079  0.44578580  0.53463561  1.0
  H  H16  1  0.64643283  0.50756454  0.66377683  1.0
  H  H17  1  0.30192353  0.48995086  0.70358456  1.0
  H  H18  1  0.38556347  0.43187059  0.23752160  1.0
  H  H19  1  0.52288248  0.24623949  0.06282438  1.0
  C  C20  1  0.57277354  0.30944524  0.49635522  1.0
  C  C21  1  0.47123200  0.59472646  0.87949821  1.0
  C  C22  1  0.57029389  0.50309937  0.75513510  1.0
  C  C23  1  0.47763827  0.50047340  0.61367912  1.0
  C  C24  1  0.57113825  0.50338261  0.69626769  1.0
  C  C25  1  0.47438846  0.49881575  0.67757386  1.0
  C  C26  1  0.37659237  0.49339066  0.71865591  1.0
  C  C27  1  0.37527366  0.49287252  0.77778649  1.0
  C  C28  1  0.47220305  0.49807770  0.79546542  1.0
  C  C29  1  0.45216410  0.46044774  0.25075141  1.0
  C  C30  1  0.45699698  0.45985077  0.30890466  1.0
  C  C31  1  0.51393321  0.31737219  0.03814237  1.0
  C  C32  1  0.54288706  0.49669342  0.32563718  1.0
  C  C33  1  0.62492202  0.53337238  0.28327960  1.0
  C  C34  1  0.62089945  0.53371721  0.22486651  1.0
  C  C35  1  0.42177367  0.69498471  0.49650086  1.0
  C  C36  1  0.53417077  0.49759572  0.20906566  1.0
  C  C37  1  0.27254292  0.96050966  0.46694464  1.0
  C  C38  1  0.39301433  0.80708562  0.48577461  1.0
  C  C39  1  0.70553832  0.14982978  0.48810687  1.0
  C  C40  1  0.72889610  0.04418321  0.48498148  1.0
  C  C41  1  0.65120821  0.98472863  0.48132041  1.0
  C  C42  1  0.50106634  0.31768591  0.98090633  1.0
  C  C43  1  0.54464773  0.03162927  0.47743916  1.0
  C  C44  1  0.52048154  0.13979833  0.47621129  1.0
  C  C45  1  0.45854203  0.97237703  0.47564148  1.0
  C  C46  1  0.35394567  0.02165898  0.46677578  1.0
  C  C47  1  0.54373879  0.49884261  0.38881204  1.0
  C  C48  1  0.34030459  0.12954877  0.45885926  1.0
  C  C49  1  0.41767231  0.18641145  0.46392630  1.0
  C  C50  1  0.47380899  0.86691957  0.48476186  1.0
  C  C51  1  0.29102282  0.85602834  0.47622124  1.0
  C  C52  1  0.60083886  0.19757493  0.48521517  1.0
  C  C53  1  0.49076876  0.40672273  0.94722012  1.0
  C  C54  1  0.88890610  0.66980748  0.43233947  1.0
  C  C55  1  0.22256742  0.36393671  0.55444562  1.0
  C  C56  1  0.11923267  0.33580183  0.57530397  1.0
  C  C57  1  0.02911699  0.38783432  0.55626400  1.0
  C  C58  1  0.04119304  0.46685303  0.51419163  1.0
  C  C59  1  0.51406329  0.59453293  0.12047536  1.0
  C  C60  1  0.15143946  0.48693020  0.49344761  1.0
  C  C61  1  0.95221382  0.52684859  0.49207244  1.0
  C  C62  1  0.97601400  0.60860571  0.45194856  1.0
  C  C63  1  0.08629112  0.62370582  0.42954600  1.0
  C  C64  1  0.49233436  0.50015459  0.97325555  1.0
  C  C65  1  0.16927764  0.56201919  0.44760915  1.0
  C  C66  1  0.84241704  0.50848385  0.50619750  1.0
  C  C67  1  0.78458435  0.64572703  0.44919316  1.0
  C  C68  1  0.53074543  0.40433079  0.12399327  1.0
  C  C69  1  0.51564352  0.40804419  0.06340297  1.0
  C  C70  1  0.50421186  0.50106682  0.03188730  1.0
  C  C71  1  0.50533044  0.59353184  0.05886956  1.0
  C  C72  1  0.48248273  0.59317955  0.94075394  1.0
  C  C73  1  0.48498754  0.68241323  0.96779435  1.0
  C  C74  1  0.49604487  0.68285666  0.02610706  1.0
  C  C75  1  0.48105545  0.40425578  0.88596301  1.0
  N  N76  1  0.52769976  0.49849416  0.14884058  1.0
  N  N77  1  0.47314757  0.49919939  0.85649059  1.0
  N  N78  1  0.76291367  0.56467645  0.48469614  1.0
  N  N79  1  0.23806545  0.43824121  0.51469698  1.0
  O  O80  1  0.64971522  0.36300862  0.48246987  1.0
  O  O81  1  0.62034091  0.53529019  0.40355575  1.0
  O  O82  1  0.46549740  0.46377659  0.42406042  1.0
  O  O83  1  0.50913196  0.67268931  0.14644697  1.0
  O  O84  1  0.54474290  0.32401288  0.15122075  1.0
  O  O85  1  0.48092049  0.32641265  0.86079803  1.0
  O  O86  1  0.46164277  0.67246250  0.84970678  1.0
  O  O87  1  0.47337096  0.34146267  0.52073943  1.0
  O  O88  1  0.57194884  0.50101517  0.58023649  1.0
  O  O89  1  0.38775591  0.50162441  0.59753561  1.0
  O  O90  1  0.52146731  0.66381769  0.49819500  1.0
  O  O91  1  0.34657424  0.63991062  0.50273850  1.0
  F  F92  1  0.20748495  0.80456375  0.47553554  1.0
  F  F93  1  0.49727108  0.77374027  0.04696635  1.0
  F  F94  1  0.24461506  0.17854331  0.44605344  1.0
  F  F95  1  0.17220956  0.00259495  0.45850776  1.0
  F  F96  1  0.83241186  0.99765511  0.48711656  1.0
  F  F97  1  0.49964660  0.22693209  0.95931112  1.0
  F  F98  1  0.93048581  0.36060670  0.57979465  1.0
  F  F99  1  0.10609063  0.26004687  0.61498798  1.0
  F  F100  1  0.27264231  0.56906965  0.42041722  1.0
  F  F101  1  0.47740370  0.77306845  0.94068004  1.0
