# generated using pymatgen
data_CoH6C12(N2F)2
_symmetry_space_group_name_H-M   'P 1'
_cell_length_a   13.28819771
_cell_length_b   13.28821455
_cell_length_c   14.60945762
_cell_angle_alpha   89.99997057
_cell_angle_beta   89.99989390
_cell_angle_gamma   89.99997611
_symmetry_Int_Tables_number   1
_chemical_formula_structural   CoH6C12(N2F)2
_chemical_formula_sum   'Co4 H24 C48 N16 F8'
_cell_volume   2579.68575613
_cell_formula_units_Z   4
loop_
 _symmetry_equiv_pos_site_id
 _symmetry_equiv_pos_as_xyz
  1  'x, y, z'
loop_
 _atom_site_type_symbol
 _atom_site_label
 _atom_site_symmetry_multiplicity
 _atom_site_fract_x
 _atom_site_fract_y
 _atom_site_fract_z
 _atom_site_occupancy
  Co  Co0  1  0.48896683  0.50758656  0.62159218  1.0
  Co  Co1  1  0.51103354  0.49241385  0.12158934  1.0
  Co  Co2  1  0.49241375  0.48896712  0.37159248  1.0
  Co  Co3  1  0.50758610  0.51103390  0.87158980  1.0
  H  H4  1  0.72411412  0.45980063  0.35420561  1.0
  H  H5  1  0.27588727  0.54019889  0.85421016  1.0
  H  H6  1  0.54019924  0.72411240  0.10420806  1.0
  H  H7  1  0.45980116  0.27588426  0.60420763  1.0
  H  H8  1  0.25877864  0.47819372  0.34672112  1.0
  H  H9  1  0.74122052  0.52180656  0.84672626  1.0
  H  H10  1  0.52180558  0.25878051  0.09672330  1.0
  H  H11  1  0.47819183  0.74122292  0.59672262  1.0
  H  H12  1  0.72101407  0.52451730  0.64479886  1.0
  H  H13  1  0.27898474  0.47548084  0.14480327  1.0
  H  H14  1  0.47548136  0.72101334  0.39480069  1.0
  H  H15  1  0.52451920  0.27898541  0.89480152  1.0
  H  H16  1  0.08303741  0.53709549  0.63817218  1.0
  H  H17  1  0.91696217  0.46290415  0.13817347  1.0
  H  H18  1  0.46290418  0.08303749  0.38817295  1.0
  H  H19  1  0.53709489  0.91696201  0.88817346  1.0
  H  H20  1  0.89693591  0.45107708  0.35537115  1.0
  H  H21  1  0.10306399  0.54892320  0.85537187  1.0
  H  H22  1  0.54892273  0.89693621  0.10537164  1.0
  H  H23  1  0.45107616  0.10306420  0.60537199  1.0
  H  H24  1  0.25585242  0.51483663  0.64124402  1.0
  H  H25  1  0.74414941  0.48516226  0.14124833  1.0
  H  H26  1  0.48516299  0.25585303  0.39124556  1.0
  H  H27  1  0.51483683  0.74414873  0.89124482  1.0
  C  C28  1  0.70675654  0.47532716  0.42541771  1.0
  C  C29  1  0.29324547  0.52467384  0.92541950  1.0
  C  C30  1  0.52467336  0.70675565  0.17541879  1.0
  C  C31  1  0.47532689  0.29324247  0.67541833  1.0
  C  C32  1  0.27508100  0.48743572  0.41886204  1.0
  C  C33  1  0.72491801  0.51256302  0.91886311  1.0
  C  C34  1  0.51256271  0.27508065  0.16886288  1.0
  C  C35  1  0.48743605  0.72491973  0.66886151  1.0
  C  C36  1  0.77161326  0.49207956  0.50008983  1.0
  C  C37  1  0.22838735  0.50792092  0.00008883  1.0
  C  C38  1  0.50792006  0.77161235  0.25008892  1.0
  C  C39  1  0.49208004  0.22838799  0.75009188  1.0
  C  C40  1  0.70499542  0.50898551  0.57352313  1.0
  C  C41  1  0.29500354  0.49101417  0.07352408  1.0
  C  C42  1  0.49101327  0.70499390  0.32352288  1.0
  C  C43  1  0.50898669  0.29500640  0.82352373  1.0
  C  C44  1  0.20844510  0.49628566  0.49342886  1.0
  C  C45  1  0.79155527  0.50371454  0.99342845  1.0
  C  C46  1  0.50371420  0.20844565  0.24342830  1.0
  C  C47  1  0.49628442  0.79155545  0.74342825  1.0
  C  C48  1  0.04434977  0.51713497  0.57503504  1.0
  C  C49  1  0.95565069  0.48286471  0.07503556  1.0
  C  C50  1  0.48286331  0.04434984  0.32503508  1.0
  C  C51  1  0.51713513  0.95565045  0.82503629  1.0
  C  C52  1  0.09888772  0.49515536  0.49491019  1.0
  C  C53  1  0.90111339  0.50484484  0.99490959  1.0
  C  C54  1  0.50484454  0.09888917  0.24491024  1.0
  C  C55  1  0.49515482  0.90111418  0.74491083  1.0
  C  C56  1  0.03964652  0.47179560  0.41817707  1.0
  C  C57  1  0.96035475  0.52820465  0.91817705  1.0
  C  C58  1  0.52820521  0.03964646  0.16817843  1.0
  C  C59  1  0.47179431  0.96035467  0.66817698  1.0
  C  C60  1  0.93564462  0.47026774  0.41867873  1.0
  C  C61  1  0.06435589  0.52973250  0.91867953  1.0
  C  C62  1  0.52973119  0.93564343  0.16868063  1.0
  C  C63  1  0.47026682  0.06435620  0.66867960  1.0
  C  C64  1  0.88110290  0.49231809  0.49874266  1.0
  C  C65  1  0.11889745  0.50768210  0.99874201  1.0
  C  C66  1  0.50768073  0.88110035  0.24874250  1.0
  C  C67  1  0.49231712  0.11889698  0.74874346  1.0
  C  C68  1  0.94034411  0.51505550  0.57561131  1.0
  C  C69  1  0.05965710  0.48494418  0.07561197  1.0
  C  C70  1  0.48494317  0.94034305  0.32561121  1.0
  C  C71  1  0.51505528  0.05965574  0.82561284  1.0
  C  C72  1  0.27329204  0.50701468  0.56900519  1.0
  C  C73  1  0.72670693  0.49298500  0.06900610  1.0
  C  C74  1  0.49298654  0.27329407  0.31900399  1.0
  C  C75  1  0.50701493  0.72670623  0.81900532  1.0
  N  N76  1  0.61004889  0.48214298  0.45236061  1.0
  N  N77  1  0.38995231  0.51785950  0.95236087  1.0
  N  N78  1  0.51785753  0.61004889  0.20236027  1.0
  N  N79  1  0.48214267  0.38995147  0.70236181  1.0
  N  N80  1  0.37114140  0.49265987  0.44829426  1.0
  N  N81  1  0.62885830  0.50733734  0.94829412  1.0
  N  N82  1  0.50733998  0.37114095  0.19829311  1.0
  N  N83  1  0.49266173  0.62885941  0.69829520  1.0
  N  N84  1  0.37004032  0.50482325  0.54153865  1.0
  N  N85  1  0.62995945  0.49517494  0.04153904  1.0
  N  N86  1  0.49517722  0.37004071  0.29153957  1.0
  N  N87  1  0.50482431  0.62995885  0.79153753  1.0
  N  N88  1  0.60903887  0.50296893  0.54418058  1.0
  N  N89  1  0.39096090  0.49703378  0.04418068  1.0
  N  N90  1  0.49703069  0.60903820  0.29418163  1.0
  N  N91  1  0.50296707  0.39096512  0.79417971  1.0
  F  F92  1  0.89336851  0.53745805  0.65622898  1.0
  F  F93  1  0.10663254  0.46254159  0.15623026  1.0
  F  F94  1  0.46254126  0.89336908  0.40622956  1.0
  F  F95  1  0.53745853  0.10663192  0.90623045  1.0
  F  F96  1  0.08645581  0.44831315  0.33773394  1.0
  F  F97  1  0.91354487  0.55168789  0.83773604  1.0
  F  F98  1  0.55168778  0.08645487  0.08773599  1.0
  F  F99  1  0.44831115  0.91354405  0.58773596  1.0
