# generated using pymatgen
data_Al6H67C85NO31
_symmetry_space_group_name_H-M   'P 1'
_cell_length_a   12.56513984
_cell_length_b   12.77185597
_cell_length_c   28.49193998
_cell_angle_alpha   89.64759015
_cell_angle_beta   89.82006386
_cell_angle_gamma   118.99528844
_symmetry_Int_Tables_number   1
_chemical_formula_structural   Al6H67C85NO31
_chemical_formula_sum   'Al6 H67 C85 N1 O31'
_cell_volume   3999.11192244
_cell_formula_units_Z   1
loop_
 _symmetry_equiv_pos_site_id
 _symmetry_equiv_pos_as_xyz
  1  'x, y, z'
loop_
 _atom_site_type_symbol
 _atom_site_label
 _atom_site_symmetry_multiplicity
 _atom_site_fract_x
 _atom_site_fract_y
 _atom_site_fract_z
 _atom_site_occupancy
  Al  Al0  1  0.40989912  0.59418475  0.50268804  1.0
  Al  Al1  1  0.65931362  0.58103832  0.50015243  1.0
  Al  Al2  1  0.42340223  0.34969410  0.49938648  1.0
  Al  Al3  1  0.92027232  0.07049821  0.99995392  1.0
  Al  Al4  1  0.91339738  0.31889436  0.00016422  1.0
  Al  Al5  1  0.67498394  0.09040290  0.00047657  1.0
  H  H6  1  0.87443686  0.41021804  0.71097618  1.0
  H  H7  1  0.59260276  0.46719058  0.72962975  1.0
  H  H8  1  0.47204689  0.25531455  0.78499834  1.0
  H  H9  1  0.53702017  0.13139210  0.71779663  1.0
  H  H10  1  0.75665227  0.19994679  0.76731811  1.0
  H  H11  1  0.23893771  0.22035174  0.79924550  1.0
  H  H12  1  0.28261710  0.23568788  0.71849329  1.0
  H  H13  1  0.98992796  0.23969530  0.69757383  1.0
  H  H14  1  0.05476648  0.14575439  0.70668505  1.0
  H  H15  1  0.01373619  0.14244542  0.78726984  1.0
  H  H16  1  0.95865073  0.24460451  0.77845660  1.0
  H  H17  1  0.28138269  0.52839167  0.71044478  1.0
  H  H18  1  0.12322390  0.46576649  0.70302945  1.0
  H  H19  1  0.25805055  0.52209766  0.79234183  1.0
  H  H20  1  0.37365147  0.39246027  0.72281190  1.0
  H  H21  1  0.33925743  0.37550862  0.80414061  1.0
  H  H22  1  0.10085549  0.46805840  0.78489002  1.0
  H  H23  1  0.46977422  0.75946721  0.79465045  1.0
  H  H24  1  0.46964585  0.73622324  0.71303735  1.0
  H  H25  1  0.78139117  0.99967741  0.70025685  1.0
  H  H26  1  0.62468018  0.95323201  0.69576857  1.0
  H  H27  1  0.61234246  0.97975634  0.77666918  1.0
  H  H28  1  0.77157220  0.03691285  0.78001641  1.0
  H  H29  1  0.74241299  0.69575530  0.72717730  1.0
  H  H30  1  0.85189769  0.84486357  0.71414448  1.0
  H  H31  1  0.76296293  0.74746215  0.80691959  1.0
  H  H32  1  0.51775094  0.62892239  0.72202474  1.0
  H  H33  1  0.53068657  0.66195333  0.80320151  1.0
  H  H34  1  0.85774671  0.89925240  0.79305435  1.0
  H  H35  1  0.48503195  0.27397312  0.20041095  1.0
  H  H36  1  0.46861022  0.29491976  0.28124793  1.0
  H  H37  1  0.71762880  0.22045660  0.30171073  1.0
  H  H38  1  0.55915020  0.16049338  0.29517751  1.0
  H  H39  1  0.58148900  0.14292986  0.21451612  1.0
  H  H40  1  0.74062463  0.20784368  0.22125904  1.0
  H  H41  1  0.79319063  0.54145148  0.28500453  1.0
  H  H42  1  0.85650018  0.44638598  0.29402362  1.0
  H  H43  1  0.80622139  0.52510922  0.20348589  1.0
  H  H44  1  0.56324447  0.45112287  0.27584212  1.0
  H  H45  1  0.57683538  0.43060504  0.19490593  1.0
  H  H46  1  0.87386724  0.43390768  0.21272278  1.0
  H  H47  1  0.27386120  0.51546615  0.20113539  1.0
  H  H48  1  0.30843148  0.53091378  0.28228349  1.0
  H  H49  1  0.99599752  0.27911219  0.30463892  1.0
  H  H50  1  0.08557157  0.43602455  0.29897835  1.0
  H  H51  1  0.04821035  0.42126563  0.21811335  1.0
  H  H52  1  0.95901140  0.26428655  0.22416863  1.0
  H  H53  1  0.25740997  0.21731260  0.28458344  1.0
  H  H54  1  0.10061413  0.14828361  0.29711843  1.0
  H  H55  1  0.21504722  0.19789967  0.20406369  1.0
  H  H56  1  0.38039281  0.44197950  0.27707391  1.0
  H  H57  1  0.34354172  0.42462629  0.19629569  1.0
  H  H58  1  0.05817358  0.13336825  0.21617536  1.0
  H  H59  1  0.66970555  0.68287331  0.19635312  1.0
  H  H60  1  0.69521201  0.67046959  0.27744340  1.0
  H  H61  1  0.85315476  0.87319028  0.28891145  1.0
  H  H62  1  0.85057084  0.89591636  0.20729719  1.0
  H  H63  1  0.82074787  0.01662556  0.21603949  1.0
  H  H64  1  0.47759450  0.78543212  0.29403578  1.0
  H  H65  1  0.58473549  0.93634911  0.30391680  1.0
  H  H66  1  0.48244158  0.83626643  0.21424752  1.0
  H  H67  1  0.54011140  0.62838512  0.28494386  1.0
  H  H68  1  0.52040038  0.65928278  0.20493750  1.0
  H  H69  1  0.60779941  0.97989345  0.22361846  1.0
  H  H70  1  0.89884308  0.62919009  0.75698593  1.0
  H  H71  1  0.31719497  0.70374403  0.47557247  1.0
  H  H72  1  0.03341057  0.98303595  0.02879376  1.0
  C  C73  1  0.62050834  0.71117078  0.56924078  1.0
  C  C74  1  0.61511414  0.39034537  0.56317039  1.0
  C  C75  1  0.28364917  0.37977170  0.56696458  1.0
  C  C76  1  0.62462858  0.72205280  0.43501722  1.0
  C  C77  1  0.61113945  0.39695783  0.43304440  1.0
  C  C78  1  0.28749526  0.39283678  0.43340245  1.0
  C  C79  1  0.78499702  0.37500035  0.72774825  1.0
  C  C80  1  0.75045828  0.44326694  0.76494232  1.0
  C  C81  1  0.70435149  0.30333071  0.88728188  1.0
  C  C82  1  0.63998369  0.36205397  0.60934260  1.0
  C  C83  1  0.71910277  0.25846372  0.75809171  1.0
  C  C84  1  0.68251024  0.32584555  0.79635022  1.0
  C  C85  1  0.59717189  0.22044758  0.73165031  1.0
  C  C86  1  0.66293102  0.33766328  0.70005818  1.0
  C  C87  1  0.56113660  0.28880794  0.76825795  1.0
  C  C88  1  0.62699854  0.40541534  0.73805798  1.0
  C  C89  1  0.69400782  0.31616011  0.84539863  1.0
  C  C90  1  0.65106769  0.34867594  0.65112733  1.0
  C  C91  1  0.28379529  0.31694456  0.73164104  1.0
  C  C92  1  0.05894607  0.22989204  0.71784107  1.0
  C  C93  1  0.03584793  0.22911841  0.77119782  1.0
  C  C94  1  0.10147553  0.30938641  0.88732896  1.0
  C  C95  1  0.18606332  0.33499996  0.70518298  1.0
  C  C96  1  0.25949740  0.30851617  0.78513108  1.0
  C  C97  1  0.14993938  0.32885418  0.79572650  1.0
  C  C98  1  0.17640663  0.45178826  0.77536732  1.0
  C  C99  1  0.19323772  0.45377360  0.72154191  1.0
  C  C100  1  0.12643370  0.32147432  0.84574318  1.0
  C  C101  1  0.20873302  0.34017672  0.65514782  1.0
  C  C102  1  0.23268799  0.35011530  0.61348042  1.0
  C  C103  1  0.53977163  0.72139855  0.72994460  1.0
  C  C104  1  0.69148805  0.93825939  0.71527651  1.0
  C  C105  1  0.68633341  0.96015074  0.76836354  1.0
  C  C106  1  0.67980671  0.90136649  0.88804953  1.0
  C  C107  1  0.66485098  0.80783749  0.70721160  1.0
  C  C108  1  0.54313972  0.74146021  0.78353332  1.0
  C  C109  1  0.66694258  0.84882933  0.79721231  1.0
  C  C110  1  0.77030195  0.82081254  0.78449339  1.0
  C  C111  1  0.76420235  0.78948810  0.73191974  1.0
  C  C112  1  0.67060342  0.87492060  0.84680653  1.0
  C  C113  1  0.66019781  0.78327858  0.65740939  1.0
  C  C114  1  0.65019652  0.75857686  0.61595213  1.0
  C  C115  1  0.55673583  0.36442649  0.26755598  1.0
  C  C116  1  0.64800736  0.23091043  0.28239296  1.0
  C  C117  1  0.66188102  0.22047658  0.22889347  1.0
  C  C118  1  0.69850480  0.30608395  0.11108446  1.0
  C  C119  1  0.65938421  0.35418858  0.29379286  1.0
  C  C120  1  0.56704693  0.35130660  0.21397190  1.0
  C  C121  1  0.67874863  0.33474143  0.20287046  1.0
  C  C122  1  0.79442413  0.44411153  0.22177508  1.0
  C  C123  1  0.78399595  0.45414891  0.27553837  1.0
  C  C124  1  0.68905629  0.32094475  0.15272631  1.0
  C  C125  1  0.64714964  0.36521743  0.34399515  1.0
  C  C126  1  0.63594873  0.37524978  0.38591251  1.0
  C  C127  1  0.29699591  0.44560083  0.26882040  1.0
  C  C128  1  0.07283621  0.35044354  0.28531267  1.0
  C  C129  1  0.04845323  0.34088034  0.23195246  1.0
  C  C130  1  0.09756973  0.30496809  0.11397711  1.0
  C  C131  1  0.18932895  0.34187588  0.29547712  1.0
  C  C132  1  0.27306936  0.43493355  0.21539464  1.0
  C  C133  1  0.14759923  0.32521125  0.20529289  1.0
  C  C134  1  0.14716400  0.21077376  0.22388706  1.0
  C  C135  1  0.17383243  0.22151767  0.27705112  1.0
  C  C136  1  0.12244374  0.31561093  0.15545350  1.0
  C  C137  1  0.21464316  0.35320602  0.34527791  1.0
  C  C138  1  0.23917305  0.36562430  0.38677105  1.0
  C  C139  1  0.62627065  0.69759375  0.26987043  1.0
  C  C140  1  0.79083569  0.90575722  0.27794570  1.0
  C  C141  1  0.78891933  0.92214737  0.22456104  1.0
  C  C142  1  0.67361692  0.89571987  0.11364999  1.0
  C  C143  1  0.66079060  0.81599985  0.29631669  1.0
  C  C144  1  0.61496086  0.71288987  0.21654333  1.0
  C  C145  1  0.65843939  0.84619847  0.20512175  1.0
  C  C146  1  0.57303575  0.88405798  0.23011364  1.0
  C  C147  1  0.56761569  0.85763006  0.28324632  1.0
  C  C148  1  0.66229121  0.86842263  0.15499346  1.0
  C  C149  1  0.65943556  0.79451417  0.34635442  1.0
  C  C150  1  0.65109647  0.77084769  0.38798826  1.0
  C  C151  1  0.05015563  0.27876180  0.93377819  1.0
  C  C152  1  0.72829731  0.27951560  0.93429409  1.0
  C  C153  1  0.70746929  0.95116683  0.93436873  1.0
  C  C154  1  0.04796248  0.27916245  0.06741528  1.0
  C  C155  1  0.72181935  0.27771120  0.06472421  1.0
  C  C156  1  0.70688103  0.94956894  0.06754248  1.0
  C  C157  1  0.82848768  0.56589422  0.78241813  1.0
  N  N158  1  0.83728857  0.02333868  0.30362027  1.0
  O  O159  1  0.30478304  0.47976579  0.55026299  1.0
  O  O160  1  0.51656955  0.68624374  0.55425916  1.0
  O  O161  1  0.70076315  0.69386941  0.54730635  1.0
  O  O162  1  0.69242440  0.49164623  0.54562594  1.0
  O  O163  1  0.51495037  0.31544034  0.54429430  1.0
  O  O164  1  0.30863696  0.30348185  0.54719049  1.0
  O  O165  1  0.31370574  0.49441416  0.44946423  1.0
  O  O166  1  0.52409373  0.70131744  0.45262228  1.0
  O  O167  1  0.70394581  0.69855657  0.45385658  1.0
  O  O168  1  0.68897440  0.49415226  0.45239537  1.0
  O  O169  1  0.50967139  0.31989756  0.45133771  1.0
  O  O170  1  0.30471108  0.31228064  0.45426447  1.0
  O  O171  1  0.49902913  0.50757484  0.50046609  1.0
  O  O172  1  0.80671292  0.96908144  0.95210192  1.0
  O  O173  1  0.01899641  0.17436004  0.94837109  1.0
  O  O174  1  0.03565320  0.35909772  0.95580668  1.0
  O  O175  1  0.83158398  0.35317266  0.95154597  1.0
  O  O176  1  0.64778069  0.18389238  0.95451572  1.0
  O  O177  1  0.63011207  0.97798440  0.95319568  1.0
  O  O178  1  0.81177180  0.97564207  0.05298413  1.0
  O  O179  1  0.02700446  0.18073743  0.04964562  1.0
  O  O180  1  0.02433509  0.35782567  0.04867825  1.0
  O  O181  1  0.82125741  0.35282093  0.04466812  1.0
  O  O182  1  0.64421530  0.17645476  0.04796199  1.0
  O  O183  1  0.62897265  0.97122114  0.04635425  1.0
  O  O184  1  0.83517779  0.16103258  0.00064233  1.0
  O  O185  1  0.81720621  0.59889406  0.82139902  1.0
  O  O186  1  0.90299570  0.03920214  0.33791010  1.0
  O  O187  1  0.80410507  0.09503146  0.28934398  1.0
  O  O188  1  0.33067653  0.67504255  0.50521002  1.0
  O  O189  1  0.99714358  0.98727814  0.99949253  1.0
