# generated using pymatgen
data_FeH3C7O3
_symmetry_space_group_name_H-M   'P 1'
_cell_length_a   6.68105492
_cell_length_b   21.98583706
_cell_length_c   21.98646354
_cell_angle_alpha   60.01244190
_cell_angle_beta   89.98313938
_cell_angle_gamma   89.98179683
_symmetry_Int_Tables_number   1
_chemical_formula_structural   FeH3C7O3
_chemical_formula_sum   'Fe6 H18 C42 O18'
_cell_volume   2797.23186181
_cell_formula_units_Z   6
loop_
 _symmetry_equiv_pos_site_id
 _symmetry_equiv_pos_as_xyz
  1  'x, y, z'
loop_
 _atom_site_type_symbol
 _atom_site_label
 _atom_site_symmetry_multiplicity
 _atom_site_fract_x
 _atom_site_fract_y
 _atom_site_fract_z
 _atom_site_occupancy
  Fe  Fe0  1  0.85093687  0.62681993  0.70908397  1.0
  Fe  Fe1  1  0.18440123  0.70903791  0.66413946  1.0
  Fe  Fe2  1  0.51769538  0.66413437  0.62682042  1.0
  Fe  Fe3  1  0.14906607  0.29092781  0.37317309  1.0
  Fe  Fe4  1  0.48230449  0.37319299  0.33586031  1.0
  Fe  Fe5  1  0.81560134  0.33586771  0.29095739  1.0
  H  H6  1  0.56882615  0.54694650  0.91227253  1.0
  H  H7  1  0.90318756  0.91218942  0.54081817  1.0
  H  H8  1  0.23591155  0.54083830  0.54681783  1.0
  H  H9  1  0.43119208  0.08772573  0.45305439  1.0
  H  H10  1  0.76408099  0.45320238  0.45914927  1.0
  H  H11  1  0.09682352  0.45917343  0.08780944  1.0
  H  H12  1  0.99163000  0.55494397  0.99495671  1.0
  H  H13  1  0.32614456  0.99497844  0.45021399  1.0
  H  H14  1  0.65881772  0.45016015  0.55491950  1.0
  H  H15  1  0.00837014  0.00503741  0.44504469  1.0
  H  H16  1  0.34115764  0.44507232  0.54985030  1.0
  H  H17  1  0.67386738  0.54977425  0.00502607  1.0
  H  H18  1  0.85715039  0.61971119  0.87407304  1.0
  H  H19  1  0.19151008  0.87418021  0.50622105  1.0
  H  H20  1  0.52442365  0.50625769  0.61976322  1.0
  H  H21  1  0.14284416  0.12592323  0.38028213  1.0
  H  H22  1  0.47555653  0.38023186  0.49375166  1.0
  H  H23  1  0.80848915  0.49377212  0.12582253  1.0
  C  C24  1  0.13611110  0.62401800  0.82382099  1.0
  C  C25  1  0.47025156  0.82383062  0.55214329  1.0
  C  C26  1  0.80329974  0.55214806  0.62407694  1.0
  C  C27  1  0.86389632  0.17617492  0.37598275  1.0
  C  C28  1  0.19669082  0.37593945  0.44784219  1.0
  C  C29  1  0.52975134  0.44785550  0.17617055  1.0
  C  C30  1  0.34171394  0.60282921  0.83619648  1.0
  C  C31  1  0.67581769  0.83618144  0.56096960  1.0
  C  C32  1  0.00885749  0.56098777  0.60282871  1.0
  C  C33  1  0.65829027  0.16381083  0.39716700  1.0
  C  C34  1  0.99113792  0.39719116  0.43899895  1.0
  C  C35  1  0.32417161  0.43902811  0.16381362  1.0
  C  C36  1  0.41269571  0.56339731  0.90570181  1.0
  C  C37  1  0.74705123  0.90568032  0.53090096  1.0
  C  C38  1  0.07986451  0.53092547  0.56336419  1.0
  C  C39  1  0.58732015  0.09429482  0.43660131  1.0
  C  C40  1  0.92013054  0.43665119  0.46906766  1.0
  C  C41  1  0.25294026  0.46908781  0.09432376  1.0
  C  C42  1  0.29233957  0.54566379  0.96392891  1.0
  C  C43  1  0.62688876  0.96392843  0.49040573  1.0
  C  C44  1  0.95956362  0.49039604  0.54567746  1.0
  C  C45  1  0.70766423  0.03607304  0.45432755  1.0
  C  C46  1  0.04042482  0.45432770  0.50960421  1.0
  C  C47  1  0.37312291  0.50958909  0.03606344  1.0
  C  C48  1  0.08954814  0.56671215  0.95072885  1.0
  C  C49  1  0.42406465  0.95076207  0.48258645  1.0
  C  C50  1  0.75679764  0.48256406  0.56673230  1.0
  C  C51  1  0.91045885  0.04925966  0.43328304  1.0
  C  C52  1  0.24318142  0.43327127  0.51744091  1.0
  C  C53  1  0.57594573  0.51739733  0.04925426  1.0
  C  C54  1  0.01360929  0.60371927  0.88336055  1.0
  C  C55  1  0.34793543  0.88339454  0.51292749  1.0
  C  C56  1  0.68083134  0.51292188  0.60376972  1.0
  C  C57  1  0.98641166  0.11664625  0.39627020  1.0
  C  C58  1  0.31915845  0.39623416  0.48707769  1.0
  C  C59  1  0.65205772  0.48707197  0.11659666  1.0
  C  C60  1  0.48691248  0.62047917  0.78010178  1.0
  C  C61  1  0.82070368  0.78004863  0.59944751  1.0
  C  C62  1  0.15391832  0.59945551  0.62045763  1.0
  C  C63  1  0.51308742  0.21990443  0.37951969  1.0
  C  C64  1  0.84607779  0.37957098  0.40052740  1.0
  C  C65  1  0.17930270  0.40055509  0.21994908  1.0
  O  O66  1  0.05300964  0.66152320  0.76021740  1.0
  O  O67  1  0.38694692  0.76024348  0.57822247  1.0
  O  O68  1  0.72007611  0.57821975  0.66160721  1.0
  O  O69  1  0.94699692  0.23978627  0.33847582  1.0
  O  O70  1  0.27992238  0.33840901  0.42176911  1.0
  O  O71  1  0.61304294  0.42178433  0.23975405  1.0
  O  O72  1  0.44395312  0.66959392  0.71589872  1.0
  O  O73  1  0.77741478  0.71585941  0.61457759  1.0
  O  O74  1  0.11071244  0.61459907  0.66953326  1.0
  O  O75  1  0.55605443  0.28410275  0.33041645  1.0
  O  O76  1  0.88929694  0.33049540  0.38537751  1.0
  O  O77  1  0.22259313  0.38542995  0.28412847  1.0
  O  O78  1  0.65729507  0.59081157  0.79181711  1.0
  O  O79  1  0.99107970  0.79171971  0.61740651  1.0
  O  O80  1  0.32432303  0.61736813  0.59082731  1.0
  O  O81  1  0.34270641  0.20818674  0.40918100  1.0
  O  O82  1  0.67566827  0.40919677  0.38261869  1.0
  O  O83  1  0.00891944  0.38259698  0.20827898  1.0
