# generated using pymatgen
data_CdH6C6(N2O)2
_symmetry_space_group_name_H-M   'P 1'
_cell_length_a   12.57720000
_cell_length_b   12.66850431
_cell_length_c   12.66927962
_cell_angle_alpha   96.59910839
_cell_angle_beta   96.53911331
_cell_angle_gamma   96.53951525
_symmetry_Int_Tables_number   1
_chemical_formula_structural   CdH6C6(N2O)2
_chemical_formula_sum   'Cd6 H36 C36 N24 O12'
_cell_volume   1975.67301537
_cell_formula_units_Z   6
loop_
 _symmetry_equiv_pos_site_id
 _symmetry_equiv_pos_as_xyz
  1  'x, y, z'
loop_
 _atom_site_type_symbol
 _atom_site_label
 _atom_site_symmetry_multiplicity
 _atom_site_fract_x
 _atom_site_fract_y
 _atom_site_fract_z
 _atom_site_occupancy
  Cd  Cd0  1  0.23223924  0.96269980  0.67186904  1.0
  Cd  Cd1  1  0.67277843  0.23206617  0.96278664  1.0
  Cd  Cd2  1  0.96275762  0.67104569  0.23353483  1.0
  Cd  Cd3  1  0.76775989  0.03729905  0.32813010  1.0
  Cd  Cd4  1  0.32722358  0.76793458  0.03721491  1.0
  Cd  Cd5  1  0.03724312  0.32895247  0.76646512  1.0
  H  H6  1  0.91734759  0.90630342  0.51136347  1.0
  H  H7  1  0.51161523  0.91892902  0.90709287  1.0
  H  H8  1  0.90746043  0.51054847  0.91951601  1.0
  H  H9  1  0.08265125  0.09369664  0.48863888  1.0
  H  H10  1  0.48838617  0.08107333  0.09290867  1.0
  H  H11  1  0.09253789  0.48945397  0.08048634  1.0
  H  H12  1  0.90925177  0.76436752  0.49500067  1.0
  H  H13  1  0.49534942  0.91081152  0.76514869  1.0
  H  H14  1  0.76447623  0.49426193  0.91169596  1.0
  H  H15  1  0.09074391  0.23562895  0.50499847  1.0
  H  H16  1  0.50465240  0.08918833  0.23485206  1.0
  H  H17  1  0.23552330  0.50573872  0.08830478  1.0
  H  H18  1  0.98868246  0.84171300  0.60942568  1.0
  H  H19  1  0.61059679  0.98975984  0.84247977  1.0
  H  H20  1  0.84237036  0.60871451  0.99059026  1.0
  H  H21  1  0.01131655  0.15828643  0.39057186  1.0
  H  H22  1  0.38940362  0.01024160  0.15752097  1.0
  H  H23  1  0.15762927  0.39128625  0.00941129  1.0
  H  H24  1  0.48534326  0.95522277  0.40343727  1.0
  H  H25  1  0.40292830  0.48328881  0.95406601  1.0
  H  H26  1  0.95449243  0.40305823  0.48387394  1.0
  H  H27  1  0.51465974  0.04477888  0.59656508  1.0
  H  H28  1  0.59707024  0.51671094  0.04593394  1.0
  H  H29  1  0.04550760  0.59694072  0.51612601  1.0
  H  H30  1  0.37367776  0.88809263  0.30705204  1.0
  H  H31  1  0.30597028  0.37225960  0.88711411  1.0
  H  H32  1  0.88749561  0.30658451  0.37268672  1.0
  H  H33  1  0.62632274  0.11190670  0.69294470  1.0
  H  H34  1  0.69403174  0.62774115  0.11288744  1.0
  H  H35  1  0.11250383  0.69341465  0.62731483  1.0
  H  H36  1  0.12431810  0.71304828  0.08590990  1.0
  H  H37  1  0.08385566  0.12443055  0.71204211  1.0
  H  H38  1  0.71320444  0.08503095  0.12446847  1.0
  H  H39  1  0.87568311  0.28695247  0.91409165  1.0
  H  H40  1  0.91614377  0.87556931  0.28795864  1.0
  H  H41  1  0.28679567  0.91496949  0.87553067  1.0
  C  C42  1  0.05933847  0.84461499  0.46406744  1.0
  C  C43  1  0.46408731  0.05977403  0.84532896  1.0
  C  C44  1  0.84546974  0.46322114  0.06043707  1.0
  C  C45  1  0.94066025  0.15538635  0.53593251  1.0
  C  C46  1  0.53591281  0.94022572  0.15467099  1.0
  C  C47  1  0.15452968  0.53677940  0.93956288  1.0
  C  C48  1  0.33886186  0.92937799  0.45757023  1.0
  C  C49  1  0.45744373  0.33780199  0.92925260  1.0
  C  C50  1  0.92920859  0.45708516  0.33846201  1.0
  C  C51  1  0.66113765  0.07061533  0.54241689  1.0
  C  C52  1  0.54256286  0.66219786  0.07074815  1.0
  C  C53  1  0.07078860  0.54290982  0.66153793  1.0
  C  C54  1  0.22394925  0.88535068  0.42740218  1.0
  C  C55  1  0.42701215  0.22340620  0.88550122  1.0
  C  C56  1  0.88552444  0.42674432  0.22409469  1.0
  C  C57  1  0.77604970  0.11464659  0.57259697  1.0
  C  C58  1  0.57298895  0.77659514  0.11449872  1.0
  C  C59  1  0.11447560  0.57325464  0.77590525  1.0
  C  C60  1  0.16095025  0.82928235  0.33509122  1.0
  C  C61  1  0.33434064  0.16061129  0.82907754  1.0
  C  C62  1  0.82990166  0.33423042  0.16116819  1.0
  C  C63  1  0.83904837  0.17071820  0.66490872  1.0
  C  C64  1  0.66566036  0.83938995  0.17092161  1.0
  C  C65  1  0.17009757  0.66576923  0.83883095  1.0
  C  C66  1  0.18388830  0.79443138  0.22522764  1.0
  C  C67  1  0.22400794  0.18343820  0.79363175  1.0
  C  C68  1  0.79465137  0.22445547  0.18398012  1.0
  C  C69  1  0.81611301  0.20557017  0.77477391  1.0
  C  C70  1  0.77599297  0.81656224  0.20636739  1.0
  C  C71  1  0.20534905  0.77554528  0.81602143  1.0
  C  C72  1  0.96349833  0.83883156  0.52321212  1.0
  C  C73  1  0.52375195  0.96469020  0.83964180  1.0
  C  C74  1  0.83956043  0.52249849  0.96543151  1.0
  C  C75  1  0.03649912  0.16116650  0.47678703  1.0
  C  C76  1  0.47624926  0.03531125  0.16035894  1.0
  C  C77  1  0.16043849  0.47750306  0.03457004  1.0
  N  N78  1  0.05805209  0.80413401  0.36054402  1.0
  N  N79  1  0.36000295  0.05839031  0.80432982  1.0
  N  N80  1  0.80530768  0.35948671  0.05883701  1.0
  N  N81  1  0.94194593  0.19586744  0.63945673  1.0
  N  N82  1  0.63999893  0.94161172  0.19566932  1.0
  N  N83  1  0.19469272  0.64051542  0.94116294  1.0
  N  N84  1  0.15781345  0.89408178  0.50645672  1.0
  N  N85  1  0.50649990  0.15765349  0.89485883  1.0
  N  N86  1  0.89437716  0.50580171  0.15851290  1.0
  N  N87  1  0.84218594  0.10592014  0.49354163  1.0
  N  N88  1  0.49350250  0.84234615  0.10514031  1.0
  N  N89  1  0.10562387  0.49419746  0.84148865  1.0
  N  N90  1  0.40564807  0.92303690  0.38350738  1.0
  N  N91  1  0.38282661  0.40410329  0.92248538  1.0
  N  N92  1  0.92269951  0.38300067  0.40466877  1.0
  N  N93  1  0.59434989  0.07696236  0.61649497  1.0
  N  N94  1  0.61717311  0.59589825  0.07751617  1.0
  N  N95  1  0.07730132  0.61699829  0.59533118  1.0
  N  N96  1  0.10497762  0.73409978  0.16106804  1.0
  N  N97  1  0.15928645  0.10489013  0.73368824  1.0
  N  N98  1  0.73497832  0.15997592  0.10511307  1.0
  N  N99  1  0.89502340  0.26590008  0.83893271  1.0
  N  N100  1  0.84071467  0.89511052  0.26631251  1.0
  N  N101  1  0.26502249  0.84002372  0.89488608  1.0
  O  O102  1  0.37099357  0.97155125  0.55393142  1.0
  O  O103  1  0.55428338  0.37004913  0.97161864  1.0
  O  O104  1  0.97139535  0.55344016  0.37078859  1.0
  O  O105  1  0.62900527  0.02844950  0.44607012  1.0
  O  O106  1  0.44571505  0.62995052  0.02838050  1.0
  O  O107  1  0.02860190  0.44656059  0.62921295  1.0
  O  O108  1  0.27828584  0.82543363  0.19949762  1.0
  O  O109  1  0.19869208  0.27764904  0.82385109  1.0
  O  O110  1  0.82454183  0.19925665  0.27823807  1.0
  O  O111  1  0.72171626  0.17456791  0.80050393  1.0
  O  O112  1  0.80130884  0.72235072  0.17614886  1.0
  O  O113  1  0.17545839  0.80074389  0.72176187  1.0
