# generated using pymatgen
data_Zn4H24C28S2Br2O13
_symmetry_space_group_name_H-M   'P 1'
_cell_length_a   17.88476042
_cell_length_b   18.60118445
_cell_length_c   19.37043971
_cell_angle_alpha   118.40648149
_cell_angle_beta   116.30355331
_cell_angle_gamma   90.06601872
_symmetry_Int_Tables_number   1
_chemical_formula_structural   Zn4H24C28S2Br2O13
_chemical_formula_sum   'Zn8 H48 C56 S4 Br4 O26'
_cell_volume   4894.29692784
_cell_formula_units_Z   2
loop_
 _symmetry_equiv_pos_site_id
 _symmetry_equiv_pos_as_xyz
  1  'x, y, z'
loop_
 _atom_site_type_symbol
 _atom_site_label
 _atom_site_symmetry_multiplicity
 _atom_site_fract_x
 _atom_site_fract_y
 _atom_site_fract_z
 _atom_site_occupancy
  Zn  Zn0  1  0.13035594  0.53652102  0.07857808  1.0
  Zn  Zn1  1  0.96351246  0.38043889  0.93176586  1.0
  Zn  Zn2  1  0.96852019  0.55431485  0.93503033  1.0
  Zn  Zn3  1  0.95402088  0.54710352  0.09091193  1.0
  Zn  Zn4  1  0.37762460  0.96591909  0.93490198  1.0
  Zn  Zn5  1  0.54204184  0.95664778  0.08479119  1.0
  Zn  Zn6  1  0.53809133  0.12903104  0.08730154  1.0
  Zn  Zn7  1  0.55853057  0.96852612  0.93214805  1.0
  H  H8  1  0.21532329  0.80412964  0.12062651  1.0
  H  H9  1  0.12941966  0.78581001  0.01673339  1.0
  H  H10  1  0.21929495  0.88063863  0.02042014  1.0
  H  H11  1  0.30498374  0.89742911  0.12363149  1.0
  H  H12  1  0.19790042  0.76374019  0.87078482  1.0
  H  H13  1  0.26882804  0.69802252  0.86638654  1.0
  H  H14  1  0.10908809  0.66785715  0.86746004  1.0
  H  H15  1  0.18174575  0.60382120  0.86518582  1.0
  H  H16  1  0.31919007  0.71038968  0.11796282  1.0
  H  H17  1  0.30510032  0.62838250  0.01372907  1.0
  H  H18  1  0.39400316  0.72219754  0.01544499  1.0
  H  H19  1  0.40824825  0.80399400  0.11983067  1.0
  H  H20  1  0.90867090  0.31274523  0.12984197  1.0
  H  H21  1  0.89067337  0.23134206  0.02236882  1.0
  H  H22  1  0.80172384  0.13797696  0.02123313  1.0
  H  H23  1  0.81992161  0.22007100  0.12846349  1.0
  H  H24  1  0.67867736  0.11708214  0.87792133  1.0
  H  H25  1  0.60726359  0.18243373  0.88133120  1.0
  H  H26  1  0.76609672  0.21149875  0.87853658  1.0
  H  H27  1  0.69538727  0.27743015  0.88445589  1.0
  H  H28  1  0.80904091  0.40945582  0.13894697  1.0
  H  H29  1  0.72222027  0.39583913  0.03920911  1.0
  H  H30  1  0.63262619  0.30192263  0.03654624  1.0
  H  H31  1  0.71920896  0.31597616  0.13659989  1.0
  H  H32  1  0.17563345  0.27932933  0.08565812  1.0
  H  H33  1  0.26677331  0.36432592  0.14137547  1.0
  H  H34  1  0.35564816  0.27262876  0.14562645  1.0
  H  H35  1  0.26388768  0.18782367  0.08883044  1.0
  H  H36  1  0.40262627  0.30438502  0.05602819  1.0
  H  H37  1  0.34538434  0.24186852  0.93607841  1.0
  H  H38  1  0.31272187  0.39550500  0.05059235  1.0
  H  H39  1  0.25532215  0.33161977  0.93076033  1.0
  H  H40  1  0.09146571  0.18786408  0.91239408  1.0
  H  H41  1  0.12411306  0.20956920  0.84948381  1.0
  H  H42  1  0.21360391  0.11839812  0.85357945  1.0
  H  H43  1  0.18106670  0.09681499  0.91654884  1.0
  H  H44  1  0.91326298  0.81724046  0.09861588  1.0
  H  H45  1  0.87704348  0.79303432  0.15858871  1.0
  H  H46  1  0.78990641  0.88630417  0.15511387  1.0
  H  H47  1  0.82441404  0.90791148  0.09262123  1.0
  H  H48  1  0.66064646  0.76466626  0.07403114  1.0
  H  H49  1  0.60120045  0.70155758  0.95422010  1.0
  H  H50  1  0.74826406  0.67111825  0.07521324  1.0
  H  H51  1  0.68941096  0.60974904  0.95537313  1.0
  H  H52  1  0.82995715  0.72957731  0.92557774  1.0
  H  H53  1  0.73977657  0.64370184  0.86639873  1.0
  H  H54  1  0.64874978  0.73348386  0.86313320  1.0
  H  H55  1  0.73874793  0.81878070  0.91972368  1.0
  C  C56  1  0.14195457  0.36070598  0.99652990  1.0
  C  C57  1  0.87934226  0.38492943  0.76468286  1.0
  C  C58  1  0.14522007  0.63612695  0.00017664  1.0
  C  C59  1  0.86471207  0.64689618  0.01605351  1.0
  C  C60  1  0.13058386  0.62623289  0.25323914  1.0
  C  C61  1  0.86375958  0.37044191  0.01557312  1.0
  C  C62  1  0.36182962  0.86209168  0.00503376  1.0
  C  C63  1  0.61881967  0.12543816  0.25468385  1.0
  C  C64  1  0.35880317  0.14067650  0.00514804  1.0
  C  C65  1  0.64648844  0.14544838  0.01205889  1.0
  C  C66  1  0.38709775  0.88205539  0.76472819  1.0
  C  C67  1  0.64855389  0.86866387  0.01063289  1.0
  C  C68  1  0.27259269  0.70489010  0.41037110  1.0
  C  C69  1  0.24676179  0.80319050  0.60720697  1.0
  C  C70  1  0.18312639  0.67625076  0.35321275  1.0
  C  C71  1  0.33616483  0.83221089  0.66466606  1.0
  C  C72  1  0.22367150  0.75716171  0.51469682  1.0
  C  C73  1  0.29602603  0.75152939  0.50306379  1.0
  C  C74  1  0.79936619  0.36345348  0.60444010  1.0
  C  C75  1  0.70155201  0.14664509  0.41476583  1.0
  C  C76  1  0.82951304  0.33598696  0.66485668  1.0
  C  C77  1  0.67041668  0.17420027  0.35441705  1.0
  C  C78  1  0.74860795  0.21556387  0.50597356  1.0
  C  C79  1  0.75280483  0.29448499  0.51323778  1.0
  C  C80  1  0.19743005  0.78568962  0.05113122  1.0
  C  C81  1  0.25694617  0.84817072  0.05316125  1.0
  C  C82  1  0.30472016  0.79942089  0.00292802  1.0
  C  C83  1  0.23597943  0.73175025  0.90384695  1.0
  C  C84  1  0.17737142  0.66889881  0.90232406  1.0
  C  C85  1  0.20515232  0.69440154  0.00035172  1.0
  C  C86  1  0.29987471  0.69345024  0.04872164  1.0
  C  C87  1  0.35874820  0.75547057  0.04992613  1.0
  C  C88  1  0.85798373  0.26544333  0.05974367  1.0
  C  C89  1  0.79881664  0.20348065  0.05880720  1.0
  C  C90  1  0.70399363  0.20750086  0.01357417  1.0
  C  C91  1  0.67545128  0.18238128  0.91549413  1.0
  C  C92  1  0.73396592  0.24492958  0.91673146  1.0
  C  C93  1  0.80377166  0.31214646  0.01560861  1.0
  C  C94  1  0.75945079  0.36110276  0.06896263  1.0
  C  C95  1  0.70011205  0.29903970  0.06740220  1.0
  C  C96  1  0.23165961  0.29922180  0.08283718  1.0
  C  C97  1  0.29067116  0.23854003  0.08541125  1.0
  C  C98  1  0.29870102  0.19804503  0.99909999  1.0
  C  C99  1  0.33758043  0.27001002  0.99611100  1.0
  C  C100  1  0.27803116  0.33010772  0.99283924  1.0
  C  C101  1  0.19879805  0.29973257  0.99443267  1.0
  C  C102  1  0.14867937  0.20900617  0.91222542  1.0
  C  C103  1  0.20799710  0.14869067  0.91490411  1.0
  C  C104  1  0.85510691  0.79541223  0.09716534  1.0
  C  C105  1  0.79634802  0.85651993  0.09432598  1.0
  C  C106  1  0.70512225  0.80733238  0.00901902  1.0
  C  C107  1  0.66699218  0.73586645  0.01326399  1.0
  C  C108  1  0.72554573  0.67458948  0.01441372  1.0
  C  C109  1  0.80460387  0.70481794  0.01253701  1.0
  C  C110  1  0.77338928  0.70831853  0.92655561  1.0
  C  C111  1  0.71351169  0.76793945  0.92378260  1.0
  S  S112  1  0.12756532  0.70626791  0.41300873  1.0
  S  S113  1  0.39202908  0.80307724  0.60514091  1.0
  S  S114  1  0.80125429  0.22563838  0.61014357  1.0
  S  S115  1  0.69942386  0.28452947  0.40917464  1.0
  Br  Br116  1  0.35718707  0.68741083  0.37592968  1.0
  Br  Br117  1  0.16125276  0.81967965  0.64039106  1.0
  Br  Br118  1  0.81443656  0.47600887  0.63301916  1.0
  Br  Br119  1  0.68719388  0.03402546  0.38602046  1.0
  O  O120  1  0.00318537  0.50465341  0.01028107  1.0
  O  O121  1  0.18036906  0.43967121  0.05414084  1.0
  O  O122  1  0.89502232  0.34094883  0.80167712  1.0
  O  O123  1  0.06401388  0.62288639  0.95042430  1.0
  O  O124  1  0.06053781  0.32873979  0.94272113  1.0
  O  O125  1  0.17991360  0.60635277  0.05060114  1.0
  O  O126  1  0.90203854  0.46535641  0.80494761  1.0
  O  O127  1  0.89477382  0.62718064  0.96271204  1.0
  O  O128  1  0.04831902  0.60976027  0.21982403  1.0
  O  O129  1  0.88162958  0.62345379  0.07241202  1.0
  O  O130  1  0.17109695  0.60421700  0.20963330  1.0
  O  O131  1  0.89414632  0.33360072  0.96289401  1.0
  O  O132  1  0.87981733  0.45036046  0.06775918  1.0
  O  O133  1  0.50446119  0.00495910  0.00825429  1.0
  O  O134  1  0.32364121  0.89476400  0.95826107  1.0
  O  O135  1  0.59494615  0.04506214  0.21438776  1.0
  O  O136  1  0.43869300  0.17726666  0.06556853  1.0
  O  O137  1  0.44348078  0.87793049  0.05387840  1.0
  O  O138  1  0.32520216  0.06085661  0.95059732  1.0
  O  O139  1  0.60262072  0.16943897  0.21769077  1.0
  O  O140  1  0.61514696  0.17748136  0.06427956  1.0
  O  O141  1  0.46948940  0.90441132  0.80073649  1.0
  O  O142  1  0.63438266  0.06622301  0.95895428  1.0
  O  O143  1  0.34451237  0.89799832  0.80592113  1.0
  O  O144  1  0.62754189  0.89452646  0.07186678  1.0
  O  O145  1  0.62725708  0.89038987  0.95257292  1.0
