# generated using pymatgen
data_ZnH6(C3O4)2
_symmetry_space_group_name_H-M   'P 1'
_cell_length_a   5.79959101
_cell_length_b   19.61475180
_cell_length_c   19.61490699
_cell_angle_alpha   90.00175754
_cell_angle_beta   90.00065476
_cell_angle_gamma   89.99776021
_symmetry_Int_Tables_number   1
_chemical_formula_structural   ZnH6(C3O4)2
_chemical_formula_sum   'Zn8 H48 C48 O64'
_cell_volume   2231.34352836
_cell_formula_units_Z   8
loop_
 _symmetry_equiv_pos_site_id
 _symmetry_equiv_pos_as_xyz
  1  'x, y, z'
loop_
 _atom_site_type_symbol
 _atom_site_label
 _atom_site_symmetry_multiplicity
 _atom_site_fract_x
 _atom_site_fract_y
 _atom_site_fract_z
 _atom_site_occupancy
  Zn  Zn0  1  0.74999915  0.70819967  0.70820686  1.0
  Zn  Zn1  1  0.24996097  0.29180243  0.29179591  1.0
  Zn  Zn2  1  0.00000147  0.20820611  0.79179708  1.0
  Zn  Zn3  1  0.49999926  0.79180297  0.20820891  1.0
  Zn  Zn4  1  0.24996855  0.75599743  0.75599080  1.0
  Zn  Zn5  1  0.74997605  0.24401283  0.24401044  1.0
  Zn  Zn6  1  0.50001026  0.25599151  0.74400848  1.0
  Zn  Zn7  1  0.00000426  0.74400992  0.25599138  1.0
  H  H8  1  0.56029946  0.58409751  0.72626844  1.0
  H  H9  1  0.09605600  0.48721674  0.64259357  1.0
  H  H10  1  0.56803440  0.44595951  0.78730817  1.0
  H  H11  1  0.25018499  0.37790865  0.76402837  1.0
  H  H12  1  0.88299077  0.51689852  0.74390506  1.0
  H  H13  1  0.46643052  0.46466145  0.66209179  1.0
  H  H14  1  0.06025976  0.41590271  0.27373622  1.0
  H  H15  1  0.59611173  0.51276115  0.35739796  1.0
  H  H16  1  0.06807075  0.55405081  0.21270416  1.0
  H  H17  1  0.75024585  0.62209804  0.23598153  1.0
  H  H18  1  0.38296224  0.48310101  0.25609459  1.0
  H  H19  1  0.96647909  0.53535853  0.33791835  1.0
  H  H20  1  0.81030978  0.22627542  0.91590129  1.0
  H  H21  1  0.34603260  0.14258592  0.01277385  1.0
  H  H22  1  0.81807093  0.28729734  0.05403683  1.0
  H  H23  1  0.50021342  0.26402744  0.12208978  1.0
  H  H24  1  0.13302421  0.24389570  0.98310031  1.0
  H  H25  1  0.71641820  0.16208475  0.03534028  1.0
  H  H26  1  0.31029160  0.77373464  0.08410066  1.0
  H  H27  1  0.84613936  0.85739008  0.98724556  1.0
  H  H28  1  0.31805568  0.71269989  0.94596515  1.0
  H  H29  1  0.00022010  0.73597297  0.87791162  1.0
  H  H30  1  0.63300390  0.75608991  0.01690256  1.0
  H  H31  1  0.21644236  0.83791927  0.96466033  1.0
  H  H32  1  0.68970308  0.91590874  0.22626169  1.0
  H  H33  1  0.15388179  0.01275562  0.14259065  1.0
  H  H34  1  0.68194148  0.05404615  0.28730662  1.0
  H  H35  1  0.99979000  0.12209324  0.26402438  1.0
  H  H36  1  0.36698831  0.98310877  0.24391048  1.0
  H  H37  1  0.78353714  0.03533476  0.16208949  1.0
  H  H38  1  0.18973129  0.08410273  0.77374851  1.0
  H  H39  1  0.65381649  0.98727104  0.85739190  1.0
  H  H40  1  0.18193146  0.94596133  0.71269183  1.0
  H  H41  1  0.49976052  0.87790953  0.73597516  1.0
  H  H42  1  0.86702280  0.01690063  0.75608350  1.0
  H  H43  1  0.28356219  0.96466797  0.83790727  1.0
  H  H44  1  0.43967962  0.27373418  0.41589188  1.0
  H  H45  1  0.90387248  0.35739399  0.51277028  1.0
  H  H46  1  0.43195641  0.21269555  0.55404198  1.0
  H  H47  1  0.74979756  0.23596295  0.62208909  1.0
  H  H48  1  0.11699207  0.25608761  0.48309606  1.0
  H  H49  1  0.53354636  0.33790095  0.53534605  1.0
  H  H50  1  0.93970898  0.72624991  0.58409879  1.0
  H  H51  1  0.40380589  0.64259970  0.48725392  1.0
  H  H52  1  0.93191902  0.78730036  0.44597211  1.0
  H  H53  1  0.24977460  0.76403558  0.37791368  1.0
  H  H54  1  0.61699240  0.74390328  0.51689911  1.0
  H  H55  1  0.03351255  0.66208734  0.46466311  1.0
  C  C56  1  0.10797860  0.60315026  0.73787291  1.0
  C  C57  1  0.00087358  0.53637515  0.63985696  1.0
  C  C58  1  0.59816446  0.40408927  0.75098419  1.0
  C  C59  1  0.82202619  0.36638450  0.76994457  1.0
  C  C60  1  0.90604918  0.56134351  0.71047814  1.0
  C  C61  1  0.61212434  0.43093724  0.67712345  1.0
  C  C62  1  0.60796494  0.39685247  0.26213294  1.0
  C  C63  1  0.50078416  0.46362984  0.36015056  1.0
  C  C64  1  0.09818460  0.59590592  0.24902672  1.0
  C  C65  1  0.32202685  0.63360860  0.23004722  1.0
  C  C66  1  0.40599674  0.43865372  0.28952770  1.0
  C  C67  1  0.11212841  0.56908328  0.32288138  1.0
  C  C68  1  0.35806814  0.23787770  0.89685396  1.0
  C  C69  1  0.25090624  0.13985363  0.96360405  1.0
  C  C70  1  0.84819521  0.25097209  0.09590550  1.0
  C  C71  1  0.07205719  0.26994198  0.13361098  1.0
  C  C72  1  0.15608236  0.21047463  0.93865354  1.0
  C  C73  1  0.86211951  0.17710831  0.06906613  1.0
  C  C74  1  0.85802101  0.76213232  0.10315835  1.0
  C  C75  1  0.75080572  0.86014489  0.03637577  1.0
  C  C76  1  0.34818393  0.74902479  0.90409454  1.0
  C  C77  1  0.57204508  0.73004485  0.86639729  1.0
  C  C78  1  0.65605417  0.78951683  0.06134584  1.0
  C  C79  1  0.36208746  0.82287974  0.93093192  1.0
  C  C80  1  0.14200214  0.89685756  0.23787051  1.0
  C  C81  1  0.24916206  0.96361845  0.13984831  1.0
  C  C82  1  0.65179797  0.09590916  0.25097820  1.0
  C  C83  1  0.42792489  0.13360992  0.26994357  1.0
  C  C84  1  0.34395104  0.93866582  0.21047550  1.0
  C  C85  1  0.63788356  0.06906555  0.17712221  1.0
  C  C86  1  0.64198585  0.10314885  0.76214208  1.0
  C  C87  1  0.74928761  0.03637142  0.86015139  1.0
  C  C88  1  0.15181382  0.90409204  0.74902065  1.0
  C  C89  1  0.92795688  0.86638807  0.73005318  1.0
  C  C90  1  0.84398957  0.06134895  0.78952249  1.0
  C  C91  1  0.13792110  0.93093734  0.82287609  1.0
  C  C92  1  0.89192915  0.26213081  0.39684931  1.0
  C  C93  1  0.99914188  0.36013908  0.46362979  1.0
  C  C94  1  0.40184407  0.24903127  0.59589637  1.0
  C  C95  1  0.17798198  0.23004641  0.63358998  1.0
  C  C96  1  0.09391153  0.28952160  0.43865330  1.0
  C  C97  1  0.38792048  0.32287026  0.56906431  1.0
  C  C98  1  0.39196133  0.73784874  0.60315496  1.0
  C  C99  1  0.49924304  0.63984177  0.53636465  1.0
  C  C100  1  0.90179608  0.75098334  0.40409366  1.0
  C  C101  1  0.67794729  0.76996723  0.36639316  1.0
  C  C102  1  0.59395245  0.71047161  0.56134179  1.0
  C  C103  1  0.88786081  0.67711851  0.43092669  1.0
  O  O104  1  0.06832157  0.66810724  0.73983306  1.0
  O  O105  1  0.29263348  0.57377152  0.75200284  1.0
  O  O106  1  0.70566846  0.60251310  0.70581769  1.0
  O  O107  1  0.98517260  0.56912817  0.58794863  1.0
  O  O108  1  0.75671431  0.41198779  0.63642121  1.0
  O  O109  1  0.40630042  0.35881779  0.74878127  1.0
  O  O110  1  0.81040217  0.30071313  0.77315488  1.0
  O  O111  1  0.99789675  0.40212967  0.77863117  1.0
  O  O112  1  0.56834052  0.33189543  0.26017367  1.0
  O  O113  1  0.79263093  0.42623060  0.24800465  1.0
  O  O114  1  0.20564576  0.39747880  0.29418033  1.0
  O  O115  1  0.48493791  0.43090332  0.41207074  1.0
  O  O116  1  0.25674331  0.58803972  0.36357444  1.0
  O  O117  1  0.90636796  0.64118402  0.25121387  1.0
  O  O118  1  0.31051131  0.69927298  0.22683789  1.0
  O  O119  1  0.49795351  0.59788179  0.22138774  1.0
  O  O120  1  0.31836742  0.23985198  0.83189465  1.0
  O  O121  1  0.54270320  0.25201185  0.92623113  1.0
  O  O122  1  0.95571413  0.20582234  0.89747290  1.0
  O  O123  1  0.23533380  0.08796370  0.93081388  1.0
  O  O124  1  0.00673120  0.13641359  0.08801391  1.0
  O  O125  1  0.65634476  0.24878677  0.14117529  1.0
  O  O126  1  0.06044362  0.27315441  0.19927332  1.0
  O  O127  1  0.24794938  0.27862061  0.09786972  1.0
  O  O128  1  0.81835406  0.76017788  0.16811701  1.0
  O  O129  1  0.04265871  0.74799470  0.07377245  1.0
  O  O130  1  0.45568879  0.79418196  0.10252445  1.0
  O  O131  1  0.73496388  0.91207017  0.06909757  1.0
  O  O132  1  0.50671875  0.86357757  0.91197680  1.0
  O  O133  1  0.15635043  0.75121285  0.85883174  1.0
  O  O134  1  0.56048288  0.72683765  0.80072982  1.0
  O  O135  1  0.74794321  0.72137692  0.90212895  1.0
  O  O136  1  0.18164029  0.83190012  0.23982983  1.0
  O  O137  1  0.95732349  0.92623807  0.25199121  1.0
  O  O138  1  0.54430400  0.89748640  0.20582110  1.0
  O  O139  1  0.26496951  0.93088301  0.08793018  1.0
  O  O140  1  0.49325237  0.08801732  0.13642004  1.0
  O  O141  1  0.84365331  0.14118006  0.24878141  1.0
  O  O142  1  0.43953869  0.19927732  0.27315083  1.0
  O  O143  1  0.25204432  0.09786910  0.27862642  1.0
  O  O144  1  0.68161536  0.16811500  0.76018035  1.0
  O  O145  1  0.45736415  0.07376570  0.74801379  1.0
  O  O146  1  0.04431159  0.10253032  0.79417026  1.0
  O  O147  1  0.76534103  0.06906079  0.91209354  1.0
  O  O148  1  0.99328516  0.91198807  0.86357744  1.0
  O  O149  1  0.34365451  0.85881789  0.75120893  1.0
  O  O150  1  0.93952230  0.80072054  0.72685105  1.0
  O  O151  1  0.75206437  0.90213603  0.72138043  1.0
  O  O152  1  0.93158084  0.26017035  0.33188804  1.0
  O  O153  1  0.70730383  0.24800368  0.42623866  1.0
  O  O154  1  0.29427112  0.29417701  0.39747483  1.0
  O  O155  1  0.01494947  0.41205726  0.43090328  1.0
  O  O156  1  0.24326141  0.36357188  0.58802170  1.0
  O  O157  1  0.59365832  0.25120268  0.64116893  1.0
  O  O158  1  0.18950839  0.22683600  0.69925175  1.0
  O  O159  1  0.00204360  0.22136822  0.59787691  1.0
  O  O160  1  0.43161006  0.73981180  0.66811433  1.0
  O  O161  1  0.20734510  0.75198769  0.57376446  1.0
  O  O162  1  0.79430559  0.70581846  0.60252401  1.0
  O  O163  1  0.51520856  0.58790933  0.56906299  1.0
  O  O164  1  0.74325638  0.63642010  0.41196422  1.0
  O  O165  1  0.09365044  0.74879358  0.35882463  1.0
  O  O166  1  0.68953975  0.77317394  0.30072583  1.0
  O  O167  1  0.50204707  0.77862198  0.40213775  1.0
