# generated using pymatgen
data_ZnH14C26I6NO6
_symmetry_space_group_name_H-M   'P 1'
_cell_length_a   14.21005661
_cell_length_b   14.26533649
_cell_length_c   15.19847637
_cell_angle_alpha   90.93676238
_cell_angle_beta   91.20683699
_cell_angle_gamma   90.46405516
_symmetry_Int_Tables_number   1
_chemical_formula_structural   ZnH14C26I6NO6
_chemical_formula_sum   'Zn2 H28 C52 I12 N2 O12'
_cell_volume   3079.69702247
_cell_formula_units_Z   2
loop_
 _symmetry_equiv_pos_site_id
 _symmetry_equiv_pos_as_xyz
  1  'x, y, z'
loop_
 _atom_site_type_symbol
 _atom_site_label
 _atom_site_symmetry_multiplicity
 _atom_site_fract_x
 _atom_site_fract_y
 _atom_site_fract_z
 _atom_site_occupancy
  Zn  Zn0  1  0.48973819  0.61330459  0.51518650  1.0
  Zn  Zn1  1  0.47817578  0.38563649  0.51487740  1.0
  H  H2  1  0.51380006  0.81111149  0.23743244  1.0
  H  H3  1  0.88739854  0.23510531  0.61753277  1.0
  H  H4  1  0.94834739  0.13080062  0.59159210  1.0
  H  H5  1  0.98788957  0.19445414  0.44238362  1.0
  H  H6  1  0.02859514  0.27252886  0.52736130  1.0
  H  H7  1  0.92463764  0.29852608  0.46657676  1.0
  H  H8  1  0.82361265  0.88262196  0.46552316  1.0
  H  H9  1  0.76283532  0.78232297  0.50625914  1.0
  H  H10  1  0.93862380  0.87006710  0.59517557  1.0
  H  H11  1  0.88260835  0.76393504  0.62390549  1.0
  H  H12  1  0.92097089  0.69504262  0.47278938  1.0
  H  H13  1  0.53689604  0.91588791  0.17814690  1.0
  H  H14  1  0.02393303  0.72891851  0.53314099  1.0
  H  H15  1  0.98053637  0.80105419  0.44769132  1.0
  H  H16  1  0.51409612  0.12654634  0.20051957  1.0
  H  H17  1  0.47547998  0.22422349  0.26567988  1.0
  H  H18  1  0.34188322  0.25010916  0.16529923  1.0
  H  H19  1  0.36080248  0.14221895  0.10958459  1.0
  H  H20  1  0.50220449  0.30825786  0.11196782  1.0
  H  H21  1  0.42207769  0.28132759  0.02400315  1.0
  H  H22  1  0.51325541  0.20188732  0.05116099  1.0
  H  H23  1  0.37369635  0.77869728  0.13755067  1.0
  H  H24  1  0.40358646  0.87702820  0.07430910  1.0
  H  H25  1  0.56036352  0.80199544  0.03863407  1.0
  H  H26  1  0.46506807  0.72677134  0.00692736  1.0
  H  H27  1  0.53094755  0.70488269  0.10470687  1.0
  H  H28  1  0.77206721  0.20378752  0.49615022  1.0
  H  H29  1  0.83479670  0.10083489  0.46396907  1.0
  C  C30  1  0.48155738  0.47702212  0.34816619  1.0
  C  C31  1  0.64510837  0.45543641  0.97301489  1.0
  C  C32  1  0.57651722  0.81022784  0.53095778  1.0
  C  C33  1  0.45461700  0.18832650  0.44348008  1.0
  C  C34  1  0.46825362  0.80695000  0.41270196  1.0
  C  C35  1  0.58386309  0.19248262  0.54167639  1.0
  C  C36  1  0.48637382  0.90214891  0.39323453  1.0
  C  C37  1  0.60975419  0.09976765  0.51860857  1.0
  C  C38  1  0.60682009  0.90210754  0.51283781  1.0
  C  C39  1  0.47797103  0.09923421  0.40959666  1.0
  C  C40  1  0.55055989  0.95135667  0.45094559  1.0
  C  C41  1  0.47222304  0.47727821  0.68245973  1.0
  C  C42  1  0.54966182  0.05116019  0.45674403  1.0
  C  C43  1  0.44369596  0.95638682  0.32285066  1.0
  C  C44  1  0.68982241  0.04819420  0.55310124  1.0
  C  C45  1  0.68669986  0.95121804  0.55272582  1.0
  C  C46  1  0.43565006  0.05250328  0.33342307  1.0
  C  C47  1  0.66145372  0.50625143  0.51528999  1.0
  C  C48  1  0.31007653  0.53485323  0.52070802  1.0
  C  C49  1  0.76264584  0.49993758  0.51963742  1.0
  C  C50  1  0.20882765  0.53220656  0.52671184  1.0
  C  C51  1  0.84892704  0.49913178  0.52450617  1.0
  C  C52  1  0.47409185  0.48500154  0.96890787  1.0
  C  C53  1  0.12309100  0.52138041  0.52840517  1.0
  C  C54  1  0.94304125  0.50257903  0.52791741  1.0
  C  C55  1  0.02952881  0.51066863  0.52917720  1.0
  C  C56  1  0.55670426  0.47448048  0.82934725  1.0
  C  C57  1  0.39649849  0.50306134  0.20325700  1.0
  C  C58  1  0.47116045  0.47660099  0.78267580  1.0
  C  C59  1  0.48108887  0.48665897  0.24884348  1.0
  C  C60  1  0.38588590  0.47947578  0.82766052  1.0
  C  C61  1  0.56583826  0.48248544  0.20372672  1.0
  C  C62  1  0.38420725  0.48516891  0.92130210  1.0
  C  C63  1  0.47871066  0.49608065  0.06313564  1.0
  C  C64  1  0.56775877  0.49153886  0.11085344  1.0
  C  C65  1  0.48138513  0.86552633  0.19622893  1.0
  C  C66  1  0.43326270  0.82152534  0.11572239  1.0
  C  C67  1  0.50129726  0.76066259  0.06367061  1.0
  C  C68  1  0.81824498  0.14746024  0.52021047  1.0
  C  C69  1  0.90710060  0.18812381  0.56291739  1.0
  C  C70  1  0.96521503  0.24124418  0.49603376  1.0
  C  C71  1  0.80896683  0.84221481  0.52515055  1.0
  C  C72  1  0.89960574  0.80884009  0.56809724  1.0
  C  C73  1  0.95944828  0.75556606  0.50174834  1.0
  C  C74  1  0.55975104  0.46830818  0.92228941  1.0
  C  C75  1  0.45172976  0.16598885  0.22171483  1.0
  C  C76  1  0.39686060  0.20196308  0.14273814  1.0
  C  C77  1  0.46215760  0.25107617  0.07903015  1.0
  C  C78  1  0.39403047  0.51362866  0.11070684  1.0
  C  C79  1  0.30149155  0.50039491  0.97318663  1.0
  C  C80  1  0.65161947  0.48474158  0.05979941  1.0
  C  C81  1  0.31028421  0.53202728  0.05940150  1.0
  I  I82  1  0.67803087  0.51259659  0.75866248  1.0
  I  I83  1  0.31862335  0.24010212  0.42048677  1.0
  I  I84  1  0.35730603  0.73429810  0.34734217  1.0
  I  I85  1  0.64741641  0.25997287  0.65199837  1.0
  I  I86  1  0.27378426  0.47945709  0.27664648  1.0
  I  I87  1  0.26964429  0.50175428  0.74127155  1.0
  I  I88  1  0.68047903  0.43124563  0.28000822  1.0
  I  I89  1  0.16276844  0.45677465  0.93626406  1.0
  I  I90  1  0.78346857  0.54029791  0.10325033  1.0
  I  I91  1  0.20891866  0.62810029  0.10569577  1.0
  I  I92  1  0.75411383  0.36761610  0.92737919  1.0
  I  I93  1  0.61177818  0.75234550  0.65346922  1.0
  N  N94  1  0.50995957  0.76418779  0.48212886  1.0
  N  N95  1  0.50725182  0.23405123  0.50558976  1.0
  O  O96  1  0.48822954  0.55456932  0.38905595  1.0
  O  O97  1  0.76925201  0.09205975  0.58486247  1.0
  O  O98  1  0.76143444  0.90394564  0.58709167  1.0
  O  O99  1  0.39118868  0.10187335  0.26904376  1.0
  O  O100  1  0.46413580  0.39621817  0.64644936  1.0
  O  O101  1  0.48451323  0.55497956  0.64610302  1.0
  O  O102  1  0.47648640  0.39532853  0.37969107  1.0
  O  O103  1  0.62981025  0.58947379  0.51258835  1.0
  O  O104  1  0.34783632  0.45595853  0.50833592  1.0
  O  O105  1  0.34960993  0.61537104  0.52699142  1.0
  O  O106  1  0.61603942  0.42954266  0.51498277  1.0
  O  O107  1  0.41112336  0.91625096  0.24622032  1.0
