# generated using pymatgen
data_TbH19C23O9
_symmetry_space_group_name_H-M   'P 1'
_cell_length_a   14.88038098
_cell_length_b   14.87872312
_cell_length_c   24.10535531
_cell_angle_alpha   103.57256216
_cell_angle_beta   99.14443054
_cell_angle_gamma   111.25201319
_symmetry_Int_Tables_number   1
_chemical_formula_structural   TbH19C23O9
_chemical_formula_sum   'Tb4 H76 C92 O36'
_cell_volume   4656.46448005
_cell_formula_units_Z   4
loop_
 _symmetry_equiv_pos_site_id
 _symmetry_equiv_pos_as_xyz
  1  'x, y, z'
loop_
 _atom_site_type_symbol
 _atom_site_label
 _atom_site_symmetry_multiplicity
 _atom_site_fract_x
 _atom_site_fract_y
 _atom_site_fract_z
 _atom_site_occupancy
  Tb  Tb0  1  0.65276945  0.09963910  0.95683319  1.0
  Tb  Tb1  1  0.14282362  0.19605877  0.54318472  1.0
  Tb  Tb2  1  0.34723100  0.90036096  0.04316787  1.0
  Tb  Tb3  1  0.85717902  0.80393941  0.45681671  1.0
  H  H4  1  0.45615908  0.01035221  0.75669518  1.0
  H  H5  1  0.25355442  0.19965043  0.74332038  1.0
  H  H6  1  0.54384510  0.98964984  0.24330488  1.0
  H  H7  1  0.74644376  0.80035003  0.25667885  1.0
  H  H8  1  0.42245492  0.65547522  0.70486185  1.0
  H  H9  1  0.95050898  0.21767750  0.79515461  1.0
  H  H10  1  0.57754599  0.34452556  0.29514067  1.0
  H  H11  1  0.04948984  0.78232516  0.20484531  1.0
  H  H12  1  0.54628041  0.78555868  0.79577653  1.0
  H  H13  1  0.98960550  0.25057794  0.70422955  1.0
  H  H14  1  0.45372384  0.21444483  0.20422498  1.0
  H  H15  1  0.01039187  0.74942283  0.29576925  1.0
  H  H16  1  0.32272265  0.55317020  0.63602701  1.0
  H  H17  1  0.91729346  0.18713399  0.86411758  1.0
  H  H18  1  0.67728156  0.44683102  0.36397370  1.0
  H  H19  1  0.08270453  0.81286585  0.13588178  1.0
  H  H20  1  0.09577975  0.64686369  0.51115082  1.0
  H  H21  1  0.13551156  0.08451311  0.98878358  1.0
  H  H22  1  0.90422467  0.35313930  0.48885017  1.0
  H  H23  1  0.86448923  0.91548987  0.01121591  1.0
  H  H24  1  0.07590871  0.46932500  0.48808663  1.0
  H  H25  1  0.98120202  0.08790241  0.01192926  1.0
  H  H26  1  0.92409864  0.53067833  0.51191319  1.0
  H  H27  1  0.01880041  0.91210110  0.98807150  1.0
  H  H28  1  0.09876518  0.77951343  0.53623964  1.0
  H  H29  1  0.24282509  0.06206788  0.96357690  1.0
  H  H30  1  0.90123406  0.22048767  0.46376096  1.0
  H  H31  1  0.75717469  0.93793281  0.03642255  1.0
  H  H32  1  0.37147064  0.04636123  0.70686967  1.0
  H  H33  1  0.33921740  0.16438344  0.79305006  1.0
  H  H34  1  0.62853101  0.95363977  0.29313158  1.0
  H  H35  1  0.66077905  0.83561192  0.20694634  1.0
  H  H36  1  0.24852829  0.08797784  0.64907614  1.0
  H  H37  1  0.43842735  0.09893215  0.85076365  1.0
  H  H38  1  0.75147550  0.91202296  0.35092417  1.0
  H  H39  1  0.56156937  0.90106331  0.14923433  1.0
  H  H40  1  0.89724256  0.25478955  0.08648180  1.0
  H  H41  1  0.16808197  0.31078661  0.41351358  1.0
  H  H42  1  0.10276365  0.74521627  0.91351901  1.0
  H  H43  1  0.83189175  0.68919195  0.58647735  1.0
  H  H44  1  0.89422924  0.37826631  0.10386316  1.0
  H  H45  1  0.27420506  0.29046517  0.39611204  1.0
  H  H46  1  0.10577366  0.62173792  0.89613907  1.0
  H  H47  1  0.72577510  0.70952364  0.60388013  1.0
  H  H48  1  0.91101865  0.32283624  0.03411465  1.0
  H  H49  1  0.28851417  0.37693487  0.46588628  1.0
  H  H50  1  0.08898464  0.67717123  0.96588706  1.0
  H  H51  1  0.71146189  0.62305831  0.53410280  1.0
  H  H52  1  0.59411159  0.30791357  0.06288637  1.0
  H  H53  1  0.24484418  0.03098143  0.43715841  1.0
  H  H54  1  0.40589449  0.69208401  0.93711667  1.0
  H  H55  1  0.75515654  0.96901873  0.56284423  1.0
  H  H56  1  0.53342759  0.24178621  0.10940451  1.0
  H  H57  1  0.13213607  0.92379730  0.39067876  1.0
  H  H58  1  0.46657705  0.75821146  0.89059715  1.0
  H  H59  1  0.86786707  0.07620078  0.60932479  1.0
  H  H60  1  0.47133524  0.20677477  0.03263008  1.0
  H  H61  1  0.17392475  0.93860196  0.46747467  1.0
  H  H62  1  0.52867280  0.79322511  0.96737228  1.0
  H  H63  1  0.82607881  0.06139966  0.53252943  1.0
  H  H64  1  0.72845484  0.24459457  0.06911810  1.0
  H  H65  1  0.17535731  0.15932066  0.43085073  1.0
  H  H66  1  0.27155123  0.75540697  0.93088442  1.0
  H  H67  1  0.82463674  0.84067143  0.56914987  1.0
  H  H68  1  0.55497108  0.10129215  0.05905883  1.0
  H  H69  1  0.04214929  0.99594521  0.44098876  1.0
  H  H70  1  0.44503276  0.89870500  0.94094306  1.0
  H  H71  1  0.95785155  0.00405213  0.55901257  1.0
  H  H72  1  0.62139792  0.21656744  0.89334666  1.0
  H  H73  1  0.32331055  0.22811959  0.60664891  1.0
  H  H74  1  0.37859912  0.78342843  0.10665396  1.0
  H  H75  1  0.67669181  0.77188048  0.39335066  1.0
  H  H76  1  0.70020781  0.30168108  0.95027211  1.0
  H  H77  1  0.35142955  0.24998506  0.54971220  1.0
  H  H78  1  0.29978629  0.69832040  0.04972888  1.0
  H  H79  1  0.64856929  0.75001875  0.45028812  1.0
  C  C80  1  0.57539658  0.98327838  0.83844309  1.0
  C  C81  1  0.14472165  0.23714725  0.66157419  1.0
  C  C82  1  0.42460541  0.01672357  0.16155686  1.0
  C  C83  1  0.85527695  0.76285165  0.33842573  1.0
  C  C84  1  0.50759819  0.90618257  0.78106233  1.0
  C  C85  1  0.12504574  0.22679059  0.71896722  1.0
  C  C86  1  0.49240459  0.09381792  0.21893766  1.0
  C  C87  1  0.87495121  0.77320977  0.28103116  1.0
  C  C88  1  0.44697975  0.93180774  0.74362273  1.0
  C  C89  1  0.18807191  0.20352758  0.75638510  1.0
  C  C90  1  0.55302288  0.06819441  0.25637817  1.0
  C  C91  1  0.81192444  0.79647174  0.24361299  1.0
  C  C92  1  0.37404447  0.85929117  0.69198779  1.0
  C  C93  1  0.16712285  0.18205900  0.80797880  1.0
  C  C94  1  0.62595815  0.14071098  0.30801311  1.0
  C  C95  1  0.83287372  0.81794011  0.19201982  1.0
  C  C96  1  0.36414198  0.75706185  0.67747557  1.0
  C  C97  1  0.07949955  0.18678554  0.82253680  1.0
  C  C98  1  0.63585849  0.24293935  0.32252588  1.0
  C  C99  1  0.92049738  0.81321367  0.17746119  1.0
  C  C100  1  0.42861676  0.73310731  0.71533225  1.0
  C  C101  1  0.01771001  0.21347017  0.78470248  1.0
  C  C102  1  0.57138361  0.26689129  0.28466736  1.0
  C  C103  1  0.98228778  0.78653102  0.21529673  1.0
  C  C104  1  0.49845972  0.80538295  0.76631897  1.0
  C  C105  1  0.03895593  0.23231765  0.73371249  1.0
  C  C106  1  0.50154151  0.19461763  0.23368186  1.0
  C  C107  1  0.96104082  0.76768208  0.26628602  1.0
  C  C108  1  0.18386107  0.39467911  0.55048442  1.0
  C  C109  1  0.84413270  0.13345669  0.94954767  1.0
  C  C110  1  0.81614133  0.60532325  0.44951595  1.0
  C  C111  1  0.15586754  0.86654670  0.05045297  1.0
  C  C112  1  0.19919479  0.50250494  0.56180408  1.0
  C  C113  1  0.94069628  0.13757008  0.93824707  1.0
  C  C114  1  0.80080683  0.49749690  0.43819651  1.0
  C  C115  1  0.05930411  0.86243165  0.06175267  1.0
  C  C116  1  0.27486784  0.57743818  0.60991567  1.0
  C  C117  1  0.96758346  0.16522674  0.89017452  1.0
  C  C118  1  0.72513619  0.42256356  0.39008556  1.0
  C  C119  1  0.03241750  0.83477374  0.10982472  1.0
  C  C120  1  0.28725071  0.67937889  0.62524014  1.0
  C  C121  1  0.05407215  0.16207541  0.87476745  1.0
  C  C122  1  0.71275315  0.32062337  0.37476161  1.0
  C  C123  1  0.94592554  0.83792318  0.12522992  1.0
  C  C124  1  0.22095918  0.70537013  0.58945604  1.0
  C  C125  1  0.11572226  0.13135264  0.91047687  1.0
  C  C126  1  0.77904468  0.29463213  0.41054571  1.0
  C  C127  1  0.88427730  0.86864825  0.08952204  1.0
  C  C128  1  0.14645042  0.62832505  0.53944803  1.0
  C  C129  1  0.08870988  0.10692407  0.96050174  1.0
  C  C130  1  0.85355459  0.37167784  0.46055286  1.0
  C  C131  1  0.91128949  0.89307620  0.03949729  1.0
  C  C132  1  0.13480914  0.52854588  0.52596165  1.0
  C  C133  1  0.00250042  0.10888501  0.97404264  1.0
  C  C134  1  0.86519545  0.47145660  0.47403883  1.0
  C  C135  1  0.99750019  0.89111849  0.02595737  1.0
  C  C136  1  0.08761553  0.95510215  0.55543746  1.0
  C  C137  1  0.39946323  0.03201400  0.94450132  1.0
  C  C138  1  0.91238234  0.04489654  0.44456373  1.0
  C  C139  1  0.60053450  0.96798375  0.05549671  1.0
  C  C140  1  0.16715458  0.93466729  0.58880845  1.0
  C  C141  1  0.34539003  0.07780199  0.91099138  1.0
  C  C142  1  0.83284722  0.06533204  0.41119188  1.0
  C  C143  1  0.65460750  0.92219514  0.08900678  1.0
  C  C144  1  0.16104556  0.83611860  0.57330494  1.0
  C  C145  1  0.26237206  0.08721741  0.92649364  1.0
  C  C146  1  0.83895956  0.16389003  0.42669792  1.0
  C  C147  1  0.73762890  0.91278307  0.07350560  1.0
  C  C148  1  0.22967412  0.80969877  0.60539231  1.0
  C  C149  1  0.20394539  0.12389296  0.89444396  1.0
  C  C150  1  0.77032849  0.19030223  0.39460820  1.0
  C  C151  1  0.79605376  0.87610553  0.10555480  1.0
  C  C152  1  0.30649324  0.88632011  0.65531415  1.0
  C  C153  1  0.23065715  0.15085748  0.84454396  1.0
  C  C154  1  0.69350964  0.11368298  0.34468768  1.0
  C  C155  1  0.76934040  0.84914079  0.15545459  1.0
  C  C156  1  0.31270416  0.98659471  0.66922696  1.0
  C  C157  1  0.31695085  0.14303243  0.83060251  1.0
  C  C158  1  0.68730049  0.01340609  0.33077483  1.0
  C  C159  1  0.68304565  0.85696324  0.16939494  1.0
  C  C160  1  0.24468222  0.01107956  0.63704991  1.0
  C  C161  1  0.37351800  0.10705255  0.86274351  1.0
  C  C162  1  0.75532286  0.98892479  0.36295243  1.0
  C  C163  1  0.62647968  0.89294291  0.13725374  1.0
  C  C164  1  0.87357625  0.30655506  0.06854693  1.0
  C  C165  1  0.23779778  0.30507081  0.43142993  1.0
  C  C166  1  0.12642824  0.69345138  0.93145524  1.0
  C  C167  1  0.76218017  0.69491674  0.56856174  1.0
  C  C168  1  0.54421542  0.23405628  0.06474133  1.0
  C  C169  1  0.16911307  0.97930951  0.43532725  1.0
  C  C170  1  0.45579027  0.76594202  0.93526170  1.0
  C  C171  1  0.83088905  0.02069024  0.56467572  1.0
  O  O172  1  0.58863815  0.07623444  0.84934828  1.0
  O  O173  1  0.22679392  0.23953605  0.65068675  1.0
  O  O174  1  0.41136305  0.92376697  0.15065189  1.0
  O  O175  1  0.77320404  0.76046265  0.34931221  1.0
  O  O176  1  0.61492108  0.95364379  0.87778569  1.0
  O  O177  1  0.07571247  0.23719948  0.62219399  1.0
  O  O178  1  0.38508118  0.04636024  0.12221558  1.0
  O  O179  1  0.92428814  0.76280204  0.37780629  1.0
  O  O180  1  0.25288442  0.37315021  0.57534968  1.0
  O  O181  1  0.79767923  0.17759261  0.92470617  1.0
  O  O182  1  0.74711798  0.62685215  0.42465069  1.0
  O  O183  1  0.20232263  0.82241215  0.07529508  1.0
  O  O184  1  0.10053969  0.32393952  0.51686804  1.0
  O  O185  1  0.80703033  0.08367285  0.98312869  1.0
  O  O186  1  0.89946279  0.67606429  0.48313377  1.0
  O  O187  1  0.19297050  0.91633044  0.01687185  1.0
  O  O188  1  0.01885197  0.88122062  0.51364731  1.0
  O  O189  1  0.36769153  0.00545522  0.98647978  1.0
  O  O190  1  0.98114431  0.11877128  0.48635014  1.0
  O  O191  1  0.63230607  0.99454138  0.01352009  1.0
  O  O192  1  0.08896957  0.04429462  0.57078095  1.0
  O  O193  1  0.47331806  0.01805388  0.92916908  1.0
  O  O194  1  0.91103164  0.95570085  0.42922001  1.0
  O  O195  1  0.52667938  0.98194835  0.07083116  1.0
  O  O196  1  0.76773403  0.26050539  0.04075147  1.0
  O  O197  1  0.21961906  0.22699712  0.45920950  1.0
  O  O198  1  0.23226923  0.73949697  0.95925038  1.0
  O  O199  1  0.78037225  0.77299862  0.54078729  1.0
  O  O200  1  0.59135640  0.16548057  0.05066862  1.0
  O  O201  1  0.11473359  0.04067075  0.44935324  1.0
  O  O202  1  0.40864971  0.83451815  0.94933482  1.0
  O  O203  1  0.88526691  0.95932763  0.55064912  1.0
  O  O204  1  0.63286485  0.24729247  0.93610546  1.0
  O  O205  1  0.31113572  0.19685085  0.56387748  1.0
  O  O206  1  0.36713042  0.75270568  0.06389520  1.0
  O  O207  1  0.68886485  0.80315036  0.43612174  1.0
