# generated using pymatgen
data_Zn4H26C22O15
_symmetry_space_group_name_H-M   'P 1'
_cell_length_a   10.86037074
_cell_length_b   10.92964192
_cell_length_c   10.91164400
_cell_angle_alpha   82.40679638
_cell_angle_beta   80.07699050
_cell_angle_gamma   89.85244131
_symmetry_Int_Tables_number   1
_chemical_formula_structural   Zn4H26C22O15
_chemical_formula_sum   'Zn4 H26 C22 O15'
_cell_volume   1264.37757443
_cell_formula_units_Z   1
loop_
 _symmetry_equiv_pos_site_id
 _symmetry_equiv_pos_as_xyz
  1  'x, y, z'
loop_
 _atom_site_type_symbol
 _atom_site_label
 _atom_site_symmetry_multiplicity
 _atom_site_fract_x
 _atom_site_fract_y
 _atom_site_fract_z
 _atom_site_occupancy
  Zn  Zn0  1  0.39004105  0.60014296  0.61573073  1.0
  Zn  Zn1  1  0.59513878  0.38542401  0.60621974  1.0
  Zn  Zn2  1  0.61744461  0.62123791  0.38348786  1.0
  Zn  Zn3  1  0.40602472  0.41577332  0.41472365  1.0
  H  H4  1  0.07233697  0.77499215  0.56612757  1.0
  H  H5  1  0.10262254  0.34650913  0.36378570  1.0
  H  H6  1  0.75858236  0.93026161  0.45733113  1.0
  H  H7  1  0.73707471  0.06960645  0.53067283  1.0
  H  H8  1  0.79631637  0.07780579  0.36533772  1.0
  H  H9  1  0.21890607  0.14591025  0.67186055  1.0
  H  H10  1  0.30798324  0.08620395  0.79116134  1.0
  H  H11  1  0.17257579  0.00300423  0.77031652  1.0
  H  H12  1  0.80417458  0.49638254  0.04410724  1.0
  H  H13  1  0.78466421  0.44872420  0.89875263  1.0
  H  H14  1  0.86663600  0.58913346  0.90102418  1.0
  H  H15  1  0.93642264  0.76764975  0.49595179  1.0
  H  H16  1  0.64573573  0.62632084  0.85761907  1.0
  H  H17  1  0.67203416  0.68452886  0.99457284  1.0
  H  H18  1  0.21219099  0.46569305  0.95211367  1.0
  H  H19  1  0.28112429  0.33646094  0.88695234  1.0
  H  H20  1  0.17733556  0.31416256  0.03270315  1.0
  H  H21  1  0.39549877  0.29031381  0.07199741  1.0
  H  H22  1  0.32434044  0.41450369  0.13924197  1.0
  H  H23  1  0.92166167  0.78955760  0.65655736  1.0
  H  H24  1  0.86643854  0.57157345  0.64293991  1.0
  H  H25  1  0.00373741  0.57758586  0.70768600  1.0
  H  H26  1  0.88660795  0.26652047  0.34916399  1.0
  H  H27  1  0.86625125  0.40002144  0.24336068  1.0
  H  H28  1  0.98476818  0.29471518  0.19990513  1.0
  H  H29  1  0.08343874  0.47762839  0.26001361  1.0
  C  C30  1  0.45409258  0.17529730  0.55088848  1.0
  C  C31  1  0.03509750  0.53124689  0.52116800  1.0
  C  C32  1  0.97568703  0.47672041  0.44211169  1.0
  C  C33  1  0.51676143  0.97125702  0.49609028  1.0
  C  C34  1  0.96524323  0.60133712  0.62110631  1.0
  C  C35  1  0.97469756  0.74174380  0.58243769  1.0
  C  C36  1  0.03105571  0.40921134  0.33373087  1.0
  C  C37  1  0.93642136  0.33885686  0.27894595  1.0
  C  C38  1  0.73268672  0.02781377  0.44498519  1.0
  C  C39  1  0.25229556  0.06204603  0.72229413  1.0
  C  C40  1  0.66384346  0.59905262  0.95345966  1.0
  C  C41  1  0.43084757  0.03700990  0.56581164  1.0
  C  C42  1  0.78708527  0.52918004  0.94895005  1.0
  C  C43  1  0.35948306  0.38339187  0.04838229  1.0
  C  C44  1  0.25192257  0.37491874  0.97541822  1.0
  C  C45  1  0.55531394  0.52300204  0.03188474  1.0
  C  C46  1  0.47004774  0.46445934  0.98146322  1.0
  C  C47  1  0.51089244  0.83691982  0.49366634  1.0
  C  C48  1  0.48475745  0.47913720  0.84069791  1.0
  C  C49  1  0.54645272  0.51631738  0.17029994  1.0
  C  C50  1  0.83560012  0.48527464  0.46251372  1.0
  C  C51  1  0.17253174  0.52535694  0.51466585  1.0
  O  O52  1  0.50624525  0.50559917  0.50738080  1.0
  O  O53  1  0.77493911  0.39850054  0.53847446  1.0
  O  O54  1  0.23903457  0.48463114  0.42009959  1.0
  O  O55  1  0.79166246  0.57667832  0.40057947  1.0
  O  O56  1  0.21598748  0.56082545  0.60657703  1.0
  O  O57  1  0.60943021  0.04081690  0.41349329  1.0
  O  O58  1  0.32381108  0.98825713  0.63635758  1.0
  O  O59  1  0.41665796  0.55901071  0.79083440  1.0
  O  O60  1  0.48725331  0.42410629  0.24009748  1.0
  O  O61  1  0.53815391  0.21309130  0.60544754  1.0
  O  O62  1  0.59603677  0.79216785  0.41608740  1.0
  O  O63  1  0.38374210  0.23982397  0.48700170  1.0
  O  O64  1  0.42197128  0.77628282  0.56905991  1.0
  O  O65  1  0.56151287  0.40722769  0.78515994  1.0
  O  O66  1  0.59991232  0.60387192  0.21023642  1.0
