# generated using pymatgen
data_ZnC12(NF)4
_symmetry_space_group_name_H-M   'P 1'
_cell_length_a   19.67521881
_cell_length_b   19.67570834
_cell_length_c   19.67563667
_cell_angle_alpha   77.80933134
_cell_angle_beta   66.77020636
_cell_angle_gamma   113.22869815
_symmetry_Int_Tables_number   1
_chemical_formula_structural   ZnC12(NF)4
_chemical_formula_sum   'Zn4 C48 N16 F16'
_cell_volume   5793.81497049
_cell_formula_units_Z   4
loop_
 _symmetry_equiv_pos_site_id
 _symmetry_equiv_pos_as_xyz
  1  'x, y, z'
loop_
 _atom_site_type_symbol
 _atom_site_label
 _atom_site_symmetry_multiplicity
 _atom_site_fract_x
 _atom_site_fract_y
 _atom_site_fract_z
 _atom_site_occupancy
  Zn  Zn80  1  0.87915617  0.99999125  0.12084540  1.0
  Zn  Zn81  1  0.12084169  0.00000086  0.87916361  1.0
  Zn  Zn82  1  0.12083002  0.12084466  0.99999851  1.0
  Zn  Zn83  1  0.87916814  0.87915854  0.00000103  1.0
  C  C0  1  0.92939985  0.18107699  0.07238333  1.0
  C  C1  1  0.25342052  0.18113085  0.74838600  1.0
  C  C2  1  0.92943900  0.74832555  0.99821047  1.0
  C  C3  1  0.07044463  0.25158963  0.00181800  1.0
  C  C4  1  0.25343815  0.00178741  0.92765214  1.0
  C  C5  1  0.74658264  0.99818631  0.07228315  1.0
  C  C6  1  0.07057771  0.07238392  0.18109511  1.0
  C  C7  1  0.92951928  0.92770316  0.81889353  1.0
  C  C8  1  0.07049255  0.81886916  0.92769405  1.0
  C  C9  1  0.25344801  0.25167388  0.81890363  1.0
  C  C10  1  0.74659680  0.74839958  0.18111386  1.0
  C  C11  1  0.07059084  0.99821686  0.74834376  1.0
  C  C12  1  0.92953108  0.00182632  0.25160195  1.0
  C  C13  1  0.74653853  0.92763167  0.00178266  1.0
  C  C14  1  0.25340513  0.07229579  0.99819565  1.0
  C  C15  1  0.74656516  0.81891605  0.25166083  1.0
  C  C16  1  0.99993426  0.26258969  0.03535163  1.0
  C  C17  1  0.99997677  0.73734935  0.96469942  1.0
  C  C18  1  0.29794585  0.26265692  0.73738201  1.0
  C  C19  1  0.70206016  0.73738918  0.26264530  1.0
  C  C20  1  0.00004641  0.96470075  0.73736077  1.0
  C  C21  1  0.00004766  0.03535122  0.26261974  1.0
  C  C22  1  0.70205283  0.96466450  0.03528510  1.0
  C  C23  1  0.29793702  0.03530893  0.96467033  1.0
  C  C24  1  0.63609768  0.97054779  0.02942123  1.0
  C  C25  1  0.36388801  0.02944088  0.97055360  1.0
  C  C26  1  0.99994656  0.33442085  0.02947692  1.0
  C  C27  1  0.99998941  0.66553344  0.97055796  1.0
  C  C28  1  0.36391097  0.33448340  0.66553138  1.0
  C  C29  1  0.63609920  0.66554874  0.33446971  1.0
  C  C30  1  0.00003023  0.97055151  0.66553127  1.0
  C  C31  1  0.00002920  0.02946518  0.33445913  1.0
  C  C32  1  0.58216288  0.98044075  0.01954389  1.0
  C  C33  1  0.41781311  0.01954982  0.98044982  1.0
  C  C34  1  0.99997240  0.39824373  0.01957328  1.0
  C  C35  1  0.99999543  0.60171789  0.98043627  1.0
  C  C36  1  0.41784430  0.39829356  0.60171240  1.0
  C  C37  1  0.58218203  0.60173406  0.39827612  1.0
  C  C38  1  0.00001169  0.98042998  0.60172237  1.0
  C  C39  1  0.00001633  0.01954899  0.39829005  1.0
  C  C40  1  0.52549768  0.99336814  0.00662567  1.0
  C  C41  1  0.47447877  0.00661415  0.99338602  1.0
  C  C42  1  0.99998748  0.46785014  0.00662511  1.0
  C  C43  1  0.99999420  0.53211748  0.99337012  1.0
  C  C44  1  0.47451012  0.46788172  0.53211956  1.0
  C  C45  1  0.52552453  0.53213962  0.46786324  1.0
  C  C46  1  0.00000461  0.99336077  0.53214059  1.0
  C  C47  1  0.00000863  0.00660497  0.46788229  1.0
  N  N64  1  0.95439594  0.12853814  0.06019948  1.0
  N  N65  1  0.18872182  0.12860532  0.82593882  1.0
  N  N66  1  0.95443971  0.82586456  0.98537434  1.0
  N  N67  1  0.04543191  0.17404450  0.01465193  1.0
  N  N68  1  0.18872480  0.01461217  0.93982778  1.0
  N  N69  1  0.81128306  0.98533538  0.06011612  1.0
  N  N70  1  0.04558221  0.06021086  0.12854255  1.0
  N  N71  1  0.95454295  0.93989453  0.87141438  1.0
  N  N72  1  0.04547429  0.87139376  0.93986721  1.0
  N  N73  1  0.18874139  0.17412837  0.87145072  1.0
  N  N74  1  0.81130987  0.82594997  0.12858221  1.0
  N  N75  1  0.04558446  0.98539926  0.82588231  1.0
  N  N76  1  0.95453747  0.01466311  0.17405991  1.0
  N  N77  1  0.81124870  0.93979192  0.01461724  1.0
  N  N78  1  0.18869589  0.06011325  0.98535565  1.0
  N  N79  1  0.81128142  0.87146196  0.17411810  1.0
  F  F48  1  0.84515203  0.15478144  0.11788025  1.0
  F  F49  1  0.27258048  0.15483389  0.69042431  1.0
  F  F50  1  0.84519428  0.69036882  0.03697899  1.0
  F  F51  1  0.15470366  0.30954226  0.96300600  1.0
  F  F52  1  0.27262445  0.96301716  0.88218106  1.0
  F  F53  1  0.72743790  0.03699299  0.11772887  1.0
  F  F54  1  0.15483383  0.11787670  0.15480538  1.0
  F  F55  1  0.84526870  0.88224873  0.84519017  1.0
  F  F56  1  0.15474222  0.84517403  0.88223861  1.0
  F  F57  1  0.27264693  0.30963707  0.84518280  1.0
  F  F58  1  0.72744221  0.69045059  0.15480941  1.0
  F  F59  1  0.15483125  0.03697485  0.69038231  1.0
  F  F60  1  0.84525742  0.96300925  0.30957723  1.0
  F  F61  1  0.72733652  0.88214519  0.96302672  1.0
  F  F62  1  0.27255958  0.11775311  0.03699507  1.0
  F  F63  1  0.72736087  0.84519022  0.30962868  1.0
