# generated using pymatgen
data_Al4H9C38Cl3O22
_symmetry_space_group_name_H-M   'P 1'
_cell_length_a   6.68881110
_cell_length_b   17.92630612
_cell_length_c   21.04075177
_cell_angle_alpha   71.92790528
_cell_angle_beta   88.74714996
_cell_angle_gamma   88.67186246
_symmetry_Int_Tables_number   1
_chemical_formula_structural   Al4H9C38Cl3O22
_chemical_formula_sum   'Al4 H9 C38 Cl3 O22'
_cell_volume   2397.51269892
_cell_formula_units_Z   1
loop_
 _symmetry_equiv_pos_site_id
 _symmetry_equiv_pos_as_xyz
  1  'x, y, z'
loop_
 _atom_site_type_symbol
 _atom_site_label
 _atom_site_symmetry_multiplicity
 _atom_site_fract_x
 _atom_site_fract_y
 _atom_site_fract_z
 _atom_site_occupancy
  Al  Al0  1  0.87828749  0.50016667  0.49950935  1.0
  Al  Al1  1  0.37875864  0.49937055  0.50067555  1.0
  Al  Al2  1  0.33930631  0.99992069  0.99958677  1.0
  Al  Al3  1  0.83915032  0.00075821  0.99821858  1.0
  H  H4  1  0.85436321  0.25064669  0.33548317  1.0
  H  H5  1  0.33533676  0.73295893  0.83543656  1.0
  H  H6  1  0.87677396  0.84723901  0.74167865  1.0
  H  H7  1  0.65925074  0.16563194  0.30717434  1.0
  H  H8  1  0.54068415  0.36361147  0.18654679  1.0
  H  H9  1  0.63518384  0.40590067  0.49237535  1.0
  H  H10  1  0.12414745  0.60215658  0.48439340  1.0
  H  H11  1  0.58289952  0.09387808  0.00713266  1.0
  H  H12  1  0.09114932  0.89902059  0.03598952  1.0
  C  C13  1  0.62924359  0.60765870  0.39619694  1.0
  C  C14  1  0.61823777  0.57728760  0.57522156  1.0
  C  C15  1  0.12524548  0.39327720  0.60364465  1.0
  C  C16  1  0.13994148  0.42112185  0.42486926  1.0
  C  C17  1  0.94570177  0.20307452  0.25714641  1.0
  C  C18  1  0.08969836  0.20328703  0.20638269  1.0
  C  C19  1  0.25814239  0.25190568  0.20020124  1.0
  C  C20  1  0.28787645  0.29624580  0.24369347  1.0
  C  C21  1  0.14057374  0.29539171  0.29373058  1.0
  C  C22  1  0.97004929  0.24962035  0.29842036  1.0
  C  C23  1  0.07123790  0.15825386  0.16258722  1.0
  C  C24  1  0.15458078  0.34024676  0.33812247  1.0
  C  C25  1  0.14531098  0.37710653  0.37794439  1.0
  C  C26  1  0.07406970  0.12258549  0.12182730  1.0
  C  C27  1  0.09603203  0.16809516  0.83238430  1.0
  C  C28  1  0.10493206  0.22111948  0.77931079  1.0
  C  C29  1  0.11388056  0.27948384  0.72058585  1.0
  C  C30  1  0.12185703  0.33216809  0.66728372  1.0
  C  C31  1  0.62433681  0.66868339  0.33251859  1.0
  C  C32  1  0.61395797  0.72089397  0.27898242  1.0
  C  C33  1  0.60336345  0.77855040  0.21988715  1.0
  C  C34  1  0.59376204  0.83086791  0.16640989  1.0
  C  C35  1  0.45464268  0.74042137  0.79806370  1.0
  C  C36  1  0.60581991  0.79533800  0.79367905  1.0
  C  C37  1  0.75986659  0.80486667  0.74521558  1.0
  C  C38  1  0.76106211  0.76038740  0.70167471  1.0
  C  C39  1  0.61143824  0.70430201  0.70512549  1.0
  C  C40  1  0.45907918  0.69552550  0.75481167  1.0
  C  C41  1  0.60334460  0.84049281  0.83822078  1.0
  C  C42  1  0.61345658  0.65959663  0.66070006  1.0
  C  C43  1  0.61504947  0.62147347  0.62182402  1.0
  C  C44  1  0.60139061  0.87884400  0.87692745  1.0
  C  C45  1  0.59766618  0.92305752  0.92366360  1.0
  C  C46  1  0.59009387  0.89216563  0.10301918  1.0
  C  C47  1  0.07921437  0.07966668  0.07413602  1.0
  C  C48  1  0.09113343  0.10621222  0.89542458  1.0
  C  C49  1  0.76558855  0.15332394  0.26969188  1.0
  C  C50  1  0.47184809  0.34342113  0.23743692  1.0
  Cl  Cl51  1  0.43373343  0.25334372  0.13862063  1.0
  Cl  Cl52  1  0.27628175  0.62735093  0.76190299  1.0
  Cl  Cl53  1  0.94777815  0.77403730  0.64177016  1.0
  O  O54  1  0.44976127  0.55771155  0.55892897  1.0
  O  O55  1  0.80125195  0.58328889  0.41928917  1.0
  O  O56  1  0.96720019  0.43692705  0.44448861  1.0
  O  O57  1  0.78974202  0.56266125  0.55394323  1.0
  O  O58  1  0.95539805  0.41823603  0.57905159  1.0
  O  O59  1  0.45952632  0.58518738  0.42299194  1.0
  O  O60  1  0.63123016  0.45334985  0.50529558  1.0
  O  O61  1  0.29652654  0.41515348  0.57811337  1.0
  O  O62  1  0.30797980  0.43915793  0.44269557  1.0
  O  O63  1  0.12658810  0.54592112  0.49257676  1.0
  O  O64  1  0.76019794  0.91626845  0.07737988  1.0
  O  O65  1  0.42571896  0.93949020  0.94326170  1.0
  O  O66  1  0.25988074  0.08221790  0.92141654  1.0
  O  O67  1  0.41859821  0.91542919  0.07865522  1.0
  O  O68  1  0.25273617  0.06211221  0.05628810  1.0
  O  O69  1  0.76602601  0.94052635  0.94165751  1.0
  O  O70  1  0.58661879  0.04667272  0.99384853  1.0
  O  O71  1  0.91136895  0.06438073  0.05403097  1.0
  O  O72  1  0.91970993  0.08223513  0.91940189  1.0
  O  O73  1  0.09103264  0.95342813  0.00812596  1.0
  O  O74  1  0.73163616  0.10298738  0.24365754  1.0
  O  O75  1  0.54622294  0.35869999  0.28440775  1.0
