# generated using pymatgen
data_ZnH5C14NO5
_symmetry_space_group_name_H-M   'P 1'
_cell_length_a   14.02416840
_cell_length_b   14.84925045
_cell_length_c   16.19620839
_cell_angle_alpha   90.36923494
_cell_angle_beta   90.45588454
_cell_angle_gamma   80.51747298
_symmetry_Int_Tables_number   1
_chemical_formula_structural   ZnH5C14NO5
_chemical_formula_sum   'Zn2 H10 C28 N2 O10'
_cell_volume   3326.59715587
_cell_formula_units_Z   2
loop_
 _symmetry_equiv_pos_site_id
 _symmetry_equiv_pos_as_xyz
  1  'x, y, z'
loop_
 _atom_site_type_symbol
 _atom_site_label
 _atom_site_symmetry_multiplicity
 _atom_site_fract_x
 _atom_site_fract_y
 _atom_site_fract_z
 _atom_site_occupancy
  Zn  Zn0  1  0.50543183  0.40457320  0.49973560  1.0
  Zn  Zn1  1  0.49456057  0.59545080  0.50024831  1.0
  H  H2  1  0.50156760  0.35479546  0.92192232  1.0
  H  H3  1  0.38595490  0.09839109  0.40585164  1.0
  H  H4  1  0.49843077  0.64515763  0.07806263  1.0
  H  H5  1  0.50112214  0.35436150  0.07552159  1.0
  H  H6  1  0.49886640  0.64559995  0.92446768  1.0
  H  H7  1  0.60949039  0.07048711  0.59375566  1.0
  H  H8  1  0.39053703  0.92953774  0.40626973  1.0
  H  H9  1  0.99931555  0.33071446  0.50015355  1.0
  H  H10  1  0.00068431  0.66926180  0.49984629  1.0
  H  H11  1  0.61406890  0.90162977  0.59418484  1.0
  C  C12  1  0.50002425  0.50069685  0.66075679  1.0
  C  C13  1  0.56455541  0.94511969  0.55342105  1.0
  C  C14  1  0.49677995  0.18951537  0.49933512  1.0
  C  C15  1  0.50323767  0.81051309  0.50069828  1.0
  C  C16  1  0.68847285  0.47025145  0.50116924  1.0
  C  C17  1  0.31152707  0.52974725  0.49882203  1.0
  C  C18  1  0.20769171  0.53686376  0.49871832  1.0
  C  C19  1  0.79230220  0.46313233  0.50127786  1.0
  C  C20  1  0.02045664  0.53910254  0.49988309  1.0
  C  C21  1  0.97953834  0.46086359  0.50011301  1.0
  C  C22  1  0.87955164  0.46272554  0.50082639  1.0
  C  C23  1  0.49995716  0.49933824  0.33922649  1.0
  C  C24  1  0.12044142  0.53725764  0.49916851  1.0
  C  C25  1  0.50056638  0.41787155  0.04206683  1.0
  C  C26  1  0.49941830  0.58208727  0.95792489  1.0
  C  C27  1  0.49972823  0.49969975  0.08720854  1.0
  C  C28  1  0.50026877  0.50026222  0.91277767  1.0
  C  C29  1  0.49914155  0.58182795  0.04353623  1.0
  C  C30  1  0.50085558  0.41812858  0.95645058  1.0
  C  C31  1  0.49964238  0.49938865  0.17466409  1.0
  C  C32  1  0.50034548  0.50060481  0.82532342  1.0
  C  C33  1  0.50024506  0.50084442  0.75004537  1.0
  C  C34  1  0.49973642  0.49917636  0.24993664  1.0
  C  C35  1  0.56208696  0.03891686  0.55316477  1.0
  C  C36  1  0.43793467  0.96110881  0.44687048  1.0
  C  C37  1  0.49766617  0.09364913  0.49972748  1.0
  C  C38  1  0.50235587  0.90637857  0.50030963  1.0
  C  C39  1  0.43546798  0.05490390  0.44661605  1.0
  N  N40  1  0.50202734  0.73259835  0.50066134  1.0
  N  N41  1  0.49798214  0.26742678  0.49935041  1.0
  O  O42  1  0.50565010  0.42297522  0.62554680  1.0
  O  O43  1  0.95966746  0.62234844  0.50056474  1.0
  O  O44  1  0.49433918  0.57707332  0.37442852  1.0
  O  O45  1  0.49425460  0.57819463  0.62597250  1.0
  O  O46  1  0.50571758  0.42185426  0.37401821  1.0
  O  O47  1  0.65358165  0.39618059  0.50089262  1.0
  O  O48  1  0.34640489  0.60383059  0.49909246  1.0
  O  O49  1  0.64184361  0.55153886  0.50128798  1.0
  O  O50  1  0.35815163  0.44846267  0.49871254  1.0
  O  O51  1  0.04033455  0.37762301  0.49943200  1.0
