# generated using pymatgen
data_Mg2H7C14SNO8
_symmetry_space_group_name_H-M   'P 1'
_cell_length_a   6.83502297
_cell_length_b   25.57612067
_cell_length_c   25.57608044
_cell_angle_alpha   119.21645049
_cell_angle_beta   95.11514141
_cell_angle_gamma   95.10428859
_symmetry_Int_Tables_number   1
_chemical_formula_structural   Mg2H7C14SNO8
_chemical_formula_sum   'Mg6 H21 C42 S3 N3 O24'
_cell_volume   3841.29868705
_cell_formula_units_Z   3
loop_
 _symmetry_equiv_pos_site_id
 _symmetry_equiv_pos_as_xyz
  1  'x, y, z'
loop_
 _atom_site_type_symbol
 _atom_site_label
 _atom_site_symmetry_multiplicity
 _atom_site_fract_x
 _atom_site_fract_y
 _atom_site_fract_z
 _atom_site_occupancy
  Mg  Mg0  1  0.60125096  0.70454835  0.37720621  1.0
  Mg  Mg1  1  0.01530575  0.29444655  0.62315925  1.0
  Mg  Mg2  1  0.22411361  0.62275846  0.32733260  1.0
  Mg  Mg3  1  0.39224346  0.37680800  0.67126017  1.0
  Mg  Mg4  1  0.89658501  0.67258753  0.29537964  1.0
  Mg  Mg5  1  0.72092934  0.32871775  0.70553821  1.0
  H  H6  1  0.65048734  0.46995860  0.48239506  1.0
  H  H7  1  0.93642231  0.53620059  0.41260399  1.0
  H  H8  1  0.27765739  0.60184963  0.45367243  1.0
  H  H9  1  0.40957659  0.54057044  0.49475077  1.0
  H  H10  1  0.71186439  0.47624421  0.60122901  1.0
  H  H11  1  0.34891053  0.39851635  0.54929030  1.0
  H  H12  1  0.24467579  0.47550370  0.52318268  1.0
  H  H13  1  0.16788159  0.51767020  0.98754679  1.0
  H  H14  1  0.52347951  0.58751043  0.12357880  1.0
  H  H15  1  0.82377667  0.54626392  0.14818090  1.0
  H  H16  1  0.91450209  0.50522947  0.04581431  1.0
  H  H17  1  0.11077886  0.39879841  0.87498460  1.0
  H  H18  1  0.79947083  0.45086565  0.84925722  1.0
  H  H19  1  0.72137755  0.47702619  0.95236182  1.0
  H  H20  1  0.17995305  0.01239326  0.53005159  1.0
  H  H21  1  0.39976259  0.87638731  0.46386362  1.0
  H  H22  1  0.67542742  0.85174335  0.39803426  1.0
  H  H23  1  0.86851539  0.95412453  0.45936155  1.0
  H  H24  1  0.23548654  0.12500358  0.52383103  1.0
  H  H25  1  0.95009333  0.15069317  0.60154194  1.0
  H  H26  1  0.76862376  0.04758314  0.52464979  1.0
  C  C27  1  0.68152966  0.53296698  0.45510071  1.0
  C  C28  1  0.79232410  0.55062359  0.42198927  1.0
  C  C29  1  0.72258622  0.58755150  0.40014263  1.0
  C  C30  1  0.53205911  0.60650291  0.41132348  1.0
  C  C31  1  0.42173656  0.58714606  0.44453215  1.0
  C  C32  1  0.49579533  0.55205749  0.46686347  1.0
  C  C33  1  0.85189410  0.60477044  0.36605729  1.0
  C  C34  1  0.97108891  0.47987622  0.56023749  1.0
  C  C35  1  0.84917257  0.45820455  0.58816554  1.0
  C  C36  1  0.90322871  0.41420697  0.60226110  1.0
  C  C37  1  0.09015692  0.39309523  0.58909779  1.0
  C  C38  1  0.20817093  0.41535437  0.55942051  1.0
  C  C39  1  0.15066102  0.45787204  0.54503334  1.0
  C  C40  1  0.76568630  0.39390308  0.63235552  1.0
  C  C41  1  0.22609217  0.54495051  0.07786468  1.0
  C  C42  1  0.37002308  0.57809439  0.12863420  1.0
  C  C43  1  0.32221344  0.59988277  0.18741080  1.0
  C  C44  1  0.12052245  0.58866202  0.19517136  1.0
  C  C45  1  0.97694689  0.55545558  0.14260720  1.0
  C  C46  1  0.02861918  0.53313092  0.08518498  1.0
  C  C47  1  0.48567568  0.63394655  0.23870034  1.0
  C  C48  1  0.41079782  0.43987743  0.91964648  1.0
  C  C49  1  0.26109121  0.41188919  0.87001722  1.0
  C  C50  1  0.30096323  0.39774586  0.81191199  1.0
  C  C51  1  0.50102696  0.41092614  0.80398532  1.0
  C  C52  1  0.64864486  0.44068040  0.85595167  1.0
  C  C53  1  0.60551619  0.45512155  0.91286876  1.0
  C  C54  1  0.13331363  0.36762610  0.76150934  1.0
  C  C55  1  0.14804651  0.92207988  0.46703334  1.0
  C  C56  1  0.24122851  0.87131743  0.44939324  1.0
  C  C57  1  0.13468389  0.81253427  0.41241870  1.0
  C  C58  1  0.92522622  0.80476304  0.39342029  1.0
  C  C59  1  0.83418744  0.85732408  0.41277540  1.0
  C  C60  1  0.94325435  0.91474825  0.44789832  1.0
  C  C61  1  0.24688683  0.76124397  0.39520191  1.0
  C  C62  1  0.49087288  0.08032584  0.52022286  1.0
  C  C63  1  0.39078746  0.12995481  0.54187851  1.0
  C  C64  1  0.48887016  0.18805557  0.58581648  1.0
  C  C65  1  0.69690060  0.19598555  0.60692232  1.0
  C  C66  1  0.79251227  0.14401229  0.58471919  1.0
  C  C67  1  0.69241242  0.08710732  0.54223061  1.0
  C  C68  1  0.37166206  0.23845894  0.60610224  1.0
  S  S69  1  0.90515328  0.53859499  0.54743413  1.0
  S  S70  1  0.35755156  0.45263461  0.99114677  1.0
  S  S71  1  0.36625447  0.00880549  0.46147173  1.0
  N  N72  1  0.76154618  0.49658062  0.47808310  1.0
  N  N73  1  0.28317505  0.52197124  0.01849838  1.0
  N  N74  1  0.26442838  0.98145850  0.50344956  1.0
  O  O75  1  0.01379203  0.58371524  0.35340103  1.0
  O  O76  1  0.79766230  0.64281059  0.35006825  1.0
  O  O77  1  0.45380658  0.64177154  0.39238274  1.0
  O  O78  1  0.60275957  0.41453669  0.64395275  1.0
  O  O79  1  0.81362542  0.35388216  0.64634622  1.0
  O  O80  1  0.16160069  0.35441573  0.60428164  1.0
  O  O81  1  0.78791939  0.57382092  0.59326958  1.0
  O  O82  1  0.07913219  0.56805719  0.53873576  1.0
  O  O83  1  0.66021857  0.64659908  0.23029411  1.0
  O  O84  1  0.44752261  0.64991738  0.29273083  1.0
  O  O85  1  0.06126944  0.60756446  0.24937165  1.0
  O  O86  1  0.95882958  0.35602339  0.77055496  1.0
  O  O87  1  0.16724312  0.35362888  0.70750373  1.0
  O  O88  1  0.55735130  0.39572473  0.75012212  1.0
  O  O89  1  0.19453540  0.40677646  0.98050095  1.0
  O  O90  1  0.54018936  0.46132624  0.02932421  1.0
  O  O91  1  0.42984907  0.76966019  0.41626898  1.0
  O  O92  1  0.15474882  0.70720957  0.35713734  1.0
  O  O93  1  0.81181543  0.75055581  0.35814222  1.0
  O  O94  1  0.18808929  0.22944124  0.58549060  1.0
  O  O95  1  0.45970122  0.29246442  0.64609077  1.0
  O  O96  1  0.80714127  0.24984431  0.64556674  1.0
  O  O97  1  0.21397425  0.01941981  0.42619288  1.0
  O  O98  1  0.51086444  0.97066100  0.43205133  1.0
