# generated using pymatgen
data_ZnH11C18IN3O4
_symmetry_space_group_name_H-M   'P 1'
_cell_length_a   14.41066603
_cell_length_b   15.98990690
_cell_length_c   17.06382825
_cell_angle_alpha   86.30820389
_cell_angle_beta   87.80383936
_cell_angle_gamma   87.63552169
_symmetry_Int_Tables_number   1
_chemical_formula_structural   ZnH11C18IN3O4
_chemical_formula_sum   'Zn2 H22 C36 I2 N6 O8'
_cell_volume   3917.92735981
_cell_formula_units_Z   2
loop_
 _symmetry_equiv_pos_site_id
 _symmetry_equiv_pos_as_xyz
  1  'x, y, z'
loop_
 _atom_site_type_symbol
 _atom_site_label
 _atom_site_symmetry_multiplicity
 _atom_site_fract_x
 _atom_site_fract_y
 _atom_site_fract_z
 _atom_site_occupancy
  Zn  Zn0  1  0.49489993  0.58891186  0.50494984  1.0
  Zn  Zn1  1  0.50503469  0.41102159  0.49505492  1.0
  H  H2  1  0.37958674  0.57899281  0.74781663  1.0
  H  H3  1  0.39898557  0.71430115  0.60697907  1.0
  H  H4  1  0.37565637  0.69695086  0.21943915  1.0
  H  H5  1  0.37880876  0.63760485  0.31165805  1.0
  H  H6  1  0.46819460  0.70611424  0.28452749  1.0
  H  H7  1  0.62438383  0.30315742  0.78059863  1.0
  H  H8  1  0.53188501  0.29397207  0.71549683  1.0
  H  H9  1  0.62124721  0.36249212  0.68837894  1.0
  H  H10  1  0.65819758  0.93913944  0.42953169  1.0
  H  H11  1  0.66740760  0.84547210  0.37749327  1.0
  H  H12  1  0.58085492  0.92553980  0.35474416  1.0
  H  H13  1  0.62034337  0.42102155  0.25217055  1.0
  H  H14  1  0.34182509  0.06077447  0.57048443  1.0
  H  H15  1  0.41913787  0.07440550  0.64527532  1.0
  H  H16  1  0.33259230  0.15445126  0.62249807  1.0
  H  H17  1  0.42974337  0.63719751  0.10592131  1.0
  H  H18  1  0.57037147  0.36296402  0.89408859  1.0
  H  H19  1  0.59197179  0.72629274  0.42141760  1.0
  H  H20  1  0.40796792  0.27362568  0.57854165  1.0
  H  H21  1  0.60075997  0.12813496  0.38327688  1.0
  H  H22  1  0.39932582  0.87178951  0.61678560  1.0
  H  H23  1  0.60102446  0.28562844  0.39304513  1.0
  C  C24  1  0.53092196  0.52047033  0.34914501  1.0
  C  C25  1  0.55332927  0.84919581  0.46123572  1.0
  C  C26  1  0.50427394  0.11060317  0.48212690  1.0
  C  C27  1  0.49577713  0.88931319  0.51791965  1.0
  C  C28  1  0.55878137  0.15917758  0.42810898  1.0
  C  C29  1  0.44125175  0.84074194  0.57192715  1.0
  C  C30  1  0.55908232  0.24533324  0.43291076  1.0
  C  C31  1  0.44094181  0.75459132  0.56711350  1.0
  C  C32  1  0.67915674  0.49485653  0.52134890  1.0
  C  C33  1  0.32077174  0.50505436  0.47863151  1.0
  C  C34  1  0.77944118  0.49587987  0.51954884  1.0
  C  C35  1  0.46898977  0.47951394  0.65085363  1.0
  C  C36  1  0.22050426  0.50410127  0.48040545  1.0
  C  C37  1  0.86449044  0.49726479  0.51275188  1.0
  C  C38  1  0.13545521  0.50277407  0.48717321  1.0
  C  C39  1  0.95730936  0.49902484  0.50433618  1.0
  C  C40  1  0.04263899  0.50104539  0.49556122  1.0
  C  C41  1  0.52860996  0.52922701  0.26128668  1.0
  C  C42  1  0.47136882  0.47081238  0.73871108  1.0
  C  C43  1  0.57819385  0.46822484  0.21937498  1.0
  C  C44  1  0.42177992  0.53182020  0.78061842  1.0
  C  C45  1  0.57393447  0.46648666  0.13819414  1.0
  C  C46  1  0.47152928  0.59037240  0.13980511  1.0
  C  C47  1  0.42607830  0.53362232  0.86179365  1.0
  C  C48  1  0.51679679  0.52711029  0.09748602  1.0
  C  C49  1  0.48326499  0.47303815  0.90249978  1.0
  C  C50  1  0.42122940  0.66212504  0.26118951  1.0
  C  C51  1  0.57882710  0.33796630  0.73883433  1.0
  C  C52  1  0.61862548  0.89194854  0.40258725  1.0
  C  C53  1  0.38138154  0.10797605  0.59742558  1.0
  C  C54  1  0.52855093  0.40976095  0.86019299  1.0
  C  C55  1  0.47517823  0.59340540  0.22114697  1.0
  C  C56  1  0.52487128  0.40668221  0.77885377  1.0
  C  C57  1  0.45070644  0.23811436  0.53707515  1.0
  C  C58  1  0.54927076  0.76183036  0.46289539  1.0
  C  C59  1  0.44669319  0.15073628  0.53878637  1.0
  I  I60  1  0.33934671  0.62415432  0.91597228  1.0
  I  I61  1  0.66061718  0.37591519  0.08401165  1.0
  N  N62  1  0.50051702  0.53442495  0.01621868  1.0
  N  N63  1  0.49954579  0.46574794  0.98376683  1.0
  N  N64  1  0.50553032  0.28386106  0.48710274  1.0
  N  N65  1  0.49444386  0.71608617  0.51287416  1.0
  N  N66  1  0.51036971  0.02376894  0.47021332  1.0
  N  N67  1  0.48970348  0.97614552  0.52984176  1.0
  O  O68  1  0.52548905  0.58700040  0.38644993  1.0
  O  O69  1  0.47462628  0.41296483  0.61357623  1.0
  O  O70  1  0.53625264  0.44569846  0.38003441  1.0
  O  O71  1  0.46344369  0.55427162  0.61993947  1.0
  O  O72  1  0.63595894  0.56571785  0.52403336  1.0
  O  O73  1  0.36393070  0.43416281  0.47613765  1.0
  O  O74  1  0.64417142  0.42322633  0.51897385  1.0
  O  O75  1  0.35582325  0.57667083  0.48085970  1.0
