# generated using pymatgen
data_AlH9C21N(ClO2)3
_symmetry_space_group_name_H-M   'P 1'
_cell_length_a   4.11494143
_cell_length_b   13.48195776
_cell_length_c   13.48229953
_cell_angle_alpha   59.99990992
_cell_angle_beta   90.00004376
_cell_angle_gamma   89.99924813
_symmetry_Int_Tables_number   1
_chemical_formula_structural   AlH9C21N(ClO2)3
_chemical_formula_sum   'Al1 H9 C21 N1 Cl3 O6'
_cell_volume   647.75508206
_cell_formula_units_Z   1
loop_
 _symmetry_equiv_pos_site_id
 _symmetry_equiv_pos_as_xyz
  1  'x, y, z'
loop_
 _atom_site_type_symbol
 _atom_site_label
 _atom_site_symmetry_multiplicity
 _atom_site_fract_x
 _atom_site_fract_y
 _atom_site_fract_z
 _atom_site_occupancy
  Al  Al0  1  0.02400491  0.99999616  0.50000487  1.0
  H  H1  1  0.22511635  0.97175181  0.21645812  1.0
  H  H2  1  0.20790381  0.87123397  0.10607670  1.0
  H  H3  1  0.76656418  0.59472075  0.37060259  1.0
  H  H4  1  0.76657030  0.87061175  0.03466646  1.0
  H  H5  1  0.22510266  0.71645345  0.81180945  1.0
  H  H6  1  0.20787292  0.60608180  0.02269999  1.0
  H  H7  1  0.76656043  0.53467412  0.09471855  1.0
  H  H8  1  0.22511416  0.31180636  0.47174004  1.0
  H  H9  1  0.20788461  0.52270673  0.37121750  1.0
  C  C10  1  0.52175864  0.91962462  0.67462654  1.0
  C  C11  1  0.52173607  0.17462052  0.40575801  1.0
  C  C12  1  0.52176121  0.90575025  0.41963430  1.0
  C  C13  1  0.34722677  0.88944289  0.24949186  1.0
  C  C14  1  0.33490456  0.83231423  0.18768256  1.0
  C  C15  1  0.48789151  0.72553960  0.22929582  1.0
  C  C16  1  0.64773619  0.67748985  0.33519324  1.0
  C  C17  1  0.65160143  0.73424340  0.39752832  1.0
  C  C18  1  0.50731031  0.84190932  0.35512723  1.0
  C  C19  1  0.64773323  0.83519973  0.98731539  1.0
  C  C20  1  0.65159581  0.89753018  0.86822857  1.0
  C  C21  1  0.50731758  0.85512308  0.80297628  1.0
  C  C22  1  0.34719121  0.74949742  0.86107319  1.0
  C  C23  1  0.33491051  0.68768431  0.98001111  1.0
  C  C24  1  0.48788889  0.72930330  0.04516170  1.0
  C  C25  1  0.64772382  0.48731845  0.17748839  1.0
  C  C26  1  0.65160736  0.36822414  0.23424677  1.0
  C  C27  1  0.50733214  0.30296825  0.34191122  1.0
  C  C28  1  0.34721687  0.36107797  0.38942743  1.0
  C  C29  1  0.33490552  0.48002242  0.33230266  1.0
  C  C30  1  0.48789289  0.54516780  0.22553456  1.0
  N  N31  1  0.48029844  0.66666883  0.16666646  1.0
  Cl  Cl32  1  0.83673798  0.66812259  0.53058542  1.0
  Cl  Cl33  1  0.83674019  0.03058626  0.80128670  1.0
  Cl  Cl34  1  0.83674624  0.30128045  0.16813659  1.0
  O  O35  1  0.76345460  0.97236746  0.39842123  1.0
  O  O36  1  0.76343686  0.89840938  0.62922139  1.0
  O  O37  1  0.76343431  0.12921393  0.47237571  1.0
  O  O38  1  0.29130630  0.89008807  0.48865215  1.0
  O  O39  1  0.29128920  0.12126392  0.39009156  1.0
  O  O40  1  0.29128485  0.98864622  0.62126842  1.0
