# generated using pymatgen
data_ZnH13C23N2O9
_symmetry_space_group_name_H-M   'P 1'
_cell_length_a   9.80194199
_cell_length_b   10.95466588
_cell_length_c   15.26029537
_cell_angle_alpha   87.97952237
_cell_angle_beta   88.91387671
_cell_angle_gamma   89.93327219
_symmetry_Int_Tables_number   1
_chemical_formula_structural   ZnH13C23N2O9
_chemical_formula_sum   'Zn2 H26 C46 N4 O18'
_cell_volume   1637.29156778
_cell_formula_units_Z   2
loop_
 _symmetry_equiv_pos_site_id
 _symmetry_equiv_pos_as_xyz
  1  'x, y, z'
loop_
 _atom_site_type_symbol
 _atom_site_label
 _atom_site_symmetry_multiplicity
 _atom_site_fract_x
 _atom_site_fract_y
 _atom_site_fract_z
 _atom_site_occupancy
  Zn  Zn0  1  0.36576064  0.51150586  0.50930945  1.0
  Zn  Zn1  1  0.65366898  0.51445247  0.49437590  1.0
  H  H2  1  0.40838690  0.34159189  0.23991996  1.0
  H  H3  1  0.19342589  0.88227005  0.51513407  1.0
  H  H4  1  0.24757779  0.90001623  0.40210652  1.0
  H  H5  1  0.86137334  0.39208595  0.68488773  1.0
  H  H6  1  0.55093524  0.70989956  0.21753431  1.0
  H  H7  1  0.56580324  0.80835783  0.90784832  1.0
  H  H8  1  0.41042477  0.20153235  0.94599357  1.0
  H  H9  1  0.73996398  0.90271655  0.54441877  1.0
  H  H10  1  0.83008438  0.08800005  0.58031827  1.0
  H  H11  1  0.89453082  0.09050390  0.42824067  1.0
  H  H12  1  0.93199112  0.23459404  0.47408349  1.0
  H  H13  1  0.78258198  0.21743310  0.41196201  1.0
  H  H14  1  0.18405723  0.21612596  0.56547618  1.0
  H  H15  1  0.24545152  0.24889088  0.39555688  1.0
  H  H16  1  0.99182491  0.52320667  0.28580934  1.0
  H  H17  1  0.74457353  0.48104399  0.25292808  1.0
  H  H18  1  0.73934066  0.38541817  0.34971899  1.0
  H  H19  1  0.84759678  0.34645195  0.25938977  1.0
  H  H20  1  0.25639951  0.67054385  0.37574281  1.0
  H  H21  1  0.23539927  0.34766778  0.69889955  1.0
  H  H22  1  0.12830609  0.67529626  0.69192018  1.0
  H  H23  1  0.78584743  0.65536750  0.65259159  1.0
  H  H24  1  0.53674130  0.86834205  0.14257606  1.0
  H  H25  1  0.54136721  0.69555775  0.68322987  1.0
  H  H26  1  0.49412894  0.18471763  0.82643381  1.0
  H  H27  1  0.34983086  0.19050561  0.18399547  1.0
  C  C28  1  0.53373704  0.74482831  0.51196870  1.0
  C  C29  1  0.44549702  0.40868767  0.10578902  1.0
  C  C30  1  0.54437687  0.73300857  0.03736966  1.0
  C  C31  1  0.54395325  0.72619373  0.94761292  1.0
  C  C32  1  0.51423314  0.61539883  0.90592857  1.0
  C  C33  1  0.48831174  0.50768587  0.95931475  1.0
  C  C34  1  0.46906134  0.39292939  0.91919326  1.0
  C  C35  1  0.43228531  0.28959864  0.97366056  1.0
  C  C36  1  0.41750374  0.29609387  0.06311528  1.0
  C  C37  1  0.51111871  0.60847527  0.81296755  1.0
  C  C38  1  0.49838177  0.49435719  0.77448626  1.0
  C  C39  1  0.49741940  0.49178235  0.67523988  1.0
  C  C40  1  0.48201385  0.38645259  0.82635824  1.0
  C  C41  1  0.40942098  0.94385165  0.49526949  1.0
  C  C42  1  0.52869551  0.87986320  0.51384261  1.0
  C  C43  1  0.64455417  0.95029388  0.53033507  1.0
  C  C44  1  0.64589643  0.07874952  0.52532679  1.0
  C  C45  1  0.52178685  0.14355452  0.50729681  1.0
  C  C46  1  0.40772379  0.07055292  0.49588087  1.0
  C  C47  1  0.25382998  0.07408329  0.47389407  1.0
  C  C48  1  0.26210496  0.93166364  0.46875812  1.0
  C  C49  1  0.93218425  0.48722125  0.56055904  1.0
  C  C50  1  0.50787537  0.27870705  0.50150179  1.0
  C  C51  1  0.95433764  0.50962615  0.41248444  1.0
  C  C52  1  0.09325495  0.55147662  0.42492463  1.0
  C  C53  1  0.07245687  0.50004589  0.56969074  1.0
  C  C54  1  0.06811805  0.48076731  0.66891378  1.0
  C  C55  1  0.90452363  0.47881599  0.65830602  1.0
  C  C56  1  0.48681940  0.52777438  0.33370693  1.0
  C  C57  1  0.44000689  0.41849697  0.19727580  1.0
  C  C58  1  0.48045049  0.52584368  0.23601195  1.0
  C  C59  1  0.51818551  0.62859461  0.18474488  1.0
  C  C60  1  0.51301633  0.62713477  0.09284911  1.0
  C  C61  1  0.48185203  0.51451007  0.05247650  1.0
  C  C62  1  0.84934413  0.17138110  0.45909385  1.0
  C  C63  1  0.16464735  0.11987420  0.54844928  1.0
  C  C64  1  0.23083051  0.14866318  0.38963931  1.0
  C  C65  1  0.80519551  0.42225235  0.29675446  1.0
  C  C66  1  0.16918522  0.61634847  0.35362341  1.0
  C  C67  1  0.12265602  0.35651277  0.70320661  1.0
  C  C68  1  0.12620460  0.58210730  0.72402622  1.0
  C  C69  1  0.82909699  0.58584018  0.69914365  1.0
  C  C70  1  0.57299008  0.85460215  0.07401051  1.0
  C  C71  1  0.52147293  0.71757141  0.75292145  1.0
  C  C72  1  0.47916180  0.26770205  0.78381658  1.0
  C  C73  1  0.37088901  0.18331327  0.11252029  1.0
  N  N74  1  0.86686817  0.49227961  0.48489803  1.0
  N  N75  1  0.15417037  0.53889566  0.50387788  1.0
  N  N76  1  0.77048611  0.14009232  0.53943410  1.0
  N  N77  1  0.91845737  0.49038476  0.33058648  1.0
  O  O78  1  0.42140875  0.69124518  0.49743052  1.0
  O  O79  1  0.64861517  0.69176238  0.52417634  1.0
  O  O80  1  0.38151192  0.51474341  0.64153584  1.0
  O  O81  1  0.60933009  0.47819338  0.63368798  1.0
  O  O82  1  0.39188968  0.32380041  0.52084250  1.0
  O  O83  1  0.61223523  0.34019590  0.47478493  1.0
  O  O84  1  0.38509297  0.48169852  0.37673296  1.0
  O  O85  1  0.59228344  0.57259668  0.36727485  1.0
  O  O86  1  0.07883700  0.05685681  0.58708146  1.0
  O  O87  1  0.20434650  0.10457730  0.31964911  1.0
  O  O88  1  0.13449197  0.61936409  0.27599462  1.0
  O  O89  1  0.04866140  0.27506234  0.73167326  1.0
  O  O90  1  0.16570444  0.56282497  0.79814254  1.0
  O  O91  1  0.82110835  0.59580683  0.77822965  1.0
  O  O92  1  0.63016778  0.93776017  0.03226735  1.0
  O  O93  1  0.50872254  0.82463146  0.77248833  1.0
  O  O94  1  0.46424704  0.25782034  0.70452139  1.0
  O  O95  1  0.35322950  0.08559504  0.07777093  1.0
