# generated using pymatgen
data_AlH6C21N3(ClO)6
_symmetry_space_group_name_H-M   'P 1'
_cell_length_a   3.99694392
_cell_length_b   27.91750410
_cell_length_c   27.91650323
_cell_angle_alpha   119.99385295
_cell_angle_beta   89.99169581
_cell_angle_gamma   89.98832555
_symmetry_Int_Tables_number   1
_chemical_formula_structural   AlH6C21N3(ClO)6
_chemical_formula_sum   'Al2 H12 C42 N6 Cl12 O12'
_cell_volume   2697.88332905
_cell_formula_units_Z   2
loop_
 _symmetry_equiv_pos_site_id
 _symmetry_equiv_pos_as_xyz
  1  'x, y, z'
loop_
 _atom_site_type_symbol
 _atom_site_label
 _atom_site_symmetry_multiplicity
 _atom_site_fract_x
 _atom_site_fract_y
 _atom_site_fract_z
 _atom_site_occupancy
  Al  Al0  1  0.99864196  0.00001263  0.50001959  1.0
  Al  Al1  1  0.99378010  0.33332191  0.16664507  1.0
  H  H2  1  0.60468303  0.48825975  0.30664510  1.0
  H  H3  1  0.57941070  0.59221478  0.35619954  1.0
  H  H4  1  0.67979845  0.74796107  0.46043255  1.0
  H  H5  1  0.35237746  0.73851869  0.30890609  1.0
  H  H6  1  0.60535279  0.19333685  0.18162306  1.0
  H  H7  1  0.58015704  0.14379690  0.23603736  1.0
  H  H8  1  0.67975877  0.03957164  0.28754827  1.0
  H  H9  1  0.35222660  0.19112011  0.42961264  1.0
  H  H10  1  0.60536616  0.31834512  0.01167711  1.0
  H  H11  1  0.58003351  0.26391722  0.90771852  1.0
  H  H12  1  0.67967785  0.21244764  0.75202619  1.0
  H  H13  1  0.35248554  0.07038822  0.76151473  1.0
  C  C14  1  0.49841250  0.04757882  0.58459989  1.0
  C  C15  1  0.49851173  0.91542159  0.46300347  1.0
  C  C16  1  0.49832513  0.03702212  0.45243585  1.0
  C  C17  1  0.49628779  0.41761264  0.20111318  1.0
  C  C18  1  0.49648956  0.29886726  0.21647730  1.0
  C  C19  1  0.49649040  0.28350548  0.08237075  1.0
  C  C20  1  0.50176062  0.47908547  0.22688555  1.0
  C  C21  1  0.55766707  0.51024141  0.28421477  1.0
  C  C22  1  0.54551053  0.56732111  0.31161428  1.0
  C  C23  1  0.48741335  0.59521384  0.28219849  1.0
  C  C24  1  0.44112777  0.56446520  0.22420118  1.0
  C  C25  1  0.44530657  0.50618743  0.19662594  1.0
  C  C26  1  0.60453132  0.76885085  0.43804726  1.0
  C  C27  1  0.51920517  0.73760719  0.38199050  1.0
  C  C28  1  0.41968517  0.76360010  0.35231911  1.0
  C  C29  1  0.41044179  0.82085228  0.37915009  1.0
  C  C30  1  0.49996534  0.85338837  0.43532546  1.0
  C  C31  1  0.59473354  0.82641453  0.46422514  1.0
  C  C32  1  0.50207693  0.27310658  0.25219673  1.0
  C  C33  1  0.55817285  0.21577959  0.22602487  1.0
  C  C34  1  0.54599062  0.18837602  0.25571278  1.0
  C  C35  1  0.48760058  0.21780534  0.31301083  1.0
  C  C36  1  0.44114270  0.27579925  0.34025220  1.0
  C  C37  1  0.44540811  0.30337674  0.30954496  1.0
  C  C38  1  0.60443147  0.06196031  0.33082347  1.0
  C  C39  1  0.51916916  0.11801895  0.35562867  1.0
  C  C40  1  0.41958544  0.14770672  0.41128788  1.0
  C  C41  1  0.41030136  0.12087133  0.44171341  1.0
  C  C42  1  0.49981988  0.06469424  0.41808058  1.0
  C  C43  1  0.59457994  0.03577504  0.36220843  1.0
  C  C44  1  0.50200786  0.24778685  0.02088959  1.0
  C  C45  1  0.55812616  0.27395071  0.98972110  1.0
  C  C46  1  0.54594702  0.24425241  0.93263993  1.0
  C  C47  1  0.48759811  0.18696500  0.90477904  1.0
  C  C48  1  0.44112520  0.15972692  0.93553781  1.0
  C  C49  1  0.44534817  0.19044435  0.99381545  1.0
  C  C50  1  0.60444724  0.16918231  0.73113605  1.0
  C  C51  1  0.51921774  0.14436189  0.76238873  1.0
  C  C52  1  0.41975831  0.08871533  0.73641756  1.0
  C  C53  1  0.41040196  0.05829072  0.67916851  1.0
  C  C54  1  0.49988754  0.08193613  0.64662239  1.0
  C  C55  1  0.59457149  0.13779611  0.67357351  1.0
  N  N56  1  0.46851811  0.65308754  0.30718256  1.0
  N  N57  1  0.54337005  0.67953563  0.35811762  1.0
  N  N58  1  0.46863886  0.19282284  0.34590508  1.0
  N  N59  1  0.54344777  0.14189176  0.32142780  1.0
  N  N60  1  0.46861662  0.15408090  0.84691340  1.0
  N  N61  1  0.54347482  0.17855039  0.82044991  1.0
  Cl  Cl62  1  0.39569353  0.46940369  0.12608021  1.0
  Cl  Cl63  1  0.38273311  0.59797602  0.18759737  1.0
  Cl  Cl64  1  0.70835797  0.86490226  0.53293869  1.0
  Cl  Cl65  1  0.28128023  0.85295380  0.34309321  1.0
  Cl  Cl66  1  0.39538985  0.37391557  0.34328619  1.0
  Cl  Cl67  1  0.38248138  0.31241227  0.41035515  1.0
  Cl  Cl68  1  0.70815429  0.96705062  0.33198445  1.0
  Cl  Cl69  1  0.28100979  0.15696532  0.50986248  1.0
  Cl  Cl70  1  0.39549809  0.15668791  0.03060740  1.0
  Cl  Cl71  1  0.38255947  0.08963151  0.90204867  1.0
  Cl  Cl72  1  0.70800797  0.16803687  0.63508025  1.0
  Cl  Cl73  1  0.28113878  0.99015350  0.64710437  1.0
  O  O74  1  0.26130800  0.00369929  0.44468323  1.0
  O  O75  1  0.26131837  0.05533543  0.55903366  1.0
  O  O76  1  0.26144712  0.94099377  0.49633592  1.0
  O  O77  1  0.73557699  0.04938284  0.48684712  1.0
  O  O78  1  0.73584006  0.93746992  0.45064087  1.0
  O  O79  1  0.73577376  0.01316794  0.56255617  1.0
  O  O80  1  0.25711102  0.27720484  0.10867927  1.0
  O  O81  1  0.25694998  0.39130269  0.16849688  1.0
  O  O82  1  0.25705060  0.33147068  0.22276801  1.0
  O  O83  1  0.72881568  0.31940326  0.10393271  1.0
  O  O84  1  0.72897517  0.28452628  0.18056681  1.0
  O  O85  1  0.72874970  0.39603191  0.21543819  1.0
