# generated using pymatgen
data_AlH12C33(O2F)3
_symmetry_space_group_name_H-M   'P 1'
_cell_length_a   3.96853586
_cell_length_b   20.47644001
_cell_length_c   20.47825492
_cell_angle_alpha   60.02023546
_cell_angle_beta   87.65369337
_cell_angle_gamma   87.82103210
_symmetry_Int_Tables_number   1
_chemical_formula_structural   AlH12C33(O2F)3
_chemical_formula_sum   'Al1 H12 C33 O6 F3'
_cell_volume   1439.93589851
_cell_formula_units_Z   1
loop_
 _symmetry_equiv_pos_site_id
 _symmetry_equiv_pos_as_xyz
  1  'x, y, z'
loop_
 _atom_site_type_symbol
 _atom_site_label
 _atom_site_symmetry_multiplicity
 _atom_site_fract_x
 _atom_site_fract_y
 _atom_site_fract_z
 _atom_site_occupancy
  Al  Al0  1  0.03139042  0.49982749  0.49944352  1.0
  H  H1  1  0.79976841  0.30560443  0.70620719  1.0
  H  H2  1  0.78063560  0.23274816  0.84712129  1.0
  H  H3  1  0.22666897  0.70885064  0.30824720  1.0
  H  H4  1  0.22773974  0.84975826  0.23675809  1.0
  H  H5  1  0.25918084  0.30949688  0.48404359  1.0
  H  H6  1  0.27155870  0.23731744  0.41522955  1.0
  H  H7  1  0.79386682  0.70707464  0.48343101  1.0
  H  H8  1  0.77448168  0.84796627  0.41558004  1.0
  H  H9  1  0.22259270  0.48609450  0.70903452  1.0
  H  H10  1  0.22857553  0.41704436  0.84992326  1.0
  H  H11  1  0.87084890  0.48032228  0.30791315  1.0
  H  H12  1  0.86358058  0.41184724  0.23549386  1.0
  C  C13  1  0.51877621  0.44212224  0.61562031  1.0
  C  C14  1  0.55428135  0.44133405  0.44164152  1.0
  C  C15  1  0.52002766  0.61597207  0.44122558  1.0
  C  C16  1  0.67056969  0.32875197  0.73836433  1.0
  C  C17  1  0.66156506  0.28850964  0.81659267  1.0
  C  C18  1  0.35068001  0.73996914  0.33046062  1.0
  C  C19  1  0.35022564  0.81821091  0.29091387  1.0
  C  C20  1  0.39592927  0.33047254  0.43030355  1.0
  C  C21  1  0.40205815  0.29056408  0.39194367  1.0
  C  C22  1  0.66549406  0.73902039  0.43008904  1.0
  C  C23  1  0.65558439  0.81723812  0.39226318  1.0
  C  C24  1  0.34853187  0.43116018  0.73990139  1.0
  C  C25  1  0.35014408  0.39261676  0.81814250  1.0
  C  C26  1  0.73558405  0.42778575  0.33011699  1.0
  C  C27  1  0.73275392  0.38958237  0.29005906  1.0
  C  C28  1  0.51183122  0.39997619  0.69941989  1.0
  C  C29  1  0.50447680  0.32035201  0.85764816  1.0
  C  C30  1  0.50394760  0.28040944  0.93737315  1.0
  C  C31  1  0.50653425  0.24599840  0.00606425  1.0
  C  C32  1  0.51160064  0.20656942  0.08545169  1.0
  C  C33  1  0.51145526  0.69975228  0.39986226  1.0
  C  C34  1  0.50099107  0.85801481  0.32156242  1.0
  C  C35  1  0.49975010  0.93772305  0.28172325  1.0
  C  C36  1  0.50252446  0.00642025  0.24721511  1.0
  C  C37  1  0.50895830  0.08579489  0.20708705  1.0
  C  C38  1  0.56369177  0.39912081  0.39998828  1.0
  C  C39  1  0.56669679  0.32018422  0.32061540  1.0
  C  C40  1  0.56070253  0.28100577  0.28013086  1.0
  C  C41  1  0.54892434  0.24707534  0.24549006  1.0
  C  C42  1  0.53392878  0.20723978  0.20608242  1.0
  C  C43  1  0.50272296  0.12739020  0.12785061  1.0
  C  C44  1  0.52420833  0.12804364  0.24388169  1.0
  C  C45  1  0.52729441  0.24419177  0.12688996  1.0
  O  O46  1  0.29541404  0.58247794  0.42644413  1.0
  O  O47  1  0.28113494  0.49015463  0.58247208  1.0
  O  O48  1  0.31401457  0.42711709  0.49010774  1.0
  O  O49  1  0.75188502  0.58257496  0.48914249  1.0
  O  O50  1  0.78496187  0.48904999  0.42659182  1.0
  O  O51  1  0.76305481  0.42743512  0.58202661  1.0
  F  F52  1  0.53046024  0.09042287  0.31976587  1.0
  F  F53  1  0.53663924  0.32006725  0.08849593  1.0
  F  F54  1  0.48805344  0.08908580  0.09038548  1.0
