# generated using pymatgen
data_ZnH8C12(BrN2)2
_symmetry_space_group_name_H-M   'P 1'
_cell_length_a   14.56725965
_cell_length_b   19.14813629
_cell_length_c   30.36383355
_cell_angle_alpha   101.22093877
_cell_angle_beta   89.98283795
_cell_angle_gamma   112.35934236
_symmetry_Int_Tables_number   1
_chemical_formula_structural   ZnH8C12(BrN2)2
_chemical_formula_sum   'Zn12 H96 C144 Br24 N48'
_cell_volume   7657.64100977
_cell_formula_units_Z   12
loop_
 _symmetry_equiv_pos_site_id
 _symmetry_equiv_pos_as_xyz
  1  'x, y, z'
loop_
 _atom_site_type_symbol
 _atom_site_label
 _atom_site_symmetry_multiplicity
 _atom_site_fract_x
 _atom_site_fract_y
 _atom_site_fract_z
 _atom_site_occupancy
  Zn  Zn0  1  0.52645031  0.34742675  0.26900862  1.0
  Zn  Zn1  1  0.93891244  0.16301074  0.59542915  1.0
  Zn  Zn2  1  0.27145739  0.76023358  0.94271943  1.0
  Zn  Zn3  1  0.82110485  0.34746697  0.76909403  1.0
  Zn  Zn4  1  0.22370146  0.16250866  0.09548942  1.0
  Zn  Zn5  1  0.48864844  0.76001463  0.44279021  1.0
  Zn  Zn6  1  0.17889005  0.65253084  0.23090650  1.0
  Zn  Zn7  1  0.77630088  0.83749030  0.90451059  1.0
  Zn  Zn8  1  0.51135007  0.23998491  0.55720955  1.0
  Zn  Zn9  1  0.47354961  0.65257972  0.73099298  1.0
  Zn  Zn10  1  0.06108730  0.83698302  0.40457220  1.0
  Zn  Zn11  1  0.72854679  0.23976769  0.05728087  1.0
  H  H12  1  0.42643591  0.69252545  0.93315193  1.0
  H  H13  1  0.46097926  0.58924510  0.88066795  1.0
  H  H14  1  0.18702235  0.53912983  0.80270631  1.0
  H  H15  1  0.16648141  0.64859167  0.85712373  1.0
  H  H16  1  0.61060431  0.50886395  0.83068168  1.0
  H  H17  1  0.76505125  0.47868628  0.82392747  1.0
  H  H18  1  0.61518243  0.27284680  0.73330573  1.0
  H  H19  1  0.45486721  0.29424328  0.73635110  1.0
  H  H20  1  0.15293744  0.19332004  0.62015252  1.0
  H  H21  1  0.28808300  0.27832466  0.67892152  1.0
  H  H22  1  0.09386839  0.39346179  0.73065534  1.0
  H  H23  1  0.96604594  0.30449509  0.66822335  1.0
  H  H24  1  0.02333919  0.03935577  0.57325068  1.0
  H  H25  1  0.15729239  0.01712137  0.52600766  1.0
  H  H26  1  0.17979477  0.21313325  0.47071026  1.0
  H  H27  1  0.04539510  0.22773254  0.52017291  1.0
  H  H28  1  0.43985799  0.10269038  0.33294930  1.0
  H  H29  1  0.50300428  0.19037218  0.27786255  1.0
  H  H30  1  0.43363354  0.36250856  0.35716904  1.0
  H  H31  1  0.36176898  0.27956010  0.41413071  1.0
  H  H32  1  0.33829330  0.95914626  0.50938239  1.0
  H  H33  1  0.39694784  0.85018595  0.50828176  1.0
  H  H34  1  0.48493525  0.85710504  0.37912379  1.0
  H  H35  1  0.43046588  0.96613162  0.37501821  1.0
  H  H36  1  0.26599393  0.69228333  0.43314125  1.0
  H  H37  1  0.12819280  0.58903772  0.38060973  1.0
  H  H38  1  0.35228107  0.53916454  0.30261886  1.0
  H  H39  1  0.48222352  0.64860178  0.35707281  1.0
  H  H40  1  0.89822847  0.50871733  0.33060550  1.0
  H  H41  1  0.71362650  0.47858172  0.32381992  1.0
  H  H42  1  0.65779128  0.27274797  0.23318884  1.0
  H  H43  1  0.83950497  0.29417930  0.23623535  1.0
  H  H44  1  0.04024640  0.19339366  0.12004506  1.0
  H  H45  1  0.99034580  0.27852384  0.17888860  1.0
  H  H46  1  0.29976331  0.39335065  0.23046789  1.0
  H  H47  1  0.33834693  0.30420008  0.16802827  1.0
  H  H48  1  0.01553097  0.03907197  0.07338032  1.0
  H  H49  1  0.85955562  0.01696037  0.02603889  1.0
  H  H50  1  0.03358943  0.21283843  0.97074409  1.0
  H  H51  1  0.18243945  0.22733133  0.02028849  1.0
  H  H52  1  0.66297585  0.10269724  0.83310291  1.0
  H  H53  1  0.68739412  0.19031023  0.77800417  1.0
  H  H54  1  0.92895192  0.36249552  0.85718964  1.0
  H  H55  1  0.91806732  0.27961445  0.91415164  1.0
  H  H56  1  0.62093127  0.95905387  0.00935839  1.0
  H  H57  1  0.45322869  0.85012198  0.00823703  1.0
  H  H58  1  0.37251401  0.85702454  0.87902756  1.0
  H  H59  1  0.53614418  0.96603090  0.87493839  1.0
  H  H60  1  0.73400372  0.30771448  0.56685862  1.0
  H  H61  1  0.87180456  0.41095951  0.61939007  1.0
  H  H62  1  0.64771676  0.46083500  0.69738123  1.0
  H  H63  1  0.51777539  0.35139718  0.64292720  1.0
  H  H64  1  0.10177279  0.49128222  0.66939261  1.0
  H  H65  1  0.28637804  0.52142302  0.67618311  1.0
  H  H66  1  0.34220210  0.72725504  0.76681168  1.0
  H  H67  1  0.16048734  0.70582430  0.76376063  1.0
  H  H68  1  0.95975888  0.80660704  0.87995451  1.0
  H  H69  1  0.00965810  0.72147686  0.82111031  1.0
  H  H70  1  0.70024098  0.60664946  0.76953293  1.0
  H  H71  1  0.66165719  0.69579831  0.83197332  1.0
  H  H72  1  0.98446931  0.96092700  0.92661937  1.0
  H  H73  1  0.14044514  0.98304090  0.97396174  1.0
  H  H74  1  0.96641133  0.78716284  0.02925588  1.0
  H  H75  1  0.81756123  0.77266706  0.97971046  1.0
  H  H76  1  0.33701837  0.89730057  0.16689729  1.0
  H  H77  1  0.31260118  0.80968700  0.22199497  1.0
  H  H78  1  0.07104454  0.63750403  0.14280880  1.0
  H  H79  1  0.08193022  0.72038452  0.08584706  1.0
  H  H80  1  0.37906833  0.04094510  0.99064228  1.0
  H  H81  1  0.54677011  0.14987813  0.99176510  1.0
  H  H82  1  0.62748421  0.14297441  0.12097542  1.0
  H  H83  1  0.46385278  0.03396690  0.12506247  1.0
  H  H84  1  0.57356426  0.30747467  0.06684856  1.0
  H  H85  1  0.53902199  0.41075444  0.11933313  1.0
  H  H86  1  0.81298065  0.46087318  0.19729421  1.0
  H  H87  1  0.83352050  0.35141191  0.14287686  1.0
  H  H88  1  0.38939341  0.49113675  0.16931756  1.0
  H  H89  1  0.23494784  0.52131442  0.17607243  1.0
  H  H90  1  0.38481746  0.72715275  0.26669436  1.0
  H  H91  1  0.54513228  0.70575684  0.26364808  1.0
  H  H92  1  0.84706086  0.80668182  0.37984653  1.0
  H  H93  1  0.71191679  0.72167605  0.32107641  1.0
  H  H94  1  0.90612984  0.60653717  0.26934501  1.0
  H  H95  1  0.03395141  0.69550214  0.33177843  1.0
  H  H96  1  0.97666286  0.96064261  0.42674959  1.0
  H  H97  1  0.84271151  0.98287933  0.47399323  1.0
  H  H98  1  0.82020415  0.78686571  0.52928976  1.0
  H  H99  1  0.95460225  0.77226469  0.47982755  1.0
  H  H100  1  0.56014237  0.89731147  0.66705074  1.0
  H  H101  1  0.49699706  0.80963025  0.72213757  1.0
  H  H102  1  0.56636556  0.63749214  0.64283053  1.0
  H  H103  1  0.63823040  0.72044117  0.58586861  1.0
  H  H104  1  0.66170774  0.04085559  0.49061667  1.0
  H  H105  1  0.60305280  0.14981648  0.49171836  1.0
  H  H106  1  0.51506424  0.14289508  0.62087604  1.0
  H  H107  1  0.56953138  0.03386677  0.62498075  1.0
  C  C108  1  0.37525115  0.65744067  0.90382332  1.0
  C  C109  1  0.39410207  0.59967155  0.87471777  1.0
  C  C110  1  0.32586941  0.55579394  0.83767492  1.0
  C  C111  1  0.24204649  0.57270914  0.83092602  1.0
  C  C112  1  0.22971402  0.63236468  0.86104323  1.0
  C  C113  1  0.34029229  0.49236355  0.80594900  1.0
  C  C114  1  0.42906251  0.41944719  0.78255387  1.0
  C  C115  1  0.27952910  0.39149146  0.74615234  1.0
  C  C116  1  0.52088234  0.40348037  0.78377095  1.0
  C  C117  1  0.60876034  0.45562219  0.80923105  1.0
  C  C118  1  0.69406800  0.43914793  0.80565094  1.0
  C  C119  1  0.60963438  0.32338674  0.75513420  1.0
  C  C120  1  0.52183598  0.33566103  0.75668812  1.0
  C  C121  1  0.14222336  0.23830789  0.64501806  1.0
  C  C122  1  0.21758580  0.28553026  0.67804731  1.0
  C  C123  1  0.20122961  0.34237452  0.70978337  1.0
  C  C124  1  0.10999076  0.35046690  0.70634212  1.0
  C  C125  1  0.03873671  0.30114965  0.67181984  1.0
  C  C126  1  0.06076486  0.07618256  0.54999593  1.0
  C  C127  1  0.13405843  0.06420116  0.52402711  1.0
  C  C128  1  0.17852775  0.11415153  0.49514476  1.0
  C  C129  1  0.14658219  0.17386126  0.49310974  1.0
  C  C130  1  0.07312408  0.18216309  0.52022288  1.0
  C  C131  1  0.25645978  0.10359762  0.46654811  1.0
  C  C132  1  0.35058905  0.03595291  0.44134721  1.0
  C  C133  1  0.35449138  0.13450041  0.40979943  1.0
  C  C134  1  0.39518255  0.18482504  0.37729445  1.0
  C  C135  1  0.43699829  0.15971589  0.33902325  1.0
  C  C136  1  0.47296901  0.20819911  0.30901852  1.0
  C  C137  1  0.43234874  0.30424138  0.35322616  1.0
  C  C138  1  0.39275626  0.25848412  0.38429835  1.0
  C  C139  1  0.38215810  0.97147554  0.44246197  1.0
  C  C140  1  0.37121460  0.93817000  0.48020608  1.0
  C  C141  1  0.40303161  0.87822907  0.47973656  1.0
  C  C142  1  0.45214441  0.88181760  0.40711964  1.0
  C  C143  1  0.42287796  0.94209124  0.40509124  1.0
  C  C144  1  0.28209715  0.65723993  0.40378888  1.0
  C  C145  1  0.20552612  0.59949464  0.37466383  1.0
  C  C146  1  0.23002643  0.55575229  0.33759151  1.0
  C  C147  1  0.33079570  0.57271997  0.33084770  1.0
  C  C148  1  0.40273749  0.63235700  0.36099114  1.0
  C  C149  1  0.15219262  0.49232366  0.30587343  1.0
  C  C150  1  0.99047217  0.41936981  0.28248173  1.0
  C  C151  1  0.11210880  0.39147789  0.24607063  1.0
  C  C152  1  0.88263486  0.40337039  0.28368047  1.0
  C  C153  1  0.84686176  0.45549881  0.30913463  1.0
  C  C154  1  0.74510286  0.43905650  0.30553700  1.0
  C  C155  1  0.71382324  0.32330330  0.25501775  1.0
  C  C156  1  0.81388562  0.33556065  0.25658639  1.0
  C  C157  1  0.09598053  0.23832637  0.14490000  1.0
  C  C158  1  0.06800155  0.28562684  0.17796016  1.0
  C  C159  1  0.14125925  0.34235148  0.20969673  1.0
  C  C160  1  0.24056213  0.35037394  0.20620218  1.0
  C  C161  1  0.26235406  0.30097637  0.17166098  1.0
  C  C162  1  0.01515324  0.07584627  0.05006120  1.0
  C  C163  1  0.92996999  0.06398109  0.02408383  1.0
  C  C164  1  0.93573023  0.11393167  0.99517104  1.0
  C  C165  1  0.02747150  0.17353552  0.99312726  1.0
  C  C166  1  0.10909524  0.18179627  0.02029070  1.0
  C  C167  1  0.84734253  0.10344466  0.96656464  1.0
  C  C168  1  0.68562763  0.03577682  0.94132195  1.0
  C  C169  1  0.78029236  0.13442175  0.90984260  1.0
  C  C170  1  0.78989245  0.18480792  0.87737547  1.0
  C  C171  1  0.72286038  0.15971331  0.83915735  1.0
  C  C172  1  0.73527686  0.20817723  0.80914205  1.0
  C  C173  1  0.87198315  0.30421973  0.85327441  1.0
  C  C174  1  0.86594757  0.25848746  0.88434694  1.0
  C  C175  1  0.58957806  0.97129893  0.94239510  1.0
  C  C176  1  0.56711799  0.93804490  0.98016024  1.0
  C  C177  1  0.47529942  0.87816278  0.97968975  1.0
  C  C178  1  0.42998767  0.88166660  0.90701908  1.0
  C  C179  1  0.51954439  0.94195368  0.90500587  1.0
  C  C180  1  0.71790392  0.34275787  0.59621264  1.0
  C  C181  1  0.79447308  0.40050490  0.62533659  1.0
  C  C182  1  0.76997190  0.44424552  0.66240803  1.0
  C  C183  1  0.66920127  0.42727784  0.66915218  1.0
  C  C184  1  0.59726016  0.36764081  0.63900807  1.0
  C  C185  1  0.84780630  0.50767531  0.69412626  1.0
  C  C186  1  0.00952996  0.58063147  0.71751528  1.0
  C  C187  1  0.88789344  0.60852224  0.75392689  1.0
  C  C188  1  0.11736738  0.59662974  0.71631738  1.0
  C  C189  1  0.15313871  0.54450189  0.69086429  1.0
  C  C190  1  0.25490190  0.56094593  0.69446476  1.0
  C  C191  1  0.28617707  0.67670260  0.74498312  1.0
  C  C192  1  0.18611023  0.66444178  0.74341241  1.0
  C  C193  1  0.90402543  0.76167433  0.85509991  1.0
  C  C194  1  0.93200275  0.71437328  0.82203769  1.0
  C  C195  1  0.85874339  0.65764807  0.79030204  1.0
  C  C196  1  0.75944101  0.64962387  0.79379868  1.0
  C  C197  1  0.73765178  0.69902548  0.82834038  1.0
  C  C198  1  0.98484734  0.92415327  0.94993856  1.0
  C  C199  1  0.07003076  0.93602018  0.97591647  1.0
  C  C200  1  0.06426955  0.88606903  0.00482952  1.0
  C  C201  1  0.97252896  0.82646518  0.00687264  1.0
  C  C202  1  0.89090522  0.81820443  0.97970953  1.0
  C  C203  1  0.15265587  0.89655603  0.03343592  1.0
  C  C204  1  0.31437157  0.96422272  0.05867880  1.0
  C  C205  1  0.21970449  0.86557721  0.09015807  1.0
  C  C206  1  0.21010430  0.81519219  0.12262535  1.0
  C  C207  1  0.27713590  0.84028450  0.16084220  1.0
  C  C208  1  0.26471569  0.79182000  0.19085775  1.0
  C  C209  1  0.12801432  0.69577635  0.14672361  1.0
  C  C210  1  0.13404791  0.74151150  0.11565341  1.0
  C  C211  1  0.41042125  0.02869946  0.05760485  1.0
  C  C212  1  0.43288179  0.06195579  0.01984098  1.0
  C  C213  1  0.52470310  0.12183791  0.02031213  1.0
  C  C214  1  0.57000986  0.11833236  0.09298324  1.0
  C  C215  1  0.48045268  0.05804297  0.09499485  1.0
  C  C216  1  0.62475119  0.34255829  0.09617703  1.0
  C  C217  1  0.60589908  0.40032915  0.12528312  1.0
  C  C218  1  0.67413088  0.44420503  0.16232543  1.0
  C  C219  1  0.75795553  0.42729329  0.16907443  1.0
  C  C220  1  0.77028850  0.36763602  0.13895733  1.0
  C  C221  1  0.65970759  0.50763599  0.19405142  1.0
  C  C222  1  0.57093716  0.58055466  0.21744519  1.0
  C  C223  1  0.72047155  0.60851097  0.25384712  1.0
  C  C224  1  0.47911578  0.59651975  0.21622822  1.0
  C  C225  1  0.39123865  0.54437966  0.19076833  1.0
  C  C226  1  0.30593167  0.56085393  0.19434877  1.0
  C  C227  1  0.39036511  0.67661338  0.24486596  1.0
  C  C228  1  0.47816340  0.66434025  0.24331086  1.0
  C  C229  1  0.85777475  0.76169223  0.35498177  1.0
  C  C230  1  0.78241427  0.71447102  0.32195068  1.0
  C  C231  1  0.79877017  0.65762618  0.29021587  1.0
  C  C232  1  0.89000804  0.64953322  0.29365870  1.0
  C  C233  1  0.96126347  0.69885047  0.32818197  1.0
  C  C234  1  0.93923760  0.92381525  0.45000427  1.0
  C  C235  1  0.86594587  0.93579895  0.47597371  1.0
  C  C236  1  0.82147282  0.88584801  0.50485566  1.0
  C  C237  1  0.85341672  0.82613770  0.50689028  1.0
  C  C238  1  0.92687649  0.81783644  0.47977852  1.0
  C  C239  1  0.74354039  0.89640250  0.53345172  1.0
  C  C240  1  0.64941171  0.96404837  0.55865211  1.0
  C  C241  1  0.64550800  0.86550087  0.59020055  1.0
  C  C242  1  0.60481752  0.81517623  0.62270585  1.0
  C  C243  1  0.56300069  0.84028597  0.66097647  1.0
  C  C244  1  0.52703135  0.79180274  0.69098185  1.0
  C  C245  1  0.56764996  0.69575990  0.64677381  1.0
  C  C246  1  0.60724449  0.74151716  0.61570196  1.0
  C  C247  1  0.61784002  0.02852458  0.55753720  1.0
  C  C248  1  0.62878644  0.06183185  0.51979363  1.0
  C  C249  1  0.59696914  0.12177221  0.52026309  1.0
  C  C250  1  0.54785538  0.11818310  0.59287993  1.0
  C  C251  1  0.57711958  0.05790773  0.59490779  1.0
  Br  Br252  1  0.49678187  0.46146734  0.29351739  1.0
  Br  Br253  1  0.48032596  0.26153504  0.19783556  1.0
  Br  Br254  1  0.86536904  0.23072470  0.56009529  1.0
  Br  Br255  1  0.86673647  0.05742526  0.63038448  1.0
  Br  Br256  1  0.15486925  0.79191515  0.90445632  1.0
  Br  Br257  1  0.26255465  0.72673614  0.01365950  1.0
  Br  Br258  1  0.96488803  0.46153296  0.79362938  1.0
  Br  Br259  1  0.78141542  0.26186480  0.69787595  1.0
  Br  Br260  1  0.36505966  0.23010410  0.06001711  1.0
  Br  Br261  1  0.18942060  0.05702866  0.13056474  1.0
  Br  Br262  1  0.63706266  0.79088464  0.40463035  1.0
  Br  Br263  1  0.46279733  0.72654819  0.51374456  1.0
  Br  Br264  1  0.03510984  0.53846254  0.20636922  1.0
  Br  Br265  1  0.21856904  0.73812723  0.30212486  1.0
  Br  Br266  1  0.63494200  0.76989487  0.93998192  1.0
  Br  Br267  1  0.81058193  0.94297204  0.86943582  1.0
  Br  Br268  1  0.36293727  0.20911086  0.59536891  1.0
  Br  Br269  1  0.53720216  0.27345193  0.48625495  1.0
  Br  Br270  1  0.50321719  0.53853740  0.70648301  1.0
  Br  Br271  1  0.51969000  0.73847606  0.80216464  1.0
  Br  Br272  1  0.13462268  0.76926674  0.43990742  1.0
  Br  Br273  1  0.13327545  0.94256677  0.36961600  1.0
  Br  Br274  1  0.84513270  0.20808439  0.09554508  1.0
  Br  Br275  1  0.73746876  0.27326513  0.98634015  1.0
  N  N276  1  0.29489418  0.67370362  0.89701855  1.0
  N  N277  1  0.69471879  0.37442028  0.77885951  1.0
  N  N278  1  0.05416827  0.24545849  0.64192318  1.0
  N  N279  1  0.42317892  0.47909047  0.81229794  1.0
  N  N280  1  0.35790219  0.37213239  0.75027597  1.0
  N  N281  1  0.26810812  0.45189126  0.77256817  1.0
  N  N282  1  0.03138452  0.13446726  0.54837240  1.0
  N  N283  1  0.44320917  0.85088449  0.44393115  1.0
  N  N284  1  0.47121267  0.27933753  0.31607528  1.0
  N  N285  1  0.28782482  0.14892016  0.43654681  1.0
  N  N286  1  0.28896522  0.04867659  0.47181452  1.0
  N  N287  1  0.38555047  0.07697713  0.40952449  1.0
  N  N288  1  0.37875381  0.67360633  0.39698222  1.0
  N  N289  1  0.67974200  0.37433723  0.27874081  1.0
  N  N290  1  0.19114938  0.24533016  0.14179422  1.0
  N  N291  1  0.05599926  0.47905817  0.31219896  1.0
  N  N292  1  0.01436073  0.37205806  0.25021686  1.0
  N  N293  1  0.18392174  0.45184886  0.27248845  1.0
  N  N294  1  0.10287358  0.13407277  0.04845565  1.0
  N  N295  1  0.40790151  0.85080176  0.94385941  1.0
  N  N296  1  0.80817718  0.27931190  0.81616070  1.0
  N  N297  1  0.86131872  0.14886090  0.93661141  1.0
  N  N298  1  0.75993011  0.04846119  0.97178353  1.0
  N  N299  1  0.69173515  0.07684467  0.90952679  1.0
  N  N300  1  0.62124481  0.32639206  0.60301740  1.0
  N  N301  1  0.32025676  0.62566693  0.72126216  1.0
  N  N302  1  0.80885824  0.75467111  0.85820575  1.0
  N  N303  1  0.94400161  0.52094196  0.68779956  1.0
  N  N304  1  0.98564101  0.62794380  0.74977956  1.0
  N  N305  1  0.81607797  0.54814895  0.72751076  1.0
  N  N306  1  0.89712700  0.86592677  0.95154411  1.0
  N  N307  1  0.59209945  0.14919720  0.05614292  1.0
  N  N308  1  0.19181606  0.72068533  0.18383910  1.0
  N  N309  1  0.13868008  0.85113922  0.06338908  1.0
  N  N310  1  0.24006840  0.95153835  0.02821754  1.0
  N  N311  1  0.30826473  0.92315487  0.09047429  1.0
  N  N312  1  0.70510863  0.32629766  0.10298208  1.0
  N  N313  1  0.30528030  0.62558042  0.22114105  1.0
  N  N314  1  0.94582956  0.75454105  0.35807691  1.0
  N  N315  1  0.57682213  0.52091138  0.18770310  1.0
  N  N316  1  0.64209874  0.62787062  0.24972290  1.0
  N  N317  1  0.73189148  0.54810771  0.22743151  1.0
  N  N318  1  0.96861559  0.86552997  0.45162774  1.0
  N  N319  1  0.55679159  0.14911679  0.55606882  1.0
  N  N320  1  0.52878689  0.72066548  0.68392491  1.0
  N  N321  1  0.71217399  0.85107996  0.56345303  1.0
  N  N322  1  0.71103661  0.95132411  0.52818538  1.0
  N  N323  1  0.61444989  0.92302473  0.59047490  1.0
