# generated using pymatgen
data_CuSiH8C24N12(O8F3)2
_symmetry_space_group_name_H-M   'P 1'
_cell_length_a   8.40580647
_cell_length_b   13.71726287
_cell_length_c   13.71742669
_cell_angle_alpha   89.99447946
_cell_angle_beta   89.96115259
_cell_angle_gamma   89.97440418
_symmetry_Int_Tables_number   1
_chemical_formula_structural   CuSiH8C24N12(O8F3)2
_chemical_formula_sum   'Cu1 Si1 H8 C24 N12 O16 F6'
_cell_volume   1581.68265051
_cell_formula_units_Z   1
loop_
 _symmetry_equiv_pos_site_id
 _symmetry_equiv_pos_as_xyz
  1  'x, y, z'
loop_
 _atom_site_type_symbol
 _atom_site_label
 _atom_site_symmetry_multiplicity
 _atom_site_fract_x
 _atom_site_fract_y
 _atom_site_fract_z
 _atom_site_occupancy
  Cu  Cu0  1  0.50002491  0.49998455  0.49998808  1.0
  Si  Si1  1  0.99997581  0.49990578  0.50000776  1.0
  H  H2  1  0.25754675  0.65391522  0.53613533  1.0
  H  H3  1  0.74251484  0.65381426  0.46382384  1.0
  H  H4  1  0.25759771  0.34616997  0.46382388  1.0
  H  H5  1  0.74241652  0.34607446  0.53618680  1.0
  H  H6  1  0.25770471  0.46385411  0.65393258  1.0
  H  H7  1  0.74255496  0.53618397  0.65382286  1.0
  H  H8  1  0.25745513  0.53618587  0.34620377  1.0
  H  H9  1  0.74239784  0.46385857  0.34606018  1.0
  C  C10  1  0.36488385  0.69601916  0.52006360  1.0
  C  C11  1  0.36230092  0.79706675  0.51776657  1.0
  C  C12  1  0.50000703  0.85277870  0.49998933  1.0
  C  C13  1  0.63771962  0.79700339  0.48220798  1.0
  C  C14  1  0.63516222  0.69595745  0.47990901  1.0
  C  C15  1  0.50001561  0.95561628  0.49998656  1.0
  C  C16  1  0.50006989  0.04438197  0.49998522  1.0
  C  C17  1  0.50006181  0.14721955  0.49999194  1.0
  C  C18  1  0.36237609  0.20298928  0.48222361  1.0
  C  C19  1  0.36492534  0.30403617  0.47991312  1.0
  C  C20  1  0.63511749  0.30397717  0.52009286  1.0
  C  C21  1  0.63772201  0.20293052  0.51777240  1.0
  C  C22  1  0.36500126  0.47992383  0.69603338  1.0
  C  C23  1  0.36236279  0.48223028  0.79707391  1.0
  C  C24  1  0.50001469  0.50000548  0.85278314  1.0
  C  C25  1  0.63772252  0.51778166  0.79700497  1.0
  C  C26  1  0.63520810  0.52008543  0.69595727  1.0
  C  C27  1  0.49997784  0.50000418  0.95562970  1.0
  C  C28  1  0.49999105  0.50000867  0.04437856  1.0
  C  C29  1  0.49997442  0.50001393  0.14722512  1.0
  C  C30  1  0.36226184  0.51779367  0.20301324  1.0
  C  C31  1  0.36481026  0.52009067  0.30405707  1.0
  C  C32  1  0.63507639  0.47992866  0.30396075  1.0
  C  C33  1  0.63767152  0.48224048  0.20291710  1.0
  N  N34  1  0.50002672  0.64714948  0.49998464  1.0
  N  N35  1  0.50001595  0.35284076  0.50000100  1.0
  N  N36  1  0.50012168  0.50000370  0.64715489  1.0
  N  N37  1  0.49993644  0.50000768  0.35284388  1.0
  N  N38  1  0.79093747  0.84630587  0.46680584  1.0
  N  N39  1  0.20908126  0.84643629  0.53322811  1.0
  N  N40  1  0.79090905  0.15355950  0.53322993  1.0
  N  N41  1  0.20918959  0.15367297  0.46686998  1.0
  N  N42  1  0.79088479  0.53318942  0.84632069  1.0
  N  N43  1  0.20912792  0.46679226  0.84642977  1.0
  N  N44  1  0.79089754  0.46679770  0.15353720  1.0
  N  N45  1  0.20906800  0.53320984  0.15371791  1.0
  O  O46  1  0.83090170  0.90370675  0.53133096  1.0
  O  O47  1  0.86387961  0.82468157  0.39165304  1.0
  O  O48  1  0.16915678  0.90401096  0.46882356  1.0
  O  O49  1  0.13610870  0.82468970  0.60833124  1.0
  O  O50  1  0.83098830  0.09600486  0.46880998  1.0
  O  O51  1  0.86369713  0.17526973  0.60833724  1.0
  O  O52  1  0.16915848  0.09627317  0.53141646  1.0
  O  O53  1  0.13633801  0.17528407  0.39173071  1.0
  O  O54  1  0.83091682  0.46867565  0.90375559  1.0
  O  O55  1  0.86370692  0.60833844  0.82468715  1.0
  O  O56  1  0.16908683  0.53119844  0.90399679  1.0
  O  O57  1  0.13624895  0.39171533  0.82467180  1.0
  O  O58  1  0.83088052  0.53124596  0.09600264  1.0
  O  O59  1  0.86382225  0.39168067  0.17522950  1.0
  O  O60  1  0.16911434  0.46871318  0.09627827  1.0
  O  O61  1  0.13614063  0.60835103  0.17537339  1.0
  F  F62  1  0.21257811  0.50008039  0.50034066  1.0
  F  F63  1  0.78736109  0.49976478  0.49967126  1.0
  F  F64  1  0.00019866  0.58752519  0.41249076  1.0
  F  F65  1  0.99971438  0.41229301  0.58751971  1.0
  F  F66  1  0.99922167  0.58742277  0.58760834  1.0
  F  F67  1  0.00073539  0.41240345  0.41239629  1.0
