# generated using pymatgen
data_ZnH15C21S2N3O10
_symmetry_space_group_name_H-M   'P 1'
_cell_length_a   15.89036967
_cell_length_b   17.04815257
_cell_length_c   17.24667951
_cell_angle_alpha   89.79783045
_cell_angle_beta   87.33022051
_cell_angle_gamma   85.86602529
_symmetry_Int_Tables_number   1
_chemical_formula_structural   ZnH15C21S2N3O10
_chemical_formula_sum   'Zn2 H30 C42 S4 N6 O20'
_cell_volume   4654.93637145
_cell_formula_units_Z   2
loop_
 _symmetry_equiv_pos_site_id
 _symmetry_equiv_pos_as_xyz
  1  'x, y, z'
loop_
 _atom_site_type_symbol
 _atom_site_label
 _atom_site_symmetry_multiplicity
 _atom_site_fract_x
 _atom_site_fract_y
 _atom_site_fract_z
 _atom_site_occupancy
  Zn  Zn0  1  0.40945653  0.50769278  0.49471009  1.0
  Zn  Zn1  1  0.58997885  0.51257493  0.51011023  1.0
  H  H2  1  0.59265015  0.42025586  0.72999324  1.0
  H  H3  1  0.40501162  0.42713066  0.01052941  1.0
  H  H4  1  0.33627100  0.47877400  0.89927553  1.0
  H  H5  1  0.66063230  0.47820402  0.10034832  1.0
  H  H6  1  0.41588558  0.38537329  0.13322452  1.0
  H  H7  1  0.59365044  0.38076798  0.86832494  1.0
  H  H8  1  0.40568863  0.27507524  0.44022589  1.0
  H  H9  1  0.59000010  0.75623451  0.54316575  1.0
  H  H10  1  0.41037192  0.12851321  0.42142141  1.0
  H  H11  1  0.59111738  0.90308427  0.52887573  1.0
  H  H12  1  0.37650726  0.90233574  0.38726095  1.0
  H  H13  1  0.41363768  0.42388535  0.27128050  1.0
  H  H14  1  0.64873158  0.10540550  0.52905351  1.0
  H  H15  1  0.81575858  0.64975666  0.67168778  1.0
  H  H16  1  0.90190591  0.57861895  0.68215138  1.0
  H  H17  1  0.91267107  0.65635994  0.61575846  1.0
  H  H18  1  0.18348437  0.32893359  0.38686424  1.0
  H  H19  1  0.08499587  0.33960814  0.44181965  1.0
  H  H20  1  0.09872158  0.39325282  0.35533556  1.0
  H  H21  1  0.63495592  0.57399416  0.33789455  1.0
  H  H22  1  0.35325023  0.57984899  0.66413634  1.0
  H  H23  1  0.24544607  0.82631322  0.35441376  1.0
  H  H24  1  0.25975822  0.60561908  0.55780118  1.0
  H  H25  1  0.77847498  0.17669750  0.57508778  1.0
  H  H26  1  0.73884666  0.44182259  0.42211013  1.0
  H  H27  1  0.10264586  0.59588776  0.56610973  1.0
  H  H28  1  0.89581642  0.44987559  0.42103462  1.0
  H  H29  1  0.70249657  0.59044539  0.61256974  1.0
  H  H30  1  0.29606587  0.40477798  0.42228270  1.0
  H  H31  1  0.59861665  0.42635467  0.99030105  1.0
  C  C32  1  0.48672315  0.65982680  0.49058281  1.0
  C  C33  1  0.53065385  0.10917017  0.47401026  1.0
  C  C34  1  0.42211985  0.86944533  0.42208185  1.0
  C  C35  1  0.59726640  0.14393441  0.50797949  1.0
  C  C36  1  0.42098579  0.78809153  0.43082816  1.0
  C  C37  1  0.59499209  0.22511609  0.51726734  1.0
  C  C38  1  0.76804252  0.47602999  0.46520905  1.0
  C  C39  1  0.23061410  0.55837108  0.52929072  1.0
  C  C40  1  0.85475438  0.48018944  0.46525704  1.0
  C  C41  1  0.14404620  0.55345174  0.53292150  1.0
  C  C42  1  0.88849174  0.52596396  0.52176665  1.0
  C  C43  1  0.51623374  0.36074032  0.50076650  1.0
  C  C44  1  0.11009243  0.49211897  0.49373900  1.0
  C  C45  1  0.83462363  0.56732470  0.57752700  1.0
  C  C46  1  0.16382883  0.43648694  0.45141983  1.0
  C  C47  1  0.47911292  0.49922497  0.65338624  1.0
  C  C48  1  0.52025975  0.49429177  0.34937413  1.0
  C  C49  1  0.74832423  0.55976890  0.57206920  1.0
  C  C50  1  0.25027910  0.44605145  0.45254856  1.0
  C  C51  1  0.46647067  0.47345199  0.73605404  1.0
  C  C52  1  0.53422491  0.47208852  0.26542060  1.0
  C  C53  1  0.53729927  0.43364379  0.76852458  1.0
  C  C54  1  0.48211167  0.74683507  0.47554220  1.0
  C  C55  1  0.46770653  0.43507389  0.23285780  1.0
  C  C56  1  0.53756416  0.41198644  0.84596293  1.0
  C  C57  1  0.46877761  0.41445900  0.15531448  1.0
  C  C58  1  0.46637667  0.43114044  0.89568903  1.0
  C  C59  1  0.53707472  0.43205555  0.10502321  1.0
  C  C60  1  0.39318427  0.46528922  0.86264709  1.0
  C  C61  1  0.60594166  0.46515314  0.13741238  1.0
  C  C62  1  0.39220521  0.48614760  0.78450010  1.0
  C  C63  1  0.60544518  0.48498877  0.21574983  1.0
  C  C64  1  0.46691593  0.42355720  0.97974222  1.0
  C  C65  1  0.52499597  0.27286316  0.49306597  1.0
  C  C66  1  0.53723011  0.42364387  0.02112908  1.0
  C  C67  1  0.86766024  0.61584758  0.64009451  1.0
  C  C68  1  0.13127471  0.37074997  0.40664932  1.0
  C  C69  1  0.54335361  0.78950800  0.50942889  1.0
  C  C70  1  0.45933663  0.23699588  0.45821265  1.0
  C  C71  1  0.54444182  0.87015933  0.50144276  1.0
  C  C72  1  0.46156440  0.15632281  0.44778545  1.0
  C  C73  1  0.48326181  0.91067299  0.45736209  1.0
  S  S74  1  0.70356593  0.52132683  0.24356470  1.0
  S  S75  1  0.29011213  0.52554366  0.75480839  1.0
  S  S76  1  0.34131135  0.73874518  0.38228049  1.0
  S  S77  1  0.67992960  0.26670901  0.56456076  1.0
  N  N78  1  0.47623743  0.99342546  0.44861092  1.0
  N  N79  1  0.53832443  0.02635403  0.47420129  1.0
  N  N80  1  0.71598538  0.51592172  0.51751959  1.0
  N  N81  1  0.28275039  0.50478811  0.49030628  1.0
  N  N82  1  0.97555626  0.53713418  0.52267864  1.0
  N  N83  1  0.02277010  0.48010290  0.49538920  1.0
  O  O84  1  0.42230970  0.62356829  0.47639243  1.0
  O  O85  1  0.74761008  0.54821989  0.17490722  1.0
  O  O86  1  0.67535642  0.59547604  0.29433332  1.0
  O  O87  1  0.25866724  0.46895961  0.70332519  1.0
  O  O88  1  0.24035501  0.55089595  0.82313001  1.0
  O  O89  1  0.31145643  0.60200573  0.70825495  1.0
  O  O90  1  0.38162504  0.68354603  0.32759783  1.0
  O  O91  1  0.27424138  0.71949839  0.43687701  1.0
  O  O92  1  0.30084706  0.81054803  0.32989944  1.0
  O  O93  1  0.74137832  0.29382038  0.50845188  1.0
  O  O94  1  0.64470230  0.31470753  0.62771390  1.0
  O  O95  1  0.58228389  0.39660474  0.48558474  1.0
  O  O96  1  0.72478284  0.18864278  0.60426293  1.0
  O  O97  1  0.55522219  0.62951960  0.51698236  1.0
  O  O98  1  0.44284244  0.39144241  0.51906018  1.0
  O  O99  1  0.41636252  0.53006689  0.61598938  1.0
  O  O100  1  0.57674419  0.52882400  0.38522056  1.0
  O  O101  1  0.55313619  0.48936291  0.62315422  1.0
  O  O102  1  0.45118712  0.47711493  0.38248857  1.0
  O  O103  1  0.74430927  0.46029684  0.29020891  1.0
