# generated using pymatgen
data_ZnH36C31NO4F3
_symmetry_space_group_name_H-M   'P 1'
_cell_length_a   8.78303557
_cell_length_b   16.90022302
_cell_length_c   17.62214679
_cell_angle_alpha   94.50581593
_cell_angle_beta   98.43769026
_cell_angle_gamma   98.34733175
_symmetry_Int_Tables_number   1
_chemical_formula_structural   ZnH36C31NO4F3
_chemical_formula_sum   'Zn2 H72 C62 N2 O8 F6'
_cell_volume   2546.66289629
_cell_formula_units_Z   2
loop_
 _symmetry_equiv_pos_site_id
 _symmetry_equiv_pos_as_xyz
  1  'x, y, z'
loop_
 _atom_site_type_symbol
 _atom_site_label
 _atom_site_symmetry_multiplicity
 _atom_site_fract_x
 _atom_site_fract_y
 _atom_site_fract_z
 _atom_site_occupancy
  Zn  Zn0  1  0.48403376  0.40877850  0.49739300  1.0
  Zn  Zn1  1  0.48620351  0.58997911  0.48814297  1.0
  H  H2  1  0.00233866  0.58829947  0.48641063  1.0
  H  H3  1  0.58662471  0.83887239  0.77899365  1.0
  H  H4  1  0.54452045  0.80826467  0.67840203  1.0
  H  H5  1  0.40166927  0.84595637  0.72593324  1.0
  H  H6  1  0.34396486  0.69456953  0.69906784  1.0
  H  H7  1  0.37170749  0.72639810  0.79864579  1.0
  H  H8  1  0.64472938  0.69629935  0.81265747  1.0
  H  H9  1  0.61727965  0.66563635  0.71182215  1.0
  H  H10  1  0.73602152  0.75244817  0.05701782  1.0
  H  H11  1  0.57167551  0.78825419  0.08628727  1.0
  H  H12  1  0.76060471  0.82405013  0.13913867  1.0
  H  H13  1  0.96616379  0.40457764  0.49031967  1.0
  H  H14  1  0.61568442  0.72258068  0.20992773  1.0
  H  H15  1  0.77896608  0.68648086  0.18135327  1.0
  H  H16  1  0.60521004  0.61368704  0.06076496  1.0
  H  H17  1  0.44440218  0.64585352  0.09284605  1.0
  H  H18  1  0.13671417  0.23654822  0.90943383  1.0
  H  H19  1  0.01096150  0.22365815  0.81934132  1.0
  H  H20  1  0.16654934  0.16725855  0.83395901  1.0
  H  H21  1  0.24308010  0.28003150  0.75631923  1.0
  H  H22  1  0.36052490  0.29638507  0.84814418  1.0
  H  H23  1  0.17373957  0.38524406  0.89307128  1.0
  H  H24  1  0.53653130  0.19630223  0.32563278  1.0
  H  H25  1  0.07133254  0.37329375  0.79761720  1.0
  H  H26  1  0.05200288  0.14546840  0.68940068  1.0
  H  H27  1  0.97047592  0.04993722  0.63895443  1.0
  H  H28  1  0.11984973  0.11270695  0.60402945  1.0
  H  H29  1  0.85925451  0.11682788  0.52572614  1.0
  H  H30  1  0.94069550  0.21231977  0.57365420  1.0
  H  H31  1  0.77234717  0.19190597  0.67472186  1.0
  H  H32  1  0.70145311  0.09224083  0.63377083  1.0
  H  H33  1  0.06507377  0.98298191  0.38708595  1.0
  H  H34  1  0.96126757  0.88610505  0.35007936  1.0
  H  H35  1  0.46065030  0.15348613  0.22976835  1.0
  H  H36  1  0.92852608  0.93231658  0.43904413  1.0
  H  H37  1  0.09782907  0.82725945  0.46425507  1.0
  H  H38  1  0.20143570  0.92333434  0.49999923  1.0
  H  H39  1  0.32772943  0.92874390  0.38149013  1.0
  H  H40  1  0.22325378  0.83277617  0.34492782  1.0
  H  H41  1  0.80506604  0.37039980  0.78681328  1.0
  H  H42  1  0.69469790  0.44271185  0.74910348  1.0
  H  H43  1  0.62525175  0.38158116  0.81803334  1.0
  H  H44  1  0.47991188  0.33166138  0.68592157  1.0
  H  H45  1  0.58968052  0.25899942  0.72197721  1.0
  H  H46  1  0.66449565  0.16770166  0.26328598  1.0
  H  H47  1  0.80035522  0.31059776  0.64512010  1.0
  H  H48  1  0.68848537  0.38252691  0.61208309  1.0
  H  H49  1  0.17703552  0.56888928  0.26860215  1.0
  H  H50  1  0.06990986  0.64807471  0.24655844  1.0
  H  H51  1  0.21213201  0.62455775  0.18983909  1.0
  H  H52  1  0.32378342  0.74755958  0.28124668  1.0
  H  H53  1  0.42362620  0.66702833  0.30452141  1.0
  H  H54  1  0.25788927  0.63459078  0.40525758  1.0
  H  H55  1  0.16197301  0.71663117  0.38590375  1.0
  H  H56  1  0.99078391  0.32002333  0.36770589  1.0
  H  H57  1  0.60952625  0.27608586  0.18078328  1.0
  H  H58  1  0.94904473  0.21825523  0.32675964  1.0
  H  H59  1  0.85899105  0.24943873  0.40545610  1.0
  H  H60  1  0.07917212  0.17529236  0.45091671  1.0
  H  H61  1  0.11875527  0.27671830  0.49207397  1.0
  H  H62  1  0.28331972  0.31392353  0.39338363  1.0
  H  H63  1  0.24469574  0.21333397  0.35000591  1.0
  H  H64  1  0.05460847  0.74805547  0.66935452  1.0
  H  H65  1  0.00011532  0.64972300  0.62071436  1.0
  H  H66  1  0.14564708  0.71846609  0.59036151  1.0
  H  H67  1  0.89461836  0.71000660  0.49945162  1.0
  H  H68  1  0.66919146  0.31863955  0.27736987  1.0
  H  H69  1  0.94577207  0.80699631  0.55080512  1.0
  H  H70  1  0.76538795  0.76504626  0.64314168  1.0
  H  H71  1  0.71251380  0.66892452  0.59110252  1.0
  H  H72  1  0.39099393  0.31774473  0.29309265  1.0
  H  H73  1  0.33040148  0.27688227  0.19530395  1.0
  C  C74  1  0.45463204  0.52313460  0.63783153  1.0
  C  C75  1  0.62686978  0.76459614  0.53422984  1.0
  C  C76  1  0.40806738  0.14938441  0.45872101  1.0
  C  C77  1  0.63409624  0.84755529  0.53699774  1.0
  C  C78  1  0.52233176  0.12291746  0.50989446  1.0
  C  C79  1  0.52353682  0.88397377  0.49318592  1.0
  C  C80  1  0.53385682  0.04051314  0.50558571  1.0
  C  C81  1  0.53266434  0.96814806  0.50024438  1.0
  C  C82  1  0.77813441  0.51789971  0.50006510  1.0
  C  C83  1  0.19017438  0.47929248  0.48032824  1.0
  C  C84  1  0.94418900  0.52782957  0.49117576  1.0
  C  C85  1  0.49270433  0.47336051  0.34576938  1.0
  C  C86  1  0.02254057  0.46581537  0.48716424  1.0
  C  C87  1  0.42537912  0.40741592  0.13183018  1.0
  C  C88  1  0.46618118  0.57365375  0.85189493  1.0
  C  C89  1  0.44854992  0.39857251  0.21035791  1.0
  C  C90  1  0.48197453  0.58784225  0.77657319  1.0
  C  C91  1  0.50281952  0.46971367  0.26068164  1.0
  C  C92  1  0.41220765  0.52540711  0.71787631  1.0
  C  C93  1  0.54918611  0.54154741  0.22877329  1.0
  C  C94  1  0.31392031  0.45981760  0.73852185  1.0
  C  C95  1  0.52539302  0.55113335  0.15052779  1.0
  C  C96  1  0.41903673  0.48474224  0.02059324  1.0
  C  C97  1  0.29508831  0.44641235  0.81371369  1.0
  C  C98  1  0.45486190  0.48077608  0.10061696  1.0
  C  C99  1  0.38280249  0.50356280  0.87300337  1.0
  C  C100  1  0.42427955  0.31531619  0.23574240  1.0
  C  C101  1  0.57528825  0.27831351  0.23850063  1.0
  C  C102  1  0.55815245  0.19435706  0.26565882  1.0
  C  C103  1  0.55839428  0.66982242  0.76218500  1.0
  C  C104  1  0.43170273  0.72382809  0.74801929  1.0
  C  C105  1  0.49485847  0.80882526  0.73209303  1.0
  C  C106  1  0.55863216  0.62851735  0.11396246  1.0
  C  C107  1  0.39237175  0.49209615  0.95178527  1.0
  C  C108  1  0.66448880  0.70220872  0.15926017  1.0
  C  C109  1  0.68466413  0.77050930  0.10773254  1.0
  C  C110  1  0.18740462  0.37528902  0.83214489  1.0
  C  C111  1  0.24032501  0.29332279  0.81819777  1.0
  C  C112  1  0.13298711  0.22647100  0.84669494  1.0
  C  C113  1  0.74410268  0.15313618  0.61999722  1.0
  C  C114  1  0.89222277  0.15076321  0.58321280  1.0
  C  C115  1  0.01537264  0.11268588  0.63165955  1.0
  C  C116  1  0.27573888  0.87082814  0.39833396  1.0
  C  C117  1  0.14762194  0.88514809  0.44651491  1.0
  C  C118  1  0.61752392  0.18063091  0.56592934  1.0
  C  C119  1  0.01857522  0.92378162  0.40323698  1.0
  C  C120  1  0.67993508  0.32200386  0.63042926  1.0
  C  C121  1  0.59936439  0.31970255  0.70245910  1.0
  C  C122  1  0.68597136  0.38191279  0.76777795  1.0
  C  C123  1  0.27398538  0.69470020  0.38567302  1.0
  C  C124  1  0.31079621  0.68786825  0.30286697  1.0
  C  C125  1  0.18524339  0.62923861  0.24885808  1.0
  C  C126  1  0.25778289  0.25115822  0.40496145  1.0
  C  C127  1  0.10367352  0.23799399  0.43749605  1.0
  C  C128  1  0.96805223  0.25745065  0.38127065  1.0
  C  C129  1  0.40155917  0.83338616  0.44304377  1.0
  C  C130  1  0.75073526  0.73231441  0.58530117  1.0
  C  C131  1  0.90926660  0.74311006  0.55697466  1.0
  C  C132  1  0.03409607  0.71327895  0.61232116  1.0
  C  C133  1  0.59302108  0.26118611  0.56618534  1.0
  C  C134  1  0.39865038  0.74972626  0.44078761  1.0
  C  C135  1  0.38917174  0.22958927  0.45948447  1.0
  N  N136  1  0.48436868  0.28468895  0.51253446  1.0
  N  N137  1  0.50817489  0.71684388  0.48578070  1.0
  O  O138  1  0.45624304  0.45297614  0.60652222  1.0
  O  O139  1  0.44754005  0.53603319  0.37326617  1.0
  O  O140  1  0.49124895  0.58865727  0.60912161  1.0
  O  O141  1  0.52184813  0.41362148  0.38221759  1.0
  O  O142  1  0.71701267  0.45171276  0.52039418  1.0
  O  O143  1  0.25777781  0.55203724  0.48871826  1.0
  O  O144  1  0.71041485  0.57831644  0.48610026  1.0
  O  O145  1  0.25285569  0.41702993  0.46847757  1.0
  F  F146  1  0.36893257  0.34050468  0.08107229  1.0
  F  F147  1  0.53735833  0.63120675  0.91028375  1.0
  F  F148  1  0.62449481  0.60595920  0.27878893  1.0
  F  F149  1  0.22649737  0.40500040  0.68173104  1.0
  F  F150  1  0.31155773  0.09418770  0.40610541  1.0
  F  F151  1  0.75170337  0.89562508  0.58585254  1.0
