# generated using pymatgen
data_Zn8H69C61NO26
_symmetry_space_group_name_H-M   'P 1'
_cell_length_a   18.22991186
_cell_length_b   18.23292596
_cell_length_c   18.25645262
_cell_angle_alpha   90.08993346
_cell_angle_beta   119.91076638
_cell_angle_gamma   119.92924554
_symmetry_Int_Tables_number   1
_chemical_formula_structural   Zn8H69C61NO26
_chemical_formula_sum   'Zn8 H69 C61 N1 O26'
_cell_volume   4297.84029995
_cell_formula_units_Z   1
loop_
 _symmetry_equiv_pos_site_id
 _symmetry_equiv_pos_as_xyz
  1  'x, y, z'
loop_
 _atom_site_type_symbol
 _atom_site_label
 _atom_site_symmetry_multiplicity
 _atom_site_fract_x
 _atom_site_fract_y
 _atom_site_fract_z
 _atom_site_occupancy
  Zn  Zn0  1  0.41086633  0.54191521  0.45553821  1.0
  Zn  Zn1  1  0.58696388  0.54376962  0.45460666  1.0
  Zn  Zn2  1  0.41440583  0.37066408  0.45801168  1.0
  Zn  Zn3  1  0.58973348  0.54401167  0.63385993  1.0
  Zn  Zn4  1  0.58703476  0.95573401  0.04539560  1.0
  Zn  Zn5  1  0.58955899  0.13403685  0.04475063  1.0
  Zn  Zn6  1  0.41051226  0.95538942  0.04146835  1.0
  Zn  Zn7  1  0.41406014  0.95606442  0.86960005  1.0
  H  H8  1  0.32826376  0.67411415  0.72047401  1.0
  H  H9  1  0.91021585  0.21642969  0.08720925  1.0
  H  H10  1  0.65992766  0.39311206  0.80416491  1.0
  H  H11  1  0.45377628  0.60764584  0.77963875  1.0
  H  H12  1  0.63241611  0.22028443  0.80744323  1.0
  H  H13  1  0.66451021  0.30075923  0.89242737  1.0
  H  H14  1  0.52091747  0.38804853  0.79710052  1.0
  H  H15  1  0.52271409  0.29814966  0.88859380  1.0
  H  H16  1  0.34505896  0.18482660  0.59536323  1.0
  H  H17  1  0.44167294  0.18636787  0.59549857  1.0
  H  H18  1  0.44486668  0.09706997  0.68788703  1.0
  H  H19  1  0.90924960  0.29987875  0.27348319  1.0
  H  H20  1  0.34545933  0.09353317  0.68492269  1.0
  H  H21  1  0.38984238  0.30191127  0.71269910  1.0
  H  H22  1  0.62721098  0.78115059  0.90840885  1.0
  H  H23  1  0.39110927  0.21345353  0.80425537  1.0
  H  H24  1  0.90897618  0.77345850  0.79930537  1.0
  H  H25  1  0.90990636  0.82285812  0.71620624  1.0
  H  H26  1  0.08984211  0.91282235  0.80626669  1.0
  H  H27  1  0.09033396  0.86407264  0.89001115  1.0
  H  H28  1  0.90894117  0.63575955  0.79957394  1.0
  H  H29  1  0.09034858  0.72636129  0.89022441  1.0
  H  H30  1  0.09082873  0.39034316  0.22653909  1.0
  H  H31  1  0.90965778  0.65604359  0.59561219  1.0
  H  H32  1  0.90957774  0.75225927  0.59528958  1.0
  H  H33  1  0.09042514  0.84272538  0.68565717  1.0
  H  H34  1  0.67203879  0.82582378  0.77967466  1.0
  H  H35  1  0.09051451  0.74652157  0.68591708  1.0
  H  H36  1  0.90975128  0.58662189  0.71666644  1.0
  H  H37  1  0.08979713  0.67661780  0.80657471  1.0
  H  H38  1  0.52608356  0.39040367  0.22660253  1.0
  H  H39  1  0.39353612  0.30659018  0.17733066  1.0
  H  H40  1  0.39351299  0.21637792  0.08726675  1.0
  H  H41  1  0.90941671  0.29974137  0.13583155  1.0
  H  H42  1  0.52603400  0.29947487  0.13576266  1.0
  H  H43  1  0.66377564  0.39031652  0.36416482  1.0
  H  H44  1  0.66377024  0.29942078  0.27331634  1.0
  H  H45  1  0.43875384  0.18593397  0.34338691  1.0
  H  H46  1  0.54645579  0.89222175  0.72048068  1.0
  H  H47  1  0.34260693  0.18595630  0.24743122  1.0
  H  H48  1  0.34260358  0.09540299  0.15684599  1.0
  H  H49  1  0.43865914  0.09524119  0.25276405  1.0
  H  H50  1  0.62924967  0.30641619  0.41279535  1.0
  H  H51  1  0.62927150  0.21621769  0.32268757  1.0
  H  H52  1  0.09039921  0.18559152  0.24702600  1.0
  H  H53  1  0.66374048  0.77347321  0.36408127  1.0
  H  H54  1  0.62912780  0.82293126  0.41276878  1.0
  H  H55  1  0.62915578  0.91297837  0.32283953  1.0
  H  H56  1  0.66362305  0.86414890  0.27334247  1.0
  H  H57  1  0.52624451  0.63571963  0.22649410  1.0
  H  H58  1  0.37312332  0.71870115  0.59177893  1.0
  H  H59  1  0.52623699  0.72648634  0.13590555  1.0
  H  H60  1  0.34248997  0.65667908  0.24736560  1.0
  H  H61  1  0.43859380  0.75288770  0.34339396  1.0
  H  H62  1  0.43845612  0.84333516  0.25296051  1.0
  H  H63  1  0.09021279  0.18556610  0.34306582  1.0
  H  H64  1  0.34237166  0.74709893  0.15693514  1.0
  H  H65  1  0.39362447  0.58693574  0.17713887  1.0
  H  H66  1  0.39360443  0.67693909  0.08719053  1.0
  H  H67  1  0.09060746  0.39043383  0.36407930  1.0
  H  H68  1  0.08975181  0.30650876  0.41276727  1.0
  H  H69  1  0.90982373  0.21660964  0.32284173  1.0
  H  H70  1  0.61646622  0.25525191  0.67698307  1.0
  H  H71  1  0.78540918  0.36367494  0.71844525  1.0
  H  H72  1  0.79732967  0.34886336  0.81961571  1.0
  H  H73  1  0.79705333  0.44170357  0.78888562  1.0
  H  H74  1  0.90936921  0.09530047  0.25268699  1.0
  H  H75  1  0.90956026  0.09533641  0.15665552  1.0
  H  H76  1  0.09015403  0.30635256  0.17709113  1.0
  C  C77  1  0.78054119  0.64014376  0.64063086  1.0
  C  C78  1  0.05980246  0.19943650  0.27982910  1.0
  C  C79  1  0.10120783  0.29907771  0.30053691  1.0
  C  C80  1  0.21926616  0.35984791  0.35955434  1.0
  C  C81  1  0.89877734  0.19803837  0.19939396  1.0
  C  C82  1  0.94007488  0.25887677  0.15145916  1.0
  C  C83  1  0.94004839  0.13966194  0.21998409  1.0
  C  C84  1  0.61003244  0.32266111  0.76128934  1.0
  C  C85  1  0.60895744  0.26112550  0.82070270  1.0
  C  C86  1  0.46750485  0.31648766  0.75681084  1.0
  C  C87  1  0.42250569  0.19942050  0.64004906  1.0
  C  C88  1  0.57098529  0.76676945  0.83778645  1.0
  C  C89  1  0.49927537  0.29905459  0.69805599  1.0
  C  C90  1  0.49953028  0.19806371  0.79943824  1.0
  C  C91  1  0.46810065  0.25699338  0.81735319  1.0
  C  C92  1  0.49992693  0.63987298  0.35925094  1.0
  C  C93  1  0.42300893  0.13967327  0.70001279  1.0
  C  C94  1  0.93975431  0.78843413  0.75857633  1.0
  C  C95  1  0.05985453  0.84846337  0.81864798  1.0
  C  C96  1  0.93972744  0.65113764  0.75883873  1.0
  C  C97  1  0.94012285  0.71953858  0.63972519  1.0
  C  C98  1  0.89863215  0.69910165  0.69785251  1.0
  C  C99  1  0.59581060  0.79292223  0.76733258  1.0
  C  C100  1  0.10112068  0.80030766  0.79902863  1.0
  C  C101  1  0.05981375  0.71115670  0.81884975  1.0
  C  C102  1  0.05988697  0.77943886  0.69955583  1.0
  C  C103  1  0.47025428  0.31894573  0.21157244  1.0
  C  C104  1  0.50107525  0.36007923  0.64095139  1.0
  C  C105  1  0.47024122  0.25877785  0.15147542  1.0
  C  C106  1  0.60737228  0.31885137  0.34854192  1.0
  C  C107  1  0.41970368  0.19967578  0.28007947  1.0
  C  C108  1  0.49853363  0.29926402  0.30068343  1.0
  C  C109  1  0.49856172  0.19783463  0.19937759  1.0
  C  C110  1  0.52593904  0.82835784  0.73287434  1.0
  C  C111  1  0.60737861  0.25867952  0.28841565  1.0
  C  C112  1  0.41968508  0.13967008  0.22010668  1.0
  C  C113  1  0.60725720  0.78850556  0.34849784  1.0
  C  C114  1  0.60721958  0.84858350  0.28846053  1.0
  C  C115  1  0.47030081  0.65129009  0.21145837  1.0
  C  C116  1  0.50010948  0.36020087  0.35957940  1.0
  C  C117  1  0.41954803  0.72002525  0.28004663  1.0
  C  C118  1  0.49846920  0.69929573  0.30059373  1.0
  C  C119  1  0.49835974  0.80057576  0.19943419  1.0
  C  C120  1  0.47026937  0.71135352  0.15145970  1.0
  C  C121  1  0.42934591  0.73311637  0.66241905  1.0
  C  C122  1  0.41945768  0.77991316  0.22017810  1.0
  C  C123  1  0.50112784  0.14076889  0.86030876  1.0
  C  C124  1  0.49989269  0.85937586  0.14021052  1.0
  C  C125  1  0.78073296  0.14085981  0.14056992  1.0
  C  C126  1  0.21917498  0.85924997  0.85980204  1.0
  C  C127  1  0.50016311  0.14053681  0.14005224  1.0
  C  C128  1  0.49897231  0.63953800  0.63903992  1.0
  C  C129  1  0.50088251  0.85983905  0.86118129  1.0
  C  C130  1  0.47437045  0.67153905  0.76733299  1.0
  C  C131  1  0.40451286  0.70696687  0.73285758  1.0
  C  C132  1  0.49836437  0.69733975  0.69568936  1.0
  C  C133  1  0.50203418  0.80257201  0.80459684  1.0
  C  C134  1  0.76256862  0.37008311  0.76226478  1.0
  C  C135  1  0.05992989  0.31893070  0.34850586  1.0
  C  C136  1  0.93985208  0.25897402  0.28850911  1.0
  C  C137  1  0.06015347  0.31884480  0.21146236  1.0
  N  N138  1  0.65003223  0.32019211  0.70956557  1.0
  O  O139  1  0.50254335  0.50207950  0.50195601  1.0
  O  O140  1  0.26184297  0.88049337  0.94424886  1.0
  O  O141  1  0.56338572  0.18223621  0.11875017  1.0
  O  O142  1  0.73792973  0.61860911  0.68251202  1.0
  O  O143  1  0.43785482  0.88151058  0.81953445  1.0
  O  O144  1  0.43827599  0.05564469  0.11614937  1.0
  O  O145  1  0.56233383  0.88230285  0.94597072  1.0
  O  O146  1  0.73394919  0.05598330  0.11807272  1.0
  O  O147  1  0.26651169  0.88291075  0.82217975  1.0
  O  O148  1  0.56397329  0.18240402  0.94469545  1.0
  O  O149  1  0.43762009  0.88207709  0.11563792  1.0
  O  O150  1  0.43764320  0.61553330  0.38187696  1.0
  O  O151  1  0.26204391  0.44440784  0.38052459  1.0
  O  O152  1  0.56341566  0.61877645  0.38091766  1.0
  O  O153  1  0.43787006  0.32197421  0.55627214  1.0
  O  O154  1  0.56308039  0.44473027  0.38092871  1.0
  O  O155  1  0.56204432  0.61796578  0.68038755  1.0
  O  O156  1  0.43840994  0.32229890  0.38278110  1.0
  O  O157  1  0.43634648  0.61652318  0.55428839  1.0
  O  O158  1  0.56368032  0.44453862  0.68263396  1.0
  O  O159  1  0.73377913  0.61711957  0.55587804  1.0
  O  O160  1  0.26647443  0.32210002  0.38358582  1.0
  O  O161  1  0.50158350  0.00194917  0.00091232  1.0
  O  O162  1  0.43948163  0.05588006  0.82223914  1.0
  O  O163  1  0.56372581  0.88129491  0.11948436  1.0
  O  O164  1  0.73789292  0.18260184  0.11850313  1.0
