# generated using pymatgen
data_ZnH8C20(N3O7)2
_symmetry_space_group_name_H-M   'P 1'
_cell_length_a   13.96165349
_cell_length_b   15.33110324
_cell_length_c   17.17916037
_cell_angle_alpha   91.58737233
_cell_angle_beta   96.42011175
_cell_angle_gamma   90.81423531
_symmetry_Int_Tables_number   1
_chemical_formula_structural   ZnH8C20(N3O7)2
_chemical_formula_sum   'Zn2 H16 C40 N12 O28'
_cell_volume   3652.13996812
_cell_formula_units_Z   2
loop_
 _symmetry_equiv_pos_site_id
 _symmetry_equiv_pos_as_xyz
  1  'x, y, z'
loop_
 _atom_site_type_symbol
 _atom_site_label
 _atom_site_symmetry_multiplicity
 _atom_site_fract_x
 _atom_site_fract_y
 _atom_site_fract_z
 _atom_site_occupancy
  Zn  Zn0  1  0.60140952  0.50276419  0.50206509  1.0
  Zn  Zn1  1  0.39870318  0.50982291  0.50130051  1.0
  H  H2  1  0.31974521  0.47925027  0.24396957  1.0
  H  H3  1  0.66881405  0.44044283  0.74735607  1.0
  H  H4  1  0.67283616  0.41346632  0.88993916  1.0
  H  H5  1  0.31700341  0.45292304  0.09999730  1.0
  H  H6  1  0.07499808  0.57917908  0.60294446  1.0
  H  H7  1  0.92521627  0.57506745  0.40446233  1.0
  H  H8  1  0.38709002  0.55024534  0.74725328  1.0
  H  H9  1  0.61935171  0.41154753  0.27539776  1.0
  H  H10  1  0.25343722  0.59035931  0.59900195  1.0
  H  H11  1  0.74655869  0.57865114  0.40653088  1.0
  H  H12  1  0.23911441  0.42490128  0.40192583  1.0
  H  H13  1  0.75999021  0.41424463  0.59594803  1.0
  H  H14  1  0.39193175  0.41160328  0.98764102  1.0
  H  H15  1  0.60961888  0.45530504  0.01619070  1.0
  H  H16  1  0.62548726  0.06207433  0.55070342  1.0
  H  H17  1  0.38767053  0.94954743  0.54659953  1.0
  C  C18  1  0.48938468  0.33508656  0.50494760  1.0
  C  C19  1  0.50935516  0.67495832  0.49172572  1.0
  C  C20  1  0.52135090  0.50831558  0.65171117  1.0
  C  C21  1  0.47807888  0.47949289  0.35252807  1.0
  C  C22  1  0.52738003  0.49614117  0.73795087  1.0
  C  C23  1  0.47089110  0.45220289  0.26820499  1.0
  C  C24  1  0.44981939  0.52016889  0.77822094  1.0
  C  C25  1  0.55270365  0.42059539  0.23740648  1.0
  C  C26  1  0.45447485  0.50761240  0.85818926  1.0
  C  C27  1  0.54801486  0.39920662  0.15812554  1.0
  C  C28  1  0.53321650  0.46719929  0.90075538  1.0
  C  C29  1  0.46548967  0.41538285  0.10542152  1.0
  C  C30  1  0.61080702  0.44480104  0.85870785  1.0
  C  C31  1  0.38249505  0.44139498  0.13898421  1.0
  C  C32  1  0.60859967  0.45917745  0.77899736  1.0
  C  C33  1  0.38431989  0.45820524  0.21911357  1.0
  C  C34  1  0.53812659  0.44706612  0.98357169  1.0
  C  C35  1  0.46315049  0.42059970  0.02062321  1.0
  C  C36  1  0.56552662  0.09764754  0.52138922  1.0
  C  C37  1  0.43860702  0.91313941  0.51530669  1.0
  C  C38  1  0.56059646  0.18708244  0.53254280  1.0
  C  C39  1  0.44440232  0.82351359  0.52191268  1.0
  C  C40  1  0.48479117  0.23647301  0.49782041  1.0
  C  C41  1  0.50993626  0.77324755  0.48510236  1.0
  C  C42  1  0.41163594  0.19122864  0.45040002  1.0
  C  C43  1  0.57026490  0.81752205  0.43924586  1.0
  C  C44  1  0.41755768  0.10129134  0.43445634  1.0
  C  C45  1  0.56285042  0.90767511  0.42837226  1.0
  C  C46  1  0.49446016  0.05361421  0.47069856  1.0
  C  C47  1  0.49776329  0.95653181  0.46785728  1.0
  C  C48  1  0.10888502  0.54328011  0.55807551  1.0
  C  C49  1  0.89117972  0.53785917  0.44728601  1.0
  C  C50  1  0.20780569  0.55016363  0.55603407  1.0
  C  C51  1  0.79199068  0.54050083  0.44822603  1.0
  C  C52  1  0.20093090  0.45780754  0.44597926  1.0
  C  C53  1  0.79843083  0.44873569  0.55395045  1.0
  C  C54  1  0.10185052  0.44776446  0.44544434  1.0
  C  C55  1  0.89784221  0.44287420  0.55543527  1.0
  C  C56  1  0.05330926  0.48961542  0.50249462  1.0
  C  C57  1  0.94683094  0.48709110  0.50116419  1.0
  N  N58  1  0.25262219  0.50781279  0.50108733  1.0
  N  N59  1  0.74690770  0.49651659  0.50076883  1.0
  N  N60  1  0.05039524  0.38987113  0.38404685  1.0
  N  N61  1  0.94902024  0.38706850  0.61456445  1.0
  N  N62  1  0.63309242  0.35604979  0.13160557  1.0
  N  N63  1  0.37451472  0.54462699  0.89737366  1.0
  N  N64  1  0.63886364  0.23078652  0.58556079  1.0
  N  N65  1  0.38024325  0.78149408  0.57356593  1.0
  N  N66  1  0.32868486  0.24332152  0.41616697  1.0
  N  N67  1  0.64376095  0.76410174  0.40397830  1.0
  N  N68  1  0.34695098  0.05645250  0.37576558  1.0
  N  N69  1  0.61708683  0.95079104  0.37060013  1.0
  O  O70  1  0.57061177  0.36711318  0.49384483  1.0
  O  O71  1  0.42589179  0.64046816  0.48121315  1.0
  O  O72  1  0.41389114  0.37406503  0.51866263  1.0
  O  O73  1  0.58972255  0.63883767  0.50637199  1.0
  O  O74  1  0.59728364  0.49452094  0.61862566  1.0
  O  O75  1  0.40071577  0.48081566  0.38548066  1.0
  O  O76  1  0.44011761  0.53028589  0.61686173  1.0
  O  O77  1  0.56209766  0.49999522  0.38555232  1.0
  O  O78  1  0.97252064  0.35761292  0.39832137  1.0
  O  O79  1  0.08876534  0.37801560  0.32336078  1.0
  O  O80  1  0.02995591  0.36182878  0.60185763  1.0
  O  O81  1  0.90739712  0.36955514  0.67212787  1.0
  O  O82  1  0.71373353  0.38360792  0.16043776  1.0
  O  O83  1  0.61823129  0.29371228  0.08416974  1.0
  O  O84  1  0.39563089  0.59379897  0.95526461  1.0
  O  O85  1  0.29135174  0.52580253  0.86766993  1.0
  O  O86  1  0.72220901  0.21747591  0.57105810  1.0
  O  O87  1  0.61438636  0.27514177  0.64087776  1.0
  O  O88  1  0.41968915  0.74156510  0.62944477  1.0
  O  O89  1  0.29274174  0.79216735  0.55765417  1.0
  O  O90  1  0.25901765  0.24681924  0.45403080  1.0
  O  O91  1  0.33959668  0.28157768  0.35554729  1.0
  O  O92  1  0.72616343  0.76936666  0.43812294  1.0
  O  O93  1  0.61470151  0.71597307  0.34751356  1.0
  O  O94  1  0.36952917  0.98391219  0.35043002  1.0
  O  O95  1  0.27114495  0.09409715  0.35508652  1.0
  O  O96  1  0.60706947  0.03047998  0.36353585  1.0
  O  O97  1  0.66710182  0.90446357  0.33194123  1.0
