# generated using pymatgen
data_Zr6H15C52S10O34F5
_symmetry_space_group_name_H-M   'P 1'
_cell_length_a   16.45235178
_cell_length_b   16.45220836
_cell_length_c   16.45020391
_cell_angle_alpha   119.70171908
_cell_angle_beta   91.16028909
_cell_angle_gamma   60.30279316
_symmetry_Int_Tables_number   1
_chemical_formula_structural   Zr6H15C52S10O34F5
_chemical_formula_sum   'Zr6 H15 C52 S10 O34 F5'
_cell_volume   3206.52814257
_cell_formula_units_Z   1
loop_
 _symmetry_equiv_pos_site_id
 _symmetry_equiv_pos_as_xyz
  1  'x, y, z'
loop_
 _atom_site_type_symbol
 _atom_site_label
 _atom_site_symmetry_multiplicity
 _atom_site_fract_x
 _atom_site_fract_y
 _atom_site_fract_z
 _atom_site_occupancy
  Zr  Zr0  1  0.09724216  0.51496266  0.40259369  1.0
  Zr  Zr1  1  0.89778967  0.49013750  0.60196126  1.0
  Zr  Zr2  1  0.10667050  0.29085543  0.39283712  1.0
  Zr  Zr3  1  0.88842239  0.71350105  0.61104857  1.0
  Zr  Zr4  1  0.10684342  0.50213492  0.61098795  1.0
  Zr  Zr5  1  0.88873410  0.50217240  0.39269330  1.0
  H  H6  1  0.24743219  0.34572559  0.42286088  1.0
  H  H7  1  0.91843922  0.65915792  0.75201294  1.0
  H  H8  1  0.91854700  0.32692853  0.41003527  1.0
  H  H9  1  0.90570436  0.67805905  0.42289579  1.0
  H  H10  1  0.38843189  0.51243165  0.63792325  1.0
  H  H11  1  0.87226138  0.49178944  0.10170077  1.0
  H  H12  1  0.87462863  0.01510757  0.88318940  1.0
  H  H13  1  0.60497365  0.01455936  0.63597493  1.0
  H  H14  1  0.36034383  0.03260108  0.13219391  1.0
  H  H15  1  0.34608463  0.30733236  0.14835940  1.0
  H  H16  1  0.62733835  0.97268778  0.86516446  1.0
  H  H17  1  0.64391825  0.69784170  0.85089201  1.0
  H  H18  1  0.12319089  0.76828895  0.38941058  1.0
  H  H19  1  0.43938503  0.87653726  0.05994236  1.0
  H  H20  1  0.55597873  0.12751133  0.94435565  1.0
  C  C21  1  0.26110833  0.52116899  0.51535319  1.0
  C  C22  1  0.01180185  0.48330070  0.76502878  1.0
  C  C23  1  0.72787281  0.49728953  0.49488812  1.0
  C  C24  1  0.99134524  0.50766692  0.23200848  1.0
  C  C25  1  0.25927963  0.25429638  0.23432148  1.0
  C  C26  1  0.99305686  0.78311214  0.51419846  1.0
  C  C27  1  0.72963142  0.75114970  0.76402731  1.0
  C  C28  1  0.00881599  0.22293830  0.49851701  1.0
  C  C29  1  0.26997006  0.23102544  0.50318888  1.0
  C  C30  1  0.00345421  0.23165666  0.22239141  1.0
  C  C31  1  0.71843341  0.77307899  0.50703414  1.0
  C  C32  1  0.99962159  0.77359390  0.77393528  1.0
  C  C33  1  0.57782541  0.50945714  0.43698737  1.0
  C  C34  1  0.40751063  0.51430474  0.57625851  1.0
  C  C35  1  0.63617518  0.50337416  0.49862546  1.0
  C  C36  1  0.35102055  0.51974195  0.51337784  1.0
  C  C37  1  0.49015029  0.51104237  0.54820205  1.0
  C  C38  1  0.49429652  0.51392046  0.46413895  1.0
  C  C39  1  0.07277679  0.48935788  0.91233319  1.0
  C  C40  1  0.93407098  0.49331169  0.08233321  1.0
  C  C41  1  0.01114841  0.48333972  0.85396763  1.0
  C  C42  1  0.99617042  0.50047947  0.13950689  1.0
  C  C43  1  0.96265643  0.48889121  0.99914034  1.0
  C  C44  1  0.04627645  0.49262870  0.99534527  1.0
  C  C45  1  0.07021538  0.02597457  0.08295208  1.0
  C  C46  1  0.93665137  0.97836550  0.90766557  1.0
  C  C47  1  0.00485353  0.14224098  0.13283902  1.0
  C  C48  1  0.00232478  0.86287672  0.86026810  1.0
  C  C49  1  0.96194635  0.03761249  0.98881343  1.0
  C  C50  1  0.04687634  0.96513949  0.00099254  1.0
  C  C51  1  0.40617628  0.02517698  0.43949478  1.0
  C  C52  1  0.58049125  0.97765702  0.57400064  1.0
  C  C53  1  0.35633083  0.14146165  0.50483149  1.0
  C  C54  1  0.62889121  0.86218872  0.50741356  1.0
  C  C55  1  0.49888187  0.03682138  0.54910301  1.0
  C  C56  1  0.48734790  0.96432913  0.46357427  1.0
  C  C57  1  0.39244326  0.05894891  0.10084047  1.0
  C  C58  1  0.38269148  0.21662210  0.11128471  1.0
  C  C59  1  0.46442530  0.14296686  0.03054096  1.0
  C  C60  1  0.51335465  0.02332495  0.98069137  1.0
  C  C61  1  0.59603601  0.94630430  0.89729066  1.0
  C  C62  1  0.60674546  0.78855319  0.88745267  1.0
  C  C63  1  0.52585272  0.86211258  0.96917224  1.0
  C  C64  1  0.47589363  0.98182570  0.01813016  1.0
  C  C65  1  0.34674237  0.17406892  0.14625657  1.0
  C  C66  1  0.64161251  0.83115260  0.85150511  1.0
  C  C67  1  0.94254668  0.15200223  0.56900460  1.0
  C  C68  1  0.06407800  0.85261168  0.44850964  1.0
  C  C69  1  0.00881214  0.13613442  0.50264021  1.0
  C  C70  1  0.99627311  0.87108566  0.51491809  1.0
  C  C71  1  0.04440220  0.95559568  0.46874475  1.0
  C  C72  1  0.96169414  0.05012449  0.55072213  1.0
  S  S73  1  0.58819583  0.50320921  0.59195736  1.0
  S  S74  1  0.39709348  0.52094333  0.41985815  1.0
  S  S75  1  0.91886220  0.48112271  0.90109447  1.0
  S  S76  1  0.08983455  0.50127973  0.09322251  1.0
  S  S77  1  0.91285273  0.17808979  0.07799969  1.0
  S  S78  1  0.09551995  0.82497960  0.91318115  1.0
  S  S79  1  0.40985764  0.17728916  0.59810264  1.0
  S  S80  1  0.57597043  0.82419284  0.41422787  1.0
  S  S81  1  0.09680053  0.99363487  0.41628814  1.0
  S  S82  1  0.90839915  0.01293105  0.60278071  1.0
  O  O83  1  0.22280415  0.52527684  0.44785755  1.0
  O  O84  1  0.94346308  0.48029027  0.72779275  1.0
  O  O85  1  0.76669623  0.49085241  0.56149655  1.0
  O  O86  1  0.05714721  0.51507437  0.27179483  1.0
  O  O87  1  0.22898325  0.21365480  0.26529135  1.0
  O  O88  1  0.92487516  0.81392235  0.58022023  1.0
  O  O89  1  0.76053693  0.79197922  0.73375674  1.0
  O  O90  1  0.07519812  0.19124765  0.43009127  1.0
  O  O91  1  0.23742786  0.33296415  0.57261398  1.0
  O  O92  1  0.93263229  0.33350341  0.25645137  1.0
  O  O93  1  0.75318185  0.67113240  0.43638970  1.0
  O  O94  1  0.06870687  0.67151354  0.74077493  1.0
  O  O95  1  0.07227071  0.20012418  0.25984720  1.0
  O  O96  1  0.75476453  0.80570549  0.57670445  1.0
  O  O97  1  0.92749246  0.80608433  0.74026286  1.0
  O  O98  1  0.23504249  0.19977706  0.43190589  1.0
  O  O99  1  0.22158809  0.35937839  0.27378623  1.0
  O  O100  1  0.93982814  0.32480117  0.56444766  1.0
  O  O101  1  0.76914110  0.64615945  0.72627974  1.0
  O  O102  1  0.05951164  0.68171297  0.44496477  1.0
  O  O103  1  0.92222097  0.50712574  0.26538939  1.0
  O  O104  1  0.22987284  0.51599486  0.58207088  1.0
  O  O105  1  0.07815240  0.48855051  0.73307672  1.0
  O  O106  1  0.76199391  0.49781767  0.42608246  1.0
  O  O107  1  0.93082363  0.62873680  0.44596515  1.0
  O  O108  1  0.94149882  0.37637051  0.43520694  1.0
  O  O109  1  0.94154415  0.61451667  0.68099609  1.0
  O  O110  1  0.17641710  0.39081760  0.44613954  1.0
  O  O111  1  0.04682363  0.40975889  0.54336210  1.0
  O  O112  1  0.03886882  0.59567767  0.55161728  1.0
  O  O113  1  0.86586066  0.58490791  0.54301796  1.0
  O  O114  1  0.03866107  0.42016904  0.37034427  1.0
  O  O115  1  0.49569335  0.81650496  0.00128492  1.0
  O  O116  1  0.49689698  0.18823825  0.00007871  1.0
  F  F117  1  0.59746832  0.51067276  0.35880349  1.0
  F  F118  1  0.14979739  0.49282909  0.89372873  1.0
  F  F119  1  0.14827801  0.97398347  0.10875158  1.0
  F  F120  1  0.38152509  0.97331331  0.36028876  1.0
  F  F121  1  0.86669986  0.25281480  0.64341079  1.0
