# generated using pymatgen
data_Al4H32C59N2O25
_symmetry_space_group_name_H-M   'P 1'
_cell_length_a   6.67550582
_cell_length_b   22.53981134
_cell_length_c   25.13742233
_cell_angle_alpha   107.82517747
_cell_angle_beta   90.62003015
_cell_angle_gamma   90.03253247
_symmetry_Int_Tables_number   1
_chemical_formula_structural   Al4H32C59N2O25
_chemical_formula_sum   'Al4 H32 C59 N2 O25'
_cell_volume   3600.48339754
_cell_formula_units_Z   1
loop_
 _symmetry_equiv_pos_site_id
 _symmetry_equiv_pos_as_xyz
  1  'x, y, z'
loop_
 _atom_site_type_symbol
 _atom_site_label
 _atom_site_symmetry_multiplicity
 _atom_site_fract_x
 _atom_site_fract_y
 _atom_site_fract_z
 _atom_site_occupancy
  Al  Al0  1  0.14819444  0.49933714  0.49955857  1.0
  Al  Al1  1  0.65009628  0.49890253  0.50009218  1.0
  Al  Al2  1  0.67057724  0.99903271  0.00109793  1.0
  Al  Al3  1  0.16878168  0.99948258  0.00103531  1.0
  H  H4  1  0.61009042  0.91388991  0.11817867  1.0
  H  H5  1  0.58566345  0.85352506  0.18424622  1.0
  H  H6  1  0.21772797  0.81282754  0.16319678  1.0
  H  H7  1  0.18990109  0.81534125  0.25162544  1.0
  H  H8  1  0.18553197  0.74878795  0.31269635  1.0
  H  H9  1  0.58899432  0.68649912  0.25396417  1.0
  H  H10  1  0.59289982  0.75362451  0.19310161  1.0
  H  H11  1  0.57139430  0.68071779  0.34204309  1.0
  H  H12  1  0.57795716  0.61395187  0.40468601  1.0
  H  H13  1  0.21083063  0.58744317  0.38004324  1.0
  H  H14  1  0.20543323  0.65148059  0.31514769  1.0
  H  H15  1  0.13904124  0.12361833  0.79047815  1.0
  H  H16  1  0.69323837  0.20957891  0.86656226  1.0
  H  H17  1  0.69295914  0.14154709  0.92768043  1.0
  H  H18  1  0.73221735  0.21099432  0.77572212  1.0
  H  H19  1  0.72563874  0.27683425  0.71333170  1.0
  H  H20  1  0.08396745  0.29070798  0.72781380  1.0
  H  H21  1  0.09043380  0.22491942  0.79007479  1.0
  H  H22  1  0.12293237  0.28611734  0.63557631  1.0
  H  H23  1  0.67113567  0.43620526  0.63956115  1.0
  H  H24  1  0.67645770  0.37643476  0.70757559  1.0
  H  H25  1  0.45743226  0.86249960  0.02962896  1.0
  H  H26  1  0.20197757  0.84192157  0.01331867  1.0
  H  H27  1  0.49681250  0.77129444  0.06633757  1.0
  H  H28  1  0.24382934  0.74964389  0.04856951  1.0
  H  H29  1  0.31855987  0.73500036  0.94647516  1.0
  H  H30  1  0.47335445  0.68665816  0.97356088  1.0
  H  H31  1  0.57184085  0.75617240  0.96467948  1.0
  H  H32  1  0.40028015  0.57989949  0.52855461  1.0
  H  H33  1  0.90128837  0.41705761  0.48860719  1.0
  H  H34  1  0.41681662  0.92294741  0.96172663  1.0
  H  H35  1  0.92054668  0.08089778  0.02796334  1.0
  C  C36  1  0.39998038  0.41256375  0.41540431  1.0
  C  C37  1  0.39440058  0.43627781  0.56228829  1.0
  C  C38  1  0.89844524  0.58629641  0.58540528  1.0
  C  C39  1  0.90039803  0.56005142  0.43620452  1.0
  C  C40  1  0.74307077  0.89121259  0.12803266  1.0
  C  C41  1  0.72951106  0.85689328  0.16526963  1.0
  C  C42  1  0.90010563  0.82786575  0.17917505  1.0
  C  C43  1  0.08219896  0.83549835  0.15478053  1.0
  C  C44  1  0.09753082  0.86988497  0.11729496  1.0
  C  C45  1  0.92480836  0.89836474  0.10279885  1.0
  C  C46  1  0.05853226  0.78637681  0.25121980  1.0
  C  C47  1  0.05628442  0.74857664  0.28570185  1.0
  C  C48  1  0.88770744  0.71187106  0.28781385  1.0
  C  C49  1  0.72049301  0.71543742  0.25435934  1.0
  C  C50  1  0.72257273  0.75345235  0.21988936  1.0
  C  C51  1  0.89230438  0.78942788  0.21724710  1.0
  C  C52  1  0.71155693  0.65939293  0.34926775  1.0
  C  C53  1  0.71431859  0.62263129  0.38473075  1.0
  C  C54  1  0.89493876  0.59713420  0.39642751  1.0
  C  C55  1  0.07171901  0.60812016  0.37121419  1.0
  C  C56  1  0.06782731  0.64445051  0.33545503  1.0
  C  C57  1  0.88834423  0.67145838  0.32421167  1.0
  C  C58  1  0.91420409  0.86414833  0.86226382  1.0
  C  C59  1  0.91398656  0.82064754  0.81869199  1.0
  C  C60  1  0.91303529  0.77292803  0.77117475  1.0
  C  C61  1  0.91095121  0.72872559  0.72764113  1.0
  C  C62  1  0.90793660  0.68078531  0.68025457  1.0
  C  C63  1  0.90387142  0.63703258  0.63682799  1.0
  C  C64  1  0.39759023  0.36158227  0.36413144  1.0
  C  C65  1  0.40226141  0.31788144  0.32074698  1.0
  C  C66  1  0.40855831  0.27013416  0.27329044  1.0
  C  C67  1  0.41534115  0.22611885  0.22971230  1.0
  C  C68  1  0.42107337  0.17837127  0.18226103  1.0
  C  C69  1  0.42556574  0.13476705  0.13876931  1.0
  C  C70  1  0.26427699  0.09178262  0.85550376  1.0
  C  C71  1  0.25995473  0.12970032  0.82115097  1.0
  C  C72  1  0.41485245  0.17287531  0.82432523  1.0
  C  C73  1  0.57166761  0.17619421  0.86288327  1.0
  C  C74  1  0.57207290  0.13846781  0.89751150  1.0
  C  C75  1  0.41741479  0.09574790  0.89506475  1.0
  C  C76  1  0.58978861  0.22943588  0.76619491  1.0
  C  C77  1  0.58612814  0.26658370  0.73102966  1.0
  C  C78  1  0.40435469  0.28879392  0.71585544  1.0
  C  C79  1  0.22655653  0.27266488  0.73763086  1.0
  C  C80  1  0.23014521  0.23550614  0.77271504  1.0
  C  C81  1  0.41176331  0.21292544  0.78761021  1.0
  C  C82  1  0.24274083  0.31980049  0.63840774  1.0
  C  C83  1  0.24296700  0.35377401  0.60068709  1.0
  C  C84  1  0.39587097  0.39624561  0.60010447  1.0
  C  C85  1  0.55146350  0.40323946  0.63931311  1.0
  C  C86  1  0.55397453  0.36933043  0.67719786  1.0
  C  C87  1  0.40030291  0.32669927  0.67727216  1.0
  C  C88  1  0.41566456  0.06085624  0.93704696  1.0
  C  C89  1  0.42533224  0.08427851  0.08728731  1.0
  C  C90  1  0.92521226  0.93590906  0.06324879  1.0
  C  C91  1  0.91447024  0.91433241  0.91395333  1.0
  C  C92  1  0.32809171  0.83901003  0.04102450  1.0
  C  C93  1  0.37568533  0.77163617  0.03635718  1.0
  C  C94  1  0.43808664  0.73527489  0.97703592  1.0
  N  N95  1  0.10637835  0.04340550  0.84488339  1.0
  N  N96  1  0.07984251  0.33955528  0.55850948  1.0
  O  O97  1  0.56361677  0.44655996  0.54412980  1.0
  O  O98  1  0.23204552  0.42957607  0.43834235  1.0
  O  O99  1  0.07136024  0.54157771  0.44769834  1.0
  O  O100  1  0.22551122  0.45728401  0.55304768  1.0
  O  O101  1  0.06568343  0.57011516  0.56152966  1.0
  O  O102  1  0.57151107  0.43532967  0.43288487  1.0
  O  O103  1  0.39984237  0.53647332  0.50599953  1.0
  O  O104  1  0.72662366  0.56300044  0.56869397  1.0
  O  O105  1  0.73437969  0.55052366  0.45698665  1.0
  O  O106  1  0.89924007  0.46190540  0.49589699  1.0
  O  O107  1  0.25463597  0.06621085  0.06521814  1.0
  O  O108  1  0.58540299  0.05069746  0.95580937  1.0
  O  O109  1  0.74432546  0.93528519  0.93314266  1.0
  O  O110  1  0.59519595  0.06282274  0.06821901  1.0
  O  O111  1  0.75434909  0.94772429  0.04521812  1.0
  O  O112  1  0.24472982  0.04742831  0.95217438  1.0
  O  O113  1  0.41916582  0.96158867  0.99244193  1.0
  O  O114  1  0.09311892  0.95321333  0.04936468  1.0
  O  O115  1  0.08495191  0.93231685  0.93623779  1.0
  O  O116  1  0.91944617  0.03709287  0.00662901  1.0
  O  O117  1  0.16037591  0.98891707  0.83633114  1.0
  O  O118  1  0.93128693  0.06095822  0.84272422  1.0
  O  O119  1  0.90926701  0.33366837  0.57540690  1.0
  O  O120  1  0.12358884  0.33274819  0.50927708  1.0
  O  O121  1  0.28545359  0.87532280  0.09791293  1.0
