# generated using pymatgen
data_AlH11C19INO5
_symmetry_space_group_name_H-M   'P 1'
_cell_length_a   6.68020214
_cell_length_b   25.38196950
_cell_length_c   28.77224626
_cell_angle_alpha   90.44987287
_cell_angle_beta   90.01494956
_cell_angle_gamma   89.01935136
_symmetry_Int_Tables_number   1
_chemical_formula_structural   AlH11C19INO5
_chemical_formula_sum   'Al4 H44 C76 I4 N4 O20'
_cell_volume   4877.66181011
_cell_formula_units_Z   4
loop_
 _symmetry_equiv_pos_site_id
 _symmetry_equiv_pos_as_xyz
  1  'x, y, z'
loop_
 _atom_site_type_symbol
 _atom_site_label
 _atom_site_symmetry_multiplicity
 _atom_site_fract_x
 _atom_site_fract_y
 _atom_site_fract_z
 _atom_site_occupancy
  Al  Al0  1  0.79812379  0.74871305  0.74823065  1.0
  Al  Al1  1  0.20188023  0.25128723  0.25176830  1.0
  Al  Al2  1  0.29769931  0.74594799  0.74830108  1.0
  Al  Al3  1  0.70230022  0.25405229  0.25169718  1.0
  H  H4  1  0.72041384  0.64964547  0.64128667  1.0
  H  H5  1  0.27957230  0.35035287  0.35871123  1.0
  H  H6  1  0.70224633  0.58434467  0.57539063  1.0
  H  H7  1  0.29775031  0.41565287  0.42460900  1.0
  H  H8  1  0.34436089  0.56950047  0.57534683  1.0
  H  H9  1  0.65563570  0.43049825  0.42465628  1.0
  H  H10  1  0.36118414  0.63499297  0.64127552  1.0
  H  H11  1  0.63880796  0.36500577  0.35872725  1.0
  H  H12  1  0.72137798  0.64421236  0.84997165  1.0
  H  H13  1  0.27863270  0.35580844  0.15004339  1.0
  H  H14  1  0.70300046  0.57982779  0.91457632  1.0
  H  H15  1  0.29700709  0.42019656  0.08544047  1.0
  H  H16  1  0.34626139  0.57979541  0.92575647  1.0
  H  H17  1  0.65376257  0.42019298  0.07423165  1.0
  H  H18  1  0.36204524  0.64269469  0.85980867  1.0
  H  H19  1  0.63797279  0.35729254  0.14017944  1.0
  H  H20  1  0.28543270  0.49483404  0.94487697  1.0
  H  H21  1  0.71456387  0.50516547  0.05512197  1.0
  H  H22  1  0.26428069  0.43088623  0.00830380  1.0
  H  H23  1  0.73572029  0.56911524  0.99169759  1.0
  H  H24  1  0.74636032  0.17519314  0.38028923  1.0
  H  H25  1  0.25363789  0.82480281  0.61970692  1.0
  H  H26  1  0.74416505  0.11008408  0.44475908  1.0
  H  H27  1  0.25583909  0.88991344  0.55523847  1.0
  H  H28  1  0.19086436  0.11383130  0.32988701  1.0
  H  H29  1  0.80912927  0.88616664  0.67011297  1.0
  H  H30  1  0.17975866  0.04836323  0.48560540  1.0
  H  H31  1  0.82023485  0.95163786  0.51439494  1.0
  H  H32  1  0.20773513  0.98725600  0.55154511  1.0
  H  H33  1  0.79225694  0.01274352  0.44845557  1.0
  H  H34  1  0.74382283  0.17562243  0.12194461  1.0
  H  H35  1  0.25617974  0.82437705  0.87805051  1.0
  H  H36  1  0.74151595  0.11065326  0.05635921  1.0
  H  H37  1  0.25848368  0.88934466  0.94363659  1.0
  H  H38  1  0.18968373  0.11369988  0.17159842  1.0
  H  H39  1  0.81031726  0.88630159  0.82839810  1.0
  H  H40  1  0.17842170  0.04780085  0.01492560  1.0
  H  H41  1  0.82157957  0.95219313  0.98507402  1.0
  H  H42  1  0.20813684  0.98643371  0.94827981  1.0
  H  H43  1  0.79186739  0.01356105  0.05171981  1.0
  H  H44  1  0.55805120  0.67760513  0.75023830  1.0
  H  H45  1  0.44194232  0.32239556  0.24976308  1.0
  H  H46  1  0.05111997  0.81713064  0.74758204  1.0
  H  H47  1  0.94886903  0.18287086  0.25241830  1.0
  C  C48  1  0.54082372  0.81111807  0.68605567  1.0
  C  C49  1  0.45918940  0.18887943  0.31394153  1.0
  C  C50  1  0.54235047  0.81130098  0.81125357  1.0
  C  C51  1  0.45766400  0.18870046  0.18874261  1.0
  C  C52  1  0.04943988  0.68422263  0.81110594  1.0
  C  C53  1  0.95055652  0.31578121  0.18889442  1.0
  C  C54  1  0.04799707  0.68379271  0.68492048  1.0
  C  C55  1  0.95198894  0.31620879  0.31507987  1.0
  C  C56  1  0.85562655  0.63166863  0.62650915  1.0
  C  C57  1  0.14436404  0.36833089  0.37348910  1.0
  C  C58  1  0.84559587  0.59562897  0.59008524  1.0
  C  C59  1  0.15439777  0.40436858  0.40991473  1.0
  C  C60  1  0.02218204  0.57290478  0.57161964  1.0
  C  C61  1  0.97781163  0.42709198  0.42838068  1.0
  C  C62  1  0.20879645  0.58732451  0.59005228  1.0
  C  C63  1  0.79119721  0.41267264  0.40994978  1.0
  C  C64  1  0.21798946  0.62350018  0.62651909  1.0
  C  C65  1  0.78199967  0.37649777  0.37348263  1.0
  C  C66  1  0.04159055  0.64572265  0.64513618  1.0
  C  C67  1  0.95839708  0.35427530  0.35486624  1.0
  C  C68  1  0.98935615  0.46581338  0.46653568  1.0
  C  C69  1  0.01064201  0.53418337  0.53346499  1.0
  C  C70  1  0.85713554  0.62963142  0.86688804  1.0
  C  C71  1  0.14287827  0.37038621  0.13312351  1.0
  C  C72  1  0.84795396  0.59413911  0.90327312  1.0
  C  C73  1  0.15205541  0.40587695  0.09673807  1.0
  C  C74  1  0.02343001  0.57506948  0.92493065  1.0
  C  C75  1  0.97658279  0.42493592  0.07507319  1.0
  C  C76  1  0.20875321  0.59315080  0.90873362  1.0
  C  C77  1  0.79126443  0.40684591  0.09126288  1.0
  C  C78  1  0.21861081  0.62851644  0.87215203  1.0
  C  C79  1  0.78140528  0.37148145  0.12784587  1.0
  C  C80  1  0.04264805  0.64696656  0.85078013  1.0
  C  C81  1  0.95736765  0.35304120  0.14922442  1.0
  C  C82  1  0.16138287  0.49789037  0.96943923  1.0
  C  C83  1  0.83862267  0.50210951  0.03056007  1.0
  C  C84  1  0.14937306  0.46172878  0.00533752  1.0
  C  C85  1  0.85063391  0.53827268  0.99466213  1.0
  C  C86  1  0.98782741  0.46301857  0.03672745  1.0
  C  C87  1  0.01218556  0.53698249  0.96327324  1.0
  C  C88  1  0.62506711  0.14726199  0.38349027  1.0
  C  C89  1  0.37492957  0.85273475  0.61650622  1.0
  C  C90  1  0.62472220  0.11031780  0.41889613  1.0
  C  C91  1  0.37527446  0.88967934  0.58110210  1.0
  C  C92  1  0.47324876  0.07258696  0.42293874  1.0
  C  C93  1  0.52674185  0.92741177  0.57706090  1.0
  C  C94  1  0.32096907  0.07362103  0.38895004  1.0
  C  C95  1  0.67901999  0.92637888  0.61104995  1.0
  C  C96  1  0.31238876  0.11256957  0.35509643  1.0
  C  C97  1  0.68760336  0.88742876  0.64490285  1.0
  C  C98  1  0.46536618  0.14935053  0.35199413  1.0
  C  C99  1  0.53462599  0.85064662  0.64800376  1.0
  C  C100  1  0.32007299  0.02682524  0.49135316  1.0
  C  C101  1  0.67991612  0.97317349  0.50864682  1.0
  C  C102  1  0.33602843  0.99245147  0.52868134  1.0
  C  C103  1  0.66395770  0.00754687  0.47131864  1.0
  C  C104  1  0.51596118  0.96514390  0.53812167  1.0
  C  C105  1  0.48402496  0.03485445  0.46187796  1.0
  C  C106  1  0.62297921  0.14756281  0.11834027  1.0
  C  C107  1  0.37702335  0.85243668  0.88165624  1.0
  C  C108  1  0.62254798  0.11073502  0.08232766  1.0
  C  C109  1  0.37745313  0.88926329  0.91766919  1.0
  C  C110  1  0.47163810  0.07283471  0.07782414  1.0
  C  C111  1  0.52836605  0.92716242  0.92217445  1.0
  C  C112  1  0.31958317  0.07369482  0.11185662  1.0
  C  C113  1  0.68042392  0.92630349  0.88814301  1.0
  C  C114  1  0.31095080  0.11256364  0.14631239  1.0
  C  C115  1  0.68905924  0.88743583  0.85368552  1.0
  C  C116  1  0.46373051  0.14938893  0.14995741  1.0
  C  C117  1  0.53627957  0.85060976  0.85004014  1.0
  C  C118  1  0.31932340  0.02651369  0.00892202  1.0
  C  C119  1  0.68067636  0.97348069  0.99107794  1.0
  C  C120  1  0.33619923  0.99198811  0.97124295  1.0
  C  C121  1  0.66380202  0.00800627  0.02875666  1.0
  C  C122  1  0.51688172  0.96499452  0.96153347  1.0
  C  C123  1  0.48311653  0.03500025  0.03846580  1.0
  I  I124  1  0.11150482  0.01253700  0.38179261  1.0
  I  I125  1  0.88848726  0.98746213  0.61820807  1.0
  I  I126  1  0.11115401  0.01239720  0.11828300  1.0
  I  I127  1  0.88884101  0.98760311  0.88172011  1.0
  N  N128  1  0.18405994  0.51276122  0.51700401  1.0
  N  N129  1  0.81593669  0.48723671  0.48299736  1.0
  N  N130  1  0.17320905  0.47803585  0.48297863  1.0
  N  N131  1  0.82678310  0.52196170  0.51702239  1.0
  O  O132  1  0.37470110  0.79496399  0.79643304  1.0
  O  O133  1  0.62529991  0.20503669  0.20356417  1.0
  O  O134  1  0.71260949  0.79854416  0.70219389  1.0
  O  O135  1  0.28739904  0.20145572  0.29780471  1.0
  O  O136  1  0.87937214  0.70053187  0.70008257  1.0
  O  O137  1  0.12061853  0.29946529  0.29991844  1.0
  O  O138  1  0.71451721  0.79805450  0.79558144  1.0
  O  O139  1  0.28548972  0.20194813  0.20441475  1.0
  O  O140  1  0.88113776  0.69963422  0.79481036  1.0
  O  O141  1  0.11886027  0.30036608  0.20519102  1.0
  O  O142  1  0.37350408  0.79384186  0.69995489  1.0
  O  O143  1  0.62650013  0.20615368  0.30004230  1.0
  O  O144  1  0.55125696  0.71561160  0.74806383  1.0
  O  O145  1  0.44874104  0.28438948  0.25193721  1.0
  O  O146  1  0.22082564  0.69743508  0.79601980  1.0
  O  O147  1  0.77917847  0.30256322  0.20397740  1.0
  O  O148  1  0.21898478  0.69610076  0.70096477  1.0
  O  O149  1  0.78101331  0.30389796  0.29903521  1.0
  O  O150  1  0.04815826  0.77906222  0.74839844  1.0
  O  O151  1  0.95184124  0.22093885  0.25160086  1.0
