# generated using pymatgen
data_Na2H13C15NO5
_symmetry_space_group_name_H-M   'P 1'
_cell_length_a   8.45468400
_cell_length_b   18.26025008
_cell_length_c   18.25796526
_cell_angle_alpha   60.00119772
_cell_angle_beta   89.99977708
_cell_angle_gamma   90.00007370
_symmetry_Int_Tables_number   1
_chemical_formula_structural   Na2H13C15NO5
_chemical_formula_sum   'Na12 H78 C90 N6 O30'
_cell_volume   2441.13810924
_cell_formula_units_Z   6
loop_
 _symmetry_equiv_pos_site_id
 _symmetry_equiv_pos_as_xyz
  1  'x, y, z'
loop_
 _atom_site_type_symbol
 _atom_site_label
 _atom_site_symmetry_multiplicity
 _atom_site_fract_x
 _atom_site_fract_y
 _atom_site_fract_z
 _atom_site_occupancy
  Na  Na0  1  0.82519330  0.63712589  0.63929524  1.0
  Na  Na1  1  0.15879075  0.63928215  0.72363299  1.0
  Na  Na2  1  0.49206093  0.72377460  0.63693275  1.0
  Na  Na3  1  0.32519096  0.36287521  0.36070565  1.0
  Na  Na4  1  0.65879337  0.36071607  0.27637019  1.0
  Na  Na5  1  0.99205549  0.27622810  0.36306813  1.0
  Na  Na6  1  0.82372516  0.74380291  0.74838593  1.0
  Na  Na7  1  0.15677517  0.74842546  0.50781038  1.0
  Na  Na8  1  0.49014646  0.50802130  0.74358076  1.0
  Na  Na9  1  0.32372108  0.25619818  0.25161277  1.0
  Na  Na10  1  0.65676859  0.25157467  0.49219020  1.0
  Na  Na11  1  0.99015196  0.49197886  0.25641920  1.0
  H  H12  1  0.89458628  0.93643421  0.57455785  1.0
  H  H13  1  0.22811771  0.57427320  0.48910909  1.0
  H  H14  1  0.56171542  0.48891391  0.93635348  1.0
  H  H15  1  0.39458731  0.06356449  0.42544028  1.0
  H  H16  1  0.72810080  0.42571884  0.51089760  1.0
  H  H17  1  0.06169468  0.51108032  0.06365077  1.0
  H  H18  1  0.54674404  0.13439455  0.24851215  1.0
  H  H19  1  0.87939140  0.24849927  0.61737736  1.0
  H  H20  1  0.21362332  0.61701754  0.13422027  1.0
  H  H21  1  0.04675127  0.86561041  0.75149005  1.0
  H  H22  1  0.37940141  0.75149877  0.38262277  1.0
  H  H23  1  0.71362072  0.38298523  0.86577670  1.0
  H  H24  1  0.66079570  0.82611309  0.41215356  1.0
  H  H25  1  0.99437208  0.41220272  0.76191121  1.0
  H  H26  1  0.32831427  0.76170230  0.82598317  1.0
  H  H27  1  0.16079330  0.17389146  0.58783987  1.0
  H  H28  1  0.49439266  0.58779682  0.23808686  1.0
  H  H29  1  0.82831031  0.23828678  0.17401386  1.0
  H  H30  1  0.45457274  0.04140781  0.19625351  1.0
  H  H31  1  0.78702180  0.19653608  0.76253996  1.0
  H  H32  1  0.12150574  0.76225869  0.04116328  1.0
  H  H33  1  0.95457458  0.95859607  0.80374521  1.0
  H  H34  1  0.28703553  0.80346050  0.23746271  1.0
  H  H35  1  0.62148777  0.23774009  0.95883038  1.0
  H  H36  1  0.50869721  0.88521226  0.27919150  1.0
  H  H37  1  0.84181355  0.27938548  0.83580568  1.0
  H  H38  1  0.17597017  0.83556219  0.88499779  1.0
  H  H39  1  0.00869473  0.11478820  0.72080316  1.0
  H  H40  1  0.34183629  0.72061122  0.16419847  1.0
  H  H41  1  0.67595231  0.16442659  0.11499912  1.0
  H  H42  1  0.84658977  0.09109445  0.49199922  1.0
  H  H43  1  0.18009736  0.49154834  0.41719307  1.0
  H  H44  1  0.51348778  0.41678915  0.09101435  1.0
  H  H45  1  0.34658497  0.90890606  0.50800138  1.0
  H  H46  1  0.68007972  0.50844487  0.58281202  1.0
  H  H47  1  0.01347519  0.58320309  0.90899099  1.0
  H  H48  1  0.80214444  0.64121938  0.94645101  1.0
  H  H49  1  0.13546931  0.94647919  0.41246520  1.0
  H  H50  1  0.46889109  0.41257127  0.64095217  1.0
  H  H51  1  0.30214229  0.35878736  0.05354546  1.0
  H  H52  1  0.63546612  0.05352658  0.58753205  1.0
  H  H53  1  0.96891373  0.58743075  0.35904361  1.0
  H  H54  1  0.60598348  0.63196794  0.10598139  1.0
  H  H55  1  0.93827484  0.10541248  0.26219780  1.0
  H  H56  1  0.27326344  0.26195695  0.63216486  1.0
  H  H57  1  0.10598581  0.36803461  0.89401643  1.0
  H  H58  1  0.43828108  0.89458758  0.73780067  1.0
  H  H59  1  0.77327306  0.73803835  0.36783957  1.0
  H  H60  1  0.80818609  0.63696224  0.13134521  1.0
  H  H61  1  0.14036346  0.13141504  0.23187162  1.0
  H  H62  1  0.47548028  0.23172798  0.63693366  1.0
  H  H63  1  0.30818743  0.36303945  0.86865596  1.0
  H  H64  1  0.64036772  0.86858567  0.76812651  1.0
  H  H65  1  0.97548529  0.76826900  0.36306737  1.0
  H  H66  1  0.75341896  0.57963449  0.07915748  1.0
  H  H67  1  0.08552942  0.07902107  0.34138579  1.0
  H  H68  1  0.42040469  0.34123392  0.57953563  1.0
  H  H69  1  0.25341410  0.42036899  0.92084235  1.0
  H  H70  1  0.58553474  0.92098207  0.65861068  1.0
  H  H71  1  0.92041720  0.65876041  0.42046464  1.0
  H  H72  1  0.62667666  0.78930898  0.03599671  1.0
  H  H73  1  0.96081292  0.03569324  0.17473316  1.0
  H  H74  1  0.29488854  0.17472789  0.78951742  1.0
  H  H75  1  0.12667561  0.21068791  0.96400828  1.0
  H  H76  1  0.46082216  0.96430750  0.82526931  1.0
  H  H77  1  0.79489026  0.82527123  0.21048506  1.0
  H  H78  1  0.70516422  0.84036653  0.93039828  1.0
  H  H79  1  0.03974205  0.93018152  0.22938014  1.0
  H  H80  1  0.37359845  0.22946096  0.84034332  1.0
  H  H81  1  0.20516612  0.15963685  0.06960606  1.0
  H  H82  1  0.53975038  0.06981900  0.77062101  1.0
  H  H83  1  0.87359960  0.77054086  0.15965493  1.0
  H  H84  1  0.83370757  0.81163703  0.01826008  1.0
  H  H85  1  0.16805354  0.01819507  0.17037236  1.0
  H  H86  1  0.50210258  0.17044018  0.81140599  1.0
  H  H87  1  0.33370867  0.18836282  0.98174416  1.0
  H  H88  1  0.66806469  0.98180507  0.82962601  1.0
  H  H89  1  0.00210141  0.82956215  0.18859322  1.0
  C  C90  1  0.80557644  0.81693991  0.53905068  1.0
  C  C91  1  0.13876063  0.53910406  0.64398693  1.0
  C  C92  1  0.47261286  0.64393374  0.81677473  1.0
  C  C93  1  0.30558223  0.18306431  0.46094649  1.0
  C  C94  1  0.63876522  0.46089665  0.35601668  1.0
  C  C95  1  0.97259968  0.35605817  0.18322939  1.0
  C  C96  1  0.77652543  0.91077129  0.48579652  1.0
  C  C97  1  0.10977088  0.48571167  0.60351913  1.0
  C  C98  1  0.44374321  0.60334099  0.91064759  1.0
  C  C99  1  0.27653171  0.08923286  0.51420019  1.0
  C  C100  1  0.60977172  0.51428583  0.39648340  1.0
  C  C101  1  0.94372265  0.39665086  0.08935552  1.0
  C  C102  1  0.65849806  0.03543636  0.36130763  1.0
  C  C103  1  0.99166547  0.36116895  0.60353534  1.0
  C  C104  1  0.32549189  0.60316854  0.03528214  1.0
  C  C105  1  0.15849822  0.96456693  0.63868754  1.0
  C  C106  1  0.49166914  0.63883185  0.39646813  1.0
  C  C107  1  0.82548494  0.39682560  0.96471620  1.0
  C  C108  1  0.69211343  0.94589118  0.40768093  1.0
  C  C109  1  0.02535230  0.40762196  0.64662430  1.0
  C  C110  1  0.35938160  0.64636305  0.94574878  1.0
  C  C111  1  0.19213433  0.05411028  0.59231947  1.0
  C  C112  1  0.52534544  0.59237538  0.35337956  1.0
  C  C113  1  0.85934584  0.35363180  0.05425079  1.0
  C  C114  1  0.83054987  0.96316179  0.51485430  1.0
  C  C115  1  0.16389392  0.51465762  0.52211139  1.0
  C  C116  1  0.49758286  0.52186179  0.96305564  1.0
  C  C117  1  0.33054915  0.03683805  0.48514393  1.0
  C  C118  1  0.66387981  0.48534187  0.47789224  1.0
  C  C119  1  0.99757360  0.47812764  0.03695296  1.0
  C  C120  1  0.57243607  0.06720987  0.28428966  1.0
  C  C121  1  0.90526218  0.28429073  0.64876889  1.0
  C  C122  1  0.23940344  0.64842222  0.06703119  1.0
  C  C123  1  0.07243432  0.93279514  0.71570973  1.0
  C  C124  1  0.40527709  0.71571432  0.35123207  1.0
  C  C125  1  0.73939900  0.35157300  0.93296732  1.0
  C  C126  1  0.63624387  0.89360953  0.37603175  1.0
  C  C127  1  0.96951493  0.37610836  0.73053421  1.0
  C  C128  1  0.30355844  0.73030078  0.89347246  1.0
  C  C129  1  0.13624809  0.10639182  0.62396333  1.0
  C  C130  1  0.46952825  0.62389302  0.26946244  1.0
  C  C131  1  0.80353857  0.26969269  0.10652352  1.0
  C  C132  1  0.52120653  0.01442795  0.25533997  1.0
  C  C133  1  0.85394587  0.25549526  0.73045794  1.0
  C  C134  1  0.18822977  0.73014868  0.01422948  1.0
  C  C135  1  0.02119522  0.98558075  0.74465438  1.0
  C  C136  1  0.35397336  0.74450652  0.26954310  1.0
  C  C137  1  0.68822231  0.26984518  0.98576542  1.0
  C  C138  1  0.55237237  0.92682724  0.30147328  1.0
  C  C139  1  0.88542044  0.30161925  0.77190637  1.0
  C  C140  1  0.21955522  0.77164782  0.92663104  1.0
  C  C141  1  0.05237115  0.07317838  0.69852146  1.0
  C  C142  1  0.38544023  0.69837945  0.22809561  1.0
  C  C143  1  0.71954616  0.22833978  0.07336255  1.0
  C  C144  1  0.80190571  0.05055574  0.46863705  1.0
  C  C145  1  0.13520597  0.46833951  0.48104154  1.0
  C  C146  1  0.46880038  0.48068642  0.05045275  1.0
  C  C147  1  0.30189963  0.94944594  0.53135866  1.0
  C  C148  1  0.63520548  0.53165740  0.51896343  1.0
  C  C149  1  0.96878207  0.51930738  0.94955536  1.0
  C  C150  1  0.71379160  0.08760668  0.39451319  1.0
  C  C151  1  0.04703092  0.39424067  0.51816608  1.0
  C  C152  1  0.38065624  0.51778085  0.08749313  1.0
  C  C153  1  0.21379072  0.91240177  0.60548149  1.0
  C  C154  1  0.54703923  0.60575544  0.48183397  1.0
  C  C155  1  0.88064168  0.48221909  0.91250769  1.0
  C  C156  1  0.67656637  0.18063137  0.35634585  1.0
  C  C157  1  0.00977719  0.35606280  0.46333200  1.0
  C  C158  1  0.34315467  0.46295983  0.18049599  1.0
  C  C159  1  0.17656373  0.81937510  0.64365043  1.0
  C  C160  1  0.50977213  0.64393449  0.53667027  1.0
  C  C161  1  0.84315878  0.53704004  0.81950548  1.0
  C  C162  1  0.79450740  0.70705903  0.93380307  1.0
  C  C163  1  0.12827705  0.93382321  0.35926439  1.0
  C  C164  1  0.46162140  0.35939074  0.70681580  1.0
  C  C165  1  0.29450615  0.29295338  0.06619112  1.0
  C  C166  1  0.62827581  0.06618129  0.64073351  1.0
  C  C167  1  0.96164355  0.64061506  0.29317537  1.0
  C  C168  1  0.72852394  0.63582282  0.08434181  1.0
  C  C169  1  0.06101309  0.08416000  0.27998711  1.0
  C  C170  1  0.39582864  0.27986422  0.63581124  1.0
  C  C171  1  0.22851897  0.36417998  0.91565895  1.0
  C  C172  1  0.56101907  0.91584309  0.72000943  1.0
  C  C173  1  0.89583943  0.72013196  0.36418979  1.0
  C  C174  1  0.72764609  0.79285685  0.99649842  1.0
  C  C175  1  0.06181874  0.99632807  0.21076591  1.0
  C  C176  1  0.39584073  0.21081593  0.79283843  1.0
  C  C177  1  0.22765696  0.20714593  0.00350564  1.0
  C  C178  1  0.56182910  0.00367376  0.78923399  1.0
  C  C179  1  0.89584745  0.78918593  0.20716140  1.0
  N  N180  1  0.74995274  0.71144940  0.00218453  1.0
  N  N181  1  0.08346796  0.00210038  0.28649242  1.0
  N  N182  1  0.41749325  0.28651865  0.71134040  1.0
  N  N183  1  0.24994925  0.28855471  0.99781280  1.0
  N  N184  1  0.58347067  0.99790212  0.71350656  1.0
  N  N185  1  0.91750701  0.71347884  0.28866048  1.0
  O  O186  1  0.73963985  0.77991920  0.61192559  1.0
  O  O187  1  0.07262240  0.61192918  0.60803617  1.0
  O  O188  1  0.40621664  0.60817022  0.77979800  1.0
  O  O189  1  0.23964044  0.22008425  0.38807373  1.0
  O  O190  1  0.57261939  0.38807140  0.39196434  1.0
  O  O191  1  0.90621626  0.39182850  0.22020284  1.0
  O  O192  1  0.89071984  0.77997042  0.51071551  1.0
  O  O193  1  0.22394269  0.51092133  0.70926910  1.0
  O  O194  1  0.55784160  0.70919246  0.77975726  1.0
  O  O195  1  0.39072431  0.22003334  0.48928174  1.0
  O  O196  1  0.72394317  0.48908209  0.29073519  1.0
  O  O197  1  0.05782368  0.29079672  0.22025226  1.0
  O  O198  1  0.74741695  0.22038638  0.38832641  1.0
  O  O199  1  0.08059272  0.38802349  0.39157358  1.0
  O  O200  1  0.41435044  0.39134237  0.22043376  1.0
  O  O201  1  0.24741921  0.77961645  0.61167485  1.0
  O  O202  1  0.58059525  0.61198091  0.60842665  1.0
  O  O203  1  0.91435035  0.60865575  0.77957174  1.0
  O  O204  1  0.57802129  0.21667013  0.29654235  1.0
  O  O205  1  0.91104429  0.29634920  0.48708786  1.0
  O  O206  1  0.24390897  0.48660820  0.21632290  1.0
  O  O207  1  0.07802515  0.78333678  0.70346046  1.0
  O  O208  1  0.41104834  0.70365332  0.51291435  1.0
  O  O209  1  0.74391096  0.51338704  0.78368052  1.0
  O  O210  1  0.82405590  0.76913234  0.86293308  1.0
  O  O211  1  0.15847674  0.86302487  0.36804385  1.0
  O  O212  1  0.49118228  0.36831062  0.76882580  1.0
  O  O213  1  0.32405743  0.23087382  0.13706583  1.0
  O  O214  1  0.65847696  0.13697842  0.63195351  1.0
  O  O215  1  0.99120020  0.63169207  0.23117180  1.0
