# generated using pymatgen
data_Al4H41C64N2ClO20
_symmetry_space_group_name_H-M   'P 1'
_cell_length_a   6.65835015
_cell_length_b   22.41659098
_cell_length_c   23.84410379
_cell_angle_alpha   112.74306303
_cell_angle_beta   89.96043234
_cell_angle_gamma   89.94756400
_symmetry_Int_Tables_number   1
_chemical_formula_structural   Al4H41C64N2ClO20
_chemical_formula_sum   'Al4 H41 C64 N2 Cl1 O20'
_cell_volume   3282.19486664
_cell_formula_units_Z   1
loop_
 _symmetry_equiv_pos_site_id
 _symmetry_equiv_pos_as_xyz
  1  'x, y, z'
loop_
 _atom_site_type_symbol
 _atom_site_label
 _atom_site_symmetry_multiplicity
 _atom_site_fract_x
 _atom_site_fract_y
 _atom_site_fract_z
 _atom_site_occupancy
  Al  Al0  1  0.11949194  0.49942713  0.49935549  1.0
  Al  Al1  1  0.61904716  0.50227377  0.50234259  1.0
  Al  Al2  1  0.69052782  0.00238010  0.00286417  1.0
  Al  Al3  1  0.19082169  0.99965017  0.00052957  1.0
  H  H4  1  0.62701871  0.07356124  0.86701351  1.0
  H  H5  1  0.62820518  0.13643459  0.80003736  1.0
  H  H6  1  0.23932502  0.13036584  0.91629323  1.0
  H  H7  1  0.17057696  0.16498402  0.72711232  1.0
  H  H8  1  0.15003464  0.23152548  0.66586604  1.0
  H  H9  1  0.63954716  0.33272989  0.77115343  1.0
  H  H10  1  0.66153466  0.26627103  0.83275426  1.0
  H  H11  1  0.56252218  0.33721774  0.68015176  1.0
  H  H12  1  0.55322530  0.40333086  0.61676153  1.0
  H  H13  1  0.19508362  0.39470878  0.60238113  1.0
  H  H14  1  0.20845989  0.32988933  0.66682274  1.0
  H  H15  1  0.13871119  0.31433707  0.35467052  1.0
  H  H16  1  0.56337006  0.38261628  0.32258744  1.0
  H  H17  1  0.53718911  0.28943101  0.22287591  1.0
  H  H18  1  0.24503695  0.11629543  0.17954152  1.0
  H  H19  1  0.67112226  0.18633418  0.14843651  1.0
  H  H20  1  0.64437252  0.68460290  0.65034917  1.0
  H  H21  1  0.05637909  0.61972103  0.67554334  1.0
  H  H22  1  0.77670817  0.78700221  0.72517869  1.0
  H  H23  1  0.75052784  0.87995416  0.82520514  1.0
  H  H24  1  0.16620618  0.81735326  0.85407597  1.0
  H  H25  1  0.11687522  0.89678650  0.10332702  1.0
  H  H26  1  0.10167910  0.83052068  0.16638909  1.0
  H  H27  1  0.74693309  0.83908886  0.18211549  1.0
  H  H28  1  0.75880952  0.90410526  0.11778234  1.0
  H  H29  1  0.69387919  0.73893406  0.18027545  1.0
  H  H30  1  0.67920655  0.67144574  0.24037476  1.0
  H  H31  1  0.11947277  0.76182915  0.31985175  1.0
  H  H32  1  0.13424797  0.82927772  0.25970869  1.0
  H  H33  1  0.06705652  0.66191862  0.31861349  1.0
  H  H34  1  0.05546564  0.59854926  0.38445925  1.0
  H  H35  1  0.69765484  0.60529087  0.39778658  1.0
  H  H36  1  0.71229196  0.67051251  0.33376728  1.0
  H  H37  1  0.87086342  0.68186352  0.76382853  1.0
  H  H38  1  0.94590936  0.75411634  0.81489610  1.0
  H  H39  1  0.28119463  0.22612011  0.82393296  1.0
  H  H40  1  0.40273192  0.19611922  0.87078314  1.0
  H  H41  1  0.37609845  0.41653248  0.46525810  1.0
  H  H42  1  0.87485786  0.58592485  0.53003488  1.0
  H  H43  1  0.43775836  0.07569493  0.99493844  1.0
  H  H44  1  0.93419492  0.91634677  0.96720003  1.0
  C  C45  1  0.36490434  0.59234070  0.59783078  1.0
  C  C46  1  0.36993217  0.56246472  0.43633818  1.0
  C  C47  1  0.86627393  0.40905792  0.40390604  1.0
  C  C48  1  0.86882660  0.43935086  0.56517273  1.0
  C  C49  1  0.75877666  0.10082656  0.86380588  1.0
  C  C50  1  0.76005476  0.13644043  0.82725600  1.0
  C  C51  1  0.92889091  0.17169036  0.82255103  1.0
  C  C52  1  0.10536104  0.17005155  0.85548267  1.0
  C  C53  1  0.10512244  0.13231012  0.89082906  1.0
  C  C54  1  0.93392429  0.09890843  0.89584507  1.0
  C  C55  1  0.05632858  0.20278869  0.73791234  1.0
  C  C56  1  0.04446724  0.24032356  0.70321733  1.0
  C  C57  1  0.89453658  0.28781485  0.71411247  1.0
  C  C58  1  0.75511799  0.29547135  0.76072725  1.0
  C  C59  1  0.76719736  0.25794327  0.79546103  1.0
  C  C60  1  0.91842444  0.21104875  0.78507308  1.0
  C  C61  1  0.70226289  0.35032563  0.66391963  1.0
  C  C62  1  0.69562906  0.38688632  0.62824295  1.0
  C  C63  1  0.87345731  0.40244442  0.60549094  1.0
  C  C64  1  0.05790888  0.38168332  0.61986916  1.0
  C  C65  1  0.06383395  0.34513363  0.65543906  1.0
  C  C66  1  0.88621352  0.32814925  0.67772599  1.0
  C  C67  1  0.85441968  0.35357360  0.34396473  1.0
  C  C68  1  0.95646911  0.14704586  0.15804598  1.0
  C  C69  1  0.14122835  0.20350470  0.25075828  1.0
  C  C70  1  0.12757468  0.15283588  0.19516386  1.0
  C  C71  1  0.80373700  0.19231842  0.17693629  1.0
  C  C72  1  0.82012705  0.24666577  0.23243716  1.0
  C  C73  1  0.99267706  0.25335807  0.27079367  1.0
  C  C74  1  0.00725661  0.30816573  0.32583783  1.0
  C  C75  1  0.68237111  0.34653314  0.30686634  1.0
  C  C76  1  0.66808516  0.29491305  0.25198564  1.0
  C  C77  1  0.35253869  0.64748767  0.65803594  1.0
  C  C78  1  0.45439925  0.85281270  0.84486080  1.0
  C  C79  1  0.64449814  0.79294592  0.75394459  1.0
  C  C80  1  0.63013025  0.84449770  0.80891087  1.0
  C  C81  1  0.29819537  0.80885316  0.82489838  1.0
  C  C82  1  0.31180522  0.75408526  0.76974756  1.0
  C  C83  1  0.48977132  0.74573002  0.73316060  1.0
  C  C84  1  0.50923156  0.69131926  0.67795264  1.0
  C  C85  1  0.17621183  0.65524173  0.69297084  1.0
  C  C86  1  0.15483414  0.70636971  0.74901090  1.0
  C  C87  1  0.25346612  0.88378409  0.12109497  1.0
  C  C88  1  0.24633204  0.84723393  0.15665026  1.0
  C  C89  1  0.42343140  0.82954571  0.17862872  1.0
  C  C90  1  0.60820139  0.85079706  0.16427037  1.0
  C  C91  1  0.61604206  0.88746925  0.12875404  1.0
  C  C92  1  0.43864632  0.90389024  0.10647542  1.0
  C  C93  1  0.56880796  0.74497693  0.21158805  1.0
  C  C94  1  0.56050525  0.70679129  0.24565854  1.0
  C  C95  1  0.39823546  0.71127637  0.28494793  1.0
  C  C96  1  0.24444918  0.75570457  0.28848931  1.0
  C  C97  1  0.25276561  0.79387291  0.25440151  1.0
  C  C98  1  0.41511781  0.78942623  0.21517531  1.0
  C  C99  1  0.20591221  0.65052739  0.33663819  1.0
  C  C100  1  0.19823585  0.61476247  0.37299400  1.0
  C  C101  1  0.37577304  0.59868799  0.39546102  1.0
  C  C102  1  0.56080474  0.61813509  0.38003044  1.0
  C  C103  1  0.56778339  0.65402357  0.34385817  1.0
  C  C104  1  0.39043958  0.67145352  0.32179577  1.0
  C  C105  1  0.44487766  0.94103994  0.06656287  1.0
  C  C106  1  0.44157309  0.90782388  0.90497595  1.0
  C  C107  1  0.93604961  0.06225874  0.93640085  1.0
  C  C108  1  0.94750592  0.09193532  0.09773836  1.0
  N  N109  1  0.98944214  0.70985528  0.78510839  1.0
  N  N110  1  0.27056160  0.20766186  0.85644137  1.0
  Cl  Cl111  1  0.34253100  0.20578940  0.29762745  1.0
  O  O112  1  0.53893038  0.55030072  0.45467563  1.0
  O  O113  1  0.19833166  0.56887885  0.57286911  1.0
  O  O114  1  0.03792727  0.45133235  0.54683376  1.0
  O  O115  1  0.19825946  0.54737350  0.45063617  1.0
  O  O116  1  0.03941090  0.42848527  0.42619629  1.0
  O  O117  1  0.53820567  0.57314474  0.57535020  1.0
  O  O118  1  0.37070092  0.46178060  0.49215156  1.0
  O  O119  1  0.69908226  0.43229843  0.42880597  1.0
  O  O120  1  0.69738413  0.45500681  0.55133714  1.0
  O  O121  1  0.87048689  0.53939233  0.50889903  1.0
  O  O122  1  0.26751618  0.92946320  0.92529881  1.0
  O  O123  1  0.61512270  0.96047856  0.05597652  1.0
  O  O124  1  0.77689521  0.07584291  0.07225447  1.0
  O  O125  1  0.60844141  0.92832463  0.93167575  1.0
  O  O126  1  0.76572904  0.04527757  0.94973684  1.0
  O  O127  1  0.27796179  0.94983670  0.04485963  1.0
  O  O128  1  0.43908996  0.03969188  0.00785381  1.0
  O  O129  1  0.10583429  0.05139706  0.95551849  1.0
  O  O130  1  0.11475136  0.06581094  0.07596247  1.0
  O  O131  1  0.93953327  0.96194801  0.99285684  1.0
