# generated using pymatgen
data_AlH6C14BrClO5
_symmetry_space_group_name_H-M   'P 1'
_cell_length_a   6.60758968
_cell_length_b   11.11404440
_cell_length_c   17.47720523
_cell_angle_alpha   86.92802698
_cell_angle_beta   80.12094059
_cell_angle_gamma   72.85005691
_symmetry_Int_Tables_number   1
_chemical_formula_structural   AlH6C14BrClO5
_chemical_formula_sum   'Al2 H12 C28 Br2 Cl2 O10'
_cell_volume   1208.21518338
_cell_formula_units_Z   2
loop_
 _symmetry_equiv_pos_site_id
 _symmetry_equiv_pos_as_xyz
  1  'x, y, z'
loop_
 _atom_site_type_symbol
 _atom_site_label
 _atom_site_symmetry_multiplicity
 _atom_site_fract_x
 _atom_site_fract_y
 _atom_site_fract_z
 _atom_site_occupancy
  Al  Al0  1  0.01937876  0.46547672  0.49643500  1.0
  Al  Al1  1  0.51695331  0.46994244  0.49704281  1.0
  H  H2  1  0.36632798  0.32034582  0.45496025  1.0
  H  H3  1  0.69926317  0.51767737  0.59196347  1.0
  H  H4  1  0.84578841  0.60739389  0.71318611  1.0
  H  H5  1  0.74465974  0.67497226  0.85082966  1.0
  H  H6  1  0.37238992  0.45071231  0.89254670  1.0
  H  H7  1  0.58434425  0.70602298  0.12976851  1.0
  H  H8  1  0.16890037  0.44576659  0.26409218  1.0
  H  H9  1  0.24424570  0.48139906  0.12120145  1.0
  H  H10  1  0.54574562  0.19890211  0.59758636  1.0
  H  H11  1  0.76134549  0.73177481  0.58370682  1.0
  H  H12  1  0.37188131  0.84764493  0.44698198  1.0
  H  H13  1  0.25770039  0.08333169  0.44910098  1.0
  C  C14  1  0.88259471  0.23835083  0.50258981  1.0
  C  C15  1  0.80530126  0.50920169  0.35997542  1.0
  C  C16  1  0.14467273  0.69380479  0.49902614  1.0
  C  C17  1  0.21260520  0.46600447  0.63886403  1.0
  C  C18  1  0.16478676  0.49403714  0.72367191  1.0
  C  C19  1  0.96051456  0.57417655  0.75310193  1.0
  C  C20  1  0.90350232  0.61199454  0.83003812  1.0
  C  C21  1  0.05145800  0.56685784  0.88177020  1.0
  C  C22  1  0.25699519  0.48687315  0.85319515  1.0
  C  C23  1  0.31355452  0.45162458  0.77539591  1.0
  C  C24  1  0.99672313  0.59289859  0.96229054  1.0
  C  C25  1  0.95568046  0.60122934  0.03299220  1.0
  C  C26  1  0.91740938  0.59274610  0.11498841  1.0
  C  C27  1  0.71310201  0.64716156  0.15841882  1.0
  C  C28  1  0.67204108  0.62459767  0.23804608  1.0
  C  C29  1  0.83530438  0.54771446  0.27666860  1.0
  C  C30  1  0.04207925  0.50096850  0.23320801  1.0
  C  C31  1  0.08436069  0.52156859  0.15408223  1.0
  C  C32  1  0.94233104  0.09853306  0.51032987  1.0
  C  C33  1  0.79594001  0.03351572  0.54913432  1.0
  C  C34  1  0.14728109  0.03162609  0.47614044  1.0
  C  C35  1  0.59538347  0.09680722  0.59387861  1.0
  C  C36  1  0.46354668  0.03111139  0.63459433  1.0
  C  C37  1  0.06911753  0.83353254  0.50645655  1.0
  C  C38  1  0.21112665  0.89967218  0.47452922  1.0
  C  C39  1  0.85992655  0.89824979  0.54630913  1.0
  C  C40  1  0.71831556  0.83364595  0.58729767  1.0
  C  C41  1  0.52601066  0.89764912  0.63119476  1.0
  Br  Br42  1  0.20153384  0.12298539  0.69491210  1.0
  Br  Br43  1  0.35304806  0.80214286  0.68718415  1.0
  Cl  Cl44  1  0.56847855  0.35035120  0.74802375  1.0
  Cl  Cl45  1  0.41613685  0.69833484  0.28548733  1.0
  O  O46  1  0.02939415  0.29030844  0.50546087  1.0
  O  O47  1  0.61881064  0.50917830  0.39325025  1.0
  O  O48  1  0.33884391  0.63992760  0.50623663  1.0
  O  O49  1  0.05291142  0.47248145  0.60530954  1.0
  O  O50  1  0.01102103  0.63833671  0.48600656  1.0
  O  O51  1  0.40659553  0.44383300  0.60525116  1.0
  O  O52  1  0.69251849  0.29530417  0.49070442  1.0
  O  O53  1  0.97352701  0.47385782  0.39148978  1.0
  O  O54  1  0.31294840  0.41056083  0.46352232  1.0
  O  O55  1  0.72765944  0.51568244  0.53556647  1.0
