# generated using pymatgen
data_Zr3H21C45N5O28
_symmetry_space_group_name_H-M   'P 1'
_cell_length_a   18.91566859
_cell_length_b   19.05261119
_cell_length_c   19.05254276
_cell_angle_alpha   89.60035091
_cell_angle_beta   60.28282484
_cell_angle_gamma   119.72218034
_symmetry_Int_Tables_number   1
_chemical_formula_structural   Zr3H21C45N5O28
_chemical_formula_sum   'Zr6 H42 C90 N10 O56'
_cell_volume   4879.36304412
_cell_formula_units_Z   2
loop_
 _symmetry_equiv_pos_site_id
 _symmetry_equiv_pos_as_xyz
  1  'x, y, z'
loop_
 _atom_site_type_symbol
 _atom_site_label
 _atom_site_symmetry_multiplicity
 _atom_site_fract_x
 _atom_site_fract_y
 _atom_site_fract_z
 _atom_site_occupancy
  Zr  Zr0  1  0.50072449  0.09712802  0.91006132  1.0
  Zr  Zr1  1  0.49889059  0.91004520  0.09714547  1.0
  Zr  Zr2  1  0.31356417  0.91189847  0.09540218  1.0
  Zr  Zr3  1  0.68603328  0.09535186  0.91194818  1.0
  Zr  Zr4  1  0.49980291  0.09606127  0.09606623  1.0
  Zr  Zr5  1  0.49981465  0.91111595  0.91110464  1.0
  H  H6  1  0.35400258  0.07821467  0.07438416  1.0
  H  H7  1  0.64556988  0.07437565  0.07824558  1.0
  H  H8  1  0.35259118  0.78456212  0.07675826  1.0
  H  H9  1  0.64702274  0.07676926  0.78456735  1.0
  H  H10  1  0.48828215  0.54232871  0.11890696  1.0
  H  H11  1  0.48962078  0.45381710  0.89880043  1.0
  H  H12  1  0.56334864  0.35260109  0.07841277  1.0
  H  H13  1  0.57996780  0.49054210  0.07171339  1.0
  H  H14  1  0.56033613  0.71628911  0.86707769  1.0
  H  H15  1  0.57841982  0.59580363  0.85657415  1.0
  H  H16  1  0.50990268  0.89871792  0.45384470  1.0
  H  H17  1  0.51158333  0.11901763  0.54214832  1.0
  H  H18  1  0.43894404  0.86704404  0.71648815  1.0
  H  H19  1  0.42099926  0.85653784  0.59590772  1.0
  H  H20  1  0.43637334  0.07844438  0.35254832  1.0
  H  H21  1  0.41979276  0.07177766  0.49047637  1.0
  H  H22  1  0.15490521  0.54843796  0.89560426  1.0
  H  H23  1  0.84510764  0.44576735  0.12365281  1.0
  H  H24  1  0.92161556  0.35863527  0.86419433  1.0
  H  H25  1  0.05077565  0.49741772  0.85512536  1.0
  H  H26  1  0.07031464  0.70987413  0.08748679  1.0
  H  H27  1  0.93856403  0.58940450  0.08129867  1.0
  H  H28  1  0.15449010  0.12379192  0.44560146  1.0
  H  H29  1  0.84479107  0.89589806  0.54815419  1.0
  H  H30  1  0.92934846  0.08738779  0.70990361  1.0
  H  H31  1  0.06111997  0.08133006  0.58929735  1.0
  H  H32  1  0.07800056  0.86420781  0.35867487  1.0
  H  H33  1  0.94877089  0.85524878  0.49735475  1.0
  H  H34  1  0.70768038  0.87534869  0.10511067  1.0
  H  H35  1  0.75730432  0.79994088  0.15790121  1.0
  H  H36  1  0.92838543  0.09648423  0.87694955  1.0
  H  H37  1  0.29186858  0.10515537  0.87547657  1.0
  H  H38  1  0.24226065  0.15811450  0.80018977  1.0
  H  H39  1  0.07120505  0.87674034  0.09634223  1.0
  H  H40  1  0.93498540  0.53845088  0.44794124  1.0
  H  H41  1  0.06484533  0.44794511  0.53867350  1.0
  H  H42  1  0.71232651  0.35175004  0.71546228  1.0
  H  H43  1  0.83965644  0.48815603  0.59266829  1.0
  H  H44  1  0.28748452  0.71555893  0.35173715  1.0
  H  H45  1  0.16028524  0.59280478  0.48813305  1.0
  H  H46  1  0.97539560  0.76540100  0.06469579  1.0
  H  H47  1  0.02457193  0.06479877  0.76533473  1.0
  C  C48  1  0.51072973  0.24405971  0.99733692  1.0
  C  C49  1  0.48889118  0.99733861  0.24407614  1.0
  C  C50  1  0.50736329  0.77220838  0.00053134  1.0
  C  C51  1  0.49215514  0.00058274  0.77225765  1.0
  C  C52  1  0.26530370  0.99931043  0.99521136  1.0
  C  C53  1  0.73700383  0.24255566  0.77269913  1.0
  C  C54  1  0.73427619  0.99519409  0.99938023  1.0
  C  C55  1  0.26270382  0.77264548  0.24255076  1.0
  C  C56  1  0.26461480  0.00062237  0.24183601  1.0
  C  C57  1  0.26404580  0.77390661  0.99852267  1.0
  C  C58  1  0.73562629  0.99851631  0.77390532  1.0
  C  C59  1  0.73501030  0.24179861  0.00067174  1.0
  C  C60  1  0.51612860  0.69862416  0.99706572  1.0
  C  C61  1  0.52007588  0.32660032  0.99166024  1.0
  C  C62  1  0.49828390  0.64919923  0.06627097  1.0
  C  C63  1  0.50676207  0.58085247  0.06226382  1.0
  C  C64  1  0.50206139  0.35812817  0.94018243  1.0
  C  C65  1  0.50871117  0.43406068  0.93680016  1.0
  C  C66  1  0.54832785  0.37617287  0.03874227  1.0
  C  C67  1  0.55647555  0.45289193  0.03532145  1.0
  C  C68  1  0.54520650  0.67772516  0.92162371  1.0
  C  C69  1  0.55450461  0.60972762  0.91646270  1.0
  C  C70  1  0.53391614  0.55926734  0.98713318  1.0
  C  C71  1  0.53488900  0.48229370  0.98559779  1.0
  C  C72  1  0.47955683  0.99165948  0.32659061  1.0
  C  C73  1  0.48333026  0.99708257  0.69869798  1.0
  C  C74  1  0.49745224  0.94009748  0.35815762  1.0
  C  C75  1  0.49086584  0.93676130  0.43406148  1.0
  C  C76  1  0.50129883  0.06632281  0.64918944  1.0
  C  C77  1  0.49298193  0.06234779  0.58075047  1.0
  C  C78  1  0.45417860  0.92160862  0.67783912  1.0
  C  C79  1  0.44497066  0.91645586  0.60978986  1.0
  C  C80  1  0.45136475  0.03876720  0.37614435  1.0
  C  C81  1  0.44324127  0.03535979  0.45284777  1.0
  C  C82  1  0.46481410  0.98562956  0.48224369  1.0
  C  C83  1  0.46574419  0.98717971  0.55922490  1.0
  C  C84  1  0.18675431  0.69995001  0.99377780  1.0
  C  C85  1  0.81134756  0.32428595  0.99755790  1.0
  C  C86  1  0.20809603  0.65352605  0.93959501  1.0
  C  C87  1  0.13527012  0.58460872  0.93614461  1.0
  C  C88  1  0.79173448  0.35184390  0.06891389  1.0
  C  C89  1  0.86286974  0.42882372  0.06556408  1.0
  C  C90  1  0.90601838  0.37864545  0.92056649  1.0
  C  C91  1  0.97815995  0.45606596  0.91607628  1.0
  C  C92  1  0.08802353  0.67479233  0.04455245  1.0
  C  C93  1  0.01420662  0.60632148  0.04151516  1.0
  C  C94  1  0.03648323  0.55931230  0.98797968  1.0
  C  C95  1  0.95836091  0.48166086  0.98893638  1.0
  C  C96  1  0.18828744  0.99759001  0.32425383  1.0
  C  C97  1  0.81291034  0.99380845  0.69989053  1.0
  C  C98  1  0.20793304  0.06900096  0.35172290  1.0
  C  C99  1  0.13678655  0.06569843  0.42865949  1.0
  C  C100  1  0.79157264  0.93974296  0.65337269  1.0
  C  C101  1  0.86439968  0.93632892  0.58441665  1.0
  C  C102  1  0.91163613  0.04451898  0.67477266  1.0
  C  C103  1  0.98546954  0.04156875  0.60622463  1.0
  C  C104  1  0.09357938  0.92062408  0.37860802  1.0
  C  C105  1  0.02142820  0.91617505  0.45597589  1.0
  C  C106  1  0.04127878  0.98907194  0.48150101  1.0
  C  C107  1  0.96317664  0.98812364  0.55915385  1.0
  C  C108  1  0.78574723  0.92149009  0.05277201  1.0
  C  C109  1  0.85974712  0.91684491  0.04780116  1.0
  C  C110  1  0.83544421  0.85008320  0.10865342  1.0
  C  C111  1  0.91160793  0.04623069  0.92262058  1.0
  C  C112  1  0.98783097  0.04330523  0.91472269  1.0
  C  C113  1  0.09189460  0.10502292  0.84645686  1.0
  C  C114  1  0.21381628  0.05278530  0.92158376  1.0
  C  C115  1  0.13981501  0.04785096  0.91696525  1.0
  C  C116  1  0.16410308  0.10881123  0.85029721  1.0
  C  C117  1  0.08796632  0.92245974  0.04615263  1.0
  C  C118  1  0.01174724  0.91457618  0.04321330  1.0
  C  C119  1  0.90766077  0.84624295  0.10484083  1.0
  C  C120  1  0.81216092  0.98695780  0.99150340  1.0
  C  C121  1  0.96201788  0.97955366  0.97998632  1.0
  C  C122  1  0.18740370  0.99140501  0.98694386  1.0
  C  C123  1  0.03754543  0.97993983  0.97956534  1.0
  C  C124  1  0.18409861  0.69782671  0.32376244  1.0
  C  C125  1  0.81567032  0.32377459  0.69788872  1.0
  C  C126  1  0.08364397  0.64736646  0.35378112  1.0
  C  C127  1  0.01132093  0.57764086  0.42924164  1.0
  C  C128  1  0.91612895  0.35379311  0.64750831  1.0
  C  C129  1  0.98850595  0.42924930  0.57777004  1.0
  C  C130  1  0.79007018  0.37398270  0.67633371  1.0
  C  C131  1  0.86173629  0.45001452  0.60702845  1.0
  C  C132  1  0.20974360  0.67636003  0.37396756  1.0
  C  C133  1  0.13813612  0.60706345  0.45000590  1.0
  C  C134  1  0.03791998  0.55578569  0.47838569  1.0
  C  C135  1  0.96194733  0.47837606  0.55581495  1.0
  C  C136  1  0.87425686  0.76760461  0.16404552  1.0
  C  C137  1  0.12529619  0.16424863  0.76783709  1.0
  N  N138  1  0.46383892  0.66340396  0.15012241  1.0
  N  N139  1  0.46966348  0.31033964  0.88916971  1.0
  N  N140  1  0.52957799  0.88887550  0.31053167  1.0
  N  N141  1  0.53577006  0.15018192  0.66338573  1.0
  N  N142  1  0.30854707  0.67148321  0.88560092  1.0
  N  N143  1  0.69570819  0.29794635  0.15424047  1.0
  N  N144  1  0.30395890  0.15431765  0.29780352  1.0
  N  N145  1  0.69108274  0.88579891  0.67137176  1.0
  N  N146  1  0.04894179  0.66250394  0.30432896  1.0
  N  N147  1  0.95081925  0.30439121  0.66277135  1.0
  O  O148  1  0.50670446  0.21163430  0.93990364  1.0
  O  O149  1  0.49292426  0.93989877  0.21166294  1.0
  O  O150  1  0.50324292  0.80052743  0.06200125  1.0
  O  O151  1  0.49638935  0.06210197  0.80052787  1.0
  O  O152  1  0.23552901  0.94308909  0.05878603  1.0
  O  O153  1  0.76593772  0.21028274  0.80231753  1.0
  O  O154  1  0.76405102  0.05877745  0.94317775  1.0
  O  O155  1  0.23368670  0.80225640  0.21037336  1.0
  O  O156  1  0.35505971  0.06140073  0.20937671  1.0
  O  O157  1  0.35443137  0.80267255  0.94113153  1.0
  O  O158  1  0.64521757  0.94111145  0.80271680  1.0
  O  O159  1  0.64456516  0.20932728  0.06146355  1.0
  O  O160  1  0.23400447  0.80259786  0.05916602  1.0
  O  O161  1  0.76568204  0.05913389  0.80262285  1.0
  O  O162  1  0.76587361  0.21084101  0.94263811  1.0
  O  O163  1  0.23372347  0.94254383  0.21092595  1.0
  O  O164  1  0.35542180  0.06152306  0.93906492  1.0
  O  O165  1  0.35257408  0.80118357  0.21178797  1.0
  O  O166  1  0.64415393  0.93901707  0.06155556  1.0
  O  O167  1  0.64714174  0.21183858  0.80124101  1.0
  O  O168  1  0.49456351  0.94196841  0.80133270  1.0
  O  O169  1  0.50735457  0.21228685  0.05882708  1.0
  O  O170  1  0.49223470  0.05880980  0.21231028  1.0
  O  O171  1  0.50495230  0.80128741  0.94192101  1.0
  O  O172  1  0.60555037  0.05603700  0.84679862  1.0
  O  O173  1  0.39408491  0.84679805  0.05606554  1.0
  O  O174  1  0.60421376  0.05487364  0.05701548  1.0
  O  O175  1  0.39534784  0.05697731  0.05490919  1.0
  O  O176  1  0.42217544  0.96514301  0.11867912  1.0
  O  O177  1  0.57743964  0.11866034  0.96514511  1.0
  O  O178  1  0.57669481  0.96461830  0.96591149  1.0
  O  O179  1  0.42293668  0.96590634  0.96464792  1.0
  O  O180  1  0.37509386  0.63590384  0.19765863  1.0
  O  O181  1  0.52539664  0.69717522  0.16764573  1.0
  O  O182  1  0.38081843  0.25062334  0.92793648  1.0
  O  O183  1  0.53311331  0.33730186  0.81103077  1.0
  O  O184  1  0.61841394  0.92740319  0.25089616  1.0
  O  O185  1  0.46588032  0.81077605  0.33757726  1.0
  O  O186  1  0.62451297  0.19771457  0.63589300  1.0
  O  O187  1  0.47421725  0.16770364  0.69718311  1.0
  O  O188  1  0.33205712  0.64189816  0.92137561  1.0
  O  O189  1  0.35808936  0.71012397  0.80813623  1.0
  O  O190  1  0.68065895  0.23511147  0.19419066  1.0
  O  O191  1  0.64089021  0.32280950  0.18045140  1.0
  O  O192  1  0.31904727  0.19417352  0.23489083  1.0
  O  O193  1  0.35872841  0.18064200  0.32272288  1.0
  O  O194  1  0.66752390  0.92162584  0.64191125  1.0
  O  O195  1  0.64148791  0.80831969  0.70999473  1.0
  O  O196  1  0.06354566  0.63628010  0.24275223  1.0
  O  O197  1  0.00361822  0.69628448  0.33136551  1.0
  O  O198  1  0.93639378  0.24286630  0.63647961  1.0
  O  O199  1  0.99597239  0.33143584  0.69670125  1.0
  O  O200  1  0.92449466  0.73104422  0.12557476  1.0
  O  O201  1  0.80554370  0.73369632  0.23931668  1.0
  O  O202  1  0.07527182  0.12573216  0.73112016  1.0
  O  O203  1  0.19380875  0.23960023  0.73408453  1.0
