# generated using pymatgen
data_TbH15C24(NO)6
_symmetry_space_group_name_H-M   'P 1'
_cell_length_a   14.61245952
_cell_length_b   19.77944395
_cell_length_c   30.76806921
_cell_angle_alpha   89.99997946
_cell_angle_beta   77.65818582
_cell_angle_gamma   89.99997501
_symmetry_Int_Tables_number   1
_chemical_formula_structural   TbH15C24(NO)6
_chemical_formula_sum   'Tb8 H120 C192 N48 O48'
_cell_volume   8687.26837920
_cell_formula_units_Z   8
loop_
 _symmetry_equiv_pos_site_id
 _symmetry_equiv_pos_as_xyz
  1  'x, y, z'
loop_
 _atom_site_type_symbol
 _atom_site_label
 _atom_site_symmetry_multiplicity
 _atom_site_fract_x
 _atom_site_fract_y
 _atom_site_fract_z
 _atom_site_occupancy
  Tb  Tb0  1  0.67982169  0.24445751  0.23761680  1.0
  Tb  Tb1  1  0.82017846  0.74445775  0.76238343  1.0
  Tb  Tb2  1  0.32017860  0.75554308  0.76238325  1.0
  Tb  Tb3  1  0.17982113  0.25554233  0.23761701  1.0
  Tb  Tb4  1  0.90990598  0.26160557  0.26676417  1.0
  Tb  Tb5  1  0.59009416  0.76160590  0.73323573  1.0
  Tb  Tb6  1  0.09009431  0.73839451  0.73323620  1.0
  Tb  Tb7  1  0.40990683  0.23839418  0.26676424  1.0
  H  H8  1  0.82451732  0.91100891  0.86133869  1.0
  H  H9  1  0.67548275  0.41100873  0.13866151  1.0
  H  H10  1  0.17548227  0.08899167  0.13866142  1.0
  H  H11  1  0.32451684  0.58899084  0.86133828  1.0
  H  H12  1  0.85417301  0.98812987  0.92083543  1.0
  H  H13  1  0.64582773  0.48812973  0.07916501  1.0
  H  H14  1  0.14582868  0.01186971  0.07916480  1.0
  H  H15  1  0.35417186  0.51186985  0.92083478  1.0
  H  H16  1  0.14753902  0.99466203  0.85738728  1.0
  H  H17  1  0.35246198  0.49466281  0.14261344  1.0
  H  H18  1  0.85246267  0.00533805  0.14261263  1.0
  H  H19  1  0.64753761  0.50533829  0.85738700  1.0
  H  H20  1  0.11686713  0.91686058  0.79903474  1.0
  H  H21  1  0.38313321  0.41686080  0.20096574  1.0
  H  H22  1  0.88313316  0.08313951  0.20096531  1.0
  H  H23  1  0.61686638  0.58313928  0.79903405  1.0
  H  H24  1  0.95530678  0.14338542  0.02678626  1.0
  H  H25  1  0.54469343  0.64338513  0.97321432  1.0
  H  H26  1  0.04469351  0.85661365  0.97321411  1.0
  H  H27  1  0.45530546  0.35661445  0.02678619  1.0
  H  H28  1  0.82434948  0.17331650  0.08990166  1.0
  H  H29  1  0.67565071  0.67331620  0.91009826  1.0
  H  H30  1  0.17565081  0.82668308  0.91009838  1.0
  H  H31  1  0.32434888  0.32668338  0.08990218  1.0
  H  H32  1  0.01783826  0.27770479  0.15381200  1.0
  H  H33  1  0.48216075  0.77770391  0.84618799  1.0
  H  H34  1  0.98216063  0.72229530  0.84618786  1.0
  H  H35  1  0.51783954  0.22229617  0.15381205  1.0
  H  H36  1  0.14728816  0.24906495  0.09181835  1.0
  H  H37  1  0.35271227  0.74906408  0.90818216  1.0
  H  H38  1  0.85271143  0.75093564  0.90818177  1.0
  H  H39  1  0.64728732  0.25093600  0.09181796  1.0
  H  H40  1  0.33129869  0.86107231  0.84849135  1.0
  H  H41  1  0.16870238  0.36107161  0.15150777  1.0
  H  H42  1  0.66870230  0.13892727  0.15150700  1.0
  H  H43  1  0.83129791  0.63892746  0.84849163  1.0
  H  H44  1  0.26482763  0.95115926  0.90140009  1.0
  H  H45  1  0.23517409  0.45116010  0.09859959  1.0
  H  H46  1  0.73517336  0.04883930  0.09859859  1.0
  H  H47  1  0.76482620  0.54883999  0.90140013  1.0
  H  H48  1  0.48336607  0.08700553  0.83751130  1.0
  H  H49  1  0.01663163  0.58700367  0.16248887  1.0
  H  H50  1  0.51663282  0.91299556  0.16248954  1.0
  H  H51  1  0.98336655  0.41299540  0.83751106  1.0
  H  H52  1  0.55057792  0.99524896  0.78444866  1.0
  H  H53  1  0.94942141  0.49524612  0.21555095  1.0
  H  H54  1  0.44942307  0.00475314  0.21555098  1.0
  H  H55  1  0.05057818  0.50475295  0.78444917  1.0
  H  H56  1  0.17313135  0.86907817  0.65414159  1.0
  H  H57  1  0.32686902  0.36907783  0.34585825  1.0
  H  H58  1  0.82686824  0.13092141  0.34585853  1.0
  H  H59  1  0.67313127  0.63092175  0.65414180  1.0
  H  H60  1  0.16445717  0.96395396  0.60280083  1.0
  H  H61  1  0.33554315  0.46395459  0.39719899  1.0
  H  H62  1  0.83554242  0.03604562  0.39719929  1.0
  H  H63  1  0.66445574  0.53604599  0.60280120  1.0
  H  H64  1  0.30063626  0.09426920  0.68201672  1.0
  H  H65  1  0.19936285  0.59426922  0.31798298  1.0
  H  H66  1  0.69936473  0.90572987  0.31798260  1.0
  H  H67  1  0.80063674  0.40572985  0.68201616  1.0
  H  H68  1  0.31121875  0.99755191  0.73292280  1.0
  H  H69  1  0.18878155  0.49755115  0.26707701  1.0
  H  H70  1  0.68878224  0.00244817  0.26707717  1.0
  H  H71  1  0.81122294  0.50244792  0.73292130  1.0
  H  H72  1  0.22533910  0.28122146  0.42460335  1.0
  H  H73  1  0.27465991  0.78122080  0.57539665  1.0
  H  H74  1  0.77466119  0.71878065  0.57539735  1.0
  H  H75  1  0.72533968  0.21878029  0.42460282  1.0
  H  H76  1  0.16700435  0.29940653  0.35600430  1.0
  H  H77  1  0.33299395  0.79940531  0.64399576  1.0
  H  H78  1  0.83299664  0.70059709  0.64399600  1.0
  H  H79  1  0.66700354  0.20059578  0.35600457  1.0
  H  H80  1  0.93556130  0.16615846  0.40468729  1.0
  H  H81  1  0.56443890  0.66615938  0.59531198  1.0
  H  H82  1  0.06444249  0.83383960  0.59531175  1.0
  H  H83  1  0.43555789  0.33384020  0.40468810  1.0
  H  H84  1  0.99290250  0.14794912  0.47413799  1.0
  H  H85  1  0.50709701  0.64794959  0.52586168  1.0
  H  H86  1  0.00709920  0.85205147  0.52586191  1.0
  H  H87  1  0.49290118  0.35205049  0.47413793  1.0
  H  H88  1  0.79762607  0.98292255  0.55824993  1.0
  H  H89  1  0.70237396  0.48292270  0.44174961  1.0
  H  H90  1  0.20237422  0.01707703  0.44175011  1.0
  H  H91  1  0.29762563  0.51707738  0.55825018  1.0
  H  H92  1  0.70711734  0.89631850  0.60870270  1.0
  H  H93  1  0.79288133  0.39631814  0.39129733  1.0
  H  H94  1  0.29288155  0.10368158  0.39129749  1.0
  H  H95  1  0.20711825  0.60368194  0.60870279  1.0
  H  H96  1  0.90391288  0.90997302  0.69386877  1.0
  H  H97  1  0.59608789  0.40997379  0.30613104  1.0
  H  H98  1  0.09608741  0.09002655  0.30613160  1.0
  H  H99  1  0.40391240  0.59002680  0.69386901  1.0
  H  H100  1  0.99530115  0.99666960  0.64398717  1.0
  H  H101  1  0.50469958  0.49667036  0.35601230  1.0
  H  H102  1  0.00469984  0.00332947  0.35601281  1.0
  H  H103  1  0.49530071  0.50333023  0.64398710  1.0
  H  H104  1  0.95442989  0.05008376  0.95062116  1.0
  H  H105  1  0.54557107  0.55008347  0.04937903  1.0
  H  H106  1  0.04557040  0.94991633  0.04937888  1.0
  H  H107  1  0.45442852  0.44991560  0.95062076  1.0
  H  H108  1  0.20060029  0.19611756  0.02588408  1.0
  H  H109  1  0.29940017  0.69611769  0.97411676  1.0
  H  H110  1  0.79940070  0.80388201  0.97411622  1.0
  H  H111  1  0.70059872  0.30388239  0.02588408  1.0
  H  H112  1  0.38395057  0.10916135  0.91183113  1.0
  H  H113  1  0.11604853  0.60916203  0.08816889  1.0
  H  H114  1  0.61604902  0.89083671  0.08816898  1.0
  H  H115  1  0.88395106  0.39083754  0.91183090  1.0
  H  H116  1  0.28233520  0.12463459  0.60637416  1.0
  H  H117  1  0.21766529  0.62463456  0.39362604  1.0
  H  H118  1  0.71766509  0.87536549  0.39362653  1.0
  H  H119  1  0.78233360  0.37536552  0.60637349  1.0
  H  H120  1  0.91352936  0.05771503  0.54379838  1.0
  H  H121  1  0.58647089  0.55771450  0.45620189  1.0
  H  H122  1  0.08647093  0.94228505  0.45620199  1.0
  H  H123  1  0.41352870  0.44228558  0.54379823  1.0
  H  H124  1  0.21654939  0.22276530  0.49020862  1.0
  H  H125  1  0.28344964  0.72276518  0.50979073  1.0
  H  H126  1  0.78345020  0.77723630  0.50979279  1.0
  H  H127  1  0.71654924  0.27723540  0.49020815  1.0
  C  C128  1  0.95270187  0.85803371  0.79327204  1.0
  C  C129  1  0.54729823  0.35803303  0.20672882  1.0
  C  C130  1  0.04729842  0.14196637  0.20672800  1.0
  C  C131  1  0.45270136  0.64196705  0.79327162  1.0
  C  C132  1  0.96882112  0.90884453  0.82634570  1.0
  C  C133  1  0.53118036  0.40884438  0.17365468  1.0
  C  C134  1  0.03117917  0.09115606  0.17365434  1.0
  C  C135  1  0.46882133  0.59115621  0.82634522  1.0
  C  C136  1  0.89484071  0.92993512  0.86069703  1.0
  C  C137  1  0.60516006  0.42993445  0.13930375  1.0
  C  C138  1  0.10516169  0.07006547  0.13930280  1.0
  C  C139  1  0.39483813  0.57006512  0.86069651  1.0
  C  C140  1  0.91177406  0.97286452  0.89373651  1.0
  C  C141  1  0.58822668  0.47286388  0.10626393  1.0
  C  C142  1  0.08822693  0.02713556  0.10626346  1.0
  C  C143  1  0.41177220  0.52713468  0.89373593  1.0
  C  C144  1  0.00322533  0.99606957  0.89319413  1.0
  C  C145  1  0.49677497  0.49606930  0.10680633  1.0
  C  C146  1  0.99677636  0.00393152  0.10680577  1.0
  C  C147  1  0.50322392  0.50392977  0.89319353  1.0
  C  C148  1  0.07707645  0.97665345  0.85817670  1.0
  C  C149  1  0.42292527  0.47665319  0.14182395  1.0
  C  C150  1  0.92292524  0.02334764  0.14182320  1.0
  C  C151  1  0.57707502  0.52334689  0.85817642  1.0
  C  C152  1  0.05914386  0.93324526  0.82550485  1.0
  C  C153  1  0.44085508  0.43324548  0.17449609  1.0
  C  C154  1  0.94085643  0.06675482  0.17449519  1.0
  C  C155  1  0.55914311  0.56675510  0.82550482  1.0
  C  C156  1  0.09179831  0.06612631  0.93917157  1.0
  C  C157  1  0.40820221  0.56612539  0.06082930  1.0
  C  C158  1  0.90820198  0.93387478  0.06082848  1.0
  C  C159  1  0.59179808  0.43387469  0.93917140  1.0
  C  C160  1  0.24677120  0.08625223  0.92782040  1.0
  C  C161  1  0.25322861  0.58625288  0.07217956  1.0
  C  C162  1  0.75322909  0.91374684  0.07217932  1.0
  C  C163  1  0.74677098  0.41374670  0.92782088  1.0
  C  C164  1  0.14782463  0.13613989  0.98531565  1.0
  C  C165  1  0.35217585  0.63614002  0.01468488  1.0
  C  C166  1  0.85217636  0.86385919  0.01468432  1.0
  C  C167  1  0.64782374  0.36386006  0.98531524  1.0
  C  C168  1  0.05994816  0.19436576  0.05471210  1.0
  C  C169  1  0.44005300  0.69436484  0.94528867  1.0
  C  C170  1  0.94005283  0.80563382  0.94528820  1.0
  C  C171  1  0.55994589  0.30563524  0.05471184  1.0
  C  C172  1  0.96786474  0.17367241  0.05428664  1.0
  C  C173  1  0.53213475  0.67367213  0.94571368  1.0
  C  C174  1  0.03213485  0.82632716  0.94571348  1.0
  C  C175  1  0.46786414  0.32632744  0.05428683  1.0
  C  C176  1  0.89530537  0.19062587  0.08957681  1.0
  C  C177  1  0.60469482  0.69062559  0.91042311  1.0
  C  C178  1  0.10469492  0.80937320  0.91042258  1.0
  C  C179  1  0.39530407  0.30937398  0.08957741  1.0
  C  C180  1  0.91152950  0.22788930  0.12599521  1.0
  C  C181  1  0.58846996  0.72788803  0.87400477  1.0
  C  C182  1  0.08847009  0.77211028  0.87400490  1.0
  C  C183  1  0.41153033  0.27211054  0.12599528  1.0
  C  C184  1  0.00303458  0.24950481  0.12579544  1.0
  C  C185  1  0.49696445  0.74950392  0.87420489  1.0
  C  C186  1  0.99696501  0.75049527  0.87420435  1.0
  C  C187  1  0.50303444  0.25049515  0.12579563  1.0
  C  C188  1  0.07616662  0.23330870  0.09065332  1.0
  C  C189  1  0.42383311  0.73330882  0.90934629  1.0
  C  C190  1  0.92383297  0.76669037  0.90934615  1.0
  C  C191  1  0.57616648  0.26669075  0.09065350  1.0
  C  C192  1  0.83300304  0.23960500  0.16411725  1.0
  C  C193  1  0.66699642  0.73960423  0.83588273  1.0
  C  C194  1  0.16699725  0.76039408  0.83588280  1.0
  C  C195  1  0.33300247  0.26039434  0.16411745  1.0
  C  C196  1  0.48711613  0.86799363  0.78210464  1.0
  C  C197  1  0.01288423  0.36799244  0.21789487  1.0
  C  C198  1  0.51288556  0.13200747  0.21789428  1.0
  C  C199  1  0.98711606  0.63200713  0.78210518  1.0
  C  C200  1  0.44532574  0.92237230  0.81296491  1.0
  C  C201  1  0.05467320  0.42237163  0.18703474  1.0
  C  C202  1  0.55467525  0.07762778  0.18703409  1.0
  C  C203  1  0.94532569  0.57762744  0.81296577  1.0
  C  C204  1  0.36481327  0.91048522  0.84607864  1.0
  C  C205  1  0.13518707  0.41048454  0.15391989  1.0
  C  C206  1  0.63518772  0.08951487  0.15392004  1.0
  C  C207  1  0.86481322  0.58951555  0.84607918  1.0
  C  C208  1  0.32719634  0.96097753  0.87587190  1.0
  C  C209  1  0.17280118  0.46097787  0.12412821  1.0
  C  C210  1  0.67280255  0.03902154  0.12412764  1.0
  C  C211  1  0.82719701  0.53902221  0.87587205  1.0
  C  C212  1  0.36967199  0.02504727  0.87313773  1.0
  C  C213  1  0.13032855  0.52504590  0.12686151  1.0
  C  C214  1  0.63032900  0.97495281  0.12686126  1.0
  C  C215  1  0.86967174  0.47495266  0.87313853  1.0
  C  C216  1  0.45051577  0.03718057  0.83996003  1.0
  C  C217  1  0.04948126  0.53717972  0.16004022  1.0
  C  C218  1  0.54948242  0.96281850  0.16003990  1.0
  C  C219  1  0.95051763  0.46281935  0.83995997  1.0
  C  C220  1  0.48793570  0.98628208  0.81025562  1.0
  C  C221  1  0.01206390  0.48627940  0.18974394  1.0
  C  C222  1  0.51206389  0.01371952  0.18974417  1.0
  C  C223  1  0.98793779  0.51371968  0.81025564  1.0
  C  C224  1  0.25137664  0.86965601  0.72586109  1.0
  C  C225  1  0.24862302  0.36965573  0.27413914  1.0
  C  C226  1  0.74862295  0.13034407  0.27413935  1.0
  C  C227  1  0.75137867  0.63034384  0.72586044  1.0
  C  C228  1  0.24284683  0.92740689  0.69670073  1.0
  C  C229  1  0.25715211  0.42740608  0.30329892  1.0
  C  C230  1  0.75715346  0.07259269  0.30329964  1.0
  C  C231  1  0.74284958  0.57259248  0.69670001  1.0
  C  C232  1  0.20166907  0.91833435  0.65990903  1.0
  C  C233  1  0.29832987  0.41833453  0.34009127  1.0
  C  C234  1  0.79833052  0.08166573  0.34009109  1.0
  C  C235  1  0.70166902  0.58166606  0.65990924  1.0
  C  C236  1  0.19639943  0.97149511  0.63120799  1.0
  C  C237  1  0.30359948  0.47149476  0.36879230  1.0
  C  C238  1  0.80360016  0.02850447  0.36879278  1.0
  C  C239  1  0.69639871  0.52850482  0.63120764  1.0
  C  C240  1  0.23178392  0.03545564  0.63898647  1.0
  C  C241  1  0.26821241  0.53545612  0.36101320  1.0
  C  C242  1  0.76821427  0.96454343  0.36101346  1.0
  C  C243  1  0.73178507  0.46454396  0.63898615  1.0
  C  C244  1  0.27349766  0.04460452  0.67577200  1.0
  C  C245  1  0.22650077  0.54460452  0.32422908  1.0
  C  C246  1  0.72650193  0.95539455  0.32422811  1.0
  C  C247  1  0.77349952  0.45539505  0.67577097  1.0
  C  C248  1  0.27908770  0.99098501  0.70432296  1.0
  C  C249  1  0.22091120  0.49098371  0.29567635  1.0
  C  C250  1  0.72091188  0.00901508  0.29567651  1.0
  C  C251  1  0.77909119  0.50901536  0.70432218  1.0
  C  C252  1  0.16727685  0.10097268  0.58326291  1.0
  C  C253  1  0.33272365  0.60097260  0.41673632  1.0
  C  C254  1  0.83272414  0.89902791  0.41673706  1.0
  C  C255  1  0.66727523  0.39902749  0.58326322  1.0
  C  C256  1  0.12857587  0.15526947  0.52517177  1.0
  C  C257  1  0.37142460  0.65526985  0.47482875  1.0
  C  C258  1  0.87142442  0.84473111  0.47482957  1.0
  C  C259  1  0.62857499  0.34473023  0.52517071  1.0
  C  C260  1  0.11337696  0.21252742  0.45409882  1.0
  C  C261  1  0.38662278  0.71252776  0.54590079  1.0
  C  C262  1  0.88662543  0.78747266  0.54590134  1.0
  C  C263  1  0.61337540  0.28747333  0.45409947  1.0
  C  C264  1  0.16067810  0.25655394  0.42072065  1.0
  C  C265  1  0.33932162  0.75655326  0.57927895  1.0
  C  C266  1  0.83932569  0.74344614  0.57927806  1.0
  C  C267  1  0.66067586  0.24344581  0.42072073  1.0
  C  C268  1  0.12800803  0.26683079  0.38199373  1.0
  C  C269  1  0.37199168  0.76683058  0.61800587  1.0
  C  C270  1  0.87199436  0.73317030  0.61800610  1.0
  C  C271  1  0.62800651  0.23317000  0.38199406  1.0
  C  C272  1  0.04703337  0.23351945  0.37569966  1.0
  C  C273  1  0.45296496  0.73351972  0.62430041  1.0
  C  C274  1  0.95296762  0.76648114  0.62430031  1.0
  C  C275  1  0.54703183  0.26648137  0.37569966  1.0
  C  C276  1  0.99833528  0.19190841  0.40977429  1.0
  C  C277  1  0.50166350  0.69190733  0.59022577  1.0
  C  C278  1  0.00166781  0.80809217  0.59022580  1.0
  C  C279  1  0.49833259  0.30809123  0.40977437  1.0
  C  C280  1  0.02992380  0.18140826  0.44849078  1.0
  C  C281  1  0.47007596  0.68140806  0.55150884  1.0
  C  C282  1  0.97007719  0.81859182  0.55150952  1.0
  C  C283  1  0.52992293  0.31859151  0.44849070  1.0
  C  C284  1  0.01187521  0.23711108  0.33431146  1.0
  C  C285  1  0.48812382  0.73711131  0.66568822  1.0
  C  C286  1  0.98812508  0.76289052  0.66568858  1.0
  C  C287  1  0.51187507  0.26288978  0.33431132  1.0
  C  C288  1  0.03103808  0.07708629  0.56380998  1.0
  C  C289  1  0.46896244  0.57708717  0.43618958  1.0
  C  C290  1  0.96896221  0.92291379  0.43619007  1.0
  C  C291  1  0.53103715  0.42291342  0.56381021  1.0
  C  C292  1  0.90232966  0.99537030  0.59798172  1.0
  C  C293  1  0.59767037  0.49537100  0.40201814  1.0
  C  C294  1  0.09767063  0.00462878  0.40201865  1.0
  C  C295  1  0.40232922  0.50462958  0.59798132  1.0
  C  C296  1  0.82065433  0.96692361  0.58820111  1.0
  C  C297  1  0.67934641  0.46692378  0.41179868  1.0
  C  C298  1  0.17934666  0.03307597  0.41179918  1.0
  C  C299  1  0.32065318  0.53307630  0.58820143  1.0
  C  C300  1  0.77026066  0.91873873  0.61601383  1.0
  C  C301  1  0.72973941  0.41873992  0.38398572  1.0
  C  C302  1  0.22973963  0.08125983  0.38398621  1.0
  C  C303  1  0.27026088  0.58126067  0.61601433  1.0
  C  C304  1  0.79995930  0.89769920  0.65433360  1.0
  C  C305  1  0.70004077  0.39769991  0.34566596  1.0
  C  C306  1  0.20004169  0.10230038  0.34566638  1.0
  C  C307  1  0.29995881  0.60230018  0.65433351  1.0
  C  C308  1  0.88087370  0.92630868  0.66409876  1.0
  C  C309  1  0.61912707  0.42630942  0.33590137  1.0
  C  C310  1  0.11912659  0.07369039  0.33590161  1.0
  C  C311  1  0.38087322  0.57369117  0.66409867  1.0
  C  C312  1  0.93233887  0.97482319  0.63640603  1.0
  C  C313  1  0.56766187  0.47482343  0.36359409  1.0
  C  C314  1  0.06766212  0.02517639  0.36359394  1.0
  C  C315  1  0.43233912  0.52517716  0.63640621  1.0
  C  C316  1  0.74461928  0.84567145  0.68317406  1.0
  C  C317  1  0.75538013  0.34567165  0.31682590  1.0
  C  C318  1  0.25537961  0.15432762  0.31682645  1.0
  C  C319  1  0.24462016  0.65432843  0.68317415  1.0
  N  N320  1  0.01411374  0.03779894  0.92842707  1.0
  N  N321  1  0.48588679  0.53779850  0.07157347  1.0
  N  N322  1  0.98588654  0.96220165  0.07157232  1.0
  N  N323  1  0.51411350  0.46220209  0.92842657  1.0
  N  N324  1  0.17696540  0.05335395  0.91442536  1.0
  N  N325  1  0.32303513  0.55335406  0.08557485  1.0
  N  N326  1  0.82303489  0.94664613  0.08557403  1.0
  N  N327  1  0.67696516  0.44664653  0.91442552  1.0
  N  N328  1  0.23731191  0.12931107  0.96229138  1.0
  N  N329  1  0.26268928  0.62931122  0.03770875  1.0
  N  N330  1  0.76268908  0.87068800  0.03770860  1.0
  N  N331  1  0.73731101  0.37068886  0.96229129  1.0
  N  N332  1  0.07247787  0.10605058  0.97571140  1.0
  N  N333  1  0.42752262  0.60605170  0.02428815  1.0
  N  N334  1  0.92752312  0.89394950  0.02428824  1.0
  N  N335  1  0.57247696  0.39394939  0.97571131  1.0
  N  N336  1  0.13806169  0.17783041  0.02164967  1.0
  N  N337  1  0.36193807  0.67783102  0.97835092  1.0
  N  N338  1  0.86193860  0.82216917  0.97835070  1.0
  N  N339  1  0.63806012  0.32216907  0.02164966  1.0
  N  N340  1  0.33643651  0.07647743  0.90396969  1.0
  N  N341  1  0.16356470  0.57647708  0.09603078  1.0
  N  N342  1  0.66356448  0.92352113  0.09603061  1.0
  N  N343  1  0.83643559  0.42352250  0.90396959  1.0
  N  N344  1  0.22996026  0.09001987  0.60995816  1.0
  N  N345  1  0.27003885  0.59001983  0.39004122  1.0
  N  N346  1  0.77003863  0.90997970  0.39004203  1.0
  N  N347  1  0.72996004  0.40997975  0.60995864  1.0
  N  N348  1  0.19137221  0.14837947  0.55150580  1.0
  N  N349  1  0.30862757  0.64837938  0.44849317  1.0
  N  N350  1  0.80862808  0.85162162  0.44849392  1.0
  N  N351  1  0.69137202  0.35162120  0.55150662  1.0
  N  N352  1  0.04766018  0.12165378  0.52981129  1.0
  N  N353  1  0.45234031  0.62165312  0.47018859  1.0
  N  N354  1  0.95234011  0.87834732  0.47018940  1.0
  N  N355  1  0.54765927  0.37834746  0.52981120  1.0
  N  N356  1  0.08796850  0.06397013  0.59141558  1.0
  N  N357  1  0.41203342  0.56397104  0.40858417  1.0
  N  N358  1  0.91203319  0.93602894  0.40858433  1.0
  N  N359  1  0.58796617  0.43602854  0.59141562  1.0
  N  N360  1  0.94761151  0.04386124  0.56791354  1.0
  N  N361  1  0.55238805  0.54386226  0.43208647  1.0
  N  N362  1  0.05238878  0.95613783  0.43208650  1.0
  N  N363  1  0.44761014  0.45613833  0.56791346  1.0
  N  N364  1  0.15355266  0.20057409  0.49080831  1.0
  N  N365  1  0.34644639  0.70057294  0.50919170  1.0
  N  N366  1  0.84644693  0.79942802  0.50919246  1.0
  N  N367  1  0.65355250  0.29942664  0.49080784  1.0
  O  O368  1  0.02334533  0.83561413  0.76499869  1.0
  O  O369  1  0.47665575  0.33561430  0.23500174  1.0
  O  O370  1  0.97665566  0.16438595  0.23500161  1.0
  O  O371  1  0.52334524  0.66438628  0.76499791  1.0
  O  O372  1  0.84728220  0.26219814  0.20186318  1.0
  O  O373  1  0.65271724  0.76219790  0.79813712  1.0
  O  O374  1  0.15271879  0.73780043  0.79813712  1.0
  O  O375  1  0.34728235  0.23780117  0.20186332  1.0
  O  O376  1  0.22193195  0.81037781  0.71641687  1.0
  O  O377  1  0.27806844  0.31037752  0.28358298  1.0
  O  O378  1  0.77806764  0.18962227  0.28358357  1.0
  O  O379  1  0.72193255  0.68962206  0.71641667  1.0
  O  O380  1  0.67118419  0.82280378  0.67244686  1.0
  O  O381  1  0.82881663  0.32280395  0.32755296  1.0
  O  O382  1  0.32881680  0.17719630  0.32755311  1.0
  O  O383  1  0.17118296  0.67719664  0.67244683  1.0
  O  O384  1  0.93625768  0.20743214  0.33206417  1.0
  O  O385  1  0.56374110  0.70743251  0.66793589  1.0
  O  O386  1  0.06374261  0.79256946  0.66793620  1.0
  O  O387  1  0.43625709  0.29256808  0.33206372  1.0
  O  O388  1  0.56271785  0.87748074  0.75384108  1.0
  O  O389  1  0.93728154  0.37748042  0.24615920  1.0
  O  O390  1  0.43728174  0.12252035  0.24615806  1.0
  O  O391  1  0.06271805  0.62251916  0.75384059  1.0
  O  O392  1  0.44853580  0.80798537  0.78535771  1.0
  O  O393  1  0.05146460  0.30798418  0.21464246  1.0
  O  O394  1  0.55146589  0.19201522  0.21464154  1.0
  O  O395  1  0.94853569  0.69201540  0.78535823  1.0
  O  O396  1  0.86926394  0.83751394  0.79494500  1.0
  O  O397  1  0.63073617  0.33751373  0.20505521  1.0
  O  O398  1  0.13073705  0.16248614  0.20505497  1.0
  O  O399  1  0.36926482  0.66248685  0.79494508  1.0
  O  O400  1  0.05643058  0.27072375  0.29967892  1.0
  O  O401  1  0.44356773  0.77072399  0.70032083  1.0
  O  O402  1  0.94356901  0.72927785  0.70032185  1.0
  O  O403  1  0.55643045  0.22927610  0.29967878  1.0
  O  O404  1  0.29144194  0.87544635  0.75841614  1.0
  O  O405  1  0.20855772  0.37544560  0.24158409  1.0
  O  O406  1  0.70855765  0.12455424  0.24158430  1.0
  O  O407  1  0.79144327  0.62455398  0.75841621  1.0
  O  O408  1  0.77069133  0.82520827  0.71843532  1.0
  O  O409  1  0.72930809  0.32520850  0.28156497  1.0
  O  O410  1  0.22930826  0.17479080  0.28156479  1.0
  O  O411  1  0.27069150  0.67479158  0.71843547  1.0
  O  O412  1  0.74950824  0.22629068  0.16093836  1.0
  O  O413  1  0.75049122  0.72629090  0.83906195  1.0
  O  O414  1  0.25049275  0.77370940  0.83906194  1.0
  O  O415  1  0.24950837  0.27370868  0.16093817  1.0
