# generated using pymatgen
data_CdH22C34(NO)4
_symmetry_space_group_name_H-M   'P 1'
_cell_length_a   9.24520088
_cell_length_b   17.21492107
_cell_length_c   17.21503396
_cell_angle_alpha   80.29285298
_cell_angle_beta   86.96119569
_cell_angle_gamma   86.96119924
_symmetry_Int_Tables_number   1
_chemical_formula_structural   CdH22C34(NO)4
_chemical_formula_sum   'Cd2 H44 C68 N8 O8'
_cell_volume   2694.13512921
_cell_formula_units_Z   2
loop_
 _symmetry_equiv_pos_site_id
 _symmetry_equiv_pos_as_xyz
  1  'x, y, z'
loop_
 _atom_site_type_symbol
 _atom_site_label
 _atom_site_symmetry_multiplicity
 _atom_site_fract_x
 _atom_site_fract_y
 _atom_site_fract_z
 _atom_site_occupancy
  Cd  Cd0  1  0.58176049  0.70157236  0.70156959  1.0
  Cd  Cd1  1  0.41823872  0.29842662  0.29842401  1.0
  H  H2  1  0.10062754  0.64695566  0.64696454  1.0
  H  H3  1  0.89937682  0.35304379  0.35303934  1.0
  H  H4  1  0.90961778  0.58650049  0.58650236  1.0
  H  H5  1  0.09038419  0.41350312  0.41349916  1.0
  H  H6  1  0.24014967  0.46138366  0.46138274  1.0
  H  H7  1  0.75985034  0.53861641  0.53861997  1.0
  H  H8  1  0.42589370  0.52341305  0.52341793  1.0
  H  H9  1  0.57410421  0.47658524  0.47658743  1.0
  H  H10  1  0.76891678  0.86454768  0.65018586  1.0
  H  H11  1  0.23108531  0.34981490  0.13545347  1.0
  H  H12  1  0.23109188  0.13545415  0.34981232  1.0
  H  H13  1  0.76891041  0.65018642  0.86454390  1.0
  H  H14  1  0.88193258  0.81211028  0.42216860  1.0
  H  H15  1  0.11805653  0.57783312  0.18788627  1.0
  H  H16  1  0.11805477  0.18788698  0.57782787  1.0
  H  H17  1  0.88194455  0.42216875  0.81211206  1.0
  H  H18  1  0.71371469  0.69290142  0.50773253  1.0
  H  H19  1  0.28627564  0.49227278  0.30710053  1.0
  H  H20  1  0.28626765  0.30710405  0.49226970  1.0
  H  H21  1  0.71373934  0.50773257  0.69289520  1.0
  H  H22  1  0.08503664  0.80394710  0.58984458  1.0
  H  H23  1  0.91495975  0.41015650  0.19605113  1.0
  H  H24  1  0.91496926  0.19604890  0.41014935  1.0
  H  H25  1  0.08503333  0.58985009  0.80395127  1.0
  H  H26  1  0.65161163  0.94497141  0.46095885  1.0
  H  H27  1  0.34838637  0.53903634  0.05502707  1.0
  H  H28  1  0.34839756  0.05502397  0.53903510  1.0
  H  H29  1  0.65159924  0.46096853  0.94497577  1.0
  H  H30  1  0.53672510  0.06805376  0.38916180  1.0
  H  H31  1  0.46328204  0.61083243  0.93194712  1.0
  H  H32  1  0.46328403  0.93194160  0.61083507  1.0
  H  H33  1  0.53670821  0.38916770  0.06805637  1.0
  H  H34  1  0.66943252  0.19264806  0.36479472  1.0
  H  H35  1  0.33056918  0.63520302  0.80735273  1.0
  H  H36  1  0.33057124  0.80734674  0.63520177  1.0
  H  H37  1  0.66942415  0.36479944  0.19265091  1.0
  H  H38  1  0.52367576  0.96607343  0.77308175  1.0
  H  H39  1  0.47633894  0.22691821  0.03393151  1.0
  H  H40  1  0.47632547  0.03392487  0.22692005  1.0
  H  H41  1  0.52366224  0.77308128  0.96606952  1.0
  H  H42  1  0.50438781  0.06070692  0.86593611  1.0
  H  H43  1  0.49563040  0.13406518  0.93929700  1.0
  H  H44  1  0.49561664  0.93929196  0.13406553  1.0
  H  H45  1  0.50437734  0.86593309  0.06070467  1.0
  C  C46  1  0.39402443  0.62497700  0.62498229  1.0
  C  C47  1  0.60597997  0.37502186  0.37502168  1.0
  C  C48  1  0.27619261  0.58892631  0.58893590  1.0
  C  C49  1  0.72381185  0.41107137  0.41106884  1.0
  C  C50  1  0.12936473  0.60607426  0.60608249  1.0
  C  C51  1  0.87064063  0.39392575  0.39392360  1.0
  C  C52  1  0.02228982  0.57147860  0.57148388  1.0
  C  C53  1  0.97771102  0.42852438  0.42852183  1.0
  C  C54  1  0.05710199  0.51841094  0.51841048  1.0
  C  C55  1  0.94289567  0.48159209  0.48159181  1.0
  C  C56  1  0.20531317  0.50177101  0.50177186  1.0
  C  C57  1  0.79468357  0.49822967  0.49823024  1.0
  C  C58  1  0.31183324  0.53640833  0.53641431  1.0
  C  C59  1  0.68816371  0.46358881  0.46358893  1.0
  C  C60  1  0.77827031  0.83258597  0.60084603  1.0
  C  C61  1  0.22172646  0.39915435  0.16741290  1.0
  C  C62  1  0.22173203  0.16741354  0.39915149  1.0
  C  C63  1  0.77826387  0.60084640  0.83258527  1.0
  C  C64  1  0.83412592  0.80404913  0.48162105  1.0
  C  C65  1  0.16587009  0.51838089  0.19595061  1.0
  C  C66  1  0.16586990  0.19595042  0.51837719  1.0
  C  C67  1  0.83413750  0.48162035  0.80404884  1.0
  C  C68  1  0.75228758  0.74588743  0.52444560  1.0
  C  C69  1  0.24770239  0.47555724  0.25411132  1.0
  C  C70  1  0.24769616  0.25411393  0.47555493  1.0
  C  C71  1  0.75230856  0.52444402  0.74588283  1.0
  C  C72  1  0.14069222  0.85924178  0.57925826  1.0
  C  C73  1  0.85930072  0.42074424  0.14075643  1.0
  C  C74  1  0.85931486  0.14075304  0.42073467  1.0
  C  C75  1  0.14068467  0.57926416  0.85924585  1.0
  C  C76  1  0.06880926  0.92891378  0.53960180  1.0
  C  C77  1  0.93118190  0.46040100  0.07108370  1.0
  C  C78  1  0.93119898  0.07108046  0.46039004  1.0
  C  C79  1  0.06880234  0.53960859  0.92891783  1.0
  C  C80  1  0.92654624  0.93010928  0.51405952  1.0
  C  C81  1  0.07344819  0.48594074  0.06988843  1.0
  C  C82  1  0.07346099  0.06988318  0.48593436  1.0
  C  C83  1  0.92653632  0.51406473  0.93011375  1.0
  C  C84  1  0.85467106  0.99850811  0.47507131  1.0
  C  C85  1  0.14533164  0.52492603  0.00148932  1.0
  C  C86  1  0.14534163  0.00148433  0.52492014  1.0
  C  C87  1  0.85465487  0.47508178  0.99851304  1.0
  C  C88  1  0.71010563  0.99936457  0.44947702  1.0
  C  C89  1  0.28989894  0.55051962  0.00063384  1.0
  C  C90  1  0.28990687  0.00063022  0.55051580  1.0
  C  C91  1  0.71008999  0.44948465  0.99936786  1.0
  C  C92  1  0.64585133  0.06757869  0.41033906  1.0
  C  C93  1  0.35414846  0.58965806  0.93241929  1.0
  C  C94  1  0.35415585  0.93241375  0.58965657  1.0
  C  C95  1  0.64584053  0.41034502  0.06758318  1.0
  C  C96  1  0.72111728  0.13883032  0.39585150  1.0
  C  C97  1  0.27888302  0.60414700  0.86116918  1.0
  C  C98  1  0.27888874  0.86116330  0.60414397  1.0
  C  C99  1  0.72110475  0.39585785  0.13883419  1.0
  C  C100  1  0.54471239  0.80671581  0.80671517  1.0
  C  C101  1  0.45529543  0.19328068  0.19328794  1.0
  C  C102  1  0.52702844  0.86353315  0.86353104  1.0
  C  C103  1  0.47297277  0.13646576  0.13647008  1.0
  C  C104  1  0.51997357  0.94501745  0.83649958  1.0
  C  C105  1  0.48003284  0.16349856  0.05498603  1.0
  C  C106  1  0.48002868  0.05498203  0.16350201  1.0
  C  C107  1  0.51996953  0.83649976  0.94501342  1.0
  C  C108  1  0.50901529  0.99786682  0.88951251  1.0
  C  C109  1  0.49100043  0.11048811  0.00213627  1.0
  C  C110  1  0.49099130  0.00213203  0.11049025  1.0
  C  C111  1  0.50900404  0.88951018  0.99786604  1.0
  C  C112  1  0.50454095  0.97174690  0.97174943  1.0
  C  C113  1  0.49546689  0.02824960  0.02825310  1.0
  N  N114  1  0.71870656  0.76457620  0.59835007  1.0
  N  N115  1  0.28129015  0.40165006  0.23542387  1.0
  N  N116  1  0.28128799  0.23542630  0.40164772  1.0
  N  N117  1  0.71871745  0.59835239  0.76457132  1.0
  N  N118  1  0.84983677  0.85865956  0.53101485  1.0
  N  N119  1  0.15015896  0.46898810  0.14133895  1.0
  N  N120  1  0.15016466  0.14133700  0.46898374  1.0
  N  N121  1  0.84983335  0.53101499  0.85866054  1.0
  O  O122  1  0.35549778  0.67315252  0.67315778  1.0
  O  O123  1  0.64450653  0.32684751  0.32684658  1.0
  O  O124  1  0.52565435  0.60786944  0.60787619  1.0
  O  O125  1  0.47435013  0.39212824  0.39212797  1.0
  O  O126  1  0.55303107  0.83363791  0.73278813  1.0
  O  O127  1  0.44697693  0.26720909  0.16636347  1.0
  O  O128  1  0.44697340  0.16636037  0.26721418  1.0
  O  O129  1  0.55302432  0.73278982  0.83363591  1.0
