# generated using pymatgen
data_MgPH8C3NO4
_symmetry_space_group_name_H-M   'P 1'
_cell_length_a   6.24305278
_cell_length_b   16.33334307
_cell_length_c   16.33241176
_cell_angle_alpha   118.39673882
_cell_angle_beta   97.31395767
_cell_angle_gamma   97.30901411
_symmetry_Int_Tables_number   1
_chemical_formula_structural   MgPH8C3NO4
_chemical_formula_sum   'Mg6 P6 H48 C18 N6 O24'
_cell_volume   1419.05894853
_cell_formula_units_Z   6
loop_
 _symmetry_equiv_pos_site_id
 _symmetry_equiv_pos_as_xyz
  1  'x, y, z'
loop_
 _atom_site_type_symbol
 _atom_site_label
 _atom_site_symmetry_multiplicity
 _atom_site_fract_x
 _atom_site_fract_y
 _atom_site_fract_z
 _atom_site_occupancy
  Mg  Mg0  1  0.03411448  0.32746530  0.58064688  1.0
  Mg  Mg1  1  0.70655145  0.25314049  0.67254141  1.0
  Mg  Mg2  1  0.45344991  0.41940982  0.74681468  1.0
  Mg  Mg3  1  0.96588584  0.67253548  0.41935444  1.0
  Mg  Mg4  1  0.29345174  0.74685958  0.32745848  1.0
  Mg  Mg5  1  0.54655364  0.58059096  0.25318618  1.0
  P  P6  1  0.53806813  0.33676263  0.53174539  1.0
  P  P7  1  0.20128287  0.19499360  0.66321332  1.0
  P  P8  1  0.00624283  0.46819780  0.80500038  1.0
  P  P9  1  0.46192861  0.66323744  0.46825235  1.0
  P  P10  1  0.79871997  0.80500575  0.33678622  1.0
  P  P11  1  0.99376055  0.53179942  0.19499878  1.0
  H  H12  1  0.63404622  0.48424689  0.52772447  1.0
  H  H13  1  0.14995338  0.04358227  0.51570098  1.0
  H  H14  1  0.10633451  0.47217991  0.95648450  1.0
  H  H15  1  0.36595303  0.51575175  0.47227577  1.0
  H  H16  1  0.85004749  0.95641637  0.48429567  1.0
  H  H17  1  0.89366348  0.52781944  0.04351542  1.0
  H  H18  1  0.74088105  0.49508548  0.63861209  1.0
  H  H19  1  0.24606934  0.14363136  0.50490256  1.0
  H  H20  1  0.10255613  0.36135025  0.85647156  1.0
  H  H21  1  0.25911532  0.50491387  0.36138959  1.0
  H  H22  1  0.75393296  0.85637013  0.49509674  1.0
  H  H23  1  0.89744312  0.63864839  0.14352868  1.0
  H  H24  1  0.79732346  0.33579416  0.39435981  1.0
  H  H25  1  0.46132760  0.05859991  0.66423971  1.0
  H  H26  1  0.40260356  0.60564631  0.94143005  1.0
  H  H27  1  0.20267004  0.66420590  0.60564328  1.0
  H  H28  1  0.53867702  0.94140301  0.33575977  1.0
  H  H29  1  0.59739640  0.39435376  0.05857030  1.0
  H  H30  1  0.08828811  0.37743719  0.42127047  1.0
  H  H31  1  0.71059807  0.04372798  0.62252839  1.0
  H  H32  1  0.66679114  0.57880412  0.95617752  1.0
  H  H33  1  0.91170503  0.62256216  0.57873227  1.0
  H  H34  1  0.28940979  0.95627493  0.37746941  1.0
  H  H35  1  0.33320972  0.42119452  0.04382342  1.0
  H  H36  1  0.26854173  0.51091511  0.58906508  1.0
  H  H37  1  0.75796307  0.07804121  0.48909265  1.0
  H  H38  1  0.67974849  0.41105200  0.92191558  1.0
  H  H39  1  0.73145338  0.48908495  0.41093503  1.0
  H  H40  1  0.24204317  0.92196171  0.51090508  1.0
  H  H41  1  0.32025147  0.58894806  0.07808538  1.0
  H  H42  1  0.09723357  0.55663844  0.67054123  1.0
  H  H43  1  0.54109275  0.11386508  0.44334335  1.0
  H  H44  1  0.42712792  0.32948953  0.88612981  1.0
  H  H45  1  0.90276441  0.44336091  0.32946419  1.0
  H  H46  1  0.45890865  0.88613784  0.55665536  1.0
  H  H47  1  0.57287042  0.67051054  0.11387046  1.0
  H  H48  1  0.18155643  0.23703347  0.42310751  1.0
  H  H49  1  0.94430534  0.18609080  0.76302920  1.0
  H  H50  1  0.75821527  0.57692204  0.81391147  1.0
  H  H51  1  0.81844227  0.76296731  0.57689190  1.0
  H  H52  1  0.05569427  0.81390855  0.23696896  1.0
  H  H53  1  0.24178631  0.42307802  0.18609018  1.0
  H  H54  1  0.91445491  0.19130605  0.38923991  1.0
  H  H55  1  0.72292644  0.19790033  0.80880100  1.0
  H  H56  1  0.52502850  0.61090223  0.80212234  1.0
  H  H57  1  0.08554218  0.80869472  0.61076125  1.0
  H  H58  1  0.27707802  0.80209902  0.19119800  1.0
  H  H59  1  0.47497308  0.38909783  0.19787809  1.0
  C  C60  1  0.71834570  0.44890661  0.56122924  1.0
  C  C61  1  0.26964836  0.11239604  0.55105872  1.0
  C  C62  1  0.15723120  0.43873314  0.88766959  1.0
  C  C63  1  0.28164942  0.55109346  0.43877271  1.0
  C  C64  1  0.73035232  0.88760545  0.44894111  1.0
  C  C65  1  0.84276966  0.56126550  0.11233074  1.0
  C  C66  1  0.93163082  0.39954924  0.43556880  1.0
  C  C67  1  0.53187889  0.03600933  0.60044776  1.0
  C  C68  1  0.49590021  0.56445022  0.96396888  1.0
  C  C69  1  0.06836213  0.60045296  0.56443529  1.0
  C  C70  1  0.46812538  0.96399287  0.39955076  1.0
  C  C71  1  0.50410263  0.43554913  0.03603066  1.0
  C  C72  1  0.10440226  0.52769274  0.59524330  1.0
  C  C73  1  0.57707630  0.06751715  0.47230577  1.0
  C  C74  1  0.50942404  0.40478168  0.93246989  1.0
  C  C75  1  0.89559159  0.47230803  0.40475953  1.0
  C  C76  1  0.42292474  0.93248505  0.52769137  1.0
  C  C77  1  0.49057683  0.59521696  0.06752921  1.0
  N  N78  1  0.93844598  0.43597423  0.53878572  1.0
  N  N79  1  0.50259449  0.10282454  0.56402408  1.0
  N  N80  1  0.39972882  0.46122461  0.89719566  1.0
  N  N81  1  0.06155129  0.56402370  0.46121409  1.0
  N  N82  1  0.49740851  0.89717837  0.43597593  1.0
  N  N83  1  0.60027240  0.53877474  0.10280502  1.0
  O  O84  1  0.42347623  0.27930909  0.42694791  1.0
  O  O85  1  0.14413751  0.14764738  0.72068866  1.0
  O  O86  1  0.99632513  0.57298953  0.85234110  1.0
  O  O87  1  0.57651799  0.72069240  0.57305039  1.0
  O  O88  1  0.85586497  0.85235125  0.27930991  1.0
  O  O89  1  0.00367770  0.42700982  0.14765966  1.0
  O  O90  1  0.37167364  0.36574014  0.59831410  1.0
  O  O91  1  0.00588756  0.23258717  0.63428297  1.0
  O  O92  1  0.77333741  0.40165609  0.76741710  1.0
  O  O93  1  0.62832309  0.63425993  0.40168609  1.0
  O  O94  1  0.99411634  0.76741432  0.36571947  1.0
  O  O95  1  0.22666310  0.59834183  0.23258164  1.0
  O  O96  1  0.69807407  0.28706478  0.56364743  1.0
  O  O97  1  0.41092413  0.27657666  0.71288028  1.0
  O  O98  1  0.13435317  0.43631334  0.72339828  1.0
  O  O99  1  0.30191801  0.71293243  0.43634934  1.0
  O  O100  1  0.58907834  0.72342198  0.28712074  1.0
  O  O101  1  0.86564770  0.56368530  0.27660204  1.0
  O  O102  1  0.03893793  0.22155610  0.44318725  1.0
  O  O103  1  0.81708640  0.22158828  0.77851183  1.0
  O  O104  1  0.59557881  0.55694127  0.77836586  1.0
  O  O105  1  0.96106113  0.77844539  0.55681312  1.0
  O  O106  1  0.18291519  0.77841179  0.22148676  1.0
  O  O107  1  0.40442474  0.44305951  0.22163378  1.0
