# generated using pymatgen
data_ZnH6C22N3O4
_symmetry_space_group_name_H-M   'P 1'
_cell_length_a   13.93820265
_cell_length_b   14.16314167
_cell_length_c   15.35697972
_cell_angle_alpha   86.80523082
_cell_angle_beta   89.99562735
_cell_angle_gamma   89.97920306
_symmetry_Int_Tables_number   1
_chemical_formula_structural   ZnH6C22N3O4
_chemical_formula_sum   'Zn2 H12 C44 N6 O8'
_cell_volume   3026.89024816
_cell_formula_units_Z   2
loop_
 _symmetry_equiv_pos_site_id
 _symmetry_equiv_pos_as_xyz
  1  'x, y, z'
loop_
 _atom_site_type_symbol
 _atom_site_label
 _atom_site_symmetry_multiplicity
 _atom_site_fract_x
 _atom_site_fract_y
 _atom_site_fract_z
 _atom_site_occupancy
  Zn  Zn0  1  0.60100648  0.49997548  0.49998845  1.0
  Zn  Zn1  1  0.39899261  0.50002610  0.50001179  1.0
  H  H2  1  0.34593067  0.50199511  0.22052717  1.0
  H  H3  1  0.24727424  0.44281394  0.62689941  1.0
  H  H4  1  0.75273828  0.44279231  0.62688149  1.0
  H  H5  1  0.24726082  0.55720792  0.37311747  1.0
  H  H6  1  0.65406915  0.49800576  0.77947309  1.0
  H  H7  1  0.65406477  0.50099065  0.22056076  1.0
  H  H8  1  0.34593433  0.49900878  0.77944017  1.0
  H  H9  1  0.74422332  0.50072581  0.08064203  1.0
  H  H10  1  0.25577649  0.49927366  0.91935825  1.0
  H  H11  1  0.74419738  0.49759961  0.91941119  1.0
  H  H12  1  0.25580243  0.50239982  0.08058974  1.0
  H  H13  1  0.75272485  0.55718626  0.37310020  1.0
  C  C14  1  0.49999787  0.49688836  0.67277391  1.0
  C  C15  1  0.32316695  0.50108531  0.04447991  1.0
  C  C16  1  0.79698036  0.53247005  0.42844101  1.0
  C  C17  1  0.20301873  0.46753014  0.57155860  1.0
  C  C18  1  0.79698773  0.46750353  0.57154011  1.0
  C  C19  1  0.20301137  0.53249670  0.42845885  1.0
  C  C20  1  0.89761073  0.46603254  0.57518717  1.0
  C  C21  1  0.10238836  0.53396697  0.42481180  1.0
  C  C22  1  0.89760352  0.53395475  0.42480156  1.0
  C  C23  1  0.10239414  0.46604404  0.57519808  1.0
  C  C24  1  0.94911449  0.49999725  0.49999724  1.0
  C  C25  1  0.50000122  0.50311322  0.32722633  1.0
  C  C26  1  0.05088461  0.50000224  0.50000238  1.0
  C  C27  1  0.95008288  0.43231934  0.65163033  1.0
  C  C28  1  0.04991550  0.56768020  0.34836799  1.0
  C  C29  1  0.95007102  0.56767461  0.34836156  1.0
  C  C30  1  0.04992736  0.43232423  0.65163677  1.0
  C  C31  1  0.49999126  0.67778177  0.49738854  1.0
  C  C32  1  0.50000712  0.32221976  0.50261301  1.0
  C  C33  1  0.49997907  0.77754356  0.49933776  1.0
  C  C34  1  0.50001859  0.22245794  0.50066444  1.0
  C  C35  1  0.49999264  0.86341847  0.50018213  1.0
  C  C36  1  0.50000125  0.50030493  0.04622267  1.0
  C  C37  1  0.50000502  0.13658317  0.49981682  1.0
  C  C38  1  0.49999465  0.95677205  0.50028402  1.0
  C  C39  1  0.50000372  0.04322973  0.49971166  1.0
  C  C40  1  0.41300932  0.50154636  0.18413432  1.0
  C  C41  1  0.58698978  0.49845378  0.81586660  1.0
  C  C42  1  0.49999362  0.50171780  0.22967304  1.0
  C  C43  1  0.50000548  0.49828237  0.77032723  1.0
  C  C44  1  0.58698249  0.50095052  0.18415841  1.0
  C  C45  1  0.41301732  0.49904894  0.81584187  1.0
  C  C46  1  0.58880642  0.50032885  0.09279132  1.0
  C  C47  1  0.49999856  0.49969382  0.95377762  1.0
  C  C48  1  0.41119339  0.49966988  0.90720962  1.0
  C  C49  1  0.89839808  0.40059001  0.72764175  1.0
  C  C50  1  0.10159958  0.59941025  0.27235656  1.0
  C  C51  1  0.89838668  0.59939544  0.27234180  1.0
  C  C52  1  0.10161098  0.40060270  0.72765655  1.0
  C  C53  1  0.41119430  0.50099333  0.09276097  1.0
  C  C54  1  0.58880479  0.49900542  0.90723932  1.0
  C  C55  1  0.67683573  0.49979873  0.04453866  1.0
  C  C56  1  0.32316336  0.50019999  0.95546228  1.0
  C  C57  1  0.67683286  0.49891416  0.95552037  1.0
  N  N58  1  0.74977674  0.49998085  0.49998772  1.0
  N  N59  1  0.25022235  0.50002005  0.50001188  1.0
  N  N60  1  0.85421468  0.37616042  0.78951509  1.0
  N  N61  1  0.14578298  0.62384053  0.21048321  1.0
  N  N62  1  0.85421293  0.62381646  0.21045556  1.0
  N  N63  1  0.14578402  0.37618165  0.78954344  1.0
  O  O64  1  0.58135902  0.49640064  0.63455046  1.0
  O  O65  1  0.41863935  0.50360380  0.36544909  1.0
  O  O66  1  0.58136911  0.50354828  0.36542908  1.0
  O  O67  1  0.41862927  0.49645048  0.63457121  1.0
  O  O68  1  0.58237319  0.63928526  0.49664599  1.0
  O  O69  1  0.41762662  0.36071717  0.50335099  1.0
  O  O70  1  0.58237887  0.36067967  0.50334048  1.0
  O  O71  1  0.41762166  0.63932099  0.49666499  1.0
