# generated using pymatgen
data_ZnH12C24NClO6
_symmetry_space_group_name_H-M   'P 1'
_cell_length_a   21.54191157
_cell_length_b   21.62484546
_cell_length_c   21.89745307
_cell_angle_alpha   60.44956607
_cell_angle_beta   63.45619899
_cell_angle_gamma   89.99602727
_symmetry_Int_Tables_number   1
_chemical_formula_structural   ZnH12C24NClO6
_chemical_formula_sum   'Zn4 H48 C96 N4 Cl4 O24'
_cell_volume   7613.66998297
_cell_formula_units_Z   4
loop_
 _symmetry_equiv_pos_site_id
 _symmetry_equiv_pos_as_xyz
  1  'x, y, z'
loop_
 _atom_site_type_symbol
 _atom_site_label
 _atom_site_symmetry_multiplicity
 _atom_site_fract_x
 _atom_site_fract_y
 _atom_site_fract_z
 _atom_site_occupancy
  Zn  Zn0  1  0.53710185  0.04260207  0.91468760  1.0
  Zn  Zn1  1  0.46206459  0.95646268  0.08714564  1.0
  Zn  Zn2  1  0.96287501  0.45735129  0.08530229  1.0
  Zn  Zn3  1  0.03787553  0.54353406  0.91285472  1.0
  H  H4  1  0.81502080  0.39342522  0.21369521  1.0
  H  H5  1  0.73544329  0.31762950  0.36542633  1.0
  H  H6  1  0.93064899  0.31039639  0.37838538  1.0
  H  H7  1  0.56936842  0.18950568  0.62161507  1.0
  H  H8  1  0.76456850  0.18234523  0.63459260  1.0
  H  H9  1  0.68498309  0.10655282  0.78632375  1.0
  H  H10  1  0.82013965  0.24836406  0.50288216  1.0
  H  H11  1  0.67987760  0.25154760  0.49713386  1.0
  H  H12  1  0.18519773  0.60703108  0.78576875  1.0
  H  H13  1  0.26462137  0.68278276  0.63415680  1.0
  H  H14  1  0.06938325  0.68950014  0.62126127  1.0
  H  H15  1  0.43069883  0.81055218  0.37868215  1.0
  H  H16  1  0.23541136  0.81714769  0.36588939  1.0
  H  H17  1  0.31478260  0.89293741  0.21427333  1.0
  H  H18  1  0.18008507  0.75160042  0.49674734  1.0
  H  H19  1  0.32000288  0.74839572  0.50323904  1.0
  H  H20  1  0.57952898  0.07537387  0.12321369  1.0
  H  H21  1  0.61182133  0.10284008  0.20560150  1.0
  H  H22  1  0.70211907  0.20819742  0.86271355  1.0
  H  H23  1  0.92040776  0.42467794  0.87673570  1.0
  H  H24  1  0.88806648  0.39727586  0.79432618  1.0
  H  H25  1  0.79790518  0.29176158  0.13723121  1.0
  H  H26  1  0.29505433  0.78757966  0.14011865  1.0
  H  H27  1  0.19034478  0.67859231  0.21182171  1.0
  H  H28  1  0.42056647  0.92542180  0.87999346  1.0
  H  H29  1  0.20530225  0.71183148  0.85999826  1.0
  H  H30  1  0.31031874  0.82062436  0.78824212  1.0
  H  H31  1  0.07976736  0.57409910  0.12015634  1.0
  H  H32  1  0.29466752  0.07206366  0.14010690  1.0
  H  H33  1  0.18935633  0.10895559  0.21175193  1.0
  H  H34  1  0.42086709  0.19464030  0.87997820  1.0
  H  H35  1  0.20510206  0.42768818  0.85978043  1.0
  H  H36  1  0.31032631  0.39068093  0.78811935  1.0
  H  H37  1  0.07887564  0.30510181  0.11990395  1.0
  H  H38  1  0.57865068  0.80086124  0.12309319  1.0
  H  H39  1  0.61038210  0.69058778  0.20553223  1.0
  H  H40  1  0.70154150  0.92828746  0.86257852  1.0
  H  H41  1  0.91989899  0.69785095  0.87692008  1.0
  H  H42  1  0.88729693  0.80723527  0.79446914  1.0
  H  H43  1  0.79727029  0.57066133  0.13743037  1.0
  H  H44  1  0.72184436  0.20826839  0.22051201  1.0
  H  H45  1  0.77803228  0.29186187  0.77941414  1.0
  H  H46  1  0.07711403  0.56414400  0.20903959  1.0
  H  H47  1  0.42373902  0.93490526  0.79103701  1.0
  H  H48  1  0.07565341  0.22570898  0.20879881  1.0
  H  H49  1  0.42391898  0.27384971  0.79108015  1.0
  H  H50  1  0.72004512  0.56996993  0.22070933  1.0
  H  H51  1  0.77723424  0.92744458  0.77932426  1.0
  C  C52  1  0.40918839  0.90809424  0.01227927  1.0
  C  C53  1  0.40944933  0.07978892  0.01215044  1.0
  C  C54  1  0.59004560  0.09115559  0.98916153  1.0
  C  C55  1  0.58964528  0.91933871  0.98895410  1.0
  C  C56  1  0.09051375  0.42014791  0.98767906  1.0
  C  C57  1  0.09080409  0.59164111  0.98791345  1.0
  C  C58  1  0.90981533  0.58021803  0.01101276  1.0
  C  C59  1  0.90997348  0.40879606  0.01079582  1.0
  C  C60  1  0.83752038  0.37336143  0.25354090  1.0
  C  C61  1  0.79396827  0.33118455  0.33794796  1.0
  C  C62  1  0.82627720  0.30680025  0.38630048  1.0
  C  C63  1  0.90209799  0.32726861  0.34495619  1.0
  C  C64  1  0.94168982  0.36994899  0.25960471  1.0
  C  C65  1  0.78635599  0.26219757  0.47544691  1.0
  C  C66  1  0.71366248  0.23772065  0.52457049  1.0
  C  C67  1  0.59792119  0.17266145  0.65504338  1.0
  C  C68  1  0.67373965  0.19312736  0.61371405  1.0
  C  C69  1  0.70604249  0.16877266  0.66206881  1.0
  C  C70  1  0.66248432  0.12659633  0.74647640  1.0
  C  C71  1  0.55832111  0.12998707  0.74039786  1.0
  C  C72  1  0.16264330  0.62695536  0.74599916  1.0
  C  C73  1  0.20610365  0.66910434  0.66166023  1.0
  C  C74  1  0.17369049  0.69328260  0.61346023  1.0
  C  C75  1  0.09790097  0.67272515  0.65471881  1.0
  C  C76  1  0.05825560  0.63005673  0.74005170  1.0
  C  C77  1  0.21369604  0.73779867  0.52439300  1.0
  C  C78  1  0.28638841  0.76219797  0.47559603  1.0
  C  C79  1  0.40216078  0.82731751  0.34524579  1.0
  C  C80  1  0.32637775  0.80672118  0.38653014  1.0
  C  C81  1  0.29393433  0.83086441  0.33836040  1.0
  C  C82  1  0.33736186  0.87303377  0.25402050  1.0
  C  C83  1  0.44177937  0.86998822  0.25991062  1.0
  C  C84  1  0.62471501  0.12264814  0.06761732  1.0
  C  C85  1  0.66874293  0.16603051  0.07226422  1.0
  C  C86  1  0.65645630  0.14996378  0.14895642  1.0
  C  C87  1  0.69521777  0.19913579  0.91935773  1.0
  C  C88  1  0.74040852  0.24430686  0.92084858  1.0
  C  C89  1  0.80002219  0.30736834  0.84738237  1.0
  C  C90  1  0.87523169  0.37738283  0.93233084  1.0
  C  C91  1  0.83121405  0.33400948  0.92766879  1.0
  C  C92  1  0.84348127  0.35010425  0.85097528  1.0
  C  C93  1  0.80477625  0.30085903  0.08058122  1.0
  C  C94  1  0.75957302  0.25571452  0.07907900  1.0
  C  C95  1  0.69992214  0.19269377  0.15254238  1.0
  C  C96  1  0.63778617  0.13884862  0.99207186  1.0
  C  C97  1  0.72753446  0.22785555  0.99804120  1.0
  C  C98  1  0.86219955  0.36115389  0.00786747  1.0
  C  C99  1  0.77243629  0.27217576  0.00188496  1.0
  C  C100  1  0.30418943  0.79967321  0.08170206  1.0
  C  C101  1  0.25926298  0.75469087  0.07946459  1.0
  C  C102  1  0.20075346  0.69219621  0.15246172  1.0
  C  C103  1  0.37470651  0.87734085  0.93351820  1.0
  C  C104  1  0.33132322  0.83437569  0.92813141  1.0
  C  C105  1  0.34321540  0.85029228  0.85084768  1.0
  C  C106  1  0.19623830  0.69969830  0.91841341  1.0
  C  C107  1  0.24131772  0.74459342  0.92060107  1.0
  C  C108  1  0.29991078  0.80703475  0.84760047  1.0
  C  C109  1  0.12571766  0.62206792  0.06660115  1.0
  C  C110  1  0.16929484  0.66490139  0.07193521  1.0
  C  C111  1  0.15750880  0.64889197  0.14921217  1.0
  C  C112  1  0.36133774  0.86029521  0.00957495  1.0
  C  C113  1  0.27275096  0.77203972  0.00171056  1.0
  C  C114  1  0.13896316  0.63920211  0.99054646  1.0
  C  C115  1  0.22788314  0.72720054  0.99835706  1.0
  C  C116  1  0.30387266  0.11834518  0.08166419  1.0
  C  C117  1  0.25869957  0.16533910  0.07939957  1.0
  C  C118  1  0.19983700  0.15465853  0.15236785  1.0
  C  C119  1  0.37478722  0.18904056  0.93349598  1.0
  C  C120  1  0.33117073  0.23717882  0.92810362  1.0
  C  C121  1  0.34316137  0.29851903  0.85082246  1.0
  C  C122  1  0.19584673  0.38135198  0.91821798  1.0
  C  C123  1  0.24091503  0.33424627  0.92048630  1.0
  C  C124  1  0.29976748  0.34493171  0.84752328  1.0
  C  C125  1  0.12487346  0.31061878  0.06639038  1.0
  C  C126  1  0.16837773  0.26236042  0.07179224  1.0
  C  C127  1  0.15639664  0.20102298  0.14907069  1.0
  C  C128  1  0.36133743  0.13003567  0.00955405  1.0
  C  C129  1  0.27227430  0.22573247  0.00164641  1.0
  C  C130  1  0.13843312  0.36970591  0.99032360  1.0
  C  C131  1  0.22725013  0.27377280  0.99824912  1.0
  C  C132  1  0.62381311  0.80906313  0.06751247  1.0
  C  C133  1  0.66765654  0.76084497  0.07221201  1.0
  C  C134  1  0.65515665  0.70014482  0.14891039  1.0
  C  C135  1  0.69450727  0.88069274  0.91925563  1.0
  C  C136  1  0.73956339  0.83388461  0.92082832  1.0
  C  C137  1  0.79919556  0.84413129  0.84742241  1.0
  C  C138  1  0.87459427  0.68949172  0.93250958  1.0
  C  C139  1  0.83037722  0.73733381  0.92780178  1.0
  C  C140  1  0.84265051  0.79780623  0.85109914  1.0
  C  C141  1  0.80401112  0.61795991  0.08074614  1.0
  C  C142  1  0.75852844  0.66434690  0.07917582  1.0
  C  C143  1  0.69860057  0.65381323  0.15258542  1.0
  C  C144  1  0.63708751  0.86844176  0.99193820  1.0
  C  C145  1  0.72652540  0.77314081  0.99804190  1.0
  C  C146  1  0.86166226  0.63043529  0.00806964  1.0
  C  C147  1  0.77142996  0.72496683  0.00196990  1.0
  N  N148  1  0.91074719  0.39289648  0.21408102  1.0
  N  N149  1  0.58926300  0.10705224  0.78591949  1.0
  N  N150  1  0.08942768  0.60733347  0.78537274  1.0
  N  N151  1  0.41057459  0.89270609  0.21461911  1.0
  Cl  Cl152  1  0.03451895  0.39423657  0.21059679  1.0
  Cl  Cl153  1  0.46549108  0.10564153  0.78941575  1.0
  Cl  Cl154  1  0.96559057  0.60558553  0.78912310  1.0
  Cl  Cl155  1  0.53444531  0.89450020  0.21077578  1.0
  O  O156  1  0.46158456  0.96064044  0.94329615  1.0
  O  O157  1  0.39438245  0.89320715  0.08205083  1.0
  O  O158  1  0.39442522  0.02472077  0.08188365  1.0
  O  O159  1  0.46222547  0.09656562  0.94318470  1.0
  O  O160  1  0.53738905  0.03905167  0.05773558  1.0
  O  O161  1  0.60545187  0.10597819  0.91905830  1.0
  O  O162  1  0.60493669  0.97437110  0.91882160  1.0
  O  O163  1  0.53733680  0.90333539  0.05753990  1.0
  O  O164  1  0.03795325  0.40359323  0.05666340  1.0
  O  O165  1  0.10546600  0.47513835  0.91794233  1.0
  O  O166  1  0.10557461  0.60647182  0.91816995  1.0
  O  O167  1  0.03819986  0.53934096  0.05690687  1.0
  O  O168  1  0.96248314  0.59662889  0.94242593  1.0
  O  O169  1  0.89472485  0.52531025  0.08111984  1.0
  O  O170  1  0.89471636  0.39379833  0.08091883  1.0
  O  O171  1  0.96249894  0.46104418  0.94221165  1.0
  O  O172  1  0.68542012  0.17428891  0.22799544  1.0
  O  O173  1  0.81445561  0.32583802  0.77193315  1.0
  O  O174  1  0.10236238  0.58964767  0.22133563  1.0
  O  O175  1  0.39843575  0.90947268  0.77872996  1.0
  O  O176  1  0.10095479  0.18798986  0.22116868  1.0
  O  O177  1  0.39860519  0.31155936  0.77871972  1.0
  O  O178  1  0.68380786  0.59668961  0.22810084  1.0
  O  O179  1  0.81372551  0.90099676  0.77192009  1.0
