# generated using pymatgen
data_Zn2H17C27N2O8F
_symmetry_space_group_name_H-M   'P 1'
_cell_length_a   9.73026738
_cell_length_b   11.10926490
_cell_length_c   24.39668350
_cell_angle_alpha   89.88411311
_cell_angle_beta   91.33746677
_cell_angle_gamma   89.98344749
_symmetry_Int_Tables_number   1
_chemical_formula_structural   Zn2H17C27N2O8F
_chemical_formula_sum   'Zn4 H34 C54 N4 O16 F2'
_cell_volume   2636.46275808
_cell_formula_units_Z   2
loop_
 _symmetry_equiv_pos_site_id
 _symmetry_equiv_pos_as_xyz
  1  'x, y, z'
loop_
 _atom_site_type_symbol
 _atom_site_label
 _atom_site_symmetry_multiplicity
 _atom_site_fract_x
 _atom_site_fract_y
 _atom_site_fract_z
 _atom_site_occupancy
  Zn  Zn0  1  0.36866387  0.49736349  0.50143583  1.0
  Zn  Zn1  1  0.65093721  0.49794157  0.49909906  1.0
  Zn  Zn2  1  0.63325652  0.49536644  0.04271347  1.0
  Zn  Zn3  1  0.35110306  0.49613743  0.04628413  1.0
  H  H4  1  0.13866141  0.61841731  0.43544965  1.0
  H  H5  1  0.87853512  0.62001109  0.43431783  1.0
  H  H6  1  0.88316424  0.38502913  0.61897360  1.0
  H  H7  1  0.87769129  0.26337066  0.57145313  1.0
  H  H8  1  0.13960046  0.25869454  0.57180209  1.0
  H  H9  1  0.14402116  0.38087766  0.61926248  1.0
  H  H10  1  0.27416206  0.88835192  0.50169321  1.0
  H  H11  1  0.27881672  0.11220676  0.50261375  1.0
  H  H12  1  0.81586973  0.10906692  0.45984459  1.0
  H  H13  1  0.82553034  0.10026165  0.53284731  1.0
  H  H14  1  0.82126938  0.87490453  0.52838993  1.0
  H  H15  1  0.80754102  0.88203782  0.45544580  1.0
  H  H16  1  0.67705541  0.49998111  0.86453446  1.0
  H  H17  1  0.23575223  0.50762885  0.87324805  1.0
  H  H18  1  0.32349213  0.50182725  0.68008149  1.0
  H  H19  1  0.76490004  0.50705716  0.67149212  1.0
  H  H20  1  0.72952191  0.49356368  0.32143999  1.0
  H  H21  1  0.71740249  0.49278184  0.21941169  1.0
  H  H22  1  0.17668263  0.58192590  0.22388717  1.0
  H  H23  1  0.17412185  0.42150980  0.22438847  1.0
  H  H24  1  0.18672063  0.42334831  0.32787212  1.0
  H  H25  1  0.19004872  0.58385601  0.32680244  1.0
  H  H26  1  0.86169502  0.61622023  0.10876554  1.0
  H  H27  1  0.12183479  0.61713935  0.11105409  1.0
  H  H28  1  0.12148064  0.38462544  0.92638827  1.0
  H  H29  1  0.12617741  0.26214719  0.97364941  1.0
  H  H30  1  0.86409346  0.25760176  0.97256994  1.0
  H  H31  1  0.86059540  0.37998185  0.92496298  1.0
  H  H32  1  0.72483321  0.88633617  0.04258297  1.0
  H  H33  1  0.72025519  0.11025480  0.04161606  1.0
  H  H34  1  0.18351920  0.10730382  0.08535108  1.0
  H  H35  1  0.17318663  0.09868840  0.01237878  1.0
  H  H36  1  0.17753969  0.87341329  0.01707163  1.0
  H  H37  1  0.19213284  0.88023782  0.08998252  1.0
  C  C38  1  0.49936762  0.26155356  0.50168104  1.0
  C  C39  1  0.53108833  0.50128959  0.60831835  1.0
  C  C40  1  0.49155613  0.73312091  0.49842887  1.0
  C  C41  1  0.51851412  0.49748083  0.39274384  1.0
  C  C42  1  0.49978688  0.25972257  0.04279587  1.0
  C  C43  1  0.47032391  0.50019757  0.93642209  1.0
  C  C44  1  0.50715513  0.73131917  0.04621144  1.0
  C  C45  1  0.49074278  0.49534838  0.15219709  1.0
  C  C46  1  0.93870759  0.43599601  0.53494046  1.0
  C  C47  1  0.08080700  0.56476875  0.46439142  1.0
  C  C48  1  0.08199362  0.43365236  0.53502603  1.0
  C  C49  1  0.93738166  0.56623998  0.46399163  1.0
  C  C50  1  0.92930128  0.34826207  0.58201762  1.0
  C  C51  1  0.09287113  0.34541465  0.58213469  1.0
  C  C52  1  0.49900694  0.12718900  0.50041578  1.0
  C  C53  1  0.49382055  0.86729141  0.49827971  1.0
  C  C54  1  0.61860839  0.05844030  0.49806182  1.0
  C  C55  1  0.37201509  0.93602271  0.50050015  1.0
  C  C56  1  0.61577572  0.93267951  0.49671784  1.0
  C  C57  1  0.37469448  0.06158250  0.50132213  1.0
  C  C58  1  0.77421375  0.06367712  0.49589321  1.0
  C  C59  1  0.77058819  0.92148982  0.49366554  1.0
  C  C60  1  0.57674555  0.50048690  0.84391733  1.0
  C  C61  1  0.32767248  0.50390301  0.84877725  1.0
  C  C62  1  0.31801340  0.50289435  0.79268374  1.0
  C  C63  1  0.43408688  0.50156326  0.75858707  1.0
  C  C64  1  0.42378011  0.50165183  0.70073301  1.0
  C  C65  1  0.67297833  0.50388154  0.69597205  1.0
  C  C66  1  0.68255170  0.50232024  0.75204030  1.0
  C  C67  1  0.56639391  0.50112097  0.78608748  1.0
  C  C68  1  0.45946934  0.50167046  0.87488808  1.0
  C  C69  1  0.54119182  0.50255037  0.66983542  1.0
  C  C70  1  0.49672519  0.49677868  0.21333935  1.0
  C  C71  1  0.51043122  0.49780473  0.33164836  1.0
  C  C72  1  0.37916538  0.49917595  0.24496694  1.0
  C  C73  1  0.63001132  0.49549316  0.29996840  1.0
  C  C74  1  0.38596761  0.49979335  0.30225371  1.0
  C  C75  1  0.62328163  0.49505045  0.24278676  1.0
  C  C76  1  0.22313472  0.50128935  0.24282745  1.0
  C  C77  1  0.23109921  0.50229143  0.30764748  1.0
  C  C78  1  0.06400362  0.43417431  0.01019437  1.0
  C  C79  1  0.92025147  0.56274010  0.08006376  1.0
  C  C80  1  0.92069594  0.43227971  0.00943342  1.0
  C  C81  1  0.06372488  0.56370142  0.08113192  1.0
  C  C82  1  0.07456312  0.34714146  0.96309311  1.0
  C  C83  1  0.91089156  0.34440400  0.96231884  1.0
  C  C84  1  0.50014633  0.12537830  0.04412005  1.0
  C  C85  1  0.50524632  0.86552632  0.04640511  1.0
  C  C86  1  0.38054203  0.05675410  0.04685334  1.0
  C  C87  1  0.62706757  0.93411937  0.04390711  1.0
  C  C88  1  0.38337611  0.93100699  0.04828751  1.0
  C  C89  1  0.62439385  0.05968134  0.04302202  1.0
  C  C90  1  0.22492324  0.06205460  0.04929963  1.0
  C  C91  1  0.22860768  0.91985326  0.05165568  1.0
  N  N92  1  0.86305072  0.50081386  0.49993511  1.0
  N  N93  1  0.15641176  0.49695841  0.50041617  1.0
  N  N94  1  0.13894178  0.49836815  0.04556639  1.0
  N  N95  1  0.84544371  0.49547624  0.04368186  1.0
  O  O96  1  0.38300769  0.31413396  0.50383758  1.0
  O  O97  1  0.61602997  0.31375227  0.50051284  1.0
  O  O98  1  0.64471769  0.49989355  0.58337070  1.0
  O  O99  1  0.41173658  0.50105258  0.58592339  1.0
  O  O100  1  0.60788727  0.68018217  0.49792163  1.0
  O  O101  1  0.37466217  0.68137758  0.49947366  1.0
  O  O102  1  0.40483722  0.49649061  0.41779330  1.0
  O  O103  1  0.63795571  0.49796103  0.41543538  1.0
  O  O104  1  0.61615198  0.31236121  0.04119405  1.0
  O  O105  1  0.38295210  0.31180978  0.04344362  1.0
  O  O106  1  0.35724693  0.50068559  0.96172441  1.0
  O  O107  1  0.59011545  0.49805981  0.95841226  1.0
  O  O108  1  0.39073306  0.67877863  0.04779812  1.0
  O  O109  1  0.62373126  0.67927349  0.04407925  1.0
  O  O110  1  0.60386313  0.49545085  0.12687430  1.0
  O  O111  1  0.37076193  0.49387811  0.12981490  1.0
  F  F112  1  0.80953017  0.50235686  0.77712823  1.0
  F  F113  1  0.19100342  0.50389112  0.76762902  1.0
