# generated using pymatgen
data_ZnH8(C5N2)2
_symmetry_space_group_name_H-M   'P 1'
_cell_length_a   14.49188905
_cell_length_b   15.02117588
_cell_length_c   21.34457440
_cell_angle_alpha   89.94665496
_cell_angle_beta   90.14837467
_cell_angle_gamma   89.92760710
_symmetry_Int_Tables_number   1
_chemical_formula_structural   ZnH8(C5N2)2
_chemical_formula_sum   'Zn8 H64 C80 N32'
_cell_volume   4646.37693483
_cell_formula_units_Z   8
loop_
 _symmetry_equiv_pos_site_id
 _symmetry_equiv_pos_as_xyz
  1  'x, y, z'
loop_
 _atom_site_type_symbol
 _atom_site_label
 _atom_site_symmetry_multiplicity
 _atom_site_fract_x
 _atom_site_fract_y
 _atom_site_fract_z
 _atom_site_occupancy
  Zn  Zn0  1  0.66344642  0.52354326  0.98431987  1.0
  Zn  Zn1  1  0.50448692  0.37021822  0.99677042  1.0
  Zn  Zn2  1  0.34260673  0.52039681  0.99770021  1.0
  Zn  Zn3  1  0.49995443  0.67782135  0.99055522  1.0
  Zn  Zn4  1  0.14910396  0.99917344  0.50088559  1.0
  Zn  Zn5  1  0.98672130  0.84685990  0.49114679  1.0
  Zn  Zn6  1  0.82701602  0.00470979  0.48564360  1.0
  Zn  Zn7  1  0.99107096  0.15340040  0.49695868  1.0
  H  H8  1  0.29245669  0.52358870  0.84820508  1.0
  H  H9  1  0.89256894  0.32209016  0.42544626  1.0
  H  H10  1  0.20656651  0.99968897  0.35260178  1.0
  H  H11  1  0.10704192  0.69034885  0.41688061  1.0
  H  H12  1  0.17126796  0.01008446  0.65008860  1.0
  H  H13  1  0.09957617  0.31290644  0.57424890  1.0
  H  H14  1  0.76995833  0.99402249  0.63511510  1.0
  H  H15  1  0.86417074  0.68817966  0.55753745  1.0
  H  H16  1  0.31629958  0.13240577  0.15797969  1.0
  H  H17  1  0.28094977  0.55580486  0.25131369  1.0
  H  H18  1  0.72190949  0.91873331  0.13085185  1.0
  H  H19  1  0.37258093  0.83439901  0.91937936  1.0
  H  H20  1  0.76926756  0.47498967  0.24400870  1.0
  H  H21  1  0.68421448  0.11653314  0.84496623  1.0
  H  H22  1  0.70114953  0.54657359  0.72220823  1.0
  H  H23  1  0.25847697  0.91538613  0.85155228  1.0
  H  H24  1  0.25072257  0.46531523  0.74182329  1.0
  H  H25  1  0.75981254  0.60641854  0.62801084  1.0
  H  H26  1  0.72803552  0.05196590  0.74604741  1.0
  H  H27  1  0.19450136  0.39880755  0.64756682  1.0
  H  H28  1  0.19238810  0.97217311  0.75829046  1.0
  H  H29  1  0.21217876  0.61333198  0.34279266  1.0
  H  H30  1  0.68214267  0.50634423  0.83361527  1.0
  H  H31  1  0.25822083  0.06693265  0.25163144  1.0
  H  H32  1  0.81522898  0.41006248  0.34252779  1.0
  H  H33  1  0.78132634  0.97875556  0.22470242  1.0
  H  H34  1  0.81279092  0.40683541  0.89566230  1.0
  H  H35  1  0.51223984  0.32722168  0.84680643  1.0
  H  H36  1  0.16990024  0.62353726  0.92721514  1.0
  H  H37  1  0.46955455  0.70947474  0.84013823  1.0
  H  H38  1  0.18443254  0.40958053  0.08210796  1.0
  H  H39  1  0.49456235  0.34994492  0.14752503  1.0
  H  H40  1  0.83393588  0.63719035  0.05054592  1.0
  H  H41  1  0.60805597  0.20277392  0.92829436  1.0
  H  H42  1  0.52072386  0.71942377  0.14217544  1.0
  H  H43  1  0.31936616  0.89143468  0.43145788  1.0
  H  H44  1  0.01781144  0.81822894  0.34076080  1.0
  H  H45  1  0.67837381  0.12537773  0.39843598  1.0
  H  H46  1  0.98538655  0.19445976  0.34722255  1.0
  H  H47  1  0.65541656  0.89413908  0.55301423  1.0
  H  H48  1  0.96003833  0.80608083  0.64262419  1.0
  H  H49  1  0.30907551  0.10805148  0.58615172  1.0
  H  H50  1  0.00107291  0.17638258  0.64751645  1.0
  H  H51  1  0.16357933  0.27372101  0.16941897  1.0
  H  H52  1  0.72257274  0.53561949  0.13373924  1.0
  H  H53  1  0.42009575  0.71014411  0.25396221  1.0
  H  H54  1  0.86457700  0.76768366  0.13991429  1.0
  H  H55  1  0.59531847  0.35893930  0.25316366  1.0
  H  H56  1  0.82668725  0.26221852  0.81589713  1.0
  H  H57  1  0.56116856  0.70033017  0.72693832  1.0
  H  H58  1  0.13186865  0.75237884  0.83904411  1.0
  H  H59  1  0.40890636  0.32878877  0.73944291  1.0
  H  H60  1  0.62328430  0.76205933  0.64063715  1.0
  H  H61  1  0.90080351  0.16998940  0.75336282  1.0
  H  H62  1  0.33226567  0.24648763  0.67100713  1.0
  H  H63  1  0.61902239  0.83674134  0.06006605  1.0
  H  H64  1  0.05921977  0.81295710  0.75615994  1.0
  H  H65  1  0.35459684  0.76472496  0.34206279  1.0
  H  H66  1  0.09103294  0.19226123  0.24074954  1.0
  H  H67  1  0.66721503  0.26809604  0.31705023  1.0
  H  H68  1  0.92541841  0.82846613  0.22765737  1.0
  H  H69  1  0.31449155  0.51057266  0.14623421  1.0
  H  H70  1  0.40210883  0.21225146  0.07820129  1.0
  H  H71  1  0.80490906  0.02121402  0.33517557  1.0
  C  C72  1  0.75506173  0.36616768  0.91091729  1.0
  C  C73  1  0.96693771  0.86967914  0.35009364  1.0
  C  C74  1  0.73827910  0.16415872  0.41235708  1.0
  C  C75  1  0.03619736  0.14381759  0.35886450  1.0
  C  C76  1  0.71586585  0.85202765  0.54730791  1.0
  C  C77  1  0.01029370  0.85821102  0.63390851  1.0
  C  C78  1  0.24939669  0.14958449  0.57602856  1.0
  C  C79  1  0.94741728  0.12978528  0.63388869  1.0
  C  C80  1  0.34886551  0.47803462  0.85807645  1.0
  C  C81  1  0.33195464  0.77506660  0.92840318  1.0
  C  C82  1  0.62895940  0.55424503  0.84566443  1.0
  C  C83  1  0.46134561  0.37805604  0.85759948  1.0
  C  C84  1  0.65148297  0.26163855  0.92762945  1.0
  C  C85  1  0.66420625  0.49148118  0.12674581  1.0
  C  C86  1  0.66308016  0.77973760  0.05074873  1.0
  C  C87  1  0.36697720  0.55945163  0.13496083  1.0
  C  C88  1  0.35626353  0.26877008  0.07171761  1.0
  C  C89  1  0.85827608  0.97325561  0.34699056  1.0
  C  C90  1  0.84676463  0.26492498  0.42615508  1.0
  C  C91  1  0.14957622  0.04486815  0.36149156  1.0
  C  C92  1  0.15028131  0.74739866  0.42754168  1.0
  C  C93  1  0.11791165  0.96245945  0.63795424  1.0
  C  C94  1  0.22917241  0.66726629  0.93214796  1.0
  C  C95  1  0.14327364  0.25448167  0.56977476  1.0
  C  C96  1  0.82898628  0.03717974  0.62780033  1.0
  C  C97  1  0.82166682  0.74669531  0.54939863  1.0
  C  C98  1  0.73028867  0.27982685  0.89131584  1.0
  C  C99  1  0.39216905  0.41489328  0.81892482  1.0
  C  C100  1  0.24446130  0.75113496  0.90463200  1.0
  C  C101  1  0.58141781  0.61574662  0.80721935  1.0
  C  C102  1  0.27150154  0.28788093  0.10104656  1.0
  C  C103  1  0.61910626  0.43451703  0.16953542  1.0
  C  C104  1  0.75181196  0.76006841  0.07438201  1.0
  C  C105  1  0.52049667  0.65792608  0.84925137  1.0
  C  C106  1  0.40906950  0.62427855  0.17335364  1.0
  C  C107  1  0.23876156  0.76903307  0.40465786  1.0
  C  C108  1  0.90520532  0.91189315  0.30835021  1.0
  C  C109  1  0.76579287  0.24900257  0.39126627  1.0
  C  C110  1  0.10761835  0.10841528  0.32174751  1.0
  C  C111  1  0.73420767  0.76809056  0.57408476  1.0
  C  C112  1  0.07232870  0.89938025  0.67589164  1.0
  C  C113  1  0.22721777  0.23420266  0.60012920  1.0
  C  C114  1  0.87554334  0.09372261  0.67021952  1.0
  C  C115  1  0.25392260  0.16325003  0.17699356  1.0
  C  C116  1  0.24579799  0.36969282  0.07374387  1.0
  C  C117  1  0.31454744  0.61520755  0.27020431  1.0
  C  C118  1  0.78104495  0.88266030  0.15036450  1.0
  C  C119  1  0.72258895  0.42506497  0.26362979  1.0
  C  C120  1  0.74199960  0.14799018  0.82059887  1.0
  C  C121  1  0.66563566  0.60647484  0.70563699  1.0
  C  C122  1  0.20317226  0.87474338  0.83151168  1.0
  C  C123  1  0.29070343  0.40869804  0.72444615  1.0
  C  C124  1  0.70265271  0.64398307  0.64855465  1.0
  C  C125  1  0.77442611  0.10271217  0.76502571  1.0
  C  C126  1  0.25222894  0.36445052  0.67026819  1.0
  C  C127  1  0.54725413  0.39728261  0.13355850  1.0
  C  C128  1  0.16093050  0.91067685  0.77547632  1.0
  C  C129  1  0.27234779  0.65044679  0.32625789  1.0
  C  C130  1  0.21538494  0.11962884  0.23130627  1.0
  C  C131  1  0.75564243  0.37982885  0.31925073  1.0
  C  C132  1  0.81821213  0.92012111  0.20749114  1.0
  C  C133  1  0.22471125  0.24061873  0.15048451  1.0
  C  C134  1  0.38416719  0.65140081  0.23599630  1.0
  C  C135  1  0.80484742  0.80475164  0.12231248  1.0
  C  C136  1  0.64354800  0.40622605  0.23204049  1.0
  C  C137  1  0.77123828  0.22872833  0.84134360  1.0
  C  C138  1  0.77208417  0.67772621  0.04601743  1.0
  C  C139  1  0.59945786  0.64183468  0.74324802  1.0
  C  C140  1  0.18773108  0.79363144  0.85764891  1.0
  C  C141  1  0.36633073  0.38311833  0.75762838  1.0
  C  C142  1  0.68101975  0.72352566  0.62183487  1.0
  C  C143  1  0.85246267  0.12224251  0.73276863  1.0
  C  C144  1  0.27562200  0.28257275  0.64841337  1.0
  C  C145  1  0.09423089  0.87285541  0.73931157  1.0
  C  C146  1  0.29388267  0.72698076  0.35682651  1.0
  C  C147  1  0.13577865  0.14110879  0.26119521  1.0
  C  C148  1  0.72471408  0.30039279  0.34129088  1.0
  C  C149  1  0.47229564  0.66595550  0.13264149  1.0
  C  C150  1  0.88615121  0.88592844  0.24446304  1.0
  C  C151  1  0.25800063  0.85020203  0.43487292  1.0
  N  N152  1  0.69584340  0.39668091  0.95450600  1.0
  N  N153  1  0.95554622  0.90211064  0.40838355  1.0
  N  N154  1  0.79790534  0.13236227  0.45546386  1.0
  N  N155  1  0.03769640  0.10584210  0.41596912  1.0
  N  N156  1  0.78619842  0.87839958  0.51059683  1.0
  N  N157  1  0.02026962  0.89313325  0.57610745  1.0
  N  N158  1  0.18442203  0.12215496  0.53517404  1.0
  N  N159  1  0.94215082  0.09881455  0.57494910  1.0
  N  N160  1  0.38851978  0.47654474  0.91505896  1.0
  N  N161  1  0.36539683  0.71074095  0.96612063  1.0
  N  N162  1  0.59961289  0.56157065  0.90511656  1.0
  N  N163  1  0.45750168  0.41504641  0.91488320  1.0
  N  N164  1  0.63109944  0.33123225  0.96469801  1.0
  N  N165  1  0.62297354  0.48602184  0.07030636  1.0
  N  N166  1  0.63344214  0.71448614  0.01257348  1.0
  N  N167  1  0.40125960  0.56437491  0.07671650  1.0
  N  N168  1  0.37866539  0.33371421  0.03117604  1.0
  N  N169  1  0.88866836  0.96575775  0.40628937  1.0
  N  N170  1  0.86571536  0.19543600  0.46383582  1.0
  N  N171  1  0.10717938  0.04488969  0.41741453  1.0
  N  N172  1  0.11988816  0.81061785  0.46712980  1.0
  N  N173  1  0.08655869  0.95711072  0.57887077  1.0
  N  N174  1  0.30096558  0.64349648  0.96862310  1.0
  N  N175  1  0.11812382  0.18764327  0.53154360  1.0
  N  N176  1  0.86958364  0.04165936  0.57125805  1.0
  N  N177  1  0.85243698  0.81247407  0.51210088  1.0
  N  N178  1  0.53280278  0.62526647  0.90746386  1.0
  N  N179  1  0.30976058  0.39682535  0.03222062  1.0
  N  N180  1  0.55134424  0.42785740  0.07443701  1.0
  N  N181  1  0.70166406  0.65061261  0.00941343  1.0
  N  N182  1  0.46612142  0.62976632  0.07499305  1.0
  N  N183  1  0.18733070  0.87486328  0.47183057  1.0
