# generated using pymatgen
data_Cu2H26C21(NO4)2
_symmetry_space_group_name_H-M   'P 1'
_cell_length_a   8.71355930
_cell_length_b   12.84053453
_cell_length_c   28.30841106
_cell_angle_alpha   89.99952913
_cell_angle_beta   89.99960384
_cell_angle_gamma   89.99732756
_symmetry_Int_Tables_number   1
_chemical_formula_structural   Cu2H26C21(NO4)2
_chemical_formula_sum   'Cu8 H104 C84 N8 O32'
_cell_volume   3167.33636432
_cell_formula_units_Z   4
loop_
 _symmetry_equiv_pos_site_id
 _symmetry_equiv_pos_as_xyz
  1  'x, y, z'
loop_
 _atom_site_type_symbol
 _atom_site_label
 _atom_site_symmetry_multiplicity
 _atom_site_fract_x
 _atom_site_fract_y
 _atom_site_fract_z
 _atom_site_occupancy
  Cu  Cu0  1  0.57154062  0.46659049  0.96312327  1.0
  Cu  Cu1  1  0.57150973  0.03340444  0.53686208  1.0
  Cu  Cu2  1  0.92848884  0.96660512  0.03686509  1.0
  Cu  Cu3  1  0.92850131  0.53338331  0.46314345  1.0
  Cu  Cu4  1  0.42848992  0.53338495  0.03686079  1.0
  Cu  Cu5  1  0.42850703  0.96662241  0.46314176  1.0
  Cu  Cu6  1  0.07149924  0.03338513  0.96313769  1.0
  Cu  Cu7  1  0.07150054  0.46660537  0.53686358  1.0
  H  H8  1  0.74106058  0.26730506  0.93696057  1.0
  H  H9  1  0.74104869  0.23267048  0.56303572  1.0
  H  H10  1  0.75894701  0.76731601  0.06303808  1.0
  H  H11  1  0.75894177  0.73267233  0.43696835  1.0
  H  H12  1  0.25893668  0.73267661  0.06302809  1.0
  H  H13  1  0.25895660  0.76733612  0.43696600  1.0
  H  H14  1  0.24103878  0.23266722  0.93696859  1.0
  H  H15  1  0.24103598  0.26731402  0.56303478  1.0
  H  H16  1  0.67674756  0.54206010  0.86405741  1.0
  H  H17  1  0.67671972  0.95792881  0.63593786  1.0
  H  H18  1  0.82324683  0.04205092  0.13593749  1.0
  H  H19  1  0.82322770  0.45793730  0.36406537  1.0
  H  H20  1  0.32327724  0.45794883  0.13595032  1.0
  H  H21  1  0.32327754  0.04207234  0.36406351  1.0
  H  H22  1  0.17674814  0.95793543  0.86406459  1.0
  H  H23  1  0.17677414  0.54206073  0.63593670  1.0
  H  H24  1  0.90655647  0.19328117  0.87409122  1.0
  H  H25  1  0.90653236  0.30669926  0.62590683  1.0
  H  H26  1  0.59345506  0.69328921  0.12591052  1.0
  H  H27  1  0.59345530  0.80671760  0.37409732  1.0
  H  H28  1  0.09344309  0.80670673  0.12589990  1.0
  H  H29  1  0.09347637  0.69331279  0.37409384  1.0
  H  H30  1  0.40652957  0.30668935  0.87409615  1.0
  H  H31  1  0.40652819  0.19327030  0.62590475  1.0
  H  H32  1  0.84652596  0.48282450  0.79771981  1.0
  H  H33  1  0.84647532  0.01715005  0.70228332  1.0
  H  H34  1  0.65348746  0.98283004  0.20227768  1.0
  H  H35  1  0.65347258  0.51716943  0.29772474  1.0
  H  H36  1  0.15351147  0.51719456  0.20229039  1.0
  H  H37  1  0.15352424  0.98286590  0.29771770  1.0
  H  H38  1  0.34649373  0.01715631  0.79772122  1.0
  H  H39  1  0.34652812  0.48282938  0.70227769  1.0
  H  H40  1  0.06877659  0.23118055  0.80450956  1.0
  H  H41  1  0.06876044  0.26877888  0.69548394  1.0
  H  H42  1  0.43124602  0.73119144  0.19548677  1.0
  H  H43  1  0.43124811  0.76882907  0.30451931  1.0
  H  H44  1  0.93125395  0.76884162  0.19548086  1.0
  H  H45  1  0.93124945  0.73122772  0.30451389  1.0
  H  H46  1  0.56875009  0.26879880  0.80451743  1.0
  H  H47  1  0.56875374  0.23116506  0.69548524  1.0
  H  H48  1  0.06620762  0.35610788  0.77775474  1.0
  H  H49  1  0.06619143  0.14383684  0.72223948  1.0
  H  H50  1  0.43379263  0.85612443  0.22223865  1.0
  H  H51  1  0.43378784  0.64389133  0.27776636  1.0
  H  H52  1  0.93380226  0.64392520  0.22223745  1.0
  H  H53  1  0.93380582  0.85617365  0.27776119  1.0
  H  H54  1  0.56620348  0.14386347  0.77776625  1.0
  H  H55  1  0.56620254  0.35609891  0.72223854  1.0
  H  H56  1  0.82012247  0.18803065  0.76337512  1.0
  H  H57  1  0.82012310  0.31194162  0.73662948  1.0
  H  H58  1  0.67987220  0.68804875  0.23663301  1.0
  H  H59  1  0.67987912  0.81195923  0.26337218  1.0
  H  H60  1  0.17987020  0.81199386  0.23662519  1.0
  H  H61  1  0.17989826  0.68808133  0.26336871  1.0
  H  H62  1  0.32011243  0.31194228  0.76336907  1.0
  H  H63  1  0.32012043  0.18802322  0.73662848  1.0
  H  H64  1  0.00590950  0.52964406  0.04438269  1.0
  H  H65  1  0.00594488  0.97035097  0.45559216  1.0
  H  H66  1  0.49406041  0.02964580  0.95560379  1.0
  H  H67  1  0.49406817  0.47034301  0.54439903  1.0
  H  H68  1  0.99408776  0.47036409  0.95560455  1.0
  H  H69  1  0.99406845  0.02964472  0.54439508  1.0
  H  H70  1  0.50591963  0.97034522  0.04441029  1.0
  H  H71  1  0.50592220  0.52965035  0.45559421  1.0
  H  H72  1  0.91113746  0.51975815  0.10075084  1.0
  H  H73  1  0.91112177  0.98026354  0.39922876  1.0
  H  H74  1  0.58886190  0.01974647  0.89923566  1.0
  H  H75  1  0.58885626  0.48022610  0.60076661  1.0
  H  H76  1  0.08889193  0.48026013  0.89923534  1.0
  H  H77  1  0.08885943  0.01973605  0.60076448  1.0
  H  H78  1  0.41112273  0.98024845  0.10077455  1.0
  H  H79  1  0.41111231  0.51975246  0.39922981  1.0
  H  H80  1  0.91964565  0.64067770  0.07120179  1.0
  H  H81  1  0.91962499  0.85934995  0.42876013  1.0
  H  H82  1  0.58034999  0.14065953  0.92876977  1.0
  H  H83  1  0.58034987  0.35932266  0.57122651  1.0
  H  H84  1  0.08036882  0.35934758  0.92876354  1.0
  H  H85  1  0.08034013  0.14065509  0.57122817  1.0
  H  H86  1  0.41964153  0.85932838  0.07123690  1.0
  H  H87  1  0.41962214  0.64066369  0.42876603  1.0
  H  H88  1  0.43700706  0.20137793  0.08821539  1.0
  H  H89  1  0.43700128  0.29864899  0.41178124  1.0
  H  H90  1  0.06299695  0.70135948  0.91178281  1.0
  H  H91  1  0.06300522  0.79864496  0.58821731  1.0
  H  H92  1  0.56301545  0.79862867  0.91178845  1.0
  H  H93  1  0.56303385  0.70137863  0.58822190  1.0
  H  H94  1  0.93700260  0.29864089  0.08821714  1.0
  H  H95  1  0.93700581  0.20134918  0.41178158  1.0
  H  H96  1  0.60482280  0.17092125  0.05372976  1.0
  H  H97  1  0.60483827  0.32908557  0.44627075  1.0
  H  H98  1  0.89517764  0.67092826  0.94627031  1.0
  H  H99  1  0.89517310  0.82908021  0.55372837  1.0
  H  H100  1  0.39519052  0.82907912  0.94626702  1.0
  H  H101  1  0.39519457  0.67094829  0.55373663  1.0
  H  H102  1  0.10483109  0.32906276  0.05372824  1.0
  H  H103  1  0.10483678  0.17090847  0.44627900  1.0
  H  H104  1  0.42023311  0.15624432  0.02859823  1.0
  H  H105  1  0.42023898  0.34378079  0.47140408  1.0
  H  H106  1  0.07977399  0.65622971  0.97140544  1.0
  H  H107  1  0.07977015  0.84375784  0.52859641  1.0
  H  H108  1  0.57979513  0.84374826  0.97140526  1.0
  H  H109  1  0.57978467  0.65624372  0.52860258  1.0
  H  H110  1  0.92024163  0.34376754  0.02859310  1.0
  H  H111  1  0.92024432  0.15624486  0.47140248  1.0
  C  C112  1  0.76481205  0.31136934  0.90490426  1.0
  C  C113  1  0.76480249  0.18861635  0.59509763  1.0
  C  C114  1  0.73519250  0.81136956  0.09509493  1.0
  C  C115  1  0.73516805  0.68861720  0.40490908  1.0
  C  C116  1  0.23519324  0.68862323  0.09508828  1.0
  C  C117  1  0.23520395  0.81139180  0.40490374  1.0
  C  C118  1  0.26479787  0.18861211  0.90491033  1.0
  C  C119  1  0.26481315  0.31136915  0.59509299  1.0
  C  C120  1  0.72996267  0.46508115  0.86426026  1.0
  C  C121  1  0.72992606  0.03491188  0.63574029  1.0
  C  C122  1  0.77004738  0.96507408  0.13573729  1.0
  C  C123  1  0.77003554  0.53491936  0.36426240  1.0
  C  C124  1  0.27006672  0.53492311  0.13574464  1.0
  C  C125  1  0.27007694  0.96509161  0.36425931  1.0
  C  C126  1  0.22993611  0.03491772  0.86426372  1.0
  C  C127  1  0.22996861  0.46507633  0.63573967  1.0
  C  C128  1  0.85861017  0.27108403  0.86955361  1.0
  C  C129  1  0.85858902  0.22889247  0.63044949  1.0
  C  C130  1  0.64140404  0.77109047  0.13044926  1.0
  C  C131  1  0.64137874  0.72890471  0.36956060  1.0
  C  C132  1  0.14140774  0.72891166  0.13044069  1.0
  C  C133  1  0.14142316  0.77111569  0.36955294  1.0
  C  C134  1  0.35859207  0.22888497  0.86955494  1.0
  C  C135  1  0.35861507  0.27108943  0.63044147  1.0
  C  C136  1  0.89187620  0.33234767  0.83001150  1.0
  C  C137  1  0.89186756  0.16761843  0.66998905  1.0
  C  C138  1  0.60813610  0.83235756  0.16998831  1.0
  C  C139  1  0.60812163  0.66764802  0.33001597  1.0
  C  C140  1  0.10814746  0.66765893  0.16998775  1.0
  C  C141  1  0.10814002  0.83238427  0.33001126  1.0
  C  C142  1  0.39186001  0.16763190  0.83001270  1.0
  C  C143  1  0.39188137  0.33234612  0.66998469  1.0
  C  C144  1  0.82434817  0.43137111  0.82765767  1.0
  C  C145  1  0.82431072  0.06860491  0.67234126  1.0
  C  C146  1  0.67566994  0.93137415  0.17234107  1.0
  C  C147  1  0.67564626  0.56862383  0.32766166  1.0
  C  C148  1  0.17569040  0.56864794  0.17234688  1.0
  C  C149  1  0.17568883  0.93140402  0.32765799  1.0
  C  C150  1  0.32431699  0.06861687  0.82765854  1.0
  C  C151  1  0.32434755  0.43136719  0.67234112  1.0
  C  C152  1  0.99258541  0.29262612  0.79092415  1.0
  C  C153  1  0.99256973  0.20733913  0.70908008  1.0
  C  C154  1  0.50742503  0.79263382  0.20907829  1.0
  C  C155  1  0.50741902  0.70737884  0.29092727  1.0
  C  C156  1  0.00743022  0.70739605  0.20907016  1.0
  C  C157  1  0.00743785  0.79267292  0.29092094  1.0
  C  C158  1  0.49256534  0.20735643  0.79092343  1.0
  C  C159  1  0.49257479  0.29261296  0.70907551  1.0
  C  C160  1  0.89599763  0.24998727  0.75000540  1.0
  C  C161  1  0.60399967  0.75000363  0.25000391  1.0
  C  C162  1  0.10401110  0.75003179  0.24999279  1.0
  C  C163  1  0.39599071  0.24998194  0.74999746  1.0
  C  C164  1  0.75762743  0.53462420  0.04195715  1.0
  C  C165  1  0.75761834  0.96540936  0.45803515  1.0
  C  C166  1  0.74235714  0.03459803  0.95804625  1.0
  C  C167  1  0.74237907  0.46539149  0.54195604  1.0
  C  C168  1  0.24236868  0.46539174  0.95803963  1.0
  C  C169  1  0.24237204  0.03459724  0.54195562  1.0
  C  C170  1  0.25760569  0.96539066  0.04196642  1.0
  C  C171  1  0.25759409  0.53460109  0.45804074  1.0
  C  C172  1  0.49339519  0.31418825  0.03440037  1.0
  C  C173  1  0.49339713  0.18580885  0.46561097  1.0
  C  C174  1  0.00661712  0.81419708  0.96561013  1.0
  C  C175  1  0.00660221  0.68579122  0.53439507  1.0
  C  C176  1  0.50659288  0.68580901  0.96560453  1.0
  C  C177  1  0.50662308  0.81422111  0.53439217  1.0
  C  C178  1  0.99338703  0.18578927  0.03439478  1.0
  C  C179  1  0.99338587  0.31420214  0.46560383  1.0
  C  C180  1  0.90915117  0.55645635  0.06576965  1.0
  C  C181  1  0.90913838  0.94356930  0.43421314  1.0
  C  C182  1  0.59084911  0.05643930  0.93422095  1.0
  C  C183  1  0.59086512  0.44354256  0.56577779  1.0
  C  C184  1  0.09085297  0.44356115  0.93421794  1.0
  C  C185  1  0.09085429  0.05643263  0.56577834  1.0
  C  C186  1  0.40912520  0.94355017  0.06578996  1.0
  C  C187  1  0.40911378  0.55644379  0.43421652  1.0
  C  C188  1  0.48859936  0.20399103  0.05297704  1.0
  C  C189  1  0.48859872  0.29600700  0.44702477  1.0
  C  C190  1  0.01141135  0.70400005  0.94702716  1.0
  C  C191  1  0.01140451  0.79599200  0.55297484  1.0
  C  C192  1  0.51141741  0.79600467  0.94702645  1.0
  C  C193  1  0.51142952  0.70401985  0.55297801  1.0
  C  C194  1  0.98859165  0.29599175  0.05297351  1.0
  C  C195  1  0.98860193  0.20400448  0.44702370  1.0
  N  N196  1  0.70083266  0.40639913  0.90254443  1.0
  N  N197  1  0.70081466  0.09358703  0.59745618  1.0
  N  N198  1  0.79916651  0.90640351  0.09745052  1.0
  N  N199  1  0.79915208  0.59358667  0.40254982  1.0
  N  N200  1  0.29917722  0.59359033  0.09744952  1.0
  N  N201  1  0.29919178  0.90641801  0.40254483  1.0
  N  N202  1  0.20081583  0.09357583  0.90255050  1.0
  N  N203  1  0.20083944  0.40640435  0.59745225  1.0
  O  O204  1  0.76226332  0.49763150  0.00016857  1.0
  O  O205  1  0.76228400  0.00238202  0.49983018  1.0
  O  O206  1  0.73770318  0.99762150  0.99983663  1.0
  O  O207  1  0.73770738  0.50237171  0.50016098  1.0
  O  O208  1  0.23771787  0.50235797  0.99983138  1.0
  O  O209  1  0.23771670  0.99763470  0.50015741  1.0
  O  O210  1  0.26226998  0.00235317  0.00016792  1.0
  O  O211  1  0.26225889  0.49763177  0.49983721  1.0
  O  O212  1  0.63655192  0.55579480  0.06537007  1.0
  O  O213  1  0.63653448  0.94422623  0.43463097  1.0
  O  O214  1  0.86345988  0.05575978  0.93463466  1.0
  O  O215  1  0.86347242  0.44423682  0.56536666  1.0
  O  O216  1  0.36345108  0.44422971  0.93462953  1.0
  O  O217  1  0.36345131  0.05575778  0.56536863  1.0
  O  O218  1  0.13652360  0.94423825  0.06537836  1.0
  O  O219  1  0.13651336  0.55577990  0.43462659  1.0
  O  O220  1  0.55834381  0.32689685  0.99441177  1.0
  O  O221  1  0.55836598  0.17310705  0.50559939  1.0
  O  O222  1  0.94164476  0.82690073  0.00559654  1.0
  O  O223  1  0.94162054  0.67309118  0.49440808  1.0
  O  O224  1  0.44159492  0.67309806  0.00558571  1.0
  O  O225  1  0.44161406  0.82691122  0.49440728  1.0
  O  O226  1  0.05837660  0.17308952  0.99440624  1.0
  O  O227  1  0.05836639  0.32690685  0.50559541  1.0
  O  O228  1  0.43141321  0.38531610  0.05943386  1.0
  O  O229  1  0.43137468  0.11468919  0.44057267  1.0
  O  O230  1  0.06863324  0.88532343  0.94057249  1.0
  O  O231  1  0.06863987  0.61466758  0.55942797  1.0
  O  O232  1  0.56861963  0.61468271  0.94057564  1.0
  O  O233  1  0.56866504  0.88534155  0.55942234  1.0
  O  O234  1  0.93135255  0.11467849  0.05942711  1.0
  O  O235  1  0.93135853  0.38532188  0.44057481  1.0
