# generated using pymatgen
data_ZnH42C39N(ClO3)3
_symmetry_space_group_name_H-M   'P 1'
_cell_length_a   10.78035293
_cell_length_b   18.23053693
_cell_length_c   18.78946301
_cell_angle_alpha   90.02998206
_cell_angle_beta   90.32187363
_cell_angle_gamma   90.72463290
_symmetry_Int_Tables_number   1
_chemical_formula_structural   ZnH42C39N(ClO3)3
_chemical_formula_sum   'Zn2 H84 C78 N2 Cl6 O18'
_cell_volume   3692.36940259
_cell_formula_units_Z   2
loop_
 _symmetry_equiv_pos_site_id
 _symmetry_equiv_pos_as_xyz
  1  'x, y, z'
loop_
 _atom_site_type_symbol
 _atom_site_label
 _atom_site_symmetry_multiplicity
 _atom_site_fract_x
 _atom_site_fract_y
 _atom_site_fract_z
 _atom_site_occupancy
  Zn  Zn0  1  0.51562995  0.42038970  0.49520153  1.0
  Zn  Zn1  1  0.52191952  0.57556421  0.50166622  1.0
  H  H2  1  0.55787882  0.31137324  0.60116856  1.0
  H  H3  1  0.44323677  0.58379853  0.12809049  1.0
  H  H4  1  0.36288365  0.40406987  0.68649262  1.0
  H  H5  1  0.29796096  0.40518187  0.30916291  1.0
  H  H6  1  0.42332170  0.38502557  0.93347174  1.0
  H  H7  1  0.40409287  0.38332425  0.06535860  1.0
  H  H8  1  0.22747373  0.60353521  0.63219981  1.0
  H  H9  1  0.07761174  0.64416252  0.64216361  1.0
  H  H10  1  0.30672176  0.72278841  0.58194944  1.0
  H  H11  1  0.16213099  0.76353208  0.60021244  1.0
  H  H12  1  0.19375253  0.73493911  0.73241209  1.0
  H  H13  1  0.48996057  0.30380057  0.38507481  1.0
  H  H14  1  0.31490367  0.79145172  0.69839132  1.0
  H  H15  1  0.33973416  0.69651422  0.71182176  1.0
  H  H16  1  0.86421473  0.62886239  0.39412027  1.0
  H  H17  1  0.00816563  0.67337082  0.41838857  1.0
  H  H18  1  0.74762759  0.73121783  0.44787481  1.0
  H  H19  1  0.88826338  0.77617097  0.47228113  1.0
  H  H20  1  0.94690590  0.78539385  0.34173559  1.0
  H  H21  1  0.80302695  0.82854216  0.35808175  1.0
  H  H22  1  0.80571150  0.74029797  0.31811254  1.0
  H  H23  1  0.64860368  0.16526640  0.72013467  1.0
  H  H24  1  0.32107865  0.93377731  0.47578123  1.0
  H  H25  1  0.58601175  0.25069937  0.69389346  1.0
  H  H26  1  0.82674509  0.18307861  0.63750574  1.0
  H  H27  1  0.76647423  0.26666678  0.60733268  1.0
  H  H28  1  0.78868760  0.32105421  0.73040064  1.0
  H  H29  1  0.93248324  0.28969891  0.69765381  1.0
  H  H30  1  0.85061950  0.23703571  0.76192122  1.0
  H  H31  1  0.57925482  0.14195892  0.27691072  1.0
  H  H32  1  0.60820391  0.22882808  0.31741462  1.0
  H  H33  1  0.36140623  0.17464286  0.25181588  1.0
  H  H34  1  0.38101236  0.26036172  0.29432958  1.0
  H  H35  1  0.71170897  0.92812363  0.52482648  1.0
  H  H36  1  0.54238199  0.29830963  0.20489699  1.0
  H  H37  1  0.40178197  0.27303798  0.16125564  1.0
  H  H38  1  0.52836970  0.21153146  0.16222067  1.0
  H  H39  1  0.28013409  0.01300701  0.37907977  1.0
  H  H40  1  0.22277203  0.10424751  0.37541776  1.0
  H  H41  1  0.11734071  0.98195086  0.47091290  1.0
  H  H42  1  0.06600612  0.07368969  0.46764719  1.0
  H  H43  1  0.00564341  0.05834491  0.33870118  1.0
  H  H44  1  0.92839261  0.99227879  0.39209345  1.0
  H  H45  1  0.05767047  0.96623608  0.34022311  1.0
  H  H46  1  0.62836458  0.69122044  0.59285605  1.0
  H  H47  1  0.91768109  0.08331445  0.55459294  1.0
  H  H48  1  0.87275181  0.99396425  0.52619765  1.0
  H  H49  1  0.79343612  0.06624851  0.66638927  1.0
  H  H50  1  0.75528199  0.97580305  0.64072692  1.0
  H  H51  1  0.98705921  0.94576266  0.63894390  1.0
  H  H52  1  0.93797830  0.97511355  0.72408763  1.0
  H  H53  1  0.02098557  0.03638541  0.66785000  1.0
  H  H54  1  0.83768487  0.85146782  0.60088614  1.0
  H  H55  1  0.78840330  0.75814875  0.59873369  1.0
  H  H56  1  0.76255747  0.86170020  0.72666956  1.0
  H  H57  1  0.39430770  0.68632771  0.41863035  1.0
  H  H58  1  0.71780762  0.76821471  0.72519214  1.0
  H  H59  1  0.94246883  0.73363671  0.70084835  1.0
  H  H60  1  0.92747584  0.78144159  0.78242774  1.0
  H  H61  1  0.98603489  0.82757609  0.70635770  1.0
  H  H62  1  0.19962739  0.83337077  0.35695328  1.0
  H  H63  1  0.23303443  0.74908460  0.40032265  1.0
  H  H64  1  0.35593974  0.81042411  0.26492355  1.0
  H  H65  1  0.40414449  0.72931276  0.30753206  1.0
  H  H66  1  0.19374728  0.67123325  0.28755943  1.0
  H  H67  1  0.26087387  0.69933562  0.20592224  1.0
  H  H68  1  0.22727200  0.36021675  0.55216848  1.0
  H  H69  1  0.14200241  0.75238654  0.24477909  1.0
  H  H70  1  0.14061740  0.57474759  0.16927926  1.0
  H  H71  1  0.04982949  0.52000357  0.10941046  1.0
  H  H72  1  0.03374366  0.68730577  0.12646350  1.0
  H  H73  1  0.94214010  0.63382400  0.06746604  1.0
  H  H74  1  0.84605711  0.56642595  0.17192706  1.0
  H  H75  1  0.82446588  0.66214274  0.17964037  1.0
  H  H76  1  0.93979700  0.61856775  0.23170754  1.0
  H  H77  1  0.00574185  0.57465028  0.93003657  1.0
  H  H78  1  0.08191125  0.51062883  0.87362362  1.0
  H  H79  1  0.80513728  0.36528590  0.44776439  1.0
  H  H80  1  0.04172499  0.67278300  0.83785895  1.0
  H  H81  1  0.11863907  0.60850732  0.78376588  1.0
  H  H82  1  0.92092581  0.53079950  0.77709953  1.0
  H  H83  1  0.89645583  0.61993107  0.74312745  1.0
  H  H84  1  0.84321850  0.59704690  0.82922471  1.0
  H  H85  1  0.46157569  0.59285275  0.86741505  1.0
  C  C86  1  0.46096003  0.50049416  0.36446472  1.0
  C  C87  1  0.41311479  0.50004332  0.28928340  1.0
  C  C88  1  0.37098518  0.42725992  0.96078585  1.0
  C  C89  1  0.35937712  0.42612915  0.03422528  1.0
  C  C90  1  0.29960392  0.48298597  0.07034614  1.0
  C  C91  1  0.32218366  0.48571605  0.92153164  1.0
  C  C92  1  0.23926282  0.53780591  0.03091126  1.0
  C  C93  1  0.25165167  0.53897546  0.95608405  1.0
  C  C94  1  0.54561553  0.27588544  0.55504823  1.0
  C  C95  1  0.50584621  0.27163794  0.43294685  1.0
  C  C96  1  0.55240804  0.19943649  0.55908008  1.0
  C  C97  1  0.52375144  0.49696410  0.63559961  1.0
  C  C98  1  0.50942029  0.19500040  0.43316098  1.0
  C  C99  1  0.52887691  0.15719327  0.49761763  1.0
  C  C100  1  0.28569621  0.49936647  0.52246912  1.0
  C  C101  1  0.75154134  0.50303260  0.48285313  1.0
  C  C102  1  0.41514751  0.03814658  0.48298865  1.0
  C  C103  1  0.63244863  0.03538872  0.51544300  1.0
  C  C104  1  0.40908612  0.96166036  0.48529528  1.0
  C  C105  1  0.62820554  0.95893481  0.51444259  1.0
  C  C106  1  0.51592528  0.92137368  0.50066391  1.0
  C  C107  1  0.52580107  0.07629549  0.49938605  1.0
  C  C108  1  0.35794570  0.49366706  0.84596160  1.0
  C  C109  1  0.58217970  0.80023891  0.55350022  1.0
  C  C110  1  0.43792467  0.79772433  0.45510830  1.0
  C  C111  1  0.57885641  0.72358781  0.55340575  1.0
  C  C112  1  0.44415835  0.72120672  0.45634006  1.0
  C  C113  1  0.51183514  0.84027119  0.50315991  1.0
  C  C114  1  0.13511100  0.36248449  0.52894092  1.0
  C  C115  1  0.89728738  0.36544279  0.47108099  1.0
  C  C116  1  0.07498825  0.29757327  0.51241537  1.0
  C  C117  1  0.95648558  0.29943220  0.47937004  1.0
  C  C118  1  0.95363354  0.43287513  0.49256742  1.0
  C  C119  1  0.32487970  0.49012425  0.14762839  1.0
  C  C120  1  0.07987642  0.43149709  0.51590200  1.0
  C  C121  1  0.14738256  0.49923384  0.52635781  1.0
  C  C122  1  0.89000588  0.50191624  0.48960531  1.0
  C  C123  1  0.08340442  0.56529749  0.52489129  1.0
  C  C124  1  0.95522972  0.56651691  0.50494690  1.0
  C  C125  1  0.49245227  0.55609163  0.76034112  1.0
  C  C126  1  0.45186206  0.55105861  0.23800721  1.0
  C  C127  1  0.43815933  0.55156728  0.82745592  1.0
  C  C128  1  0.40850744  0.54582239  0.16827927  1.0
  C  C129  1  0.16544578  0.64638396  0.61210334  1.0
  C  C130  1  0.32795086  0.44194641  0.79307492  1.0
  C  C131  1  0.22724156  0.72122892  0.61830188  1.0
  C  C132  1  0.27097605  0.73688272  0.69443676  1.0
  C  C133  1  0.90921608  0.66666667  0.43251096  1.0
  C  C134  1  0.84471461  0.73992300  0.43214033  1.0
  C  C135  1  0.85046713  0.77555883  0.35855128  1.0
  C  C136  1  0.64338299  0.20458537  0.67594819  1.0
  C  C137  1  0.77275159  0.23079672  0.65418891  1.0
  C  C138  1  0.83949712  0.27179530  0.71450067  1.0
  C  C139  1  0.53595532  0.18688134  0.30658597  1.0
  C  C140  1  0.42967355  0.21857841  0.26319991  1.0
  C  C141  1  0.28393254  0.44038783  0.19971188  1.0
  C  C142  1  0.47826201  0.25219236  0.19399526  1.0
  C  C143  1  0.23326795  0.05583359  0.40994819  1.0
  C  C144  1  0.10657803  0.02971201  0.43559591  1.0
  C  C145  1  0.02008750  0.01050391  0.37330494  1.0
  C  C146  1  0.84432529  0.04116552  0.55891725  1.0
  C  C147  1  0.82744876  0.01874248  0.63652679  1.0
  C  C148  1  0.94986029  0.99261602  0.66858573  1.0
  C  C149  1  0.77060008  0.81160920  0.62351194  1.0
  C  C150  1  0.78552910  0.80799508  0.70375983  1.0
  C  C151  1  0.91755359  0.78658254  0.72446396  1.0
  C  C152  1  0.38360574  0.44547615  0.72670132  1.0
  C  C153  1  0.27302090  0.79317999  0.36710883  1.0
  C  C154  1  0.32312483  0.76379781  0.29722936  1.0
  C  C155  1  0.22432327  0.71936656  0.25669160  1.0
  C  C156  1  0.08943347  0.57535906  0.11835582  1.0
  C  C157  1  0.98905926  0.63308685  0.11965821  1.0
  C  C158  1  0.89502811  0.61922568  0.17895549  1.0
  C  C159  1  0.07660169  0.56918254  0.88810847  1.0
  C  C160  1  0.04413222  0.61435426  0.82311426  1.0
  C  C161  1  0.91961726  0.58925971  0.79155054  1.0
  C  C162  1  0.32837785  0.44489629  0.26935543  1.0
  C  C163  1  0.46900846  0.50128089  0.70912923  1.0
  N  N164  1  0.52174683  0.30986885  0.49340136  1.0
  N  N165  1  0.51358759  0.68604790  0.50461145  1.0
  Cl  Cl166  1  0.14702886  0.21543180  0.53037288  1.0
  Cl  Cl167  1  0.88364951  0.21945095  0.45086956  1.0
  Cl  Cl168  1  0.59219967  0.62985491  0.74596615  1.0
  Cl  Cl169  1  0.56241673  0.61797065  0.25802605  1.0
  Cl  Cl170  1  0.22070791  0.37224467  0.80962706  1.0
  Cl  Cl171  1  0.17755293  0.37173680  0.17786052  1.0
  O  O172  1  0.50815910  0.44090681  0.38574549  1.0
  O  O173  1  0.90160178  0.63438920  0.50282842  1.0
  O  O174  1  0.57917187  0.16355954  0.62053238  1.0
  O  O175  1  0.49787973  0.15373940  0.37297235  1.0
  O  O176  1  0.31341997  0.07979089  0.46763178  1.0
  O  O177  1  0.73797666  0.07582301  0.52796875  1.0
  O  O178  1  0.64806626  0.83732641  0.60463042  1.0
  O  O179  1  0.36498923  0.83398878  0.40783926  1.0
  O  O180  1  0.17270868  0.59332076  0.06054367  1.0
  O  O181  1  0.19555553  0.59307901  0.91676475  1.0
  O  O182  1  0.51000716  0.43467063  0.60558698  1.0
  O  O183  1  0.44743647  0.55918019  0.39975640  1.0
  O  O184  1  0.57330892  0.55372760  0.60803055  1.0
  O  O185  1  0.33333333  0.44289688  0.49365167  1.0
  O  O186  1  0.69651625  0.44412120  0.50188077  1.0
  O  O187  1  0.34697847  0.55572639  0.54216889  1.0
  O  O188  1  0.69678750  0.56119692  0.46357619  1.0
  O  O189  1  0.13712915  0.63234778  0.53766905  1.0
