# generated using pymatgen
data_AlH2C11Cl5O5F3
_symmetry_space_group_name_H-M   'P 1'
_cell_length_a   7.17458816
_cell_length_b   16.52123401
_cell_length_c   16.62217757
_cell_angle_alpha   79.22862842
_cell_angle_beta   89.99987703
_cell_angle_gamma   89.99981943
_symmetry_Int_Tables_number   1
_chemical_formula_structural   AlH2C11Cl5O5F3
_chemical_formula_sum   'Al4 H8 C44 Cl20 O20 F12'
_cell_volume   1935.56260350
_cell_formula_units_Z   4
loop_
 _symmetry_equiv_pos_site_id
 _symmetry_equiv_pos_as_xyz
  1  'x, y, z'
loop_
 _atom_site_type_symbol
 _atom_site_label
 _atom_site_symmetry_multiplicity
 _atom_site_fract_x
 _atom_site_fract_y
 _atom_site_fract_z
 _atom_site_occupancy
  Al  Al0  1  0.83876766  0.49856155  0.49452843  1.0
  Al  Al1  1  0.33876680  0.50143939  0.50547163  1.0
  Al  Al2  1  0.39507167  0.00506199  0.99807991  1.0
  Al  Al3  1  0.89506995  0.99493740  0.00191828  1.0
  H  H4  1  0.81317201  0.16557327  0.31320387  1.0
  H  H5  1  0.31316787  0.83442744  0.68679437  1.0
  H  H6  1  0.00815669  0.37675659  0.76912202  1.0
  H  H7  1  0.50815514  0.62324416  0.23087828  1.0
  H  H8  1  0.58048144  0.39444220  0.49310685  1.0
  H  H9  1  0.08047842  0.60555484  0.50690626  1.0
  H  H10  1  0.65727134  0.10676737  0.00592782  1.0
  H  H11  1  0.15727225  0.89323240  0.99406686  1.0
  C  C12  1  0.58353751  0.61460214  0.39065334  1.0
  C  C13  1  0.08354116  0.38539862  0.60934630  1.0
  C  C14  1  0.60075762  0.57946089  0.60375756  1.0
  C  C15  1  0.10077042  0.42053841  0.39624328  1.0
  C  C16  1  0.11903787  0.13574393  0.16378258  1.0
  C  C17  1  0.61904140  0.86425376  0.83621703  1.0
  C  C18  1  0.12614504  0.36878464  0.33105935  1.0
  C  C19  1  0.62613713  0.63121221  0.66894148  1.0
  C  C20  1  0.32587398  0.32870014  0.22385794  1.0
  C  C21  1  0.82587502  0.67129741  0.77614091  1.0
  C  C22  1  0.28484274  0.38134767  0.27794793  1.0
  C  C23  1  0.78483745  0.61864979  0.72204850  1.0
  C  C24  1  0.00876016  0.30291292  0.32604866  1.0
  C  C25  1  0.50875314  0.69708589  0.67395225  1.0
  C  C26  1  0.04715572  0.24659994  0.27246335  1.0
  C  C27  1  0.54715641  0.75339738  0.72753876  1.0
  C  C28  1  0.20741309  0.26013549  0.21948237  1.0
  C  C29  1  0.70741082  0.73986186  0.78051840  1.0
  C  C30  1  0.23361841  0.20319176  0.16550538  1.0
  C  C31  1  0.73361687  0.79680397  0.83449416  1.0
  C  C32  1  0.96838269  0.12435573  0.22011697  1.0
  C  C33  1  0.46839034  0.87564357  0.77988117  1.0
  C  C34  1  0.93151196  0.17756428  0.27198501  1.0
  C  C35  1  0.43151049  0.82243533  0.72801499  1.0
  C  C36  1  0.27850048  0.18583206  0.74718512  1.0
  C  C37  1  0.77848769  0.81417017  0.25281498  1.0
  C  C38  1  0.23644232  0.24118258  0.66193457  1.0
  C  C39  1  0.73643928  0.75881799  0.33806495  1.0
  C  C40  1  0.11586485  0.26373764  0.84023595  1.0
  C  C41  1  0.61586283  0.73626539  0.15976427  1.0
  C  C42  1  0.92834826  0.17023846  0.75866530  1.0
  C  C43  1  0.42833795  0.82976225  0.24133531  1.0
  C  C44  1  0.11098133  0.17908054  0.80893209  1.0
  C  C45  1  0.61097019  0.82092091  0.19106691  1.0
  C  C46  1  0.09055632  0.30628179  0.67884917  1.0
  C  C47  1  0.59055104  0.69371825  0.32115107  1.0
  C  C48  1  0.12625004  0.33662354  0.76336725  1.0
  C  C49  1  0.62624678  0.66337729  0.23663174  1.0
  C  C50  1  0.90213476  0.25696168  0.69102301  1.0
  C  C51  1  0.40212614  0.74303846  0.30897762  1.0
  C  C52  1  0.63774596  0.91761203  0.89947712  1.0
  C  C53  1  0.13773197  0.08238564  0.10052248  1.0
  C  C54  1  0.64028190  0.89256356  0.11586322  1.0
  C  C55  1  0.14028343  0.10743944  0.88413698  1.0
  Cl  Cl56  1  0.44237329  0.27699206  0.61374064  1.0
  Cl  Cl57  1  0.94236330  0.72300656  0.38625812  1.0
  Cl  Cl58  1  0.32341234  0.40013163  0.76805691  1.0
  Cl  Cl59  1  0.82340956  0.59986970  0.23194439  1.0
  Cl  Cl60  1  0.72542644  0.14917625  0.81584145  1.0
  Cl  Cl61  1  0.22541486  0.85082376  0.18416114  1.0
  Cl  Cl62  1  0.95532864  0.07936120  0.71417794  1.0
  Cl  Cl63  1  0.45531885  0.92063986  0.28582387  1.0
  Cl  Cl64  1  0.82210539  0.23452861  0.59625166  1.0
  Cl  Cl65  1  0.32209893  0.76547091  0.40374964  1.0
  Cl  Cl66  1  0.73759259  0.32200248  0.72693905  1.0
  Cl  Cl67  1  0.23758879  0.67799726  0.27306169  1.0
  Cl  Cl68  1  0.92547208  0.27898897  0.90525645  1.0
  Cl  Cl69  1  0.42547163  0.72101099  0.09474172  1.0
  Cl  Cl70  1  0.52413352  0.34777445  0.16533174  1.0
  Cl  Cl71  1  0.02413276  0.65222356  0.83466365  1.0
  Cl  Cl72  1  0.42941380  0.46421364  0.27757579  1.0
  Cl  Cl73  1  0.92941608  0.53578603  0.72241748  1.0
  Cl  Cl74  1  0.81316305  0.28351221  0.38707290  1.0
  Cl  Cl75  1  0.31315314  0.71648792  0.61292840  1.0
  O  O76  1  0.43732676  0.55676995  0.58860435  1.0
  O  O77  1  0.93733679  0.44323087  0.41139564  1.0
  O  O78  1  0.73994379  0.58069463  0.40714955  1.0
  O  O79  1  0.23994867  0.41930424  0.59284936  1.0
  O  O80  1  0.75086254  0.56589801  0.56779356  1.0
  O  O81  1  0.25087228  0.43410266  0.43220534  1.0
  O  O82  1  0.92725230  0.40895127  0.57798512  1.0
  O  O83  1  0.42724841  0.59104847  0.42201427  1.0
  O  O84  1  0.58777083  0.45078772  0.50193558  1.0
  O  O85  1  0.08776687  0.54921293  0.49806467  1.0
  O  O86  1  0.80611579  0.91136075  0.09312681  1.0
  O  O87  1  0.30613826  0.08864510  0.90687633  1.0
  O  O88  1  0.48168390  0.94110367  0.92303208  1.0
  O  O89  1  0.98169275  0.05889649  0.07696788  1.0
  O  O90  1  0.49167683  0.92167748  0.08258172  1.0
  O  O91  1  0.99169679  0.07832459  0.91741762  1.0
  O  O92  1  0.29948771  0.06701609  0.07562414  1.0
  O  O93  1  0.79948475  0.93297884  0.92437596  1.0
  O  O94  1  0.64793759  0.05043438  0.99717601  1.0
  O  O95  1  0.14793733  0.94956506  0.00282052  1.0
  F  F96  1  0.37208777  0.21671435  0.10978519  1.0
  F  F97  1  0.87208605  0.78328288  0.89021179  1.0
  F  F98  1  0.26691033  0.26418376  0.89164650  1.0
  F  F99  1  0.76690856  0.73581825  0.10835484  1.0
  F  F100  1  0.85653538  0.05810637  0.22437751  1.0
  F  F101  1  0.35654397  0.94189921  0.77561702  1.0
  F  F102  1  0.41847763  0.22524282  0.77932586  1.0
  F  F103  1  0.91846946  0.77475874  0.22067353  1.0
  F  F104  1  0.34360555  0.11125254  0.73671629  1.0
  F  F105  1  0.84359497  0.88874889  0.26328438  1.0
  F  F106  1  0.16752717  0.19113922  0.61042885  1.0
  F  F107  1  0.66752073  0.80886109  0.38957256  1.0
