# generated using pymatgen
data_Zn2H11C29(N2O)4
_symmetry_space_group_name_H-M   'P 1'
_cell_length_a   18.67758630
_cell_length_b   19.15563332
_cell_length_c   19.50553433
_cell_angle_alpha   111.19240149
_cell_angle_beta   103.02250269
_cell_angle_gamma   109.40483627
_symmetry_Int_Tables_number   1
_chemical_formula_structural   Zn2H11C29(N2O)4
_chemical_formula_sum   'Zn4 H22 C58 N16 O8'
_cell_volume   5643.83177033
_cell_formula_units_Z   2
loop_
 _symmetry_equiv_pos_site_id
 _symmetry_equiv_pos_as_xyz
  1  'x, y, z'
loop_
 _atom_site_type_symbol
 _atom_site_label
 _atom_site_symmetry_multiplicity
 _atom_site_fract_x
 _atom_site_fract_y
 _atom_site_fract_z
 _atom_site_occupancy
  Zn  Zn0  1  0.00688413  0.12642511  0.63306966  1.0
  Zn  Zn1  1  0.00402745  0.89884872  0.39429255  1.0
  Zn  Zn2  1  0.89180416  0.89318973  0.51270251  1.0
  Zn  Zn3  1  0.11788571  0.12244027  0.50281384  1.0
  H  H4  1  0.66202511  0.39849085  0.02574893  1.0
  H  H5  1  0.83318087  0.13183874  0.65188609  1.0
  H  H6  1  0.29599315  0.27953661  0.64682000  1.0
  H  H7  1  0.73300761  0.71434755  0.35665587  1.0
  H  H8  1  0.02959154  0.73224721  0.25636278  1.0
  H  H9  1  0.93646991  0.34106003  0.68481899  1.0
  H  H10  1  0.17384803  0.18126248  0.77889016  1.0
  H  H11  1  0.86738993  0.81001763  0.23068725  1.0
  H  H12  1  0.28933141  0.13128540  0.59933213  1.0
  H  H13  1  0.72214546  0.88790139  0.44179632  1.0
  H  H14  1  0.76746574  0.75766054  0.53933862  1.0
  H  H15  1  0.44727759  0.48597956  0.96518246  1.0
  H  H16  1  0.21219127  0.27059770  0.47288428  1.0
  H  H17  1  0.50094548  0.32166402  0.01933705  1.0
  H  H18  1  0.60959379  0.56304835  0.97165739  1.0
  H  H19  1  0.93386841  0.75454345  0.55849814  1.0
  H  H20  1  0.00191136  0.16963844  0.38248576  1.0
  H  H21  1  0.05501157  0.12465963  0.80733733  1.0
  H  H22  1  0.96892813  0.88453720  0.20855772  1.0
  H  H23  1  0.51457165  0.48286343  0.10967253  1.0
  H  H24  1  0.59563882  0.40136773  0.88198655  1.0
  H  H25  1  0.14413122  0.86049949  0.46481834  1.0
  C  C26  1  0.01201789  0.06199423  0.75867570  1.0
  C  C27  1  0.49613268  0.46802427  0.97986696  1.0
  C  C28  1  0.52490608  0.37570083  0.00897738  1.0
  C  C29  1  0.58440236  0.50893706  0.98159379  1.0
  C  C30  1  0.34636003  0.28200174  0.80354807  1.0
  C  C31  1  0.72897403  0.65010815  0.19233993  1.0
  C  C32  1  0.57784687  0.42034444  0.93289932  1.0
  C  C33  1  0.53136101  0.46416893  0.05808015  1.0
  C  C34  1  0.48702081  0.37740932  0.92841936  1.0
  C  C35  1  0.62189323  0.50852665  0.06280230  1.0
  C  C36  1  0.41329096  0.31814893  0.85941852  1.0
  C  C37  1  0.01033422  0.94774392  0.25684388  1.0
  C  C38  1  0.68492812  0.58169644  0.13286768  1.0
  C  C39  1  0.32224737  0.98440303  0.55316358  1.0
  C  C40  1  0.66437450  0.99663336  0.54423422  1.0
  C  C41  1  0.16693955  0.92813945  0.49349482  1.0
  C  C42  1  0.81971614  0.07361571  0.60181466  1.0
  C  C43  1  0.38827472  0.98255681  0.55716486  1.0
  C  C44  1  0.59782898  0.99050424  0.54813030  1.0
  C  C45  1  0.45987296  0.98253431  0.55656977  1.0
  C  C46  1  0.52590777  0.98537819  0.55267053  1.0
  C  C47  1  0.95191699  0.29440972  0.46712840  1.0
  C  C48  1  0.24887922  0.99178124  0.54036277  1.0
  C  C49  1  0.95474554  0.61898192  0.44642918  1.0
  C  C50  1  0.94483643  0.35197384  0.45695962  1.0
  C  C51  1  0.94815757  0.55236787  0.44514739  1.0
  C  C52  1  0.94167911  0.41768547  0.44936405  1.0
  C  C53  1  0.94339877  0.48142906  0.44586247  1.0
  C  C54  1  0.95122767  0.99375600  0.83293743  1.0
  C  C55  1  0.02798506  0.02842995  0.18080478  1.0
  C  C56  1  0.95714571  0.00205836  0.89988520  1.0
  C  C57  1  0.00744501  0.02519563  0.11472742  1.0
  C  C58  1  0.96942900  0.01080730  0.97336200  1.0
  C  C59  1  0.74201782  0.00565748  0.54511997  1.0
  C  C60  1  0.98670179  0.01943420  0.04194303  1.0
  C  C61  1  0.94932650  0.75615357  0.50853546  1.0
  C  C62  1  0.99452202  0.17891179  0.43823416  1.0
  C  C63  1  0.25242583  0.24998548  0.66840801  1.0
  C  C64  1  0.77560994  0.75101823  0.33875201  1.0
  C  C65  1  0.97991811  0.73117334  0.40117940  1.0
  C  C66  1  0.97067335  0.21917513  0.54918444  1.0
  C  C67  1  0.19012457  0.19950888  0.73581158  1.0
  C  C68  1  0.84409608  0.79986938  0.27419094  1.0
  C  C69  1  0.24132764  0.06695763  0.56211757  1.0
  C  C70  1  0.96125610  0.69542462  0.45132424  1.0
  C  C71  1  0.76264059  0.94875433  0.49414298  1.0
  C  C72  1  0.91555729  0.92982029  0.68188992  1.0
  C  C73  1  0.09457557  0.08414196  0.33218615  1.0
  C  C74  1  0.95722302  0.99382892  0.76303219  1.0
  C  C75  1  0.04438510  0.02208186  0.25111395  1.0
  C  C76  1  0.99884143  0.69955784  0.33090630  1.0
  C  C77  1  0.96275957  0.25880494  0.62418168  1.0
  C  C78  1  0.84498541  0.84747143  0.64483766  1.0
  C  C79  1  0.14590956  0.17443368  0.36814751  1.0
  C  C80  1  0.96809720  0.23424985  0.48234530  1.0
  C  C81  1  0.26928446  0.24546699  0.74048194  1.0
  C  C82  1  0.77890726  0.72764577  0.26244689  1.0
  C  C83  1  0.61410240  0.41798966  0.01218116  1.0
  N  N84  1  0.00406476  0.04017975  0.68235627  1.0
  N  N85  1  0.99620330  0.15994875  0.54251812  1.0
  N  N86  1  0.13200765  0.17921330  0.66725728  1.0
  N  N87  1  0.87802874  0.86073456  0.35150979  1.0
  N  N88  1  0.16183611  0.04859616  0.52891305  1.0
  N  N89  1  0.84543672  0.98010404  0.51965993  1.0
  N  N90  1  0.94616140  0.95946564  0.63594263  1.0
  N  N91  1  0.08839134  0.04789925  0.37997012  1.0
  N  N92  1  0.03717868  0.96488793  0.33409183  1.0
  N  N93  1  0.11595396  0.96339297  0.48652038  1.0
  N  N94  1  0.87999720  0.05690514  0.58588482  1.0
  N  N95  1  0.95943763  0.82123969  0.49307560  1.0
  N  N96  1  0.01192972  0.13610384  0.47650025  1.0
  N  N97  1  0.17043471  0.21034886  0.62477387  1.0
  N  N98  1  0.83451034  0.82962900  0.39062425  1.0
  N  N99  1  0.97816675  0.80571693  0.42801265  1.0
  O  O100  1  0.99984338  0.63242927  0.29940845  1.0
  O  O101  1  0.01710622  0.75756792  0.30265776  1.0
  O  O102  1  0.98081260  0.24102601  0.67913676  1.0
  O  O103  1  0.93652776  0.31736544  0.63110337  1.0
  O  O104  1  0.81125234  0.81100144  0.67683391  1.0
  O  O105  1  0.81555043  0.81197042  0.56098191  1.0
  O  O106  1  0.15680546  0.21763387  0.33510131  1.0
  O  O107  1  0.18332330  0.20958808  0.45164512  1.0
