# generated using pymatgen
data_CoH2C4O3
_symmetry_space_group_name_H-M   'P 1'
_cell_length_a   6.48632402
_cell_length_b   14.92299711
_cell_length_c   14.93088037
_cell_angle_alpha   117.79268561
_cell_angle_beta   98.35544256
_cell_angle_gamma   98.35538879
_symmetry_Int_Tables_number   1
_chemical_formula_structural   CoH2C4O3
_chemical_formula_sum   'Co6 H12 C24 O18'
_cell_volume   1226.89371185
_cell_formula_units_Z   6
loop_
 _symmetry_equiv_pos_site_id
 _symmetry_equiv_pos_as_xyz
  1  'x, y, z'
loop_
 _atom_site_type_symbol
 _atom_site_label
 _atom_site_symmetry_multiplicity
 _atom_site_fract_x
 _atom_site_fract_y
 _atom_site_fract_z
 _atom_site_occupancy
  Co  Co0  1  0.11935504  0.31088713  0.58358645  1.0
  Co  Co1  1  0.53651073  0.41711427  0.72812005  1.0
  Co  Co2  1  0.80866853  0.27224954  0.68994425  1.0
  Co  Co3  1  0.88061777  0.68898383  0.41666971  1.0
  Co  Co4  1  0.46361910  0.58327371  0.27175259  1.0
  Co  Co5  1  0.19178566  0.72844023  0.31073146  1.0
  H  H6  1  0.15269503  0.25676271  0.47970255  1.0
  H  H7  1  0.67403608  0.52111570  0.77772828  1.0
  H  H8  1  0.89596785  0.22235935  0.74426427  1.0
  H  H9  1  0.84766749  0.74240733  0.52071274  1.0
  H  H10  1  0.32591743  0.47926202  0.22142814  1.0
  H  H11  1  0.10501291  0.77888954  0.25692911  1.0
  H  H12  1  0.63126995  0.02177946  0.46587892  1.0
  H  H13  1  0.16473845  0.53366767  0.55519078  1.0
  H  H14  1  0.60978267  0.44418890  0.97850624  1.0
  H  H15  1  0.36948584  0.97858995  0.53471046  1.0
  H  H16  1  0.83268950  0.46382331  0.44231985  1.0
  H  H17  1  0.39110215  0.55631737  0.02192628  1.0
  C  C18  1  0.36465160  0.17737453  0.61235174  1.0
  C  C19  1  0.75229810  0.38792262  0.56547419  1.0
  C  C20  1  0.18766966  0.43434021  0.82319961  1.0
  C  C21  1  0.63588179  0.82307942  0.38861516  1.0
  C  C22  1  0.24660293  0.61092466  0.43347390  1.0
  C  C23  1  0.81282398  0.56651737  0.17705989  1.0
  C  C24  1  0.17526106  0.08830862  0.55419551  1.0
  C  C25  1  0.62035505  0.44540608  0.53371650  1.0
  C  C26  1  0.08740337  0.46549815  0.91219393  1.0
  C  C27  1  0.82538633  0.91203763  0.44667011  1.0
  C  C28  1  0.37782693  0.55269963  0.46439152  1.0
  C  C29  1  0.91335339  0.53532961  0.08819207  1.0
  C  C30  1  0.96318087  0.10170101  0.53541282  1.0
  C  C31  1  0.42759522  0.46459554  0.56620793  1.0
  C  C32  1  0.86189198  0.43332924  0.89879224  1.0
  C  C33  1  0.03742796  0.89860903  0.46545355  1.0
  C  C34  1  0.57092680  0.53378432  0.43212054  1.0
  C  C35  1  0.13883763  0.56753618  0.10160321  1.0
  C  C36  1  0.79348562  0.01257751  0.48177357  1.0
  C  C37  1  0.31106419  0.51779769  0.53015438  1.0
  C  C38  1  0.78122170  0.46932337  0.98776766  1.0
  C  C39  1  0.20717576  0.98774762  0.51898044  1.0
  C  C40  1  0.68678822  0.48002765  0.46767388  1.0
  C  C41  1  0.21958470  0.53138972  0.01263754  1.0
  O  O42  1  0.33749577  0.26973362  0.63973935  1.0
  O  O43  1  0.69863983  0.36123441  0.63117015  1.0
  O  O44  1  0.06806470  0.36931765  0.73100385  1.0
  O  O45  1  0.66255610  0.73067326  0.36132254  1.0
  O  O46  1  0.30099939  0.63858332  0.36855305  1.0
  O  O47  1  0.93189057  0.63172709  0.26931385  1.0
  O  O48  1  0.54964599  0.16375385  0.63593048  1.0
  O  O49  1  0.91382287  0.36434775  0.52848833  1.0
  O  O50  1  0.38622584  0.47152958  0.83657226  1.0
  O  O51  1  0.45101891  0.83683500  0.36502672  1.0
  O  O52  1  0.08526800  0.63442820  0.47066770  1.0
  O  O53  1  0.61423720  0.52921739  0.16349055  1.0
  O  O54  1  0.91222084  0.19516575  0.56409551  1.0
  O  O55  1  0.34882905  0.43671578  0.63183302  1.0
  O  O56  1  0.71744190  0.36829910  0.80545909  1.0
  O  O57  1  0.08818995  0.80508540  0.43677290  1.0
  O  O58  1  0.65067967  0.56270651  0.36737979  1.0
  O  O59  1  0.28315495  0.63268102  0.19496348  1.0
