# generated using pymatgen
data_AlC24(Cl2O)6
_symmetry_space_group_name_H-M   'P 1'
_cell_length_a   4.02925789
_cell_length_b   29.05418860
_cell_length_c   29.05811780
_cell_angle_alpha   120.00411848
_cell_angle_beta   90.00453103
_cell_angle_gamma   89.99867685
_symmetry_Int_Tables_number   1
_chemical_formula_structural   AlC24(Cl2O)6
_chemical_formula_sum   'Al2 C48 Cl24 O12'
_cell_volume   2945.87219743
_cell_formula_units_Z   2
loop_
 _symmetry_equiv_pos_site_id
 _symmetry_equiv_pos_as_xyz
  1  'x, y, z'
loop_
 _atom_site_type_symbol
 _atom_site_label
 _atom_site_symmetry_multiplicity
 _atom_site_fract_x
 _atom_site_fract_y
 _atom_site_fract_z
 _atom_site_occupancy
  Al  Al0  1  0.00000609  0.00005229  0.50002937  1.0
  Al  Al1  1  0.00050640  0.33331517  0.16665813  1.0
  C  C2  1  0.49998323  0.04069056  0.58127982  1.0
  C  C3  1  0.50001162  0.91878799  0.45940682  1.0
  C  C4  1  0.50001925  0.04066278  0.45938708  1.0
  C  C5  1  0.50050635  0.41458183  0.20723627  1.0
  C  C6  1  0.50054838  0.29273486  0.20733461  1.0
  C  C7  1  0.50045534  0.29262600  0.08540340  1.0
  C  C8  1  0.50027153  0.47447821  0.23718361  1.0
  C  C9  1  0.39358928  0.50220019  0.29019373  1.0
  C  C10  1  0.39106102  0.55793569  0.31813703  1.0
  C  C11  1  0.50018861  0.58649214  0.29321333  1.0
  C  C12  1  0.60937994  0.55796334  0.23973511  1.0
  C  C13  1  0.60689739  0.50222703  0.21192009  1.0
  C  C14  1  0.50010497  0.64248162  0.32122478  1.0
  C  C15  1  0.50012015  0.69088940  0.34543818  1.0
  C  C16  1  0.50009607  0.74687847  0.37343841  1.0
  C  C17  1  0.60986565  0.77541437  0.42688770  1.0
  C  C18  1  0.60719340  0.83114948  0.45470106  1.0
  C  C19  1  0.49999578  0.85888882  0.42945533  1.0
  C  C20  1  0.39283468  0.83115698  0.37646831  1.0
  C  C21  1  0.39026523  0.77542186  0.34853584  1.0
  C  C22  1  0.50032074  0.26278154  0.23726803  1.0
  C  C23  1  0.39366013  0.20976097  0.21195835  1.0
  C  C24  1  0.39112114  0.18180563  0.23973155  1.0
  C  C25  1  0.50018121  0.20673509  0.29321739  1.0
  C  C26  1  0.60932796  0.26022560  0.31819253  1.0
  C  C27  1  0.60689827  0.28804739  0.29028473  1.0
  C  C28  1  0.50008938  0.17872053  0.32118503  1.0
  C  C29  1  0.50002847  0.15451034  0.34537622  1.0
  C  C30  1  0.49998876  0.12653354  0.37338064  1.0
  C  C31  1  0.60979302  0.07308073  0.34848960  1.0
  C  C32  1  0.60717960  0.04529867  0.37643582  1.0
  C  C33  1  0.50002600  0.07058589  0.42942066  1.0
  C  C34  1  0.39283029  0.12357527  0.45465540  1.0
  C  C35  1  0.39016980  0.15147457  0.42682696  1.0
  C  C36  1  0.50018069  0.26267539  0.02551852  1.0
  C  C37  1  0.39349992  0.28796702  0.99779845  1.0
  C  C38  1  0.39103478  0.26017294  0.94207013  1.0
  C  C39  1  0.50020516  0.20668716  0.91352541  1.0
  C  C40  1  0.60934427  0.18172914  0.94204940  1.0
  C  C41  1  0.60684571  0.20965874  0.99777731  1.0
  C  C42  1  0.50015231  0.17871145  0.85754592  1.0
  C  C43  1  0.50013351  0.15454604  0.80914228  1.0
  C  C44  1  0.50007569  0.12658027  0.75315985  1.0
  C  C45  1  0.60988262  0.15151121  0.72464352  1.0
  C  C46  1  0.60718666  0.12360704  0.66891419  1.0
  C  C47  1  0.49994765  0.07061971  0.64116498  1.0
  C  C48  1  0.39273406  0.04534459  0.66887189  1.0
  C  C49  1  0.39017099  0.07313230  0.72460078  1.0
  Cl  Cl50  1  0.26346716  0.46728017  0.32015356  1.0
  Cl  Cl51  1  0.73705770  0.46733280  0.14703921  1.0
  Cl  Cl52  1  0.74665481  0.59233410  0.20985344  1.0
  Cl  Cl53  1  0.25369578  0.59227468  0.38238578  1.0
  Cl  Cl54  1  0.74802859  0.74105915  0.45673879  1.0
  Cl  Cl55  1  0.25212565  0.74107409  0.28432725  1.0
  Cl  Cl56  1  0.26232320  0.86606983  0.34651787  1.0
  Cl  Cl57  1  0.73764436  0.86605763  0.51956766  1.0
  Cl  Cl58  1  0.26356422  0.17980287  0.14707483  1.0
  Cl  Cl59  1  0.73707968  0.35293774  0.32029257  1.0
  Cl  Cl60  1  0.74651488  0.29010844  0.38245374  1.0
  Cl  Cl61  1  0.25379748  0.11754110  0.20979600  1.0
  Cl  Cl62  1  0.74794217  0.04318560  0.28428369  1.0
  Cl  Cl63  1  0.25199109  0.21568661  0.45665727  1.0
  Cl  Cl64  1  0.26237255  0.15356422  0.51951911  1.0
  Cl  Cl65  1  0.73761746  0.98042766  0.34651103  1.0
  Cl  Cl66  1  0.26334028  0.35285337  0.03270945  1.0
  Cl  Cl67  1  0.73689789  0.17966293  0.03267014  1.0
  Cl  Cl68  1  0.74654390  0.11746187  0.90768498  1.0
  Cl  Cl69  1  0.25370982  0.29008313  0.90772592  1.0
  Cl  Cl70  1  0.74807118  0.21572327  0.75901838  1.0
  Cl  Cl71  1  0.25197125  0.04324472  0.75891825  1.0
  Cl  Cl72  1  0.26222671  0.98047476  0.63393728  1.0
  Cl  Cl73  1  0.73762054  0.15359436  0.63403329  1.0
  O  O74  1  0.26293340  0.00845690  0.45000768  1.0
  O  O75  1  0.26292760  0.05007996  0.55845864  1.0
  O  O76  1  0.26294769  0.94161289  0.49161515  1.0
  O  O77  1  0.73709085  0.05006386  0.49159864  1.0
  O  O78  1  0.73707569  0.94160702  0.45001758  1.0
  O  O79  1  0.73709765  0.00848547  0.55846561  1.0
  O  O80  1  0.26340878  0.28325096  0.10824765  1.0
  O  O81  1  0.26347801  0.39172995  0.17501382  1.0
  O  O82  1  0.26353947  0.32496106  0.21670978  1.0
  O  O83  1  0.73756224  0.32482428  0.10819349  1.0
  O  O84  1  0.73767329  0.28332976  0.17514163  1.0
  O  O85  1  0.73764623  0.39178858  0.21663765  1.0
