# generated using pymatgen
data_Zn4H32C46N2O13
_symmetry_space_group_name_H-M   'P 1'
_cell_length_a   13.63647111
_cell_length_b   13.63647374
_cell_length_c   24.28536797
_cell_angle_alpha   90.00002886
_cell_angle_beta   89.99996377
_cell_angle_gamma   89.99994486
_symmetry_Int_Tables_number   1
_chemical_formula_structural   Zn4H32C46N2O13
_chemical_formula_sum   'Zn8 H64 C92 N4 O26'
_cell_volume   4515.94626336
_cell_formula_units_Z   2
loop_
 _symmetry_equiv_pos_site_id
 _symmetry_equiv_pos_as_xyz
  1  'x, y, z'
loop_
 _atom_site_type_symbol
 _atom_site_label
 _atom_site_symmetry_multiplicity
 _atom_site_fract_x
 _atom_site_fract_y
 _atom_site_fract_z
 _atom_site_occupancy
  Zn  Zn0  1  0.63226662  0.26007072  0.20397140  1.0
  Zn  Zn1  1  0.86773297  0.23992904  0.20397176  1.0
  Zn  Zn2  1  0.26007078  0.86773335  0.70397180  1.0
  Zn  Zn3  1  0.23992932  0.63226706  0.70397177  1.0
  Zn  Zn4  1  0.36773281  0.73992904  0.79602843  1.0
  Zn  Zn5  1  0.13226719  0.76007072  0.79602847  1.0
  Zn  Zn6  1  0.73992938  0.13226714  0.29602844  1.0
  Zn  Zn7  1  0.76007084  0.36773270  0.29602847  1.0
  H  H8  1  0.58361441  0.86850446  0.27045885  1.0
  H  H9  1  0.91638537  0.63149581  0.27045876  1.0
  H  H10  1  0.86850452  0.91638643  0.77045823  1.0
  H  H11  1  0.63149542  0.58361356  0.77045782  1.0
  H  H12  1  0.41638576  0.13149603  0.72954097  1.0
  H  H13  1  0.08361480  0.36850394  0.72954106  1.0
  H  H14  1  0.13149564  0.08361480  0.22954118  1.0
  H  H15  1  0.36850401  0.41638546  0.22954118  1.0
  H  H16  1  0.48140403  0.72605491  0.24062525  1.0
  H  H17  1  0.01859659  0.77394508  0.24062534  1.0
  H  H18  1  0.72605536  0.01859647  0.74062535  1.0
  H  H19  1  0.77394510  0.48140377  0.74062541  1.0
  H  H20  1  0.51859613  0.27394558  0.75937499  1.0
  H  H21  1  0.98140357  0.22605468  0.75937490  1.0
  H  H22  1  0.27394480  0.98140403  0.25937447  1.0
  H  H23  1  0.22605507  0.51859672  0.25937441  1.0
  H  H24  1  0.32730329  0.91351616  0.12708780  1.0
  H  H25  1  0.17269673  0.58648374  0.12708778  1.0
  H  H26  1  0.91351661  0.17269628  0.62708784  1.0
  H  H27  1  0.58648398  0.32730312  0.62708792  1.0
  H  H28  1  0.67269688  0.08648360  0.87291243  1.0
  H  H29  1  0.82730343  0.41351675  0.87291245  1.0
  H  H30  1  0.08648355  0.82730348  0.37291240  1.0
  H  H31  1  0.41351618  0.67269664  0.37291232  1.0
  H  H32  1  0.42909761  0.05542332  0.15785351  1.0
  H  H33  1  0.07090212  0.44457688  0.15785363  1.0
  H  H34  1  0.05542367  0.07090206  0.65785342  1.0
  H  H35  1  0.44457696  0.42909712  0.65785340  1.0
  H  H36  1  0.57090182  0.94457718  0.84214672  1.0
  H  H37  1  0.92909805  0.55542288  0.84214660  1.0
  H  H38  1  0.94457649  0.92909770  0.34214641  1.0
  H  H39  1  0.55542247  0.57090191  0.34214643  1.0
  H  H40  1  0.38125137  0.67194049  0.14018783  1.0
  H  H41  1  0.11874936  0.82806015  0.14018831  1.0
  H  H42  1  0.67194020  0.11874844  0.64018794  1.0
  H  H43  1  0.82806037  0.38125024  0.64018795  1.0
  H  H44  1  0.61874879  0.32806001  0.85981200  1.0
  H  H45  1  0.88125080  0.17194034  0.85981193  1.0
  H  H46  1  0.32805997  0.88125132  0.35981188  1.0
  H  H47  1  0.17193979  0.61874952  0.35981228  1.0
  H  H48  1  0.31219094  0.68259873  0.20044017  1.0
  H  H49  1  0.18780972  0.81740123  0.20044021  1.0
  H  H50  1  0.68259831  0.18780957  0.70043987  1.0
  H  H51  1  0.81740219  0.31218990  0.70043986  1.0
  H  H52  1  0.68780922  0.31740176  0.79956007  1.0
  H  H53  1  0.81219044  0.18259853  0.79956002  1.0
  H  H54  1  0.31740185  0.81219092  0.29955995  1.0
  H  H55  1  0.18259797  0.68780986  0.29956037  1.0
  H  H56  1  0.40866976  0.73834397  0.06645249  1.0
  H  H57  1  0.09133032  0.76165587  0.06645254  1.0
  H  H58  1  0.73834380  0.09133073  0.56645258  1.0
  H  H59  1  0.76165613  0.40866935  0.56645262  1.0
  H  H60  1  0.59133040  0.26165579  0.93354734  1.0
  H  H61  1  0.90866911  0.23834389  0.93354728  1.0
  H  H62  1  0.26165637  0.90866903  0.43354765  1.0
  H  H63  1  0.23834404  0.59133040  0.43354720  1.0
  H  H64  1  0.40643994  0.73446067  0.96522865  1.0
  H  H65  1  0.09356059  0.76553924  0.96522871  1.0
  H  H66  1  0.73446088  0.09356073  0.46522867  1.0
  H  H67  1  0.76553915  0.40643999  0.46522871  1.0
  H  H68  1  0.59356022  0.26553909  0.03477117  1.0
  H  H69  1  0.90643957  0.23446125  0.03477152  1.0
  H  H70  1  0.26553928  0.90643976  0.53477157  1.0
  H  H71  1  0.23446101  0.59356050  0.53477112  1.0
  C  C72  1  0.57307544  0.05606054  0.23332444  1.0
  C  C73  1  0.92692486  0.44393924  0.23332444  1.0
  C  C74  1  0.05606048  0.92692398  0.73332450  1.0
  C  C75  1  0.44393886  0.57307572  0.73332438  1.0
  C  C76  1  0.42692399  0.94393848  0.76667579  1.0
  C  C77  1  0.07307530  0.55606125  0.76667580  1.0
  C  C78  1  0.94393895  0.07307577  0.26667533  1.0
  C  C79  1  0.55606057  0.42692404  0.26667545  1.0
  C  C80  1  0.51170649  0.97059978  0.21627028  1.0
  C  C81  1  0.98829335  0.52940045  0.21627014  1.0
  C  C82  1  0.97059985  0.98829351  0.71626963  1.0
  C  C83  1  0.52940016  0.51170643  0.71626923  1.0
  C  C84  1  0.48829294  0.02939998  0.78372995  1.0
  C  C85  1  0.01170682  0.47060005  0.78372969  1.0
  C  C86  1  0.02939958  0.01170625  0.28372978  1.0
  C  C87  1  0.47060001  0.48829332  0.28372977  1.0
  C  C88  1  0.52682773  0.87748847  0.23932118  1.0
  C  C89  1  0.97317281  0.62251178  0.23932107  1.0
  C  C90  1  0.87748851  0.97317235  0.73932015  1.0
  C  C91  1  0.62251147  0.52682688  0.73932013  1.0
  C  C92  1  0.47317243  0.12251129  0.76067905  1.0
  C  C93  1  0.02682736  0.37748871  0.76067917  1.0
  C  C94  1  0.12251165  0.02682741  0.26067885  1.0
  C  C95  1  0.37748796  0.47317288  0.26067887  1.0
  C  C96  1  0.46997803  0.79829719  0.22227265  1.0
  C  C97  1  0.03002261  0.70170279  0.22227271  1.0
  C  C98  1  0.79829766  0.03002240  0.72227231  1.0
  C  C99  1  0.70170281  0.46997709  0.72227239  1.0
  C  C100  1  0.53002213  0.20170256  0.77772718  1.0
  C  C101  1  0.96997755  0.29829771  0.77772711  1.0
  C  C102  1  0.20170250  0.96997810  0.27772710  1.0
  C  C103  1  0.29829735  0.53002267  0.27772702  1.0
  C  C104  1  0.39757735  0.81072418  0.18181291  1.0
  C  C105  1  0.10242334  0.68927577  0.18181294  1.0
  C  C106  1  0.81072389  0.10242305  0.68181298  1.0
  C  C107  1  0.68927664  0.39757713  0.68181304  1.0
  C  C108  1  0.60242281  0.18927631  0.81818733  1.0
  C  C109  1  0.89757683  0.31072399  0.81818729  1.0
  C  C110  1  0.18927627  0.89757744  0.31818725  1.0
  C  C111  1  0.31072353  0.60242336  0.31818719  1.0
  C  C112  1  0.38313957  0.90363016  0.15872453  1.0
  C  C113  1  0.11686115  0.59636903  0.15872495  1.0
  C  C114  1  0.90363063  0.11686075  0.65872458  1.0
  C  C115  1  0.59636919  0.38313868  0.65872426  1.0
  C  C116  1  0.61686060  0.09636960  0.84127529  1.0
  C  C117  1  0.88313902  0.40363073  0.84127529  1.0
  C  C118  1  0.09636953  0.88313974  0.34127524  1.0
  C  C119  1  0.40363024  0.61686108  0.34127515  1.0
  C  C120  1  0.43960281  0.98299376  0.17578584  1.0
  C  C121  1  0.06039789  0.51700618  0.17578584  1.0
  C  C122  1  0.98299355  0.06039744  0.67578586  1.0
  C  C123  1  0.51700624  0.43960274  0.67578600  1.0
  C  C124  1  0.56039736  0.01700673  0.82421440  1.0
  C  C125  1  0.93960228  0.48299358  0.82421398  1.0
  C  C126  1  0.01700588  0.93960232  0.32421396  1.0
  C  C127  1  0.48299392  0.56039775  0.32421383  1.0
  C  C128  1  0.33606589  0.72391583  0.16380330  1.0
  C  C129  1  0.16393409  0.77608409  0.16380375  1.0
  C  C130  1  0.72391622  0.16393459  0.66380340  1.0
  C  C131  1  0.77608433  0.33606484  0.66380300  1.0
  C  C132  1  0.66393427  0.27608393  0.83619694  1.0
  C  C133  1  0.83606608  0.22391640  0.83619649  1.0
  C  C134  1  0.27608394  0.83606590  0.33619643  1.0
  C  C135  1  0.22391584  0.66393492  0.33619682  1.0
  C  C136  1  0.25000040  0.75000029  0.07521582  1.0
  C  C137  1  0.74999996  0.25000004  0.57521549  1.0
  C  C138  1  0.74999976  0.25000020  0.92478442  1.0
  C  C139  1  0.25000021  0.75000045  0.42478433  1.0
  C  C140  1  0.33862086  0.74163224  0.04503631  1.0
  C  C141  1  0.16137925  0.75836759  0.04503634  1.0
  C  C142  1  0.74163201  0.16137962  0.54503599  1.0
  C  C143  1  0.75836793  0.33862044  0.54503601  1.0
  C  C144  1  0.66137930  0.25836752  0.95496393  1.0
  C  C145  1  0.83862018  0.24163217  0.95496389  1.0
  C  C146  1  0.25836815  0.83862087  0.45496424  1.0
  C  C147  1  0.24163223  0.66137931  0.45496381  1.0
  C  C148  1  0.33789287  0.74074313  0.98798023  1.0
  C  C149  1  0.16210691  0.75925680  0.98798026  1.0
  C  C150  1  0.74074325  0.16210705  0.48798024  1.0
  C  C151  1  0.75925676  0.33789296  0.48798026  1.0
  C  C152  1  0.66210729  0.25925663  0.01202001  1.0
  C  C153  1  0.83789325  0.24074296  0.01201997  1.0
  C  C154  1  0.25925691  0.83789271  0.51202000  1.0
  C  C155  1  0.24074341  0.66210680  0.51201956  1.0
  C  C156  1  0.24999991  0.74999995  0.95833647  1.0
  C  C157  1  0.75000002  0.24999999  0.45833647  1.0
  C  C158  1  0.75000026  0.24999981  0.04166377  1.0
  C  C159  1  0.25000014  0.74999977  0.54166376  1.0
  C  C160  1  0.24999994  0.74999993  0.89752372  1.0
  C  C161  1  0.75000006  0.24999997  0.39752372  1.0
  C  C162  1  0.74999949  0.24999983  0.10247652  1.0
  C  C163  1  0.25000011  0.74999979  0.60247651  1.0
  N  N164  1  0.25000037  0.74999958  0.13199074  1.0
  N  N165  1  0.75000066  0.25000007  0.63199042  1.0
  N  N166  1  0.74999979  0.25000018  0.86800949  1.0
  N  N167  1  0.24999951  0.75000042  0.36800940  1.0
  O  O168  1  0.55579821  0.13732862  0.20920500  1.0
  O  O169  1  0.94420211  0.36267114  0.20920496  1.0
  O  O170  1  0.13732931  0.94420186  0.70920502  1.0
  O  O171  1  0.36267005  0.55579929  0.70920534  1.0
  O  O172  1  0.44420048  0.86267114  0.79079483  1.0
  O  O173  1  0.05579805  0.63732861  0.79079486  1.0
  O  O174  1  0.86267085  0.05579863  0.29079480  1.0
  O  O175  1  0.63732938  0.44420120  0.29079490  1.0
  O  O176  1  0.63799984  0.04095472  0.27038790  1.0
  O  O177  1  0.86200041  0.45904510  0.27038792  1.0
  O  O178  1  0.04095467  0.86200033  0.77038796  1.0
  O  O179  1  0.45904535  0.63799941  0.77038744  1.0
  O  O180  1  0.36200032  0.95904504  0.72961233  1.0
  O  O181  1  0.13799975  0.54095466  0.72961232  1.0
  O  O182  1  0.95904549  0.13799943  0.22961228  1.0
  O  O183  1  0.54095481  0.36200035  0.22961238  1.0
  O  O184  1  0.33047533  0.72679593  0.87335153  1.0
  O  O185  1  0.16952458  0.77320390  0.87335157  1.0
  O  O186  1  0.72679542  0.16952462  0.37335155  1.0
  O  O187  1  0.77320398  0.33047603  0.37335156  1.0
  O  O188  1  0.66952483  0.27320456  0.12664870  1.0
  O  O189  1  0.83047558  0.22679586  0.12664867  1.0
  O  O190  1  0.27320401  0.83047514  0.62664869  1.0
  O  O191  1  0.22679545  0.66952447  0.62664867  1.0
  O  O192  1  0.75000014  0.24999990  0.24999991  1.0
  O  O193  1  0.25000002  0.74999986  0.74999991  1.0
