# generated using pymatgen
data_ZnH19C19SN6O7
_symmetry_space_group_name_H-M   'P 1'
_cell_length_a   10.70269233
_cell_length_b   17.00159830
_cell_length_c   17.49901394
_cell_angle_alpha   91.22358744
_cell_angle_beta   93.79883118
_cell_angle_gamma   90.21308122
_symmetry_Int_Tables_number   1
_chemical_formula_structural   ZnH19C19SN6O7
_chemical_formula_sum   'Zn2 H38 C38 S2 N12 O14'
_cell_volume   3176.40817205
_cell_formula_units_Z   2
loop_
 _symmetry_equiv_pos_site_id
 _symmetry_equiv_pos_as_xyz
  1  'x, y, z'
loop_
 _atom_site_type_symbol
 _atom_site_label
 _atom_site_symmetry_multiplicity
 _atom_site_fract_x
 _atom_site_fract_y
 _atom_site_fract_z
 _atom_site_occupancy
  Zn  Zn0  1  0.45757794  0.41015780  0.49678162  1.0
  Zn  Zn1  1  0.46307453  0.59540481  0.48625837  1.0
  H  H2  1  0.88196771  0.39400442  0.51236307  1.0
  H  H3  1  0.85856655  0.64593949  0.50571810  1.0
  H  H4  1  0.85168212  0.44556295  0.59819667  1.0
  H  H5  1  0.88224624  0.59961170  0.59437244  1.0
  H  H6  1  0.06363278  0.48095520  0.62308789  1.0
  H  H7  1  0.09663266  0.62117570  0.58223956  1.0
  H  H8  1  0.09149010  0.40145811  0.55906811  1.0
  H  H9  1  0.07502053  0.64047909  0.48380442  1.0
  H  H10  1  0.85520261  0.46151482  0.38414753  1.0
  H  H11  1  0.88372408  0.56444890  0.38546658  1.0
  H  H12  1  0.06774616  0.43268221  0.41414945  1.0
  H  H13  1  0.09570347  0.52973117  0.38483868  1.0
  H  H14  1  0.53429627  0.37601678  0.10263722  1.0
  H  H15  1  0.64797056  0.61575166  0.15592839  1.0
  H  H16  1  0.34336698  0.10638478  0.45230715  1.0
  H  H17  1  0.38840414  0.88533138  0.41318542  1.0
  H  H18  1  0.35085166  0.40502641  0.68839693  1.0
  H  H19  1  0.27472265  0.42594256  0.76872258  1.0
  H  H20  1  0.72692879  0.56151131  0.66352708  1.0
  H  H21  1  0.82822139  0.56046098  0.74108783  1.0
  H  H22  1  0.72833906  0.09265438  0.59581056  1.0
  H  H23  1  0.74999347  0.18496265  0.63310493  1.0
  H  H24  1  0.71437590  0.91657895  0.60726124  1.0
  H  H25  1  0.76731411  0.82414099  0.61987177  1.0
  H  H26  1  0.76624916  0.28461759  0.56767700  1.0
  H  H27  1  0.67530050  0.36492057  0.54683670  1.0
  H  H28  1  0.66135169  0.72939876  0.65664754  1.0
  H  H29  1  0.59938471  0.64600053  0.61188895  1.0
  H  H30  1  0.19174198  0.17961224  0.34718393  1.0
  H  H31  1  0.51840854  0.65321463  0.30691042  1.0
  H  H32  1  0.45584538  0.29953357  0.20244111  1.0
  H  H33  1  0.45883513  0.33486808  0.29780017  1.0
  H  H34  1  0.67344166  0.64991473  0.28466714  1.0
  H  H35  1  0.62810017  0.59770650  0.35834642  1.0
  H  H36  1  0.41738417  0.42699582  0.95730406  1.0
  H  H37  1  0.35510525  0.37678484  0.87849164  1.0
  H  H38  1  0.79633553  0.63076815  0.84696807  1.0
  H  H39  1  0.77275507  0.59169068  0.93271778  1.0
  C  C40  1  0.52032137  0.49147335  0.64424258  1.0
  C  C41  1  0.71021962  0.51819542  0.48780447  1.0
  C  C42  1  0.48679234  0.47204893  0.35188081  1.0
  C  C43  1  0.23845848  0.51124422  0.51109801  1.0
  C  C44  1  0.90188956  0.44890232  0.54542487  1.0
  C  C45  1  0.90556690  0.59612259  0.53406362  1.0
  C  C46  1  0.04396752  0.45818648  0.56404738  1.0
  C  C47  1  0.04924889  0.59971528  0.52812696  1.0
  C  C48  1  0.90383885  0.50995151  0.41676580  1.0
  C  C49  1  0.85257972  0.51848416  0.49737574  1.0
  C  C50  1  0.09667323  0.51716276  0.50829469  1.0
  C  C51  1  0.04618982  0.49471665  0.42555903  1.0
  C  C52  1  0.54704088  0.42461886  0.14415263  1.0
  C  C53  1  0.61183707  0.55951073  0.17385451  1.0
  C  C54  1  0.52078484  0.41256033  0.22082113  1.0
  C  C55  1  0.58229210  0.54849003  0.24876629  1.0
  C  C56  1  0.53244785  0.47754094  0.27393892  1.0
  C  C57  1  0.58876767  0.49740456  0.11958452  1.0
  C  C58  1  0.60069352  0.50708917  0.04020072  1.0
  C  C59  1  0.59796277  0.50965718  0.97020671  1.0
  C  C60  1  0.47812431  0.46269956  0.85585555  1.0
  C  C61  1  0.66677456  0.54291331  0.84306081  1.0
  C  C62  1  0.45940480  0.45612736  0.77551202  1.0
  C  C63  1  0.64875421  0.53621870  0.76306075  1.0
  C  C64  1  0.54384830  0.49412853  0.72905832  1.0
  C  C65  1  0.58147393  0.50620912  0.88959869  1.0
  C  C66  1  0.61060661  0.17356847  0.54799896  1.0
  C  C67  1  0.60128337  0.83211510  0.55686702  1.0
  C  C68  1  0.58683148  0.25602386  0.53763805  1.0
  C  C69  1  0.57235799  0.74966682  0.55301626  1.0
  C  C70  1  0.39305478  0.22744229  0.47572556  1.0
  C  C71  1  0.43145589  0.76843913  0.44744727  1.0
  C  C72  1  0.41311018  0.14765787  0.47680513  1.0
  C  C73  1  0.44381823  0.84887743  0.45269639  1.0
  C  C74  1  0.52483442  0.11902979  0.51412002  1.0
  C  C75  1  0.53136757  0.88240522  0.50849310  1.0
  C  C76  1  0.54325257  0.03697338  0.51717489  1.0
  C  C77  1  0.54441534  0.96501273  0.51457750  1.0
  S  S78  1  0.24254638  0.26102778  0.43808165  1.0
  S  S79  1  0.33315996  0.72764838  0.36855805  1.0
  N  N80  1  0.47755693  0.28242204  0.50446755  1.0
  N  N81  1  0.49211647  0.71854792  0.49715640  1.0
  N  N82  1  0.35701957  0.41026713  0.74666089  1.0
  N  N83  1  0.73920709  0.57337866  0.72074588  1.0
  N  N84  1  0.72117726  0.15131681  0.58645545  1.0
  N  N85  1  0.69058400  0.85909196  0.61251775  1.0
  N  N86  1  0.67837975  0.30706878  0.56383493  1.0
  N  N87  1  0.62997279  0.70318286  0.60637554  1.0
  N  N88  1  0.48347860  0.34033333  0.24287355  1.0
  N  N89  1  0.60339412  0.61496108  0.30258407  1.0
  N  N90  1  0.39028014  0.42880563  0.90055813  1.0
  N  N91  1  0.77405892  0.58145614  0.87529182  1.0
  O  O92  1  0.47457126  0.42765439  0.61307823  1.0
  O  O93  1  0.54640626  0.55191396  0.60634859  1.0
  O  O94  1  0.65267800  0.45483975  0.50061494  1.0
  O  O95  1  0.65622644  0.58180145  0.46536248  1.0
  O  O96  1  0.48679712  0.40446707  0.38298079  1.0
  O  O97  1  0.44904157  0.53513093  0.38258217  1.0
  O  O98  1  0.28102799  0.44498697  0.48995983  1.0
  O  O99  1  0.30412430  0.57128310  0.53262884  1.0
  O  O100  1  0.16965447  0.28149508  0.50128245  1.0
  O  O101  1  0.25680163  0.31237055  0.37487103  1.0
  O  O102  1  0.18029057  0.17995000  0.40222370  1.0
  O  O103  1  0.28268764  0.65530991  0.39769829  1.0
  O  O104  1  0.24439213  0.78862013  0.34691343  1.0
  O  O105  1  0.42374347  0.71330328  0.30794210  1.0
