# generated using pymatgen
data_Sm2Zn3H36(C2O3)12
_symmetry_space_group_name_H-M   'P 1'
_cell_length_a   14.82489754
_cell_length_b   14.82494050
_cell_length_c   15.86830166
_cell_angle_alpha   90.00013793
_cell_angle_beta   89.99996077
_cell_angle_gamma   59.99988996
_symmetry_Int_Tables_number   1
_chemical_formula_structural   Sm2Zn3H36(C2O3)12
_chemical_formula_sum   'Sm4 Zn6 H72 C48 O72'
_cell_volume   3020.26644308
_cell_formula_units_Z   2
loop_
 _symmetry_equiv_pos_site_id
 _symmetry_equiv_pos_as_xyz
  1  'x, y, z'
loop_
 _atom_site_type_symbol
 _atom_site_label
 _atom_site_symmetry_multiplicity
 _atom_site_fract_x
 _atom_site_fract_y
 _atom_site_fract_z
 _atom_site_occupancy
  Sm  Sm0  1  0.66666667  0.66666667  0.25000076  1.0
  Sm  Sm1  1  0.33333333  0.33333333  0.24999910  1.0
  Sm  Sm2  1  0.33333333  0.33333333  0.74999778  1.0
  Sm  Sm3  1  0.66666667  0.66666667  0.75000070  1.0
  Zn  Zn4  1  0.49999989  0.99999870  0.99999953  1.0
  Zn  Zn5  1  0.49999848  0.50000009  0.00000083  1.0
  Zn  Zn6  1  0.00000107  0.49999879  0.00000037  1.0
  Zn  Zn7  1  0.50000125  0.49999984  0.49999965  1.0
  Zn  Zn8  1  0.49999968  0.00000084  0.49999959  1.0
  Zn  Zn9  1  0.00000040  0.50000036  0.50000075  1.0
  H  H10  1  0.63718606  0.82060502  0.94947970  1.0
  H  H11  1  0.35971790  0.92035594  0.23277246  1.0
  H  H12  1  0.35971574  0.83261765  0.15490328  1.0
  H  H13  1  0.54220875  0.63718428  0.94948079  1.0
  H  H14  1  0.71992382  0.35972300  0.23277360  1.0
  H  H15  1  0.80766233  0.35972111  0.15490260  1.0
  H  H16  1  0.82060958  0.54220735  0.94947996  1.0
  H  H17  1  0.92035554  0.71992676  0.23277457  1.0
  H  H18  1  0.83262096  0.80766492  0.15490373  1.0
  H  H19  1  0.36281472  0.17939451  0.94948083  1.0
  H  H20  1  0.64028333  0.07964237  0.23277254  1.0
  H  H21  1  0.64028687  0.16737801  0.15490294  1.0
  H  H22  1  0.45779203  0.36281526  0.94948037  1.0
  H  H23  1  0.28007334  0.64028075  0.23277329  1.0
  H  H24  1  0.19233358  0.64028390  0.15490425  1.0
  H  H25  1  0.17939332  0.45779064  0.94948183  1.0
  H  H26  1  0.07964530  0.28007232  0.23277421  1.0
  H  H27  1  0.16738222  0.19233230  0.15490312  1.0
  H  H28  1  0.36281819  0.45779026  0.55052036  1.0
  H  H29  1  0.64027952  0.28007434  0.26722636  1.0
  H  H30  1  0.64028187  0.19233637  0.34509660  1.0
  H  H31  1  0.45779092  0.17939042  0.55052128  1.0
  H  H32  1  0.28007604  0.07964318  0.26722814  1.0
  H  H33  1  0.19233759  0.16738087  0.34509924  1.0
  H  H34  1  0.17939344  0.36281428  0.55051842  1.0
  H  H35  1  0.07964454  0.64027890  0.26723010  1.0
  H  H36  1  0.16738193  0.64028588  0.34509789  1.0
  H  H37  1  0.63718520  0.54220462  0.55051987  1.0
  H  H38  1  0.35972173  0.71992253  0.26722834  1.0
  H  H39  1  0.35971481  0.80766549  0.34509689  1.0
  H  H40  1  0.54220765  0.82060600  0.55051895  1.0
  H  H41  1  0.71992645  0.92035526  0.26722845  1.0
  H  H42  1  0.80766373  0.83261710  0.34509929  1.0
  H  H43  1  0.82060677  0.63718293  0.55052055  1.0
  H  H44  1  0.92035515  0.35972110  0.26722586  1.0
  H  H45  1  0.83261848  0.35972065  0.34509812  1.0
  H  H46  1  0.36281872  0.17939120  0.05052136  1.0
  H  H47  1  0.64028088  0.07964419  0.76722797  1.0
  H  H48  1  0.64028209  0.16738168  0.84509841  1.0
  H  H49  1  0.45779245  0.36281506  0.05051964  1.0
  H  H50  1  0.28007660  0.64027790  0.76722873  1.0
  H  H51  1  0.19233451  0.64028290  0.84509594  1.0
  H  H52  1  0.17939239  0.45779044  0.05052047  1.0
  H  H53  1  0.07964661  0.28007337  0.76722649  1.0
  H  H54  1  0.16738400  0.19233365  0.84509607  1.0
  H  H55  1  0.63718396  0.82060716  0.05051960  1.0
  H  H56  1  0.35971835  0.92035465  0.76722663  1.0
  H  H57  1  0.35971723  0.83261822  0.84509686  1.0
  H  H58  1  0.54220771  0.63718565  0.05052006  1.0
  H  H59  1  0.71992427  0.35972171  0.76722651  1.0
  H  H60  1  0.80766151  0.35972090  0.84509745  1.0
  H  H61  1  0.82060990  0.54220871  0.05051923  1.0
  H  H62  1  0.92035649  0.71992313  0.76722748  1.0
  H  H63  1  0.83262053  0.80766393  0.84509731  1.0
  H  H64  1  0.63718378  0.54220753  0.44948070  1.0
  H  H65  1  0.35972111  0.71992344  0.73277344  1.0
  H  H66  1  0.35971702  0.80766220  0.65490257  1.0
  H  H67  1  0.54220942  0.82060658  0.44947915  1.0
  H  H68  1  0.71992661  0.92035460  0.73277418  1.0
  H  H69  1  0.80766293  0.83261848  0.65490182  1.0
  H  H70  1  0.82060670  0.63718584  0.44948201  1.0
  H  H71  1  0.92035396  0.35972044  0.73277222  1.0
  H  H72  1  0.83261771  0.35971658  0.65490254  1.0
  H  H73  1  0.36281592  0.45779083  0.44948056  1.0
  H  H74  1  0.64028142  0.28007291  0.73277398  1.0
  H  H75  1  0.64028532  0.19233464  0.65490291  1.0
  H  H76  1  0.45779258  0.17939257  0.44948085  1.0
  H  H77  1  0.28007581  0.07964331  0.73277009  1.0
  H  H78  1  0.19233285  0.16738068  0.65490240  1.0
  H  H79  1  0.17939347  0.36281564  0.44947925  1.0
  H  H80  1  0.07964690  0.64028059  0.73277394  1.0
  H  H81  1  0.16738251  0.64028180  0.65490294  1.0
  C  C82  1  0.48146673  0.86913099  0.13983803  1.0
  C  C83  1  0.40971799  0.84981320  0.19556170  1.0
  C  C84  1  0.64939709  0.48147213  0.13983943  1.0
  C  C85  1  0.74046635  0.40972377  0.19556235  1.0
  C  C86  1  0.86914183  0.64939814  0.13983450  1.0
  C  C87  1  0.84981413  0.74046774  0.19556269  1.0
  C  C88  1  0.51852670  0.13087630  0.13984209  1.0
  C  C89  1  0.59028199  0.15018496  0.19556135  1.0
  C  C90  1  0.35059876  0.51853437  0.13983628  1.0
  C  C91  1  0.25953119  0.59028062  0.19556258  1.0
  C  C92  1  0.13086786  0.35059823  0.13983805  1.0
  C  C93  1  0.15018788  0.25953042  0.19556288  1.0
  C  C94  1  0.51852248  0.35059942  0.36015640  1.0
  C  C95  1  0.59027910  0.25953206  0.30443702  1.0
  C  C96  1  0.35060054  0.13087319  0.36015873  1.0
  C  C97  1  0.25953414  0.15018664  0.30443889  1.0
  C  C98  1  0.13087504  0.51852903  0.36016428  1.0
  C  C99  1  0.15018824  0.59028028  0.30443942  1.0
  C  C100  1  0.48146713  0.64940171  0.36016445  1.0
  C  C101  1  0.40971982  0.74046808  0.30443775  1.0
  C  C102  1  0.64939975  0.86912951  0.36015897  1.0
  C  C103  1  0.74046719  0.84981272  0.30443840  1.0
  C  C104  1  0.86913714  0.48146743  0.36016287  1.0
  C  C105  1  0.84981181  0.40972298  0.30443786  1.0
  C  C106  1  0.51852488  0.13087537  0.86015736  1.0
  C  C107  1  0.59028011  0.15018693  0.80443873  1.0
  C  C108  1  0.35059878  0.51853111  0.86016353  1.0
  C  C109  1  0.25953194  0.59027869  0.80443745  1.0
  C  C110  1  0.13086931  0.35059886  0.86016215  1.0
  C  C111  1  0.15018880  0.25953083  0.80443648  1.0
  C  C112  1  0.48147187  0.86912694  0.86015708  1.0
  C  C113  1  0.40971931  0.84981283  0.80443719  1.0
  C  C114  1  0.64939730  0.48147120  0.86015974  1.0
  C  C115  1  0.74046575  0.40972184  0.80443722  1.0
  C  C116  1  0.86913586  0.64939877  0.86016427  1.0
  C  C117  1  0.84981381  0.74046659  0.80443756  1.0
  C  C118  1  0.48146601  0.64939836  0.63983521  1.0
  C  C119  1  0.40972114  0.74046650  0.69556215  1.0
  C  C120  1  0.64939831  0.86913084  0.63984170  1.0
  C  C121  1  0.74046667  0.84981348  0.69556217  1.0
  C  C122  1  0.86913427  0.48146487  0.63983552  1.0
  C  C123  1  0.84981189  0.40971984  0.69556101  1.0
  C  C124  1  0.51852828  0.35059841  0.63984355  1.0
  C  C125  1  0.59028205  0.25953127  0.69556331  1.0
  C  C126  1  0.35059545  0.13087373  0.63983579  1.0
  C  C127  1  0.25953159  0.15018740  0.69556014  1.0
  C  C128  1  0.13086463  0.51853347  0.63983819  1.0
  C  C129  1  0.15018811  0.59028026  0.69556194  1.0
  O  O130  1  0.57956376  0.80449689  0.14470864  1.0
  O  O131  1  0.43640971  0.94741338  0.09285453  1.0
  O  O132  1  0.61593973  0.57957192  0.14471026  1.0
  O  O133  1  0.61616891  0.43642030  0.09286082  1.0
  O  O134  1  0.80449459  0.61593948  0.14470961  1.0
  O  O135  1  0.94740934  0.61617743  0.09286029  1.0
  O  O136  1  0.42044023  0.19549872  0.14470913  1.0
  O  O137  1  0.56359356  0.05257970  0.09284767  1.0
  O  O138  1  0.38406228  0.42043305  0.14471129  1.0
  O  O139  1  0.38381829  0.56358602  0.09285461  1.0
  O  O140  1  0.19550603  0.38405613  0.14470816  1.0
  O  O141  1  0.05258762  0.38382423  0.09285830  1.0
  O  O142  1  0.42043424  0.38405764  0.35529017  1.0
  O  O143  1  0.56358607  0.38383079  0.40714381  1.0
  O  O144  1  0.38406238  0.19550233  0.35529123  1.0
  O  O145  1  0.38382972  0.05258225  0.40714602  1.0
  O  O146  1  0.19550738  0.42043385  0.35528965  1.0
  O  O147  1  0.05259472  0.56358654  0.40715174  1.0
  O  O148  1  0.57956695  0.61594192  0.35529114  1.0
  O  O149  1  0.43641531  0.61617910  0.40714488  1.0
  O  O150  1  0.61593757  0.80449567  0.35529008  1.0
  O  O151  1  0.61617105  0.94741674  0.40714393  1.0
  O  O152  1  0.80449041  0.57957116  0.35529102  1.0
  O  O153  1  0.94741093  0.43642022  0.40713694  1.0
  O  O154  1  0.42043520  0.19550557  0.85529116  1.0
  O  O155  1  0.56358651  0.05257973  0.90714401  1.0
  O  O156  1  0.38406058  0.42043054  0.85528828  1.0
  O  O157  1  0.38382050  0.56358372  0.90714528  1.0
  O  O158  1  0.19550912  0.38405753  0.85529082  1.0
  O  O159  1  0.05259040  0.38382348  0.90714203  1.0
  O  O160  1  0.57956388  0.80449750  0.85528941  1.0
  O  O161  1  0.43640976  0.94741809  0.90714520  1.0
  O  O162  1  0.61593967  0.57957019  0.85529103  1.0
  O  O163  1  0.61616910  0.43641799  0.90713889  1.0
  O  O164  1  0.80449240  0.61593931  0.85528912  1.0
  O  O165  1  0.94740566  0.61617746  0.90714277  1.0
  O  O166  1  0.57956940  0.61593547  0.64471216  1.0
  O  O167  1  0.43641641  0.61617947  0.59285536  1.0
  O  O168  1  0.61593824  0.80449546  0.64471047  1.0
  O  O169  1  0.61616704  0.94741788  0.59285883  1.0
  O  O170  1  0.80449169  0.57956705  0.64470889  1.0
  O  O171  1  0.94740879  0.43641357  0.59285562  1.0
  O  O172  1  0.42043723  0.38405820  0.64470803  1.0
  O  O173  1  0.56359055  0.38383115  0.59285808  1.0
  O  O174  1  0.38405997  0.19550290  0.64470720  1.0
  O  O175  1  0.38381922  0.05258962  0.59284705  1.0
  O  O176  1  0.19550575  0.42043286  0.64470941  1.0
  O  O177  1  0.05258676  0.56358613  0.59286097  1.0
  O  O178  1  0.47075139  0.76462513  0.24999967  1.0
  O  O179  1  0.76462305  0.47075457  0.25000050  1.0
  O  O180  1  0.76462382  0.76462531  0.24999957  1.0
  O  O181  1  0.52924845  0.23537323  0.24999829  1.0
  O  O182  1  0.23537580  0.52924847  0.25000124  1.0
  O  O183  1  0.23537698  0.23537384  0.25000028  1.0
  O  O184  1  0.52924875  0.23537498  0.75000013  1.0
  O  O185  1  0.23537698  0.52924711  0.74999867  1.0
  O  O186  1  0.23537737  0.23537404  0.74999771  1.0
  O  O187  1  0.47075178  0.76462534  0.74999962  1.0
  O  O188  1  0.76462288  0.47075321  0.74999856  1.0
  O  O189  1  0.76462432  0.76462395  0.75000015  1.0
  O  O190  1  0.64665658  0.85440350  0.99999932  1.0
  O  O191  1  0.49894143  0.64665461  0.00000050  1.0
  O  O192  1  0.85440421  0.49894078  0.00000011  1.0
  O  O193  1  0.35334300  0.14559702  0.99999975  1.0
  O  O194  1  0.50106064  0.35334163  0.99999993  1.0
  O  O195  1  0.14559749  0.50105818  0.00000084  1.0
  O  O196  1  0.35334569  0.50105911  0.50000083  1.0
  O  O197  1  0.50106076  0.14559729  0.50000164  1.0
  O  O198  1  0.14559918  0.35334060  0.49999947  1.0
  O  O199  1  0.64665802  0.49893790  0.49999960  1.0
  O  O200  1  0.49894072  0.85440284  0.49999879  1.0
  O  O201  1  0.85440106  0.64665796  0.50000159  1.0
