# generated using pymatgen
data_Al2H13C18N2O10F
_symmetry_space_group_name_H-M   'P 1'
_cell_length_a   6.68579366
_cell_length_b   16.05026642
_cell_length_c   17.54172529
_cell_angle_alpha   80.06402977
_cell_angle_beta   90.01083603
_cell_angle_gamma   90.00019104
_symmetry_Int_Tables_number   1
_chemical_formula_structural   Al2H13C18N2O10F
_chemical_formula_sum   'Al4 H26 C36 N4 O20 F2'
_cell_volume   1854.14745666
_cell_formula_units_Z   2
loop_
 _symmetry_equiv_pos_site_id
 _symmetry_equiv_pos_as_xyz
  1  'x, y, z'
loop_
 _atom_site_type_symbol
 _atom_site_label
 _atom_site_symmetry_multiplicity
 _atom_site_fract_x
 _atom_site_fract_y
 _atom_site_fract_z
 _atom_site_occupancy
  Al  Al0  1  0.10938928  0.49983246  0.49456563  1.0
  Al  Al1  1  0.60938812  0.50016866  0.50547986  1.0
  Al  Al2  1  0.65652044  0.00155777  0.00139709  1.0
  Al  Al3  1  0.15654053  0.99836702  0.99912318  1.0
  H  H4  1  0.59816403  0.19087020  0.81293958  1.0
  H  H5  1  0.09844396  0.80909604  0.18692317  1.0
  H  H6  1  0.05601610  0.19393346  0.79275181  1.0
  H  H7  1  0.55616217  0.80638614  0.20778088  1.0
  H  H8  1  0.57798064  0.30100943  0.69721774  1.0
  H  H9  1  0.07795904  0.69895495  0.30271857  1.0
  H  H10  1  0.03865912  0.30476735  0.69741276  1.0
  H  H11  1  0.53862275  0.69523047  0.30269698  1.0
  H  H12  1  0.24397595  0.18185536  0.30049878  1.0
  H  H13  1  0.74390042  0.81819721  0.69974566  1.0
  H  H14  1  0.21537222  0.09365089  0.19701231  1.0
  H  H15  1  0.71521553  0.90626934  0.80328773  1.0
  H  H16  1  0.63638242  0.19690031  0.13390055  1.0
  H  H17  1  0.13630186  0.80285807  0.86624451  1.0
  H  H18  1  0.35606073  0.38888431  0.29400658  1.0
  H  H19  1  0.49403711  0.43437020  0.35550563  1.0
  H  H20  1  0.85627065  0.61101218  0.70595150  1.0
  H  H21  1  0.99434077  0.56560124  0.64445512  1.0
  H  H22  1  0.40696392  0.38001727  0.17872909  1.0
  H  H23  1  0.45180597  0.28844990  0.14723334  1.0
  H  H24  1  0.95211977  0.71120648  0.85293314  1.0
  H  H25  1  0.90720580  0.61977841  0.82124232  1.0
  H  H26  1  0.35805614  0.38806616  0.51857709  1.0
  H  H27  1  0.85798308  0.61190020  0.48132786  1.0
  H  H28  1  0.40157399  0.11178111  0.98580280  1.0
  H  H29  1  0.90117669  0.88854653  0.00831853  1.0
  C  C30  1  0.35289466  0.59087055  0.59805041  1.0
  C  C31  1  0.85267611  0.40913658  0.40198989  1.0
  C  C32  1  0.36495573  0.61233327  0.38834297  1.0
  C  C33  1  0.86501155  0.38766976  0.61171597  1.0
  C  C34  1  0.73895976  0.21368583  0.78521476  1.0
  C  C35  1  0.23909576  0.78635060  0.21484797  1.0
  C  C36  1  0.90824878  0.17674336  0.81672553  1.0
  C  C37  1  0.40848458  0.82344991  0.18362416  1.0
  C  C38  1  0.72715836  0.28064991  0.71821780  1.0
  C  C39  1  0.22716325  0.71934215  0.28180430  1.0
  C  C40  1  0.88478974  0.32056203  0.68002782  1.0
  C  C41  1  0.38476746  0.67941953  0.32004036  1.0
  C  C42  1  0.82874680  0.35616660  0.34073733  1.0
  C  C43  1  0.32892390  0.64383976  0.65932357  1.0
  C  C44  1  0.92231681  0.14253796  0.15972042  1.0
  C  C45  1  0.42225621  0.85729403  0.84058202  1.0
  C  C46  1  0.11235446  0.18594666  0.26350115  1.0
  C  C47  1  0.61231457  0.81402290  0.73672405  1.0
  C  C48  1  0.09669507  0.13714069  0.20670249  1.0
  C  C49  1  0.59662691  0.86273885  0.79359539  1.0
  C  C50  1  0.76845662  0.19699991  0.17034975  1.0
  C  C51  1  0.26843563  0.80284765  0.82982551  1.0
  C  C52  1  0.78257329  0.25099550  0.22621837  1.0
  C  C53  1  0.28260879  0.74890764  0.77392023  1.0
  C  C54  1  0.95925763  0.24426897  0.27398047  1.0
  C  C55  1  0.45929013  0.75570029  0.72617997  1.0
  C  C56  1  0.97551301  0.29831602  0.32865182  1.0
  C  C57  1  0.47564268  0.70170446  0.67146530  1.0
  C  C58  1  0.64913298  0.35976122  0.29528956  1.0
  C  C59  1  0.14929989  0.64018772  0.70475257  1.0
  C  C60  1  0.63181019  0.31033317  0.23662827  1.0
  C  C61  1  0.13191178  0.68956699  0.76344664  1.0
  C  C62  1  0.40678940  0.88952146  0.11363420  1.0
  C  C63  1  0.90634679  0.11068541  0.88674403  1.0
  C  C64  1  0.40979376  0.90886171  0.90331828  1.0
  C  C65  1  0.91001335  0.09084367  0.09710609  1.0
  N  N66  1  0.49186681  0.41389162  0.30366259  1.0
  N  N67  1  0.99211669  0.58605236  0.69631208  1.0
  N  N68  1  0.45599367  0.31929328  0.19297698  1.0
  N  N69  1  0.95613152  0.68052180  0.80708889  1.0
  O  O70  1  0.52996159  0.58647123  0.42108332  1.0
  O  O71  1  0.03007177  0.41360207  0.57908074  1.0
  O  O72  1  0.19154443  0.57173762  0.56596938  1.0
  O  O73  1  0.69133016  0.42834002  0.43400879  1.0
  O  O74  1  0.19099383  0.58528617  0.41019756  1.0
  O  O75  1  0.69104616  0.41464792  0.58979250  1.0
  O  O76  1  0.02674420  0.43183041  0.41959262  1.0
  O  O77  1  0.52694736  0.56811130  0.58053959  1.0
  O  O78  1  0.35995950  0.44888867  0.50236055  1.0
  O  O79  1  0.86000000  0.55110367  0.49772975  1.0
  O  O80  1  0.23704071  0.92617921  0.92742367  1.0
  O  O81  1  0.73745799  0.07395794  0.07256213  1.0
  O  O82  1  0.57791046  0.91664463  0.08801949  1.0
  O  O83  1  0.07754165  0.08395711  0.91271635  1.0
  O  O84  1  0.57655889  0.93070298  0.92913753  1.0
  O  O85  1  0.07670517  0.06844392  0.07176044  1.0
  O  O86  1  0.73730045  0.08653966  0.91609892  1.0
  O  O87  1  0.23796259  0.91331014  0.08389460  1.0
  O  O88  1  0.40506039  0.05063224  0.99568139  1.0
  O  O89  1  0.90509037  0.94934263  0.00456689  1.0
  F  F90  1  0.14340299  0.28972275  0.37392616  1.0
  F  F91  1  0.64357725  0.71033244  0.62623322  1.0
