# generated using pymatgen
data_Zn3H4C18(O3F2)4
_symmetry_space_group_name_H-M   'P 1'
_cell_length_a   16.97126517
_cell_length_b   17.01061478
_cell_length_c   17.01240024
_cell_angle_alpha   100.34981667
_cell_angle_beta   114.13573654
_cell_angle_gamma   114.16127670
_symmetry_Int_Tables_number   1
_chemical_formula_structural   Zn3H4C18(O3F2)4
_chemical_formula_sum   'Zn6 H8 C36 O24 F16'
_cell_volume   3717.25493498
_cell_formula_units_Z   2
loop_
 _symmetry_equiv_pos_site_id
 _symmetry_equiv_pos_as_xyz
  1  'x, y, z'
loop_
 _atom_site_type_symbol
 _atom_site_label
 _atom_site_symmetry_multiplicity
 _atom_site_fract_x
 _atom_site_fract_y
 _atom_site_fract_z
 _atom_site_occupancy
  Zn  Zn0  1  0.07315012  0.00287257  0.07098172  1.0
  Zn  Zn1  1  0.92684747  0.99712395  0.92902149  1.0
  Zn  Zn2  1  0.92939948  0.42999292  0.50115783  1.0
  Zn  Zn3  1  0.07058274  0.57001493  0.49883232  1.0
  Zn  Zn4  1  0.49795502  0.43851873  0.93922648  1.0
  Zn  Zn5  1  0.50202648  0.56146785  0.06074252  1.0
  H  H6  1  0.83995860  0.72357951  0.71656798  1.0
  H  H7  1  0.16007049  0.27651123  0.28339383  1.0
  H  H8  1  0.05191393  0.13641133  0.29574058  1.0
  H  H9  1  0.94824809  0.86369937  0.70433554  1.0
  H  H10  1  0.08401463  0.76279500  0.90358303  1.0
  H  H11  1  0.91587197  0.23710156  0.09639634  1.0
  H  H12  1  0.83066671  0.13109129  0.09480362  1.0
  H  H13  1  0.16932076  0.86881671  0.90526955  1.0
  C  C14  1  0.86276880  0.85664860  0.99733419  1.0
  C  C15  1  0.13719310  0.14335426  0.00263912  1.0
  C  C16  1  0.72258717  0.71474361  0.00217991  1.0
  C  C17  1  0.27739769  0.28529331  0.99785296  1.0
  C  C18  1  0.13915956  0.50133304  0.64076820  1.0
  C  C19  1  0.86081678  0.49865354  0.35920809  1.0
  C  C20  1  0.99404780  0.61545984  0.61502727  1.0
  C  C21  1  0.00593212  0.38453738  0.38496826  1.0
  C  C22  1  0.36315352  0.50304503  0.86133904  1.0
  C  C23  1  0.63682720  0.49685224  0.13854783  1.0
  C  C24  1  0.64356449  0.63844602  0.00274119  1.0
  C  C25  1  0.35642742  0.36161642  0.99731558  1.0
  C  C26  1  0.21763423  0.50222509  0.71892456  1.0
  C  C27  1  0.78234750  0.49772180  0.28101157  1.0
  C  C28  1  0.28442623  0.50290163  0.78432260  1.0
  C  C29  1  0.71555544  0.49703178  0.21558993  1.0
  C  C30  1  0.00825159  0.88682393  0.88388609  1.0
  C  C31  1  0.99178099  0.11317617  0.11614969  1.0
  C  C32  1  0.90459790  0.71996510  0.76412374  1.0
  C  C33  1  0.09538716  0.28007320  0.23584538  1.0
  C  C34  1  0.99253445  0.15259013  0.26595795  1.0
  C  C35  1  0.00758290  0.84746813  0.73411523  1.0
  C  C36  1  0.90899418  0.64221242  0.70515524  1.0
  C  C37  1  0.09095517  0.35780884  0.29479037  1.0
  C  C38  1  0.01422774  0.23364518  0.34739713  1.0
  C  C39  1  0.98585820  0.76641234  0.65265544  1.0
  C  C40  1  0.09586325  0.80088477  0.85984596  1.0
  C  C41  1  0.90410281  0.19905083  0.14018403  1.0
  C  C42  1  0.00697888  0.81559850  0.81300779  1.0
  C  C43  1  0.99305019  0.18441222  0.18702258  1.0
  C  C44  1  0.99574096  0.68864388  0.68515629  1.0
  C  C45  1  0.00425804  0.31136398  0.31485012  1.0
  C  C46  1  0.10000404  0.74289529  0.78346432  1.0
  C  C47  1  0.89995979  0.25704314  0.21656232  1.0
  C  C48  1  0.78767168  0.77909784  0.00007287  1.0
  C  C49  1  0.21229962  0.22092347  0.99992815  1.0
  O  O50  1  0.95663531  0.89037934  0.05867493  1.0
  O  O51  1  0.04332278  0.10969157  0.94136601  1.0
  O  O52  1  0.17203039  0.11531255  0.06595679  1.0
  O  O53  1  0.82793778  0.88461092  0.93393434  1.0
  O  O54  1  0.07227819  0.91586567  0.97122439  1.0
  O  O55  1  0.92766517  0.08403308  0.02881207  1.0
  O  O56  1  0.05726254  0.09105668  0.15247691  1.0
  O  O57  1  0.94286061  0.90904265  0.84756542  1.0
  O  O58  1  0.04680836  0.43978140  0.61121175  1.0
  O  O59  1  0.95317223  0.56031717  0.38885980  1.0
  O  O60  1  0.17024996  0.56202955  0.60884892  1.0
  O  O61  1  0.82973905  0.43789536  0.39106215  1.0
  O  O62  1  0.93336214  0.52872474  0.59158344  1.0
  O  O63  1  0.06652303  0.47128159  0.40831388  1.0
  O  O64  1  0.05618417  0.64964199  0.58934543  1.0
  O  O65  1  0.94389356  0.35036028  0.41073917  1.0
  O  O66  1  0.39224794  0.44928996  0.83841034  1.0
  O  O67  1  0.60772627  0.55060941  0.16145603  1.0
  O  O68  1  0.39589951  0.55675025  0.94474034  1.0
  O  O69  1  0.60408738  0.44314206  0.05515169  1.0
  O  O70  1  0.61058966  0.55481598  0.94958155  1.0
  O  O71  1  0.38938533  0.44524291  0.05047825  1.0
  O  O72  1  0.61449202  0.66250217  0.05594654  1.0
  O  O73  1  0.38550360  0.33758223  0.94411157  1.0
  F  F74  1  0.88687057  0.69567404  0.83198781  1.0
  F  F75  1  0.11303614  0.30432381  0.16793090  1.0
  F  F76  1  0.89781220  0.07049509  0.22846437  1.0
  F  F77  1  0.10234042  0.92953275  0.77165304  1.0
  F  F78  1  0.81445870  0.58127706  0.62295100  1.0
  F  F79  1  0.18549809  0.41880370  0.37697362  1.0
  F  F80  1  0.11477852  0.27523561  0.42171785  1.0
  F  F81  1  0.88533401  0.72488213  0.57832109  1.0
  F  F82  1  0.92771901  0.58999018  0.75470765  1.0
  F  F83  1  0.07214345  0.40997151  0.24519887  1.0
  F  F84  1  0.95399016  0.19665228  0.38075410  1.0
  F  F85  1  0.04613487  0.80339252  0.61932509  1.0
  F  F86  1  0.12403146  0.67920608  0.80857716  1.0
  F  F87  1  0.87585642  0.32068270  0.19141546  1.0
  F  F88  1  0.82230988  0.19803702  0.22558654  1.0
  F  F89  1  0.17770626  0.80190146  0.77449676  1.0
