# generated using pymatgen
data_ZnH20C24N(O2F)3
_symmetry_space_group_name_H-M   'P 1'
_cell_length_a   13.23122615
_cell_length_b   14.00792297
_cell_length_c   15.30676862
_cell_angle_alpha   90.44816621
_cell_angle_beta   92.16724193
_cell_angle_gamma   97.85678802
_symmetry_Int_Tables_number   1
_chemical_formula_structural   ZnH20C24N(O2F)3
_chemical_formula_sum   'Zn2 H40 C48 N2 O12 F6'
_cell_volume   2808.10370808
_cell_formula_units_Z   2
loop_
 _symmetry_equiv_pos_site_id
 _symmetry_equiv_pos_as_xyz
  1  'x, y, z'
loop_
 _atom_site_type_symbol
 _atom_site_label
 _atom_site_symmetry_multiplicity
 _atom_site_fract_x
 _atom_site_fract_y
 _atom_site_fract_z
 _atom_site_occupancy
  Zn  Zn0  1  0.50253351  0.39974730  0.50153984  1.0
  Zn  Zn1  1  0.51895944  0.60192213  0.49997655  1.0
  H  H2  1  0.37061762  0.72594918  0.43686200  1.0
  H  H3  1  0.54747246  0.25821133  0.62904381  1.0
  H  H4  1  0.35191778  0.90226756  0.43173684  1.0
  H  H5  1  0.54176190  0.07932436  0.64457876  1.0
  H  H6  1  0.03634285  0.67755247  0.58289204  1.0
  H  H7  1  0.98611414  0.32814355  0.39774560  1.0
  H  H8  1  0.36787677  0.37018660  0.93238319  1.0
  H  H9  1  0.42081429  0.63939234  0.06443415  1.0
  H  H10  1  0.38610472  0.36723767  0.77053687  1.0
  H  H11  1  0.44646544  0.64350314  0.22697752  1.0
  H  H12  1  0.62766241  0.95567811  0.59761027  1.0
  H  H13  1  0.43257674  0.05073416  0.37346251  1.0
  H  H14  1  0.26781463  0.53166065  0.65985263  1.0
  H  H15  1  0.15160961  0.57220467  0.69075358  1.0
  H  H16  1  0.36304953  0.69201286  0.68046098  1.0
  H  H17  1  0.24906874  0.74407399  0.69255862  1.0
  H  H18  1  0.21609910  0.65485554  0.83278665  1.0
  H  H19  1  0.33933051  0.72381453  0.83915441  1.0
  H  H20  1  0.32670300  0.59778957  0.82042474  1.0
  H  H21  1  0.76081136  0.29981680  0.55712373  1.0
  H  H22  1  0.89053112  0.28574485  0.53686046  1.0
  H  H23  1  0.70043686  0.19223680  0.43112237  1.0
  H  H24  1  0.82723929  0.18774771  0.40075827  1.0
  H  H25  1  0.86550261  0.10383406  0.54002125  1.0
  H  H26  1  0.75807575  0.03827871  0.48362054  1.0
  H  H27  1  0.74097965  0.11197511  0.57563586  1.0
  H  H28  1  0.73602842  0.67097430  0.70594939  1.0
  H  H29  1  0.68835400  0.54673975  0.71226703  1.0
  H  H30  1  0.80148562  0.66781697  0.86301050  1.0
  H  H31  1  0.75789946  0.54297527  0.86623763  1.0
  H  H32  1  0.87638885  0.51401350  0.74403399  1.0
  H  H33  1  0.94483527  0.56982126  0.83694982  1.0
  H  H34  1  0.92129651  0.63913286  0.74362571  1.0
  H  H35  1  0.67816403  0.31604716  0.30742486  1.0
  H  H36  1  0.68539789  0.44154056  0.29066409  1.0
  H  H37  1  0.72870843  0.29496895  0.15131633  1.0
  H  H38  1  0.74110843  0.42094615  0.13786309  1.0
  H  H39  1  0.88045348  0.44302756  0.25863054  1.0
  H  H40  1  0.91281936  0.36967167  0.17172063  1.0
  H  H41  1  0.86808547  0.31637371  0.27040467  1.0
  C  C42  1  0.49916707  0.49167469  0.67148671  1.0
  C  C43  1  0.51486713  0.51685205  0.33185080  1.0
  C  C44  1  0.49344443  0.49643767  0.76905009  1.0
  C  C45  1  0.50430388  0.50837597  0.23402380  1.0
  C  C46  1  0.54982006  0.57136840  0.81959986  1.0
  C  C47  1  0.52908086  0.42866105  0.18617550  1.0
  C  C48  1  0.53651629  0.57214369  0.91002085  1.0
  C  C49  1  0.51160301  0.42730529  0.09506246  1.0
  C  C50  1  0.47269741  0.50099465  0.95261167  1.0
  C  C51  1  0.47420182  0.50179237  0.04930770  1.0
  C  C52  1  0.56771300  0.90890247  0.56152653  1.0
  C  C53  1  0.45700323  0.09216895  0.43280459  1.0
  C  C54  1  0.57054421  0.81026611  0.55841870  1.0
  C  C55  1  0.46240052  0.19206156  0.43229864  1.0
  C  C56  1  0.42554760  0.78092004  0.46980749  1.0
  C  C57  1  0.52344476  0.20828867  0.57482718  1.0
  C  C58  1  0.41618482  0.87828155  0.46774472  1.0
  C  C59  1  0.52010936  0.10949551  0.58243232  1.0
  C  C60  1  0.48928641  0.94443232  0.51346777  1.0
  C  C61  1  0.48748166  0.04942362  0.50985207  1.0
  C  C62  1  0.70901906  0.51485815  0.51285995  1.0
  C  C63  1  0.31178652  0.47929207  0.48591762  1.0
  C  C64  1  0.19771344  0.47483989  0.48099612  1.0
  C  C65  1  0.82361008  0.52275165  0.51255823  1.0
  C  C66  1  0.99163426  0.61412847  0.55254446  1.0
  C  C67  1  0.03041898  0.38821654  0.43335938  1.0
  C  C68  1  0.88720290  0.60587601  0.54659449  1.0
  C  C69  1  0.13496857  0.39848831  0.43576768  1.0
  C  C70  1  0.87267632  0.44931617  0.47856115  1.0
  C  C71  1  0.14918573  0.54452454  0.52178400  1.0
  C  C72  1  0.98122861  0.45856198  0.47533718  1.0
  C  C73  1  0.04083103  0.54004664  0.51696571  1.0
  C  C74  1  0.41783658  0.42686074  0.90077559  1.0
  C  C75  1  0.44997292  0.58010617  0.09841165  1.0
  C  C76  1  0.42836121  0.42488524  0.81078423  1.0
  C  C77  1  0.46469805  0.58274133  0.18867340  1.0
  C  C78  1  0.22495037  0.59394629  0.65923516  1.0
  C  C79  1  0.28602994  0.67971705  0.70651108  1.0
  C  C80  1  0.29233562  0.66309721  0.80512786  1.0
  C  C81  1  0.81393513  0.28677044  0.50594198  1.0
  C  C82  1  0.77912203  0.19261145  0.45734989  1.0
  C  C83  1  0.78616425  0.10680973  0.51730925  1.0
  C  C84  1  0.70824601  0.61381431  0.75101958  1.0
  C  C85  1  0.78817031  0.60151387  0.82277645  1.0
  C  C86  1  0.88806879  0.57992376  0.78482814  1.0
  C  C87  1  0.67237753  0.37080349  0.25725437  1.0
  C  C88  1  0.74884862  0.36431229  0.18626350  1.0
  C  C89  1  0.85856372  0.37396968  0.22368050  1.0
  N  N90  1  0.50369968  0.74740217  0.51380287  1.0
  N  N91  1  0.49556440  0.24962961  0.49973876  1.0
  O  O92  1  0.49294252  0.40802317  0.63685255  1.0
  O  O93  1  0.51847218  0.60094982  0.36492621  1.0
  O  O94  1  0.50749395  0.57101678  0.63075693  1.0
  O  O95  1  0.51727450  0.43954632  0.37490220  1.0
  O  O96  1  0.65938706  0.43226834  0.52603700  1.0
  O  O97  1  0.36325698  0.56225757  0.48094096  1.0
  O  O98  1  0.67118977  0.59234242  0.49964303  1.0
  O  O99  1  0.34726505  0.40003480  0.49521334  1.0
  O  O100  1  0.20349179  0.61944995  0.56932610  1.0
  O  O101  1  0.81833266  0.36562360  0.44490328  1.0
  O  O102  1  0.61699665  0.64334283  0.78634292  1.0
  O  O103  1  0.56838506  0.35198467  0.22164564  1.0
  F  F104  1  0.18034925  0.33248790  0.39125256  1.0
  F  F105  1  0.84317136  0.68020774  0.57953674  1.0
  F  F106  1  0.59387641  0.64316457  0.95836385  1.0
  F  F107  1  0.53887316  0.35157688  0.04933577  1.0
  F  F108  1  0.64646243  0.77440767  0.60175528  1.0
  F  F109  1  0.43385506  0.23468452  0.35943033  1.0
