# generated using pymatgen
data_Zn2H21C41(NO7)2
_symmetry_space_group_name_H-M   'P 1'
_cell_length_a   11.04418720
_cell_length_b   13.82565318
_cell_length_c   26.27927973
_cell_angle_alpha   90.18054483
_cell_angle_beta   90.07967401
_cell_angle_gamma   91.05044476
_symmetry_Int_Tables_number   1
_chemical_formula_structural   Zn2H21C41(NO7)2
_chemical_formula_sum   'Zn4 H42 C82 N4 O28'
_cell_volume   4011.96624927
_cell_formula_units_Z   2
loop_
 _symmetry_equiv_pos_site_id
 _symmetry_equiv_pos_as_xyz
  1  'x, y, z'
loop_
 _atom_site_type_symbol
 _atom_site_label
 _atom_site_symmetry_multiplicity
 _atom_site_fract_x
 _atom_site_fract_y
 _atom_site_fract_z
 _atom_site_occupancy
  Zn  Zn0  1  0.49663249  0.39941105  0.49685158  1.0
  Zn  Zn1  1  0.50113059  0.60194226  0.49638505  1.0
  Zn  Zn2  1  0.50890667  0.59971538  0.91676887  1.0
  Zn  Zn3  1  0.50636585  0.39714478  0.91667766  1.0
  H  H4  1  0.63653560  0.24907366  0.44353923  1.0
  H  H5  1  0.73555163  0.09214313  0.41367080  1.0
  H  H6  1  0.37626306  0.24889091  0.55617315  1.0
  H  H7  1  0.36990647  0.75137861  0.55516360  1.0
  H  H8  1  0.29329573  0.90893786  0.59473509  1.0
  H  H9  1  0.64316143  0.75198738  0.44809843  1.0
  H  H10  1  0.32473378  0.36746016  0.80157275  1.0
  H  H11  1  0.18523834  0.25717823  0.75541544  1.0
  H  H12  1  0.30795561  0.37643128  0.61322125  1.0
  H  H13  1  0.17345682  0.26396316  0.66032742  1.0
  H  H14  1  0.49031141  0.66027314  0.33389578  1.0
  H  H15  1  0.49097183  0.74809045  0.25082742  1.0
  H  H16  1  0.49723436  0.35211257  0.33918282  1.0
  H  H17  1  0.50006481  0.33831692  0.07945018  1.0
  H  H18  1  0.49851829  0.25067851  0.16235358  1.0
  H  H19  1  0.49296012  0.64652694  0.07395892  1.0
  H  H20  1  0.23073722  0.64237241  0.43013454  1.0
  H  H21  1  0.12679729  0.75688382  0.37411053  1.0
  H  H22  1  0.78224087  0.62974393  0.41592508  1.0
  H  H23  1  0.90137380  0.74768219  0.36495097  1.0
  H  H24  1  0.63987906  0.75338176  0.97133847  1.0
  H  H25  1  0.73915508  0.91252911  0.00117688  1.0
  H  H26  1  0.36782612  0.74770082  0.86329062  1.0
  H  H27  1  0.37700987  0.24447682  0.85891106  1.0
  H  H28  1  0.28025785  0.08549369  0.82795313  1.0
  H  H29  1  0.65618089  0.25089131  0.96357474  1.0
  H  H30  1  0.22305631  0.35261671  0.98823838  1.0
  H  H31  1  0.10584184  0.24423307  0.04438098  1.0
  H  H32  1  0.77575839  0.37924651  0.99749560  1.0
  H  H33  1  0.88111300  0.25958331  0.05090086  1.0
  H  H34  1  0.77407340  0.84161824  0.42084820  1.0
  H  H35  1  0.30150807  0.16139731  0.60836518  1.0
  H  H36  1  0.49004007  0.75140541  0.11734402  1.0
  H  H37  1  0.49435047  0.24730695  0.29582625  1.0
  H  H38  1  0.78248853  0.16355942  0.99328988  1.0
  H  H39  1  0.23831192  0.83454731  0.83584172  1.0
  H  H40  1  0.57550046  0.64452510  0.61955779  1.0
  H  H41  1  0.58071143  0.64496053  0.79334115  1.0
  H  H42  1  0.78635707  0.35481631  0.52161998  1.0
  H  H43  1  0.19960698  0.34576074  0.51475968  1.0
  H  H44  1  0.80851380  0.65752957  0.89839228  1.0
  H  H45  1  0.22245555  0.63737703  0.89141347  1.0
  C  C46  1  0.49473256  0.50786114  0.39748465  1.0
  C  C47  1  0.73737138  0.50027957  0.48925397  1.0
  C  C48  1  0.48803436  0.50094923  0.59680124  1.0
  C  C49  1  0.25960363  0.49625487  0.49259667  1.0
  C  C50  1  0.50086791  0.49016188  0.01581220  1.0
  C  C51  1  0.74611181  0.50873981  0.92566437  1.0
  C  C52  1  0.49635366  0.50109521  0.81674223  1.0
  C  C53  1  0.26717003  0.49261498  0.92044375  1.0
  C  C54  1  0.58072700  0.20440919  0.46877821  1.0
  C  C55  1  0.58952387  0.10320508  0.46923416  1.0
  C  C56  1  0.67290233  0.05225188  0.43822165  1.0
  C  C57  1  0.43314842  0.20348763  0.53245599  1.0
  C  C58  1  0.43270239  0.10262160  0.53616702  1.0
  C  C59  1  0.35604808  0.04827577  0.57086070  1.0
  C  C60  1  0.43142566  0.79620597  0.53243519  1.0
  C  C61  1  0.43080382  0.89767933  0.53552861  1.0
  C  C62  1  0.35362892  0.94876505  0.56917738  1.0
  C  C63  1  0.58639852  0.79747321  0.47182434  1.0
  C  C64  1  0.59420601  0.89846150  0.47145979  1.0
  C  C65  1  0.67827581  0.95301788  0.44002891  1.0
  C  C66  1  0.51156404  0.05147177  0.50320078  1.0
  C  C67  1  0.51296395  0.94949247  0.50338414  1.0
  C  C68  1  0.47641099  0.50430533  0.76100966  1.0
  C  C69  1  0.40210514  0.43343092  0.73435117  1.0
  C  C70  1  0.53184014  0.58015096  0.73398193  1.0
  C  C71  1  0.32441604  0.36716072  0.76023080  1.0
  C  C72  1  0.24592941  0.30548377  0.73426176  1.0
  C  C73  1  0.47142346  0.50524418  0.65267217  1.0
  C  C74  1  0.52992756  0.58032537  0.67931382  1.0
  C  C75  1  0.39868384  0.43465506  0.67980440  1.0
  C  C76  1  0.31561624  0.37151846  0.65436491  1.0
  C  C77  1  0.24052680  0.30828104  0.68079586  1.0
  C  C78  1  0.49229463  0.59187109  0.31318318  1.0
  C  C79  1  0.49290475  0.59116562  0.25975523  1.0
  C  C80  1  0.49193508  0.67863503  0.23106483  1.0
  C  C81  1  0.49587419  0.41650275  0.31520945  1.0
  C  C82  1  0.49557444  0.41205045  0.26200435  1.0
  C  C83  1  0.49670384  0.32174088  0.23422974  1.0
  C  C84  1  0.49835369  0.40678703  0.10009685  1.0
  C  C85  1  0.49677139  0.40759973  0.15349721  1.0
  C  C86  1  0.49738208  0.32012349  0.18213605  1.0
  C  C87  1  0.49447550  0.58216095  0.09794250  1.0
  C  C88  1  0.49363651  0.58670221  0.15116537  1.0
  C  C89  1  0.49211587  0.67699490  0.17896376  1.0
  C  C90  1  0.49418044  0.50555815  0.34061167  1.0
  C  C91  1  0.49443766  0.50019103  0.23358618  1.0
  C  C92  1  0.49749879  0.49302247  0.07261184  1.0
  C  C93  1  0.49488724  0.49859726  0.17963183  1.0
  C  C94  1  0.12670176  0.49556493  0.48425253  1.0
  C  C95  1  0.06665715  0.57054541  0.45652291  1.0
  C  C96  1  0.06050088  0.41663845  0.50314572  1.0
  C  C97  1  0.13232766  0.64095262  0.42802809  1.0
  C  C98  1  0.07391460  0.70509672  0.39657298  1.0
  C  C99  1  0.86978427  0.49578522  0.48165411  1.0
  C  C100  1  0.93076280  0.41792741  0.50336515  1.0
  C  C101  1  0.93695748  0.56886052  0.45381672  1.0
  C  C102  1  0.88004497  0.63476589  0.42049323  1.0
  C  C103  1  0.94681923  0.70095502  0.39215181  1.0
  C  C104  1  0.58037296  0.79671756  0.94775040  1.0
  C  C105  1  0.58814290  0.89819716  0.94789801  1.0
  C  C106  1  0.67533516  0.95100488  0.97729929  1.0
  C  C107  1  0.42495679  0.79410670  0.88729917  1.0
  C  C108  1  0.42097563  0.89506513  0.88537896  1.0
  C  C109  1  0.33686759  0.94762215  0.85407049  1.0
  C  C110  1  0.43717187  0.20129543  0.88223329  1.0
  C  C111  1  0.43050758  0.09977774  0.88159534  1.0
  C  C112  1  0.34374376  0.04695025  0.85196817  1.0
  C  C113  1  0.59576355  0.20394765  0.94129436  1.0
  C  C114  1  0.59892833  0.10300682  0.94352513  1.0
  C  C115  1  0.68305613  0.05031381  0.97479773  1.0
  C  C116  1  0.50652427  0.94808811  0.91561231  1.0
  C  C117  1  0.51246344  0.04998681  0.91373595  1.0
  C  C118  1  0.13538698  0.49968937  0.92989895  1.0
  C  C119  1  0.06803286  0.42853705  0.95915634  1.0
  C  C120  1  0.07580446  0.58008212  0.91001429  1.0
  C  C121  1  0.12500150  0.35731904  0.98925049  1.0
  C  C122  1  0.05887457  0.29629419  0.02069754  1.0
  C  C123  1  0.87906612  0.50938344  0.93351224  1.0
  C  C124  1  0.94638306  0.58521430  0.91211176  1.0
  C  C125  1  0.93862341  0.43418014  0.96109661  1.0
  C  C126  1  0.87327340  0.37090487  0.99398126  1.0
  C  C127  1  0.93205184  0.30370343  0.02358784  1.0
  N  N128  1  0.50426482  0.25164487  0.49924014  1.0
  N  N129  1  0.50637776  0.74919026  0.50127249  1.0
  N  N130  1  0.50234179  0.74750867  0.91777868  1.0
  N  N131  1  0.51606103  0.25032817  0.91177788  1.0
  O  O132  1  0.50664366  0.42729580  0.42055172  1.0
  O  O133  1  0.48357889  0.58999500  0.41887137  1.0
  O  O134  1  0.68316997  0.57988340  0.48486310  1.0
  O  O135  1  0.68164723  0.42039208  0.50206863  1.0
  O  O136  1  0.51818119  0.58092566  0.57394162  1.0
  O  O137  1  0.47616923  0.42085504  0.57358748  1.0
  O  O138  1  0.31023723  0.41242805  0.49307204  1.0
  O  O139  1  0.31645691  0.57538491  0.50030290  1.0
  O  O140  1  0.49252822  0.57076022  0.99239509  1.0
  O  O141  1  0.51215120  0.40781848  0.99471139  1.0
  O  O142  1  0.68997620  0.42876777  0.92006953  1.0
  O  O143  1  0.69519231  0.59227903  0.92277945  1.0
  O  O144  1  0.48717067  0.42161154  0.84048299  1.0
  O  O145  1  0.52619984  0.58199618  0.83915503  1.0
  O  O146  1  0.32431405  0.57204685  0.90713260  1.0
  O  O147  1  0.31999760  0.41254084  0.92403286  1.0
  O  O148  1  0.76211010  0.90870887  0.41071397  1.0
  O  O149  1  0.28311712  0.09232918  0.60496378  1.0
  O  O150  1  0.49125952  0.76350373  0.15386829  1.0
  O  O151  1  0.49746910  0.23526183  0.25932224  1.0
  O  O152  1  0.77010462  0.09583297  0.00292938  1.0
  O  O153  1  0.25040042  0.90181306  0.82569029  1.0
  O  O154  1  0.59006252  0.65411807  0.65710057  1.0
  O  O155  1  0.59268089  0.65443289  0.75569474  1.0
  O  O156  1  0.87570568  0.34242769  0.52618616  1.0
  O  O157  1  0.11145250  0.33771038  0.52351032  1.0
  O  O158  1  0.89721211  0.66384311  0.89084914  1.0
  O  O159  1  0.13350977  0.65440878  0.88695141  1.0
