# generated using pymatgen
data_AlH3C24(Cl2O)6
_symmetry_space_group_name_H-M   'P 1'
_cell_length_a   4.05333734
_cell_length_b   28.80581631
_cell_length_c   28.80621324
_cell_angle_alpha   60.00189950
_cell_angle_beta   89.99679112
_cell_angle_gamma   89.99907534
_symmetry_Int_Tables_number   1
_chemical_formula_structural   AlH3C24(Cl2O)6
_chemical_formula_sum   'Al2 H6 C48 Cl24 O12'
_cell_volume   2912.84953211
_cell_formula_units_Z   2
loop_
 _symmetry_equiv_pos_site_id
 _symmetry_equiv_pos_as_xyz
  1  'x, y, z'
loop_
 _atom_site_type_symbol
 _atom_site_label
 _atom_site_symmetry_multiplicity
 _atom_site_fract_x
 _atom_site_fract_y
 _atom_site_fract_z
 _atom_site_occupancy
  Al  Al0  1  0.02120258  0.50000250  0.00000477  1.0
  Al  Al1  1  0.02119832  0.16666738  0.66666249  1.0
  H  H2  1  0.49214762  0.27737175  0.33957728  1.0
  H  H3  1  0.49220054  0.38928776  0.32708772  1.0
  H  H4  1  0.49215639  0.38304078  0.77738044  1.0
  H  H5  1  0.49205601  0.28362240  0.88929692  1.0
  H  H6  1  0.49218144  0.83958373  0.88303417  1.0
  H  H7  1  0.49209320  0.82707945  0.78361846  1.0
  C  C8  1  0.51965067  0.58171640  0.95390876  1.0
  C  C9  1  0.51958270  0.46438561  0.08171415  1.0
  C  C10  1  0.51959163  0.45390965  0.96438103  1.0
  C  C11  1  0.51961409  0.20228160  0.58494780  1.0
  C  C12  1  0.51958542  0.21276672  0.70227651  1.0
  C  C13  1  0.51963740  0.08495266  0.71276200  1.0
  C  C14  1  0.50938349  0.23021381  0.52458439  1.0
  C  C15  1  0.38406740  0.28229639  0.49521489  1.0
  C  C16  1  0.36370123  0.30821590  0.43903112  1.0
  C  C17  1  0.48546719  0.28363327  0.41036327  1.0
  C  C18  1  0.61593183  0.23093752  0.44136739  1.0
  C  C19  1  0.62185316  0.20426925  0.49753999  1.0
  C  C20  1  0.47892472  0.30705370  0.35222969  1.0
  C  C21  1  0.47894156  0.35960667  0.31443503  1.0
  C  C22  1  0.61592348  0.43572826  0.22529489  1.0
  C  C23  1  0.48547227  0.38302781  0.25630139  1.0
  C  C24  1  0.36369571  0.35844829  0.22763344  1.0
  C  C25  1  0.38401699  0.38437216  0.17144989  1.0
  C  C26  1  0.50932155  0.43645446  0.14207966  1.0
  C  C27  1  0.62181711  0.46240052  0.16912263  1.0
  C  C28  1  0.50930260  0.24519965  0.73020921  1.0
  C  C29  1  0.38397458  0.22248623  0.78229056  1.0
  C  C30  1  0.36363390  0.25274815  0.80821585  1.0
  C  C31  1  0.48538728  0.30599543  0.78363656  1.0
  C  C32  1  0.61587413  0.32768916  0.73093981  1.0
  C  C33  1  0.62178236  0.29818867  0.70426583  1.0
  C  C34  1  0.47886509  0.34070760  0.80706136  1.0
  C  C35  1  0.47885062  0.32595547  0.85961212  1.0
  C  C36  1  0.61588490  0.33898263  0.93572601  1.0
  C  C37  1  0.48541148  0.36067300  0.88302964  1.0
  C  C38  1  0.36367415  0.41392061  0.85845026  1.0
  C  C39  1  0.38403820  0.44418578  0.88436894  1.0
  C  C40  1  0.50934815  0.42147754  0.93644882  1.0
  C  C41  1  0.62182370  0.36848862  0.96239313  1.0
  C  C42  1  0.50933918  0.02458913  0.74519165  1.0
  C  C43  1  0.38405892  0.99521568  0.72248310  1.0
  C  C44  1  0.36371238  0.93903024  0.75274627  1.0
  C  C45  1  0.48543527  0.91036574  0.80599295  1.0
  C  C46  1  0.61590445  0.94137271  0.82768381  1.0
  C  C47  1  0.62183309  0.99754579  0.79817789  1.0
  C  C48  1  0.47890126  0.85223206  0.84070463  1.0
  C  C49  1  0.47887916  0.81443266  0.82595053  1.0
  C  C50  1  0.61595383  0.72528939  0.83898013  1.0
  C  C51  1  0.48546521  0.75629941  0.86066896  1.0
  C  C52  1  0.36372699  0.72763796  0.91391634  1.0
  C  C53  1  0.38411231  0.67145511  0.94418535  1.0
  C  C54  1  0.50940780  0.64207918  0.92147440  1.0
  C  C55  1  0.62189688  0.66911820  0.86848639  1.0
  Cl  Cl56  1  0.76921205  0.13992015  0.53427597  1.0
  Cl  Cl57  1  0.77850217  0.19841397  0.41006970  1.0
  Cl  Cl58  1  0.25400067  0.31380951  0.52918607  1.0
  Cl  Cl59  1  0.17458584  0.36999238  0.40698720  1.0
  Cl  Cl60  1  0.17460916  0.29666713  0.25967787  1.0
  Cl  Cl61  1  0.25393020  0.35286278  0.13747668  1.0
  Cl  Cl62  1  0.77852223  0.46824746  0.25659151  1.0
  Cl  Cl63  1  0.76913885  0.52675214  0.13238092  1.0
  Cl  Cl64  1  0.76912402  0.32579791  0.63991454  1.0
  Cl  Cl65  1  0.77845410  0.39150691  0.69842013  1.0
  Cl  Cl66  1  0.25387931  0.15700686  0.81379719  1.0
  Cl  Cl67  1  0.17453969  0.22301283  0.86999753  1.0
  Cl  Cl68  1  0.17454423  0.44365043  0.79667350  1.0
  Cl  Cl69  1  0.25397508  0.50966824  0.85285994  1.0
  Cl  Cl70  1  0.77846414  0.27516648  0.96824382  1.0
  Cl  Cl71  1  0.76918247  0.34088218  0.02673994  1.0
  Cl  Cl72  1  0.76919501  0.03429093  0.82578360  1.0
  Cl  Cl73  1  0.77847569  0.91007821  0.89149857  1.0
  Cl  Cl74  1  0.25399637  0.02918182  0.65700145  1.0
  Cl  Cl75  1  0.17459441  0.90698280  0.72301267  1.0
  Cl  Cl76  1  0.17461589  0.75968659  0.94364845  1.0
  Cl  Cl77  1  0.25406031  0.63748816  0.00966732  1.0
  Cl  Cl78  1  0.77850973  0.75658213  0.77516188  1.0
  Cl  Cl79  1  0.76925211  0.63237330  0.84087970  1.0
  O  O80  1  0.28589677  0.44674760  0.99657637  1.0
  O  O81  1  0.28589056  0.55668173  0.94675115  1.0
  O  O82  1  0.28584511  0.49657640  0.05668642  1.0
  O  O83  1  0.75988045  0.48592516  0.95323366  1.0
  O  O84  1  0.75982898  0.45323636  0.06084883  1.0
  O  O85  1  0.75985745  0.56084637  0.98592940  1.0
  O  O86  1  0.28582972  0.10998356  0.71992615  1.0
  O  O87  1  0.28588751  0.17009261  0.60998205  1.0
  O  O88  1  0.28584818  0.21992775  0.67008289  1.0
  O  O89  1  0.75983968  0.10581591  0.68075242  1.0
  O  O90  1  0.75981669  0.18075510  0.71342330  1.0
  O  O91  1  0.75988789  0.21343182  0.60581494  1.0
