# generated using pymatgen
data_ZnH17C25(NO)5
_symmetry_space_group_name_H-M   'P 1'
_cell_length_a   10.78704419
_cell_length_b   14.58823206
_cell_length_c   21.90142986
_cell_angle_alpha   92.81207849
_cell_angle_beta   90.01076834
_cell_angle_gamma   111.68245321
_symmetry_Int_Tables_number   1
_chemical_formula_structural   ZnH17C25(NO)5
_chemical_formula_sum   'Zn4 H68 C100 N20 O20'
_cell_volume   3198.16105520
_cell_formula_units_Z   4
loop_
 _symmetry_equiv_pos_site_id
 _symmetry_equiv_pos_as_xyz
  1  'x, y, z'
loop_
 _atom_site_type_symbol
 _atom_site_label
 _atom_site_symmetry_multiplicity
 _atom_site_fract_x
 _atom_site_fract_y
 _atom_site_fract_z
 _atom_site_occupancy
  Zn  Zn0  1  0.11530272  0.46360751  0.19876791  1.0
  Zn  Zn1  1  0.65154766  0.53634098  0.30125724  1.0
  Zn  Zn2  1  0.88469703  0.53639261  0.80123241  1.0
  Zn  Zn3  1  0.34845172  0.46365840  0.69874214  1.0
  H  H4  1  0.21029044  0.41905705  0.06567267  1.0
  H  H5  1  0.79127575  0.58113442  0.43420210  1.0
  H  H6  1  0.78971061  0.58094381  0.93432676  1.0
  H  H7  1  0.20872047  0.41886422  0.56579681  1.0
  H  H8  1  0.33987840  0.37630821  0.24046427  1.0
  H  H9  1  0.96359931  0.62366308  0.25940933  1.0
  H  H10  1  0.66011950  0.62369191  0.75953513  1.0
  H  H11  1  0.03640062  0.37633556  0.74059049  1.0
  H  H12  1  0.49414353  0.32831137  0.15407620  1.0
  H  H13  1  0.16577987  0.67177512  0.34583968  1.0
  H  H14  1  0.50585494  0.67168802  0.84592364  1.0
  H  H15  1  0.83421821  0.32822352  0.65416059  1.0
  H  H16  1  0.56971640  0.30468656  0.06854899  1.0
  H  H17  1  0.26494522  0.69543866  0.43145566  1.0
  H  H18  1  0.43028001  0.69531060  0.93145032  1.0
  H  H19  1  0.73505397  0.30456220  0.56854377  1.0
  H  H20  1  0.65633930  0.29133453  0.96417641  1.0
  H  H21  1  0.36486081  0.70876852  0.53585571  1.0
  H  H22  1  0.34366045  0.70866559  0.03582300  1.0
  H  H23  1  0.63514060  0.29123307  0.46414283  1.0
  H  H24  1  0.55752883  0.34230036  0.87480867  1.0
  H  H25  1  0.21507311  0.65773790  0.62518339  1.0
  H  H26  1  0.44247295  0.65770197  0.12519126  1.0
  H  H27  1  0.78492905  0.34226148  0.37481600  1.0
  H  H28  1  0.46279026  0.37876687  0.80451053  1.0
  H  H29  1  0.08385044  0.62139123  0.69548441  1.0
  H  H30  1  0.53721024  0.62123473  0.19548846  1.0
  H  H31  1  0.91615358  0.37860815  0.30451634  1.0
  H  H32  1  0.22555679  0.46811887  0.93194369  1.0
  H  H33  1  0.75742648  0.53154158  0.56793205  1.0
  H  H34  1  0.77444593  0.53188347  0.06805579  1.0
  H  H35  1  0.24257642  0.46845928  0.43206920  1.0
  H  H36  1  0.18185918  0.51822252  0.81495442  1.0
  H  H37  1  0.66360205  0.48183737  0.68495769  1.0
  H  H38  1  0.81814186  0.48177833  0.18504456  1.0
  H  H39  1  0.33640140  0.51816645  0.31504320  1.0
  H  H40  1  0.48067561  0.80924503  0.20124578  1.0
  H  H41  1  0.67124164  0.19081531  0.29886012  1.0
  H  H42  1  0.51932377  0.19075435  0.79875406  1.0
  H  H43  1  0.32875570  0.80918555  0.70114023  1.0
  H  H44  1  0.55280970  0.97454370  0.15739759  1.0
  H  H45  1  0.57809107  0.02540990  0.34258388  1.0
  H  H46  1  0.44718968  0.02545568  0.84260225  1.0
  H  H47  1  0.42190905  0.97459096  0.65741646  1.0
  H  H48  1  0.16032059  0.89793974  0.07677876  1.0
  H  H49  1  0.26218614  0.10203288  0.42313530  1.0
  H  H50  1  0.83967879  0.10205964  0.92322154  1.0
  H  H51  1  0.73781175  0.89796724  0.57686502  1.0
  H  H52  1  0.08931618  0.73138990  0.12146143  1.0
  H  H53  1  0.35755366  0.26860606  0.37847139  1.0
  H  H54  1  0.91068228  0.26860948  0.87853887  1.0
  H  H55  1  0.64244274  0.73139479  0.62152850  1.0
  H  H56  1  0.58861124  0.08104749  0.00710762  1.0
  H  H57  1  0.50719781  0.91887902  0.49295492  1.0
  H  H58  1  0.41138833  0.91895041  0.99289172  1.0
  H  H59  1  0.49280195  0.08112111  0.50704677  1.0
  H  H60  1  0.81172034  0.21920962  0.02428541  1.0
  H  H61  1  0.59208647  0.78063631  0.47573728  1.0
  H  H62  1  0.18828052  0.78078902  0.97571349  1.0
  H  H63  1  0.40791421  0.21936381  0.52426395  1.0
  H  H64  1  0.69780776  0.27862904  0.20536571  1.0
  H  H65  1  0.41902827  0.72152174  0.29459759  1.0
  H  H66  1  0.30219107  0.72137108  0.79463324  1.0
  H  H67  1  0.58097407  0.27847986  0.70540369  1.0
  H  H68  1  0.47329426  0.14294688  0.18796341  1.0
  H  H69  1  0.33019498  0.85726588  0.31205352  1.0
  H  H70  1  0.52670401  0.85705398  0.81203602  1.0
  H  H71  1  0.66980700  0.14273498  0.68794683  1.0
  C  C72  1  0.26705661  0.40335045  0.10165256  1.0
  C  C73  1  0.86375945  0.59677497  0.39822794  1.0
  C  C74  1  0.73294185  0.59664893  0.89834682  1.0
  C  C75  1  0.13623828  0.40322294  0.60177231  1.0
  C  C76  1  0.33533455  0.37811405  0.19110046  1.0
  C  C77  1  0.95720152  0.62186505  0.30877608  1.0
  C  C78  1  0.66466463  0.62188680  0.80889851  1.0
  C  C79  1  0.04279786  0.37813433  0.69122376  1.0
  C  C80  1  0.41288009  0.35396001  0.14879654  1.0
  C  C81  1  0.05889333  0.64609828  0.35111748  1.0
  C  C82  1  0.58711817  0.64604085  0.85120334  1.0
  C  C83  1  0.94110476  0.35390037  0.64888280  1.0
  C  C84  1  0.42313889  0.36025619  0.03417611  1.0
  C  C85  1  0.06282258  0.63986645  0.46577210  1.0
  C  C86  1  0.57685957  0.63974319  0.96582327  1.0
  C  C87  1  0.93717680  0.36013293  0.53422774  1.0
  C  C88  1  0.52714609  0.32543587  0.02901683  1.0
  C  C89  1  0.20162437  0.67472410  0.47097031  1.0
  C  C90  1  0.47285347  0.67456573  0.97098217  1.0
  C  C91  1  0.79837760  0.32527676  0.52902912  1.0
  C  C92  1  0.57526808  0.31818675  0.97065273  1.0
  C  C93  1  0.25696301  0.68194280  0.52936095  1.0
  C  C94  1  0.42473204  0.68181411  0.02934761  1.0
  C  C95  1  0.74303860  0.31805732  0.47063845  1.0
  C  C96  1  0.52020872  0.34572647  0.92066742  1.0
  C  C97  1  0.17433672  0.65436578  0.57931450  1.0
  C  C98  1  0.47979177  0.65427512  0.07933203  1.0
  C  C99  1  0.82566637  0.34563360  0.42068488  1.0
  C  C100  1  0.41695878  0.38004715  0.93195761  1.0
  C  C101  1  0.03679878  0.61996176  0.56798448  1.0
  C  C102  1  0.58304133  0.61995370  0.06804182  1.0
  C  C103  1  0.96320339  0.38003763  0.43201581  1.0
  C  C104  1  0.39063870  0.40837832  0.82270677  1.0
  C  C105  1  0.98212801  0.59170518  0.67724241  1.0
  C  C106  1  0.60936143  0.59162254  0.17729221  1.0
  C  C107  1  0.01787674  0.40829568  0.32275839  1.0
  C  C108  1  0.26629467  0.45742657  0.88825742  1.0
  C  C109  1  0.80880582  0.54238456  0.61164973  1.0
  C  C110  1  0.73370712  0.54257577  0.11174252  1.0
  C  C111  1  0.19119801  0.45761630  0.38835062  1.0
  C  C112  1  0.24527090  0.48051863  0.83027079  1.0
  C  C113  1  0.76468337  0.51948258  0.66964572  1.0
  C  C114  1  0.75472958  0.51948296  0.16972821  1.0
  C  C115  1  0.23531897  0.48051902  0.33035647  1.0
  C  C116  1  0.24566932  0.65806829  0.18643546  1.0
  C  C117  1  0.58727808  0.34195092  0.31362740  1.0
  C  C118  1  0.75433229  0.34193183  0.81356394  1.0
  C  C119  1  0.41271982  0.65804920  0.68637292  1.0
  C  C120  1  0.28074272  0.75973165  0.16424487  1.0
  C  C121  1  0.52071962  0.24027818  0.33577149  1.0
  C  C122  1  0.71925666  0.24026773  0.83575451  1.0
  C  C123  1  0.47927772  0.75972268  0.66422976  1.0
  C  C124  1  0.41042623  0.82934127  0.17435439  1.0
  C  C125  1  0.58086389  0.17064641  0.32568378  1.0
  C  C126  1  0.58957222  0.17065811  0.82564545  1.0
  C  C127  1  0.41913308  0.82935371  0.67431746  1.0
  C  C128  1  0.45119033  0.92177381  0.14979110  1.0
  C  C129  1  0.52915111  0.07816308  0.35016734  1.0
  C  C130  1  0.54880905  0.07822557  0.85020920  1.0
  C  C131  1  0.47084753  0.92183852  0.64983348  1.0
  C  C132  1  0.36024483  0.94524340  0.11416332  1.0
  C  C133  1  0.41474729  0.05471724  0.38576306  1.0
  C  C134  1  0.63975455  0.05475598  0.88583698  1.0
  C  C135  1  0.58525060  0.94528288  0.61423772  1.0
  C  C136  1  0.22910039  0.87755896  0.10455967  1.0
  C  C137  1  0.35124863  0.12241769  0.39534539  1.0
  C  C138  1  0.77089899  0.12244042  0.89544062  1.0
  C  C139  1  0.64874927  0.87758243  0.60465538  1.0
  C  C140  1  0.19006982  0.78549156  0.12951035  1.0
  C  C141  1  0.40424841  0.21448812  0.37041555  1.0
  C  C142  1  0.80992956  0.21450782  0.87048949  1.0
  C  C143  1  0.59574950  0.78551201  0.62958523  1.0
  C  C144  1  0.51995180  0.10511697  0.09659642  1.0
  C  C145  1  0.41452161  0.89489958  0.40343728  1.0
  C  C146  1  0.48004850  0.89488241  0.90340296  1.0
  C  C147  1  0.58547814  0.10510054  0.59656395  1.0
  C  C148  1  0.61350518  0.12469710  0.05027337  1.0
  C  C149  1  0.48842770  0.87524575  0.44978860  1.0
  C  C150  1  0.38649605  0.87530228  0.94972647  1.0
  C  C151  1  0.51157297  0.12475437  0.55021263  1.0
  C  C152  1  0.73727525  0.20091734  0.05998538  1.0
  C  C153  1  0.53593416  0.79896383  0.44005839  1.0
  C  C154  1  0.26272414  0.79908204  0.94001400  1.0
  C  C155  1  0.46406819  0.20103777  0.55994243  1.0
  C  C156  1  0.76825264  0.25619167  0.11581116  1.0
  C  C157  1  0.51171247  0.74375888  0.38419996  1.0
  C  C158  1  0.23174637  0.74380697  0.88418774  1.0
  C  C159  1  0.48829080  0.25624272  0.61580087  1.0
  C  C160  1  0.67319194  0.23480329  0.16209715  1.0
  C  C161  1  0.43817696  0.76525211  0.33789301  1.0
  C  C162  1  0.32680615  0.76519535  0.83790221  1.0
  C  C163  1  0.56182630  0.23474948  0.66210781  1.0
  C  C164  1  0.54836406  0.15967160  0.15250849  1.0
  C  C165  1  0.38845762  0.84040817  0.34750448  1.0
  C  C166  1  0.45163531  0.84032777  0.84748998  1.0
  C  C167  1  0.61154473  0.15959343  0.65249634  1.0
  C  C168  1  0.90300263  0.33769616  0.12557723  1.0
  C  C169  1  0.56510368  0.66230399  0.37443139  1.0
  C  C170  1  0.09699750  0.66230101  0.87442345  1.0
  C  C171  1  0.43489959  0.33769760  0.62556852  1.0
  N  N172  1  0.24525118  0.40862198  0.16103061  1.0
  N  N173  1  0.83663563  0.59139553  0.33883736  1.0
  N  N174  1  0.75474764  0.59137813  0.83896879  1.0
  N  N175  1  0.16336115  0.40860237  0.66116197  1.0
  N  N176  1  0.36941192  0.37071686  0.09205110  1.0
  N  N177  1  0.99867420  0.62942945  0.40785934  1.0
  N  N178  1  0.63058690  0.62928325  0.90794831  1.0
  N  N179  1  0.00132295  0.37056919  0.59214094  1.0
  N  N180  1  0.36836300  0.38735592  0.98705041  1.0
  N  N181  1  0.98092814  0.61267529  0.51286772  1.0
  N  N182  1  0.63163416  0.61264272  0.01294895  1.0
  N  N183  1  0.01907217  0.38732409  0.48713257  1.0
  N  N184  1  0.35913202  0.41199547  0.88306998  1.0
  N  N185  1  0.94704872  0.58789036  0.61685845  1.0
  N  N186  1  0.64086810  0.58800538  0.11692945  1.0
  N  N187  1  0.05295511  0.41211050  0.38314235  1.0
  N  N188  1  0.32294022  0.44920255  0.79017015  1.0
  N  N189  1  0.87362614  0.55094754  0.70978483  1.0
  N  N190  1  0.67706083  0.55079831  0.20982973  1.0
  N  N191  1  0.12637899  0.44905406  0.29021645  1.0
  O  O192  1  0.33522433  0.63390047  0.21004373  1.0
  O  O193  1  0.70089326  0.36611054  0.28998721  1.0
  O  O194  1  0.66477505  0.36609891  0.78995565  1.0
  O  O195  1  0.29910334  0.63388884  0.71001263  1.0
  O  O196  1  0.12345835  0.59714307  0.17799621  1.0
  O  O197  1  0.52598066  0.40291264  0.32212779  1.0
  O  O198  1  0.87654140  0.40285705  0.82200366  1.0
  O  O199  1  0.47401761  0.59708822  0.67787256  1.0
  O  O200  1  0.39374545  0.03236574  0.08487064  1.0
  O  O201  1  0.36112319  0.96768148  0.41513834  1.0
  O  O202  1  0.60625449  0.96763290  0.91512871  1.0
  O  O203  1  0.63887563  0.03231864  0.58486289  1.0
  O  O204  1  0.92985934  0.37231796  0.18207415  1.0
  O  O205  1  0.55759643  0.62781453  0.31791535  1.0
  O  O206  1  0.07014060  0.62768068  0.81792658  1.0
  O  O207  1  0.44240462  0.37218633  0.68208545  1.0
  O  O208  1  0.97846375  0.36650598  0.08155413  1.0
  O  O209  1  0.61170715  0.63342297  0.41845882  1.0
  O  O210  1  0.02153787  0.63349045  0.91844607  1.0
  O  O211  1  0.38829575  0.36657789  0.58154198  1.0
