# generated using pymatgen
data_Zn2H24C39(NO4)2
_symmetry_space_group_name_H-M   'P 1'
_cell_length_a   10.84697842
_cell_length_b   12.67713791
_cell_length_c   13.47591449
_cell_angle_alpha   81.58841396
_cell_angle_beta   89.55264430
_cell_angle_gamma   79.91852292
_symmetry_Int_Tables_number   1
_chemical_formula_structural   Zn2H24C39(NO4)2
_chemical_formula_sum   'Zn2 H24 C39 N2 O8'
_cell_volume   1804.51585397
_cell_formula_units_Z   1
loop_
 _symmetry_equiv_pos_site_id
 _symmetry_equiv_pos_as_xyz
  1  'x, y, z'
loop_
 _atom_site_type_symbol
 _atom_site_label
 _atom_site_symmetry_multiplicity
 _atom_site_fract_x
 _atom_site_fract_y
 _atom_site_fract_z
 _atom_site_occupancy
  Zn  Zn0  1  0.46638957  0.61226723  0.51331330  1.0
  Zn  Zn1  1  0.51824923  0.38799769  0.48567848  1.0
  H  H2  1  0.04768115  0.63424308  0.36167580  1.0
  H  H3  1  0.60786984  0.30166890  0.31269141  1.0
  H  H4  1  0.87358299  0.67139218  0.51785915  1.0
  H  H5  1  0.55023819  0.97353955  0.32281257  1.0
  H  H6  1  0.61876586  0.13641048  0.22908284  1.0
  H  H7  1  0.40662795  0.24207205  0.60910095  1.0
  H  H8  1  0.04980912  0.53567299  0.65680806  1.0
  H  H9  1  0.93915621  0.35554934  0.62321902  1.0
  H  H10  1  0.11511199  0.31755947  0.46826056  1.0
  H  H11  1  0.93859346  0.45289401  0.32802349  1.0
  H  H12  1  0.70773944  0.27356724  0.78643040  1.0
  H  H13  1  0.45985603  0.56566908  0.82302606  1.0
  H  H14  1  0.77340768  0.31926918  0.12899208  1.0
  H  H15  1  0.78175911  0.25272627  0.96491360  1.0
  H  H16  1  0.65475179  0.72963844  0.47242999  1.0
  H  H17  1  0.57820564  0.80169269  0.36256490  1.0
  H  H18  1  0.67485588  0.86637267  0.43291886  1.0
  H  H19  1  0.33905588  0.74989796  0.20797600  1.0
  H  H20  1  0.40158655  0.67815081  0.90745830  1.0
  H  H21  1  0.30019766  0.79943060  0.02245488  1.0
  H  H22  1  0.66783853  0.44118233  0.24223419  1.0
  H  H23  1  0.31412644  0.72235473  0.65563417  1.0
  H  H24  1  0.30739378  0.09407520  0.69804165  1.0
  H  H25  1  0.26790556  0.90433258  0.71485969  1.0
  C  C26  1  0.47772255  0.57432155  0.30651637  1.0
  C  C27  1  0.50861294  0.56277477  0.02392462  1.0
  C  C28  1  0.53811603  0.53939245  0.12877460  1.0
  C  C29  1  0.73372299  0.48738311  0.48665272  1.0
  C  C30  1  0.56591669  0.48726548  0.95836544  1.0
  C  C31  1  0.65871182  0.39660916  0.99774248  1.0
  C  C32  1  0.69652426  0.38445267  0.10089741  1.0
  C  C33  1  0.63781084  0.45175924  0.16389121  1.0
  C  C34  1  0.52971821  0.49801010  0.85697564  1.0
  C  C35  1  0.66996067  0.33233003  0.83526470  1.0
  C  C36  1  0.47076450  0.60624375  0.19459969  1.0
  C  C37  1  0.05999994  0.39598340  0.47871594  1.0
  C  C38  1  0.33012398  0.89083326  0.65229862  1.0
  C  C39  1  0.57769051  0.22913383  0.35101377  1.0
  C  C40  1  0.58515696  0.13597562  0.30547418  1.0
  C  C41  1  0.53350871  0.43998460  0.68908269  1.0
  C  C42  1  0.54787251  0.04537869  0.35841713  1.0
  C  C43  1  0.50214600  0.04775900  0.45671650  1.0
  C  C44  1  0.48600961  0.14928080  0.49342680  1.0
  C  C45  1  0.46159816  0.95647562  0.51783205  1.0
  C  C46  1  0.38381201  0.97656417  0.60122372  1.0
  C  C47  1  0.36465179  0.08135859  0.63247449  1.0
  C  C48  1  0.96444568  0.47137187  0.40109668  1.0
  C  C49  1  0.41858888  0.16329308  0.58370846  1.0
  C  C50  1  0.49878330  0.84685185  0.50153466  1.0
  C  C51  1  0.35684722  0.79040173  0.62181705  1.0
  C  C52  1  0.25423549  0.50139988  0.50218896  1.0
  C  C53  1  0.92806848  0.59311258  0.50632824  1.0
  C  C54  1  0.02210041  0.57222456  0.41956528  1.0
  C  C55  1  0.11858378  0.49611819  0.49640579  1.0
  C  C56  1  0.02332533  0.51760372  0.58375199  1.0
  C  C57  1  0.96583968  0.41704078  0.56529596  1.0
  C  C58  1  0.60785110  0.81050868  0.43832521  1.0
  C  C59  1  0.86924092  0.49356891  0.48739468  1.0
  C  C60  1  0.71009747  0.32116710  0.93401940  1.0
  C  C61  1  0.57861120  0.42209216  0.79607999  1.0
  C  C62  1  0.38790723  0.69942081  0.15593364  1.0
  C  C63  1  0.36523211  0.72597985  0.05209020  1.0
  C  C64  1  0.42262974  0.65769050  0.98759137  1.0
  N  N65  1  0.44276225  0.76830949  0.55058384  1.0
  N  N66  1  0.52826994  0.23627209  0.44121352  1.0
  O  O67  1  0.47652594  0.64994991  0.35948594  1.0
  O  O68  1  0.47874784  0.47500403  0.33981201  1.0
  O  O69  1  0.65991615  0.56292624  0.52110013  1.0
  O  O70  1  0.70124294  0.40618729  0.45464221  1.0
  O  O71  1  0.46650256  0.53173770  0.65782361  1.0
  O  O72  1  0.56569468  0.36350510  0.63700399  1.0
  O  O73  1  0.28318984  0.59529180  0.49713025  1.0
  O  O74  1  0.33048987  0.41145158  0.51196058  1.0
