# generated using pymatgen
data_Zn6H32(C2O)25
_symmetry_space_group_name_H-M   'P 1'
_cell_length_a   18.83627035
_cell_length_b   18.84951298
_cell_length_c   18.93390390
_cell_angle_alpha   109.28787110
_cell_angle_beta   109.74116214
_cell_angle_gamma   109.11625373
_symmetry_Int_Tables_number   1
_chemical_formula_structural   Zn6H32(C2O)25
_chemical_formula_sum   'Zn6 H32 C50 O25'
_cell_volume   5191.98103707
_cell_formula_units_Z   1
loop_
 _symmetry_equiv_pos_site_id
 _symmetry_equiv_pos_as_xyz
  1  'x, y, z'
loop_
 _atom_site_type_symbol
 _atom_site_label
 _atom_site_symmetry_multiplicity
 _atom_site_fract_x
 _atom_site_fract_y
 _atom_site_fract_z
 _atom_site_occupancy
  Zn  Zn0  1  0.99987099  0.05792808  0.55820390  1.0
  Zn  Zn1  1  0.00081987  0.94246524  0.44172468  1.0
  Zn  Zn2  1  0.44403142  0.94213232  0.00227825  1.0
  Zn  Zn3  1  0.56153063  0.05753523  0.00230338  1.0
  Zn  Zn4  1  0.55827607  0.49926939  0.55782513  1.0
  Zn  Zn5  1  0.44141284  0.50013789  0.44153644  1.0
  H  H6  1  0.86571360  0.14250591  0.38230018  1.0
  H  H7  1  0.61782996  0.85920615  0.14072745  1.0
  H  H8  1  0.84336478  0.94338742  0.21669838  1.0
  H  H9  1  0.73202904  0.93429003  0.10580630  1.0
  H  H10  1  0.87643431  0.73649205  0.49781322  1.0
  H  H11  1  0.76482232  0.62475204  0.50411524  1.0
  H  H12  1  0.61975012  0.75960890  0.49472215  1.0
  H  H13  1  0.73740347  0.87747317  0.50064487  1.0
  H  H14  1  0.26196563  0.99644488  0.62288580  1.0
  H  H15  1  0.38084839  0.00347099  0.74185685  1.0
  H  H16  1  0.23741278  0.99732347  0.87678406  1.0
  H  H17  1  0.78600480  0.08284247  0.39870754  1.0
  H  H18  1  0.12456204  0.00246315  0.76376892  1.0
  H  H19  1  0.12093510  0.12503795  0.36142125  1.0
  H  H20  1  0.23312577  0.24220931  0.36088486  1.0
  H  H21  1  0.37991618  0.37419813  0.63843992  1.0
  H  H22  1  0.26262259  0.26260493  0.63924340  1.0
  H  H23  1  0.50475342  0.26389285  0.12592337  1.0
  H  H24  1  0.49732674  0.37523124  0.23661445  1.0
  H  H25  1  0.50558063  0.23982308  0.38016001  1.0
  H  H26  1  0.50044031  0.12219529  0.26324635  1.0
  H  H27  1  0.64042314  0.87698189  0.87514927  1.0
  H  H28  1  0.68259536  0.08597328  0.29048342  1.0
  H  H29  1  0.63958605  0.75917641  0.76258237  1.0
  H  H30  1  0.36070384  0.62546067  0.62222407  1.0
  H  H31  1  0.36155523  0.73709723  0.74084435  1.0
  H  H32  1  0.76040555  0.13642260  0.26583508  1.0
  H  H33  1  0.78699499  0.04830862  0.15553294  1.0
  H  H34  1  0.73496571  0.86441766  0.24318177  1.0
  H  H35  1  0.71325623  0.91724602  0.32257718  1.0
  H  H36  1  0.60483696  0.92289287  0.22204107  1.0
  H  H37  1  0.91562032  0.12440915  0.29030775  1.0
  C  C38  1  0.88133276  0.88193823  0.49891461  1.0
  C  C39  1  0.69013586  0.99681096  0.18953187  1.0
  C  C40  1  0.76084190  0.99416681  0.16654494  1.0
  C  C41  1  0.65287993  0.91952193  0.20255211  1.0
  C  C42  1  0.82083324  0.74176462  0.49881343  1.0
  C  C43  1  0.75856230  0.67941968  0.50150482  1.0
  C  C44  1  0.68576095  0.68565726  0.49933207  1.0
  C  C45  1  0.67702261  0.75606290  0.49706643  1.0
  C  C46  1  0.74179571  0.82092351  0.49946607  1.0
  C  C47  1  0.81331382  0.81341888  0.49901296  1.0
  C  C48  1  0.25815952  0.99838377  0.67961551  1.0
  C  C49  1  0.88406798  0.00346546  0.38260195  1.0
  C  C50  1  0.32365472  0.00151427  0.74518240  1.0
  C  C51  1  0.31565779  0.00044648  0.81587680  1.0
  C  C52  1  0.24302417  0.99891264  0.82185094  1.0
  C  C53  1  0.18006743  0.00089815  0.75882904  1.0
  C  C54  1  0.18675258  0.99931953  0.68683968  1.0
  C  C55  1  0.17744081  0.18036910  0.42161912  1.0
  C  C56  1  0.23975519  0.24510280  0.42136159  1.0
  C  C57  1  0.31314802  0.31445036  0.49959598  1.0
  C  C58  1  0.32235382  0.32013735  0.57825635  1.0
  C  C59  1  0.25776971  0.25791639  0.57869944  1.0
  C  C60  1  0.11879853  0.11819753  0.50083084  1.0
  C  C61  1  0.18595450  0.18706381  0.50039069  1.0
  C  C62  1  0.50355308  0.11830624  0.12070110  1.0
  C  C63  1  0.62057662  0.99695911  0.11902378  1.0
  C  C64  1  0.50187574  0.88196327  0.88326047  1.0
  C  C65  1  0.38434899  0.00085353  0.88484015  1.0
  C  C66  1  0.49980606  0.61760817  0.61735187  1.0
  C  C67  1  0.61756316  0.61738230  0.49943492  1.0
  C  C68  1  0.50094138  0.38216461  0.38272695  1.0
  C  C69  1  0.38151548  0.38232331  0.49936552  1.0
  C  C70  1  0.50316211  0.25837293  0.18093614  1.0
  C  C71  1  0.11773443  0.99869366  0.61796058  1.0
  C  C72  1  0.49986630  0.32051975  0.24272880  1.0
  C  C73  1  0.50143522  0.31402268  0.31485896  1.0
  C  C74  1  0.50361232  0.24352369  0.32336885  1.0
  C  C75  1  0.50173307  0.17882726  0.25902238  1.0
  C  C76  1  0.50289840  0.18665771  0.18823951  1.0
  C  C77  1  0.57959426  0.82073946  0.82040734  1.0
  C  C78  1  0.57914696  0.75592267  0.75759975  1.0
  C  C79  1  0.50010847  0.68587759  0.68586657  1.0
  C  C80  1  0.42154142  0.67990243  0.67870485  1.0
  C  C81  1  0.42200818  0.74219061  0.74405371  1.0
  C  C82  1  0.80315048  0.08300013  0.34878054  1.0
  C  C83  1  0.50104826  0.81347677  0.81451494  1.0
  C  C84  1  0.73292491  0.08145858  0.27526105  1.0
  C  C85  1  0.83583015  0.00055343  0.24026002  1.0
  C  C86  1  0.72709022  0.92045110  0.27140263  1.0
  C  C87  1  0.81400164  0.00371839  0.31280067  1.0
  O  O88  1  0.89274595  0.95846847  0.53409221  1.0
  O  O89  1  0.53948747  0.14117408  0.07952580  1.0
  O  O90  1  0.54277119  0.93481831  0.07904724  1.0
  O  O91  1  0.64520070  0.06046324  0.10532432  1.0
  O  O92  1  0.43742801  0.85969377  0.89595556  1.0
  O  O93  1  0.56715592  0.95812498  0.92453866  1.0
  O  O94  1  0.36118333  0.96626193  0.92686828  1.0
  O  O95  1  0.46131342  0.03561716  0.89702366  1.0
  O  O96  1  0.56523646  0.60576846  0.64005475  1.0
  O  O97  1  0.43439505  0.57593667  0.54103632  1.0
  O  O98  1  0.64080723  0.57490819  0.53379794  1.0
  O  O99  1  0.92318796  0.85913556  0.46370420  1.0
  O  O100  1  0.54066238  0.60626267  0.46513159  1.0
  O  O101  1  0.53523774  0.39313835  0.45920051  1.0
  O  O102  1  0.46641802  0.42468609  0.35967093  1.0
  O  O103  1  0.45831791  0.42417423  0.56442709  1.0
  O  O104  1  0.35864819  0.39399735  0.43415354  1.0
  O  O105  1  0.92320102  0.06547657  0.46001688  1.0
  O  O106  1  0.89742389  0.93954605  0.35860991  1.0
  O  O107  1  0.10629789  0.14069623  0.56525116  1.0
  O  O108  1  0.07911630  0.04166396  0.43696544  1.0
  O  O109  1  0.07517187  0.03327816  0.64051861  1.0
  O  O110  1  0.10610292  0.96370549  0.54160099  1.0
  O  O111  1  0.46799675  0.04167055  0.10886049  1.0
  O  O112  1  0.91886880  0.07140022  0.27190159  1.0
