# generated using pymatgen
data_Cu2H7(C4N)4
_symmetry_space_group_name_H-M   'P 1'
_cell_length_a   27.41734489
_cell_length_b   27.44985366
_cell_length_c   29.33558807
_cell_angle_alpha   89.90281076
_cell_angle_beta   89.98559225
_cell_angle_gamma   89.90355461
_symmetry_Int_Tables_number   1
_chemical_formula_structural   Cu2H7(C4N)4
_chemical_formula_sum   'Cu12 H42 C96 N24'
_cell_volume   22077.96160835
_cell_formula_units_Z   6
loop_
 _symmetry_equiv_pos_site_id
 _symmetry_equiv_pos_as_xyz
  1  'x, y, z'
loop_
 _atom_site_type_symbol
 _atom_site_label
 _atom_site_symmetry_multiplicity
 _atom_site_fract_x
 _atom_site_fract_y
 _atom_site_fract_z
 _atom_site_occupancy
  Cu  Cu0  1  0.78189872  0.78203367  0.85422083  1.0
  Cu  Cu1  1  0.86545265  0.78318562  0.77945261  1.0
  Cu  Cu2  1  0.78318256  0.86560709  0.77951964  1.0
  Cu  Cu3  1  0.78161360  0.21805606  0.14567428  1.0
  Cu  Cu4  1  0.86516992  0.21692025  0.22052493  1.0
  Cu  Cu5  1  0.78284199  0.13492651  0.22070752  1.0
  Cu  Cu6  1  0.21772567  0.78221896  0.14547588  1.0
  Cu  Cu7  1  0.13412729  0.78334098  0.22027387  1.0
  Cu  Cu8  1  0.21688141  0.86502801  0.22052834  1.0
  Cu  Cu9  1  0.21798230  0.21807207  0.85394521  1.0
  Cu  Cu10  1  0.13431049  0.21682789  0.77921533  1.0
  Cu  Cu11  1  0.21703378  0.13491210  0.77924589  1.0
  H  H12  1  0.82002352  0.69858947  0.91961450  1.0
  H  H13  1  0.93782531  0.70383511  0.82120840  1.0
  H  H14  1  0.70403470  0.93803860  0.82130486  1.0
  H  H15  1  0.69841276  0.82009207  0.91954945  1.0
  H  H16  1  0.93098076  0.81923539  0.69690741  1.0
  H  H17  1  0.81944069  0.93128713  0.69718740  1.0
  H  H18  1  0.81980539  0.30111556  0.08005444  1.0
  H  H19  1  0.93742255  0.29603205  0.17861926  1.0
  H  H20  1  0.70359281  0.06263239  0.17944663  1.0
  H  H21  1  0.69801778  0.17996878  0.08054277  1.0
  H  H22  1  0.93069850  0.18074283  0.30316886  1.0
  H  H23  1  0.81888137  0.06934169  0.30318230  1.0
  H  H24  1  0.17964135  0.69903081  0.08016176  1.0
  H  H25  1  0.06189742  0.70411787  0.17863853  1.0
  H  H26  1  0.29644993  0.93718353  0.17923640  1.0
  H  H27  1  0.30143398  0.82023043  0.08028080  1.0
  H  H28  1  0.06877588  0.81942224  0.30295246  1.0
  H  H29  1  0.18108078  0.93033051  0.30307127  1.0
  H  H30  1  0.17962928  0.30123179  0.91922508  1.0
  H  H31  1  0.06178403  0.29593051  0.82093435  1.0
  H  H32  1  0.29654069  0.06263455  0.82077518  1.0
  H  H33  1  0.30168595  0.18003013  0.91924760  1.0
  H  H34  1  0.06899073  0.18067285  0.69662129  1.0
  H  H35  1  0.18129433  0.06938365  0.69690507  1.0
  H  H36  1  0.05623745  0.05524191  0.53068178  1.0
  H  H37  1  0.94453707  0.94482263  0.53101948  1.0
  H  H38  1  0.05625013  0.94472532  0.46923454  1.0
  H  H39  1  0.94435204  0.05532000  0.46931228  1.0
  H  H40  1  0.00049545  0.00009871  0.65816890  1.0
  H  H41  1  0.99981853  0.99983853  0.34195899  1.0
  H  H42  1  0.04998160  0.53275488  0.05707979  1.0
  H  H43  1  0.95052418  0.53294540  0.94330796  1.0
  H  H44  1  0.95043160  0.46686385  0.05700602  1.0
  H  H45  1  0.04993959  0.46694752  0.94322150  1.0
  H  H46  1  0.00006432  0.66898735  0.00012334  1.0
  H  H47  1  0.99940085  0.33077824  0.99945725  1.0
  H  H48  1  0.53290692  0.04939275  0.05735807  1.0
  H  H49  1  0.53331141  0.95071003  0.94322370  1.0
  H  H50  1  0.46714454  0.04948125  0.94304928  1.0
  H  H51  1  0.46704497  0.95060739  0.05733981  1.0
  H  H52  1  0.66941079  0.00008937  0.00047636  1.0
  H  H53  1  0.33078484  0.99994586  0.99987264  1.0
  C  C54  1  0.84406255  0.70555463  0.89097344  1.0
  C  C55  1  0.89088884  0.68659597  0.88224320  1.0
  C  C56  1  0.90440801  0.70825037  0.84056763  1.0
  C  C57  1  0.70833474  0.90458030  0.84062350  1.0
  C  C58  1  0.68667444  0.89104534  0.88228192  1.0
  C  C59  1  0.70545572  0.84416314  0.89093492  1.0
  C  C60  1  0.89940859  0.84220402  0.70294164  1.0
  C  C61  1  0.88634246  0.88638865  0.68170377  1.0
  C  C62  1  0.84227610  0.89959212  0.70308626  1.0
  C  C63  1  0.84380664  0.29421763  0.10874692  1.0
  C  C64  1  0.89055253  0.31316672  0.11749974  1.0
  C  C65  1  0.90404126  0.29161259  0.15923802  1.0
  C  C66  1  0.70793355  0.09593526  0.15991680  1.0
  C  C67  1  0.68624567  0.10930342  0.11821107  1.0
  C  C68  1  0.70506272  0.15605007  0.10927357  1.0
  C  C69  1  0.89906183  0.15794617  0.29720519  1.0
  C  C70  1  0.88589179  0.11389447  0.31854818  1.0
  C  C71  1  0.84180302  0.10088777  0.29721511  1.0
  C  C72  1  0.15559343  0.70595465  0.10881189  1.0
  C  C73  1  0.10889542  0.68687950  0.11765461  1.0
  C  C74  1  0.09527810  0.70857626  0.15922894  1.0
  C  C75  1  0.29197099  0.90397132  0.15971219  1.0
  C  C76  1  0.31355181  0.89068710  0.11796627  1.0
  C  C77  1  0.29451290  0.84406650  0.10902773  1.0
  C  C78  1  0.10049936  0.84211884  0.29699355  1.0
  C  C79  1  0.11387163  0.88599581  0.31839853  1.0
  C  C80  1  0.15802889  0.89891533  0.29706682  1.0
  C  C81  1  0.15559821  0.29427022  0.89060802  1.0
  C  C82  1  0.10874368  0.31318446  0.88187696  1.0
  C  C83  1  0.09522078  0.29154297  0.84027721  1.0
  C  C84  1  0.29209117  0.09595044  0.84018041  1.0
  C  C85  1  0.31369999  0.10933294  0.88185482  1.0
  C  C86  1  0.29473097  0.15608725  0.89060824  1.0
  C  C87  1  0.10071993  0.15789755  0.70266010  1.0
  C  C88  1  0.11412141  0.11391356  0.68139219  1.0
  C  C89  1  0.15823252  0.10090365  0.70279768  1.0
  C  C90  1  0.03178989  0.03104614  0.54928806  1.0
  C  C91  1  0.00040404  0.00001374  0.52547767  1.0
  C  C92  1  0.96904680  0.96901003  0.54947603  1.0
  C  C93  1  0.96883280  0.96870823  0.59750765  1.0
  C  C94  1  0.00047530  0.00006337  0.62104341  1.0
  C  C95  1  0.03206930  0.03141542  0.59731439  1.0
  C  C96  1  0.00030450  0.00001309  0.47464012  1.0
  C  C97  1  0.03166411  0.96893030  0.45071671  1.0
  C  C98  1  0.03174548  0.96853153  0.40268898  1.0
  C  C99  1  0.99996921  0.99989465  0.37908374  1.0
  C  C100  1  0.96838647  0.03134500  0.40273596  1.0
  C  C101  1  0.96880086  0.03106255  0.45075955  1.0
  C  C102  1  0.02800773  0.55255110  0.03221025  1.0
  C  C103  1  0.00025735  0.52700659  0.00019295  1.0
  C  C104  1  0.97244780  0.55266462  0.96815194  1.0
  C  C105  1  0.97186343  0.60399179  0.96799711  1.0
  C  C106  1  0.00011304  0.62930032  0.00013076  1.0
  C  C107  1  0.02843949  0.60389035  0.03229070  1.0
  C  C108  1  0.00020636  0.47274092  0.00013891  1.0
  C  C109  1  0.97230001  0.44712164  0.03207182  1.0
  C  C110  1  0.97151225  0.39579731  0.03195121  1.0
  C  C111  1  0.99964101  0.37046128  0.99965735  1.0
  C  C112  1  0.02809998  0.39583870  0.96763981  1.0
  C  C113  1  0.02787596  0.44717209  0.96799587  1.0
  C  C114  1  0.55278743  0.02761397  0.03245082  1.0
  C  C115  1  0.52726034  0.00004261  0.00029782  1.0
  C  C116  1  0.55300365  0.97248888  0.96819514  1.0
  C  C117  1  0.60439760  0.97195703  0.96817137  1.0
  C  C118  1  0.62967758  0.00007180  0.00042621  1.0
  C  C119  1  0.60417616  0.02819507  0.03260320  1.0
  C  C120  1  0.47293742  0.00004423  0.00020761  1.0
  C  C121  1  0.44733271  0.02765129  0.96797740  1.0
  C  C122  1  0.39593951  0.02817439  0.96777075  1.0
  C  C123  1  0.37051694  0.99997546  0.99996811  1.0
  C  C124  1  0.39588371  0.97181866  0.03228993  1.0
  C  C125  1  0.44727642  0.97241323  0.03231821  1.0
  C  C126  1  0.91868770  0.65560588  0.91042594  1.0
  C  C127  1  0.94296197  0.63056276  0.93629701  1.0
  C  C128  1  0.91830795  0.34413486  0.08933296  1.0
  C  C129  1  0.94254376  0.36923139  0.06353369  1.0
  C  C130  1  0.08129935  0.65569532  0.08965714  1.0
  C  C131  1  0.05723381  0.63043748  0.06394412  1.0
  C  C132  1  0.08099079  0.34418879  0.91000770  1.0
  C  C133  1  0.05684004  0.36929122  0.93586071  1.0
  C  C134  1  0.65585966  0.91888991  0.91052552  1.0
  C  C135  1  0.63101220  0.94319958  0.93646383  1.0
  C  C136  1  0.34459843  0.08143486  0.91004241  1.0
  C  C137  1  0.36946571  0.05704862  0.93597261  1.0
  C  C138  1  0.65540429  0.08141817  0.09013889  1.0
  C  C139  1  0.63058037  0.05705392  0.06430156  1.0
  C  C140  1  0.34447338  0.91856978  0.08986298  1.0
  C  C141  1  0.36935931  0.94294212  0.06399448  1.0
  C  C142  1  0.91316336  0.91318175  0.64929312  1.0
  C  C143  1  0.93766097  0.93768958  0.62319986  1.0
  C  C144  1  0.08722904  0.91281847  0.35089559  1.0
  C  C145  1  0.06285418  0.93739229  0.37703346  1.0
  C  C146  1  0.08751849  0.08709623  0.64894168  1.0
  C  C147  1  0.06316834  0.06253455  0.62285673  1.0
  C  C148  1  0.91265060  0.08702830  0.35100435  1.0
  C  C149  1  0.93713524  0.06245261  0.37711970  1.0
  N  N150  1  0.86848131  0.73796121  0.82601710  1.0
  N  N151  1  0.83110979  0.73627770  0.85725016  1.0
  N  N152  1  0.73610481  0.83119727  0.85719802  1.0
  N  N153  1  0.73790042  0.86861638  0.82601663  1.0
  N  N154  1  0.83048702  0.86603843  0.73474047  1.0
  N  N155  1  0.86588718  0.83048096  0.73465414  1.0
  N  N156  1  0.86816549  0.26197160  0.17381469  1.0
  N  N157  1  0.83085627  0.26360127  0.14252449  1.0
  N  N158  1  0.73575715  0.16909158  0.14290451  1.0
  N  N159  1  0.73753887  0.13186285  0.17428550  1.0
  N  N160  1  0.83010591  0.13441863  0.26548288  1.0
  N  N161  1  0.86558532  0.16977432  0.26547090  1.0
  N  N162  1  0.13104347  0.73838650  0.17363320  1.0
  N  N163  1  0.16840108  0.73675230  0.14238127  1.0
  N  N164  1  0.26378768  0.83101685  0.14268708  1.0
  N  N165  1  0.26220764  0.86811714  0.17409416  1.0
  N  N166  1  0.16957355  0.86550124  0.26527878  1.0
  N  N167  1  0.13393009  0.83031092  0.26522713  1.0
  N  N168  1  0.13117906  0.26189932  0.82575678  1.0
  N  N169  1  0.16857037  0.26360265  0.85694719  1.0
  N  N170  1  0.26402503  0.16912172  0.85690648  1.0
  N  N171  1  0.26238290  0.13187662  0.82565928  1.0
  N  N172  1  0.16974322  0.13438245  0.73449334  1.0
  N  N173  1  0.13410530  0.16969910  0.73441309  1.0
