# generated using pymatgen
data_ZnH8C19(NO3)2
_symmetry_space_group_name_H-M   'P 1'
_cell_length_a   5.56598259
_cell_length_b   16.75495046
_cell_length_c   26.15314250
_cell_angle_alpha   90.00000784
_cell_angle_beta   89.99989048
_cell_angle_gamma   98.50053166
_symmetry_Int_Tables_number   1
_chemical_formula_structural   ZnH8C19(NO3)2
_chemical_formula_sum   'Zn4 H32 C76 N8 O24'
_cell_volume   2412.19007946
_cell_formula_units_Z   4
loop_
 _symmetry_equiv_pos_site_id
 _symmetry_equiv_pos_as_xyz
  1  'x, y, z'
loop_
 _atom_site_type_symbol
 _atom_site_label
 _atom_site_symmetry_multiplicity
 _atom_site_fract_x
 _atom_site_fract_y
 _atom_site_fract_z
 _atom_site_occupancy
  Zn  Zn0  1  0.11925917  0.57882408  0.52069842  1.0
  Zn  Zn1  1  0.88074265  0.92117567  0.02069833  1.0
  Zn  Zn2  1  0.88074367  0.42117663  0.47930132  1.0
  Zn  Zn3  1  0.11925840  0.07882504  0.97930180  1.0
  H  H4  1  0.43445285  0.87837707  0.08611733  1.0
  H  H5  1  0.36170394  0.79946655  0.16750603  1.0
  H  H6  1  0.98470718  0.68377612  0.13048702  1.0
  H  H7  1  0.03292886  0.76792159  0.05011332  1.0
  H  H8  1  0.09925991  0.52694572  0.24573529  1.0
  H  H9  1  0.03455544  0.47351976  0.33525992  1.0
  H  H10  1  0.07918374  0.70525007  0.40788637  1.0
  H  H11  1  0.12548618  0.76279902  0.31899609  1.0
  H  H12  1  0.56554632  0.62162207  0.58611762  1.0
  H  H13  1  0.63829656  0.70053317  0.66750592  1.0
  H  H14  1  0.01529572  0.81622421  0.63048602  1.0
  H  H15  1  0.96707270  0.73207815  0.55011308  1.0
  H  H16  1  0.90074706  0.97305398  0.74573472  1.0
  H  H17  1  0.96544839  0.02647893  0.83525966  1.0
  H  H18  1  0.92081692  0.79475080  0.90788539  1.0
  H  H19  1  0.87451500  0.73720127  0.81899512  1.0
  H  H20  1  0.56554586  0.12162244  0.91388242  1.0
  H  H21  1  0.63829711  0.20053416  0.83249410  1.0
  H  H22  1  0.01529181  0.31622398  0.86951349  1.0
  H  H23  1  0.96706806  0.23207791  0.94988643  1.0
  H  H24  1  0.90073962  0.47305559  0.75426484  1.0
  H  H25  1  0.96544534  0.52648035  0.66473983  1.0
  H  H26  1  0.92081830  0.29474883  0.59211414  1.0
  H  H27  1  0.87451460  0.23720109  0.68100480  1.0
  H  H28  1  0.43445366  0.37837623  0.41388250  1.0
  H  H29  1  0.36170369  0.29946573  0.33249421  1.0
  H  H30  1  0.98470686  0.18377590  0.36951334  1.0
  H  H31  1  0.03293167  0.26792195  0.44988629  1.0
  H  H32  1  0.09925650  0.02694432  0.25426541  1.0
  H  H33  1  0.03455006  0.97351997  0.16474009  1.0
  H  H34  1  0.07918387  0.20524931  0.09211397  1.0
  H  H35  1  0.12548524  0.26279763  0.18100462  1.0
  C  C36  1  0.55110867  0.83439382  0.09707315  1.0
  C  C37  1  0.51137708  0.79069257  0.14223102  1.0
  C  C38  1  0.67247544  0.73758119  0.15491780  1.0
  C  C39  1  0.85865475  0.72568826  0.12139559  1.0
  C  C40  1  0.88585752  0.77194449  0.07709078  1.0
  C  C41  1  0.44382454  0.64172071  0.21337353  1.0
  C  C42  1  0.42247727  0.60670268  0.26520822  1.0
  C  C43  1  0.59560453  0.63363007  0.30371561  1.0
  C  C44  1  0.80080185  0.69148371  0.29172466  1.0
  C  C45  1  0.83784933  0.72478377  0.23971446  1.0
  C  C46  1  0.22742755  0.54758310  0.27614232  1.0
  C  C47  1  0.19276954  0.51755967  0.32602390  1.0
  C  C48  1  0.35059936  0.54622183  0.36533808  1.0
  C  C49  1  0.56356021  0.60230307  0.35474237  1.0
  C  C50  1  0.74677799  0.62867306  0.39176083  1.0
  C  C51  1  0.94150892  0.68717169  0.37887783  1.0
  C  C52  1  0.96928190  0.71854124  0.32926925  1.0
  C  C53  1  0.26459006  0.52339914  0.41859364  1.0
  C  C54  1  0.77141192  0.58749168  0.44233180  1.0
  C  C55  1  0.44889426  0.66560591  0.59707274  1.0
  C  C56  1  0.48862392  0.70930775  0.64223021  1.0
  C  C57  1  0.32752724  0.76241913  0.65491706  1.0
  C  C58  1  0.14134877  0.77431328  0.62139531  1.0
  C  C59  1  0.11414407  0.72805585  0.57708974  1.0
  C  C60  1  0.55617913  0.85827900  0.71337232  1.0
  C  C61  1  0.57752979  0.89329761  0.76520701  1.0
  C  C62  1  0.40439500  0.86637022  0.80371446  1.0
  C  C63  1  0.19919806  0.80851719  0.79172359  1.0
  C  C64  1  0.16215285  0.77521713  0.73971378  1.0
  C  C65  1  0.77257555  0.95241659  0.77614180  1.0
  C  C66  1  0.80723490  0.98244001  0.82602337  1.0
  C  C67  1  0.64940168  0.95377905  0.86533760  1.0
  C  C68  1  0.43644299  0.89769842  0.85474083  1.0
  C  C69  1  0.25321948  0.87132842  0.89176013  1.0
  C  C70  1  0.05849074  0.81283040  0.87887682  1.0
  C  C71  1  0.03071767  0.78145965  0.82926787  1.0
  C  C72  1  0.73541076  0.97660233  0.91859275  1.0
  C  C73  1  0.22858788  0.91250797  0.94233035  1.0
  C  C74  1  0.44889058  0.16560689  0.90292736  1.0
  C  C75  1  0.48862452  0.20930934  0.85776949  1.0
  C  C76  1  0.32752768  0.26242012  0.84508271  1.0
  C  C77  1  0.14134657  0.27431305  0.87860453  1.0
  C  C78  1  0.11414147  0.22805562  0.92291011  1.0
  C  C79  1  0.55617346  0.35828121  0.78662660  1.0
  C  C80  1  0.57752225  0.39329863  0.73479267  1.0
  C  C81  1  0.40439652  0.36637064  0.69628452  1.0
  C  C82  1  0.19919561  0.30851700  0.70827585  1.0
  C  C83  1  0.16214660  0.27521754  0.76028643  1.0
  C  C84  1  0.77257197  0.45241822  0.72385743  1.0
  C  C85  1  0.80722944  0.48244044  0.67397622  1.0
  C  C86  1  0.64939962  0.45377828  0.63466205  1.0
  C  C87  1  0.43644057  0.39769704  0.64525852  1.0
  C  C88  1  0.25322126  0.37132765  0.60823968  1.0
  C  C89  1  0.05849213  0.31282902  0.62112268  1.0
  C  C90  1  0.03071708  0.28145887  0.67073164  1.0
  C  C91  1  0.73541045  0.47660036  0.58140687  1.0
  C  C92  1  0.22858680  0.41250782  0.55766871  1.0
  C  C93  1  0.55110832  0.33439420  0.40292777  1.0
  C  C94  1  0.51137632  0.29069114  0.35776915  1.0
  C  C95  1  0.67247273  0.23757916  0.34508269  1.0
  C  C96  1  0.85865381  0.22568683  0.37860443  1.0
  C  C97  1  0.88585698  0.27194486  0.42290962  1.0
  C  C98  1  0.44382084  0.14171930  0.28662666  1.0
  C  C99  1  0.42247225  0.10670128  0.23479274  1.0
  C  C100  1  0.59560345  0.13362868  0.19628490  1.0
  C  C101  1  0.80080425  0.19148231  0.20827654  1.0
  C  C102  1  0.83784712  0.22478116  0.26028634  1.0
  C  C103  1  0.22742676  0.04758291  0.22385795  1.0
  C  C104  1  0.19276740  0.01755949  0.17397676  1.0
  C  C105  1  0.35059758  0.04622166  0.13466214  1.0
  C  C106  1  0.56355806  0.10230229  0.14525853  1.0
  C  C107  1  0.74678130  0.12867169  0.10824000  1.0
  C  C108  1  0.94150797  0.18716910  0.12112293  1.0
  C  C109  1  0.96928285  0.21853985  0.17073188  1.0
  C  C110  1  0.26458751  0.02340019  0.08140699  1.0
  C  C111  1  0.77141111  0.08749214  0.05766902  1.0
  N  N112  1  0.73870024  0.82655387  0.06574189  1.0
  N  N113  1  0.65271636  0.69849024  0.20385915  1.0
  N  N114  1  0.26130352  0.67344708  0.56574155  1.0
  N  N115  1  0.34728587  0.80151008  0.70385840  1.0
  N  N116  1  0.26130261  0.17344684  0.93425785  1.0
  N  N117  1  0.34728164  0.30151168  0.79614136  1.0
  N  N118  1  0.73869933  0.32655363  0.43425781  1.0
  N  N119  1  0.65271410  0.19848822  0.29614173  1.0
  O  O120  1  0.28733705  0.58028620  0.45149906  1.0
  O  O121  1  0.15664459  0.45223816  0.42501239  1.0
  O  O122  1  0.72718042  0.51048103  0.44153802  1.0
  O  O123  1  0.86091734  0.63096866  0.47925622  1.0
  O  O124  1  0.29250998  0.62374680  0.17929467  1.0
  O  O125  1  0.01400552  0.77455050  0.22728515  1.0
  O  O126  1  0.71266653  0.91971405  0.95149855  1.0
  O  O127  1  0.84335770  0.04776292  0.92501219  1.0
  O  O128  1  0.27281579  0.98951863  0.94153770  1.0
  O  O129  1  0.13908186  0.86903038  0.97925518  1.0
  O  O130  1  0.70749014  0.87625231  0.67929341  1.0
  O  O131  1  0.98599138  0.72545041  0.72728452  1.0
  O  O132  1  0.71266526  0.41971330  0.54850069  1.0
  O  O133  1  0.84336005  0.54776255  0.57498773  1.0
  O  O134  1  0.27281416  0.48951727  0.55846134  1.0
  O  O135  1  0.13908416  0.36902903  0.52074391  1.0
  O  O136  1  0.70748595  0.37625451  0.82070622  1.0
  O  O137  1  0.98598888  0.22545142  0.77271460  1.0
  O  O138  1  0.28733272  0.08028666  0.04850157  1.0
  O  O139  1  0.15664002  0.95223840  0.07498794  1.0
  O  O140  1  0.72718319  0.01048148  0.05846128  1.0
  O  O141  1  0.86091407  0.13097094  0.02074380  1.0
  O  O142  1  0.29250265  0.12374599  0.32070596  1.0
  O  O143  1  0.01400887  0.27454849  0.27271599  1.0
