# generated using pymatgen
data_ZnSiH20C24(N2F3)2
_symmetry_space_group_name_H-M   'P 1'
_cell_length_a   7.81692376
_cell_length_b   13.73696399
_cell_length_c   13.73701311
_cell_angle_alpha   89.68555673
_cell_angle_beta   85.96586495
_cell_angle_gamma   85.96665366
_symmetry_Int_Tables_number   1
_chemical_formula_structural   ZnSiH20C24(N2F3)2
_chemical_formula_sum   'Zn1 Si1 H20 C24 N4 F6'
_cell_volume   1467.79209900
_cell_formula_units_Z   1
loop_
 _symmetry_equiv_pos_site_id
 _symmetry_equiv_pos_as_xyz
  1  'x, y, z'
loop_
 _atom_site_type_symbol
 _atom_site_label
 _atom_site_symmetry_multiplicity
 _atom_site_fract_x
 _atom_site_fract_y
 _atom_site_fract_z
 _atom_site_occupancy
  Zn  Zn0  1  0.50000578  0.49999964  0.49999993  1.0
  Si  Si1  1  0.00000157  0.50000075  0.49999681  1.0
  H  H2  1  0.25489984  0.49994121  0.33479114  1.0
  H  H3  1  0.26447026  0.49996305  0.15512782  1.0
  H  H4  1  0.81823060  0.50003678  0.15328928  1.0
  H  H5  1  0.78641579  0.50004138  0.33454862  1.0
  H  H6  1  0.18173589  0.49996472  0.84669917  1.0
  H  H7  1  0.73549657  0.50003480  0.84487810  1.0
  H  H8  1  0.74510058  0.50005443  0.66521643  1.0
  H  H9  1  0.21358916  0.49996010  0.66544200  1.0
  H  H10  1  0.69702338  0.50001373  0.99948029  1.0
  H  H11  1  0.30293024  0.49998778  0.00051592  1.0
  H  H12  1  0.25490032  0.33479101  0.49994260  1.0
  H  H13  1  0.26447218  0.15512826  0.49996273  1.0
  H  H14  1  0.81822946  0.15329020  0.50003800  1.0
  H  H15  1  0.78641968  0.33454955  0.50004304  1.0
  H  H16  1  0.18173357  0.84669670  0.49996739  1.0
  H  H17  1  0.73549489  0.84487835  0.50003878  1.0
  H  H18  1  0.74509728  0.66521777  0.50005628  1.0
  H  H19  1  0.21358669  0.66543951  0.49996143  1.0
  H  H20  1  0.69702259  0.99947988  0.50001485  1.0
  H  H21  1  0.30292903  0.00051652  0.49999093  1.0
  C  C22  1  0.37751219  0.49997287  0.29199470  1.0
  C  C23  1  0.38449756  0.49998851  0.19085976  1.0
  C  C24  1  0.54411416  0.50003635  0.13674261  1.0
  C  C25  1  0.69040629  0.50006447  0.19061965  1.0
  C  C26  1  0.67394413  0.50002721  0.29204955  1.0
  C  C27  1  0.56417764  0.50001676  0.03045983  1.0
  C  C28  1  0.43577828  0.49998694  0.96953701  1.0
  C  C29  1  0.30957506  0.49993046  0.80937482  1.0
  C  C30  1  0.45585310  0.49996880  0.86325671  1.0
  C  C31  1  0.61548027  0.50001371  0.80914572  1.0
  C  C32  1  0.62247665  0.50002351  0.70800602  1.0
  C  C33  1  0.32604613  0.49996844  0.70794312  1.0
  C  C34  1  0.37751339  0.29199543  0.49997262  1.0
  C  C35  1  0.38449915  0.19085937  0.49998900  1.0
  C  C36  1  0.54411602  0.13674358  0.50003644  1.0
  C  C37  1  0.69040810  0.19062145  0.50006417  1.0
  C  C38  1  0.67394763  0.29205196  0.50002736  1.0
  C  C39  1  0.56417973  0.03046032  0.50001917  1.0
  C  C40  1  0.43577417  0.96953826  0.49998942  1.0
  C  C41  1  0.30957333  0.80937274  0.49993394  1.0
  C  C42  1  0.45584915  0.86325719  0.49997245  1.0
  C  C43  1  0.61547705  0.80914576  0.50001726  1.0
  C  C44  1  0.62247459  0.70800824  0.50002228  1.0
  C  C45  1  0.32604404  0.70794222  0.49997254  1.0
  N  N46  1  0.51974708  0.49999681  0.34246817  1.0
  N  N47  1  0.48025339  0.49999883  0.65753140  1.0
  N  N48  1  0.51974861  0.34246821  0.49999768  1.0
  N  N49  1  0.48025408  0.65753035  0.50000033  1.0
  F  F50  1  0.22565304  0.49997823  0.49997840  1.0
  F  F51  1  0.77434822  0.50002179  0.50001529  1.0
  F  F52  1  0.00000669  0.58778161  0.41221707  1.0
  F  F53  1  0.99999184  0.41221987  0.58777526  1.0
  F  F54  1  0.02157178  0.41226158  0.41225539  1.0
  F  F55  1  0.97843059  0.58773990  0.58773680  1.0
