# generated using pymatgen
data_Zr3H10C34(BrO)16
_symmetry_space_group_name_H-M   'P 1'
_cell_length_a   15.55709696
_cell_length_b   17.40980959
_cell_length_c   17.65033217
_cell_angle_alpha   86.53498109
_cell_angle_beta   89.98577516
_cell_angle_gamma   89.70450724
_symmetry_Int_Tables_number   1
_chemical_formula_structural   Zr3H10C34(BrO)16
_chemical_formula_sum   'Zr6 H20 C68 Br32 O32'
_cell_volume   4771.72074088
_cell_formula_units_Z   2
loop_
 _symmetry_equiv_pos_site_id
 _symmetry_equiv_pos_as_xyz
  1  'x, y, z'
loop_
 _atom_site_type_symbol
 _atom_site_label
 _atom_site_symmetry_multiplicity
 _atom_site_fract_x
 _atom_site_fract_y
 _atom_site_fract_z
 _atom_site_occupancy
  Zr  Zr0  1  0.01211952  0.14395402  0.99159474  1.0
  Zr  Zr1  1  0.01821004  0.99347049  0.86532110  1.0
  Zr  Zr2  1  0.00759812  0.00999053  0.14921620  1.0
  Zr  Zr3  1  0.00009108  0.85417051  0.02385933  1.0
  Zr  Zr4  1  0.84913669  0.00418826  0.00315284  1.0
  Zr  Zr5  1  0.17023274  0.99612130  0.01119201  1.0
  H  H6  1  0.14486258  0.11075525  0.88950113  1.0
  H  H7  1  0.88343215  0.88589416  0.89941971  1.0
  H  H8  1  0.12175186  0.88067760  0.13590007  1.0
  H  H9  1  0.88672327  0.12692414  0.10795766  1.0
  H  H10  1  0.06924771  0.88691198  0.77664614  1.0
  H  H11  1  0.00986089  0.82339212  0.86901958  1.0
  H  H12  1  0.94862287  0.75178068  0.12719424  1.0
  H  H13  1  0.05152326  0.93949586  0.28597853  1.0
  H  H14  1  0.95650658  0.11644134  0.24430487  1.0
  H  H15  1  0.96102594  0.28393166  0.05059629  1.0
  H  H16  1  0.96353593  0.23539940  0.87396520  1.0
  H  H17  1  0.02047845  0.14713042  0.82019896  1.0
  H  H18  1  0.95246209  0.92283201  0.27608282  1.0
  H  H19  1  0.06070062  0.27067697  0.06862440  1.0
  H  H20  1  0.08491217  0.10769514  0.76109518  1.0
  H  H21  1  0.05473526  0.75360345  0.91733301  1.0
  H  H22  1  0.66396787  0.50322364  0.96274510  1.0
  H  H23  1  0.35153842  0.49865571  0.97678167  1.0
  H  H24  1  0.35628227  0.01481693  0.50930284  1.0
  H  H25  1  0.67155116  0.99918922  0.50321117  1.0
  C  C26  1  0.80693133  0.18857499  0.97530170  1.0
  C  C27  1  0.23287441  0.99270570  0.83747097  1.0
  C  C28  1  0.81265863  0.00857656  0.82335071  1.0
  C  C29  1  0.21813950  0.18109176  0.00485837  1.0
  C  C30  1  0.22134113  0.00971446  0.18528466  1.0
  C  C31  1  0.79022033  0.82518439  0.02144092  1.0
  C  C32  1  0.20612681  0.81270081  0.01159178  1.0
  C  C33  1  0.79484302  0.00668093  0.17785094  1.0
  C  C34  1  0.55367701  0.43232307  0.94385420  1.0
  C  C35  1  0.46346411  0.43126512  0.95768369  1.0
  C  C36  1  0.42109791  0.50054625  0.96946113  1.0
  C  C37  1  0.46168896  0.57122352  0.97494194  1.0
  C  C38  1  0.55255750  0.57068498  0.97561084  1.0
  C  C39  1  0.59433212  0.50214159  0.96026175  1.0
  C  C40  1  0.47040136  0.00704994  0.57777184  1.0
  C  C41  1  0.56147946  0.00189633  0.57576169  1.0
  C  C42  1  0.60150991  0.00167710  0.50462443  1.0
  C  C43  1  0.55749632  0.00622569  0.43523700  1.0
  C  C44  1  0.46662149  0.01219521  0.43666911  1.0
  C  C45  1  0.42633947  0.01189652  0.50807434  1.0
  C  C46  1  0.28905541  0.07647050  0.29521300  1.0
  C  C47  1  0.29300502  0.01939674  0.24204183  1.0
  C  C48  1  0.36137501  0.96646682  0.24795178  1.0
  C  C49  1  0.40981575  0.95937959  0.31536855  1.0
  C  C50  1  0.41058273  0.01766875  0.36735624  1.0
  C  C51  1  0.35206804  0.07954832  0.35205603  1.0
  C  C52  1  0.65931839  0.93889133  0.34764116  1.0
  C  C53  1  0.61237234  0.00542127  0.36526660  1.0
  C  C54  1  0.62628399  0.07302022  0.31844158  1.0
  C  C55  1  0.68429307  0.07400970  0.25726990  1.0
  C  C56  1  0.72617807  0.00657849  0.23853709  1.0
  C  C57  1  0.71116173  0.93869530  0.28281579  1.0
  C  C58  1  0.36168000  0.06930109  0.66436747  1.0
  C  C59  1  0.41735583  0.00725438  0.64899378  1.0
  C  C60  1  0.41675738  0.94410164  0.70304514  1.0
  C  C61  1  0.36659256  0.94339941  0.76963297  1.0
  C  C62  1  0.30428045  0.00041869  0.77849589  1.0
  C  C63  1  0.30601343  0.06476197  0.72686775  1.0
  C  C64  1  0.63328726  0.06759689  0.68291958  1.0
  C  C65  1  0.62129708  0.00070899  0.64266192  1.0
  C  C66  1  0.67723680  0.93783735  0.66115227  1.0
  C  C67  1  0.73847705  0.94051729  0.71940325  1.0
  C  C68  1  0.74682312  0.00646001  0.76033310  1.0
  C  C69  1  0.69516303  0.07043191  0.74047637  1.0
  C  C70  1  0.31602161  0.71687886  0.06504213  1.0
  C  C71  1  0.27095681  0.74898240  0.00209074  1.0
  C  C72  1  0.28361917  0.71832171  0.93150188  1.0
  C  C73  1  0.34757554  0.66258510  0.92198164  1.0
  C  C74  1  0.40145227  0.63729771  0.98319756  1.0
  C  C75  1  0.38311665  0.66435683  0.05521555  1.0
  C  C76  1  0.66097336  0.76835426  0.95717232  1.0
  C  C77  1  0.72039617  0.76423304  0.01747925  1.0
  C  C78  1  0.72027528  0.69706185  0.06631809  1.0
  C  C79  1  0.66315455  0.63636419  0.05531026  1.0
  C  C80  1  0.60763704  0.63805252  0.99182651  1.0
  C  C81  1  0.61081387  0.70406047  0.94187711  1.0
  C  C82  1  0.27477064  0.29881363  0.93181072  1.0
  C  C83  1  0.28293196  0.24549007  0.99458029  1.0
  C  C84  1  0.35147065  0.25308160  0.04528575  1.0
  C  C85  1  0.40944261  0.31438381  0.03425362  1.0
  C  C86  1  0.40488857  0.36448404  0.96877173  1.0
  C  C87  1  0.33688065  0.35543432  0.91754558  1.0
  C  C88  1  0.65144586  0.23200252  0.95391474  1.0
  C  C89  1  0.74016506  0.24858015  0.95220079  1.0
  C  C90  1  0.76213292  0.32277539  0.91877607  1.0
  C  C91  1  0.69965240  0.37973500  0.90531449  1.0
  C  C92  1  0.61070406  0.36748907  0.92506613  1.0
  C  C93  1  0.59016827  0.28784375  0.92814260  1.0
  Br  Br94  1  0.35703825  0.16871130  0.40790105  1.0
  Br  Br95  1  0.20059046  0.15137828  0.28597689  1.0
  Br  Br96  1  0.46424459  0.86392642  0.33997866  1.0
  Br  Br97  1  0.39121485  0.90539860  0.16706114  1.0
  Br  Br98  1  0.76166325  0.84658943  0.25071097  1.0
  Br  Br99  1  0.66008051  0.84913223  0.41371977  1.0
  Br  Br100  1  0.71212131  0.16745017  0.20140830  1.0
  Br  Br101  1  0.57081858  0.16515683  0.34269573  1.0
  Br  Br102  1  0.23926534  0.15214835  0.75161418  1.0
  Br  Br103  1  0.35812257  0.15979566  0.59962502  1.0
  Br  Br104  1  0.38696439  0.86812739  0.84905076  1.0
  Br  Br105  1  0.47824171  0.85385908  0.68283889  1.0
  Br  Br106  1  0.71555964  0.16240786  0.78927507  1.0
  Br  Br107  1  0.56980465  0.15752477  0.65442429  1.0
  Br  Br108  1  0.81360092  0.85636236  0.74314036  1.0
  Br  Br109  1  0.67494485  0.84831872  0.60550880  1.0
  Br  Br110  1  0.44529506  0.62338087  0.14047359  1.0
  Br  Br111  1  0.27420129  0.73607713  0.16288069  1.0
  Br  Br112  1  0.35741997  0.61852015  0.82689569  1.0
  Br  Br113  1  0.20743007  0.74777861  0.85047185  1.0
  Br  Br114  1  0.55289647  0.70253242  0.84794887  1.0
  Br  Br115  1  0.64880756  0.85897941  0.89354966  1.0
  Br  Br116  1  0.66275240  0.54867066  0.12500801  1.0
  Br  Br117  1  0.79694727  0.68735323  0.15034828  1.0
  Br  Br118  1  0.33675144  0.41439167  0.82395816  1.0
  Br  Br119  1  0.17949283  0.29357899  0.86559947  1.0
  Br  Br120  1  0.49597903  0.32971301  0.10724609  1.0
  Br  Br121  1  0.36348526  0.18194263  0.12970143  1.0
  Br  Br122  1  0.49268023  0.25054800  0.87795483  1.0
  Br  Br123  1  0.60433179  0.13786781  0.99398299  1.0
  Br  Br124  1  0.72719575  0.46843800  0.84046326  1.0
  Br  Br125  1  0.87581319  0.34815855  0.88507236  1.0
  O  O126  1  0.88372304  0.21170296  0.98454302  1.0
  O  O127  1  0.78422166  0.11886099  0.98340834  1.0
  O  O128  1  0.15767761  0.98611331  0.81021607  1.0
  O  O129  1  0.25286446  0.99430430  0.90690453  1.0
  O  O130  1  0.89041493  0.01221420  0.80317893  1.0
  O  O131  1  0.78266429  0.00444724  0.89057205  1.0
  O  O132  1  0.14028142  0.20289588  0.01316211  1.0
  O  O133  1  0.24482714  0.11304325  0.00100141  1.0
  O  O134  1  0.01352082  0.20190744  0.88290150  1.0
  O  O135  1  0.00350483  0.24753399  0.07246418  1.0
  O  O136  1  0.02858123  0.10087058  0.78514761  1.0
  O  O137  1  0.01826775  0.89234436  0.80784597  1.0
  O  O138  1  0.94659677  0.05856280  0.94220016  1.0
  O  O139  1  0.10664131  0.07910949  0.92182345  1.0
  O  O140  1  0.14638973  0.00212622  0.21216925  1.0
  O  O141  1  0.24264965  0.00688650  0.11588899  1.0
  O  O142  1  0.86608113  0.79856518  0.02269559  1.0
  O  O143  1  0.76888938  0.89584432  0.01923822  1.0
  O  O144  1  0.12860400  0.79216440  0.01290321  1.0
  O  O145  1  0.23649622  0.87977330  0.01711862  1.0
  O  O146  1  0.87080890  0.00054094  0.20371603  1.0
  O  O147  1  0.77154750  0.01396944  0.10900628  1.0
  O  O148  1  0.00893120  0.91846171  0.25225366  1.0
  O  O149  1  0.00675329  0.09216642  0.22356458  1.0
  O  O150  1  0.00105081  0.77991487  0.11452408  1.0
  O  O151  1  0.00238656  0.78500457  0.91546920  1.0
  O  O152  1  0.09228951  0.91647635  0.10017170  1.0
  O  O153  1  0.93530978  0.94548911  0.07195611  1.0
  O  O154  1  0.07928948  0.06222851  0.06317481  1.0
  O  O155  1  0.91919849  0.91708672  0.93066717  1.0
  O  O156  1  0.92271200  0.09247333  0.08030793  1.0
  O  O157  1  0.07847891  0.93788720  0.95659382  1.0
