# generated using pymatgen
data_ZnH7C18I3(NO3)2
_symmetry_space_group_name_H-M   'P 1'
_cell_length_a   9.94711899
_cell_length_b   11.22219358
_cell_length_c   23.68674292
_cell_angle_alpha   88.41646791
_cell_angle_beta   89.10149191
_cell_angle_gamma   89.98029503
_symmetry_Int_Tables_number   1
_chemical_formula_structural   ZnH7C18I3(NO3)2
_chemical_formula_sum   'Zn2 H14 C36 I6 N4 O12'
_cell_volume   2642.78066625
_cell_formula_units_Z   2
loop_
 _symmetry_equiv_pos_site_id
 _symmetry_equiv_pos_as_xyz
  1  'x, y, z'
loop_
 _atom_site_type_symbol
 _atom_site_label
 _atom_site_symmetry_multiplicity
 _atom_site_fract_x
 _atom_site_fract_y
 _atom_site_fract_z
 _atom_site_occupancy
  Zn  Zn0  1  0.36410267  0.49344430  0.50007638  1.0
  Zn  Zn1  1  0.64296519  0.51300489  0.49676026  1.0
  H  H2  1  0.27998339  0.49414605  0.31960674  1.0
  H  H3  1  0.66849132  0.89208770  0.46011174  1.0
  H  H4  1  0.50442091  0.79371005  0.94617816  1.0
  H  H5  1  0.90155006  0.58950647  0.48606130  1.0
  H  H6  1  0.72227090  0.51313048  0.78411295  1.0
  H  H7  1  0.50489360  0.78613700  0.05325769  1.0
  H  H8  1  0.70994988  0.46427194  0.32153459  1.0
  H  H9  1  0.37060113  0.90184973  0.49801402  1.0
  H  H10  1  0.86599659  0.33005369  0.49447322  1.0
  H  H11  1  0.49989315  0.19415079  0.94453757  1.0
  H  H12  1  0.49775676  0.18651828  0.05158520  1.0
  H  H13  1  0.72910361  0.52049224  0.67790985  1.0
  H  H14  1  0.29841925  0.49981395  0.67619155  1.0
  H  H15  1  0.28608284  0.49064795  0.21354838  1.0
  C  C16  1  0.47888019  0.73266338  0.48931030  1.0
  C  C17  1  0.50396880  0.70482713  0.02912693  1.0
  C  C18  1  0.50389860  0.70901627  0.96982887  1.0
  C  C19  1  0.50353221  0.60438482  0.93979953  1.0
  C  C20  1  0.50245987  0.49226034  0.96878923  1.0
  C  C21  1  0.50214757  0.38427561  0.93919661  1.0
  C  C22  1  0.50032349  0.27545776  0.96865088  1.0
  C  C23  1  0.49917708  0.27125452  0.02796879  1.0
  C  C24  1  0.50451696  0.61093386  0.87719424  1.0
  C  C25  1  0.50455777  0.38657696  0.87657515  1.0
  C  C26  1  0.62996445  0.51133465  0.75993390  1.0
  C  C27  1  0.51521431  0.51120060  0.60787478  1.0
  C  C28  1  0.63385226  0.51512478  0.70117260  1.0
  C  C29  1  0.51385329  0.51063377  0.67122790  1.0
  C  C30  1  0.39039689  0.50381959  0.70034744  1.0
  C  C31  1  0.38693789  0.50196325  0.75914641  1.0
  C  C32  1  0.50710478  0.50483946  0.78913448  1.0
  C  C33  1  0.37827539  0.48442000  0.23773282  1.0
  C  C34  1  0.37482458  0.48625219  0.29640365  1.0
  C  C35  1  0.49491910  0.47954044  0.32635762  1.0
  C  C36  1  0.61796097  0.46961076  0.29731493  1.0
  C  C37  1  0.62094062  0.46838643  0.23851626  1.0
  C  C38  1  0.52507710  0.27077616  0.50850198  1.0
  C  C39  1  0.50076888  0.47638411  0.20857058  1.0
  C  C40  1  0.57019993  0.06372990  0.47301265  1.0
  C  C41  1  0.53257353  0.13702428  0.51413515  1.0
  C  C42  1  0.57438851  0.93431621  0.47325923  1.0
  C  C43  1  0.46851282  0.86444328  0.48721504  1.0
  C  C44  1  0.06668013  0.41637575  0.48660084  1.0
  C  C45  1  0.91781460  0.41631457  0.49115470  1.0
  C  C46  1  0.49406976  0.48525509  0.38954272  1.0
  C  C47  1  0.49879454  0.36933855  0.12064450  1.0
  C  C48  1  0.50373773  0.59373272  0.12111997  1.0
  C  C49  1  0.50305320  0.59597789  0.05856097  1.0
  C  C50  1  0.50184392  0.48796412  0.02901335  1.0
  C  C51  1  0.50011473  0.37584098  0.05802942  1.0
  I  I52  1  0.80701943  0.45668360  0.19568607  1.0
  I  I53  1  0.63379603  0.14152766  0.39366242  1.0
  I  I54  1  0.47832545  0.07679327  0.59660080  1.0
  I  I55  1  0.12645162  0.29878838  0.42310488  1.0
  I  I56  1  0.08856917  0.58879392  0.57798922  1.0
  I  I57  1  0.20003894  0.49442154  0.80186306  1.0
  N  N58  1  0.50081970  0.47963218  0.14784416  1.0
  N  N59  1  0.50646060  0.50070283  0.84989158  1.0
  N  N60  1  0.15311929  0.47688753  0.51298192  1.0
  N  N61  1  0.84747947  0.51158658  0.48909265  1.0
  O  O62  1  0.36997727  0.67590874  0.50076257  1.0
  O  O63  1  0.50638796  0.68408709  0.14911975  1.0
  O  O64  1  0.50425015  0.70525160  0.84969575  1.0
  O  O65  1  0.50544090  0.29621804  0.84855421  1.0
  O  O66  1  0.59403463  0.68593749  0.48032897  1.0
  O  O67  1  0.40476586  0.48578613  0.58447373  1.0
  O  O68  1  0.62568559  0.53594910  0.58237562  1.0
  O  O69  1  0.40895547  0.31281994  0.49925793  1.0
  O  O70  1  0.63336099  0.32826160  0.51430268  1.0
  O  O71  1  0.38040359  0.50059911  0.41399570  1.0
  O  O72  1  0.60664456  0.47488854  0.41384233  1.0
  O  O73  1  0.49580581  0.27517633  0.14825527  1.0
