# generated using pymatgen
data_ZnH4C13N(ClO2)2
_symmetry_space_group_name_H-M   'P 1'
_cell_length_a   11.11870504
_cell_length_b   14.83660598
_cell_length_c   16.04909128
_cell_angle_alpha   89.74826934
_cell_angle_beta   91.76424930
_cell_angle_gamma   89.96035326
_symmetry_Int_Tables_number   1
_chemical_formula_structural   ZnH4C13N(ClO2)2
_chemical_formula_sum   'Zn2 H8 C26 N2 Cl4 O8'
_cell_volume   2646.23835367
_cell_formula_units_Z   2
loop_
 _symmetry_equiv_pos_site_id
 _symmetry_equiv_pos_as_xyz
  1  'x, y, z'
loop_
 _atom_site_type_symbol
 _atom_site_label
 _atom_site_symmetry_multiplicity
 _atom_site_fract_x
 _atom_site_fract_y
 _atom_site_fract_z
 _atom_site_occupancy
  Zn  Zn0  1  0.49994853  0.59025780  0.49971761  1.0
  Zn  Zn1  1  0.49999789  0.40294642  0.50022364  1.0
  H  H2  1  0.88655563  0.37879050  0.48335066  1.0
  H  H3  1  0.11331543  0.37844515  0.51612518  1.0
  H  H4  1  0.49327075  0.64815340  0.92131310  1.0
  H  H5  1  0.52409798  0.64835468  0.07578645  1.0
  H  H6  1  0.50632487  0.35820833  0.07858669  1.0
  H  H7  1  0.47682409  0.35792007  0.92405452  1.0
  H  H8  1  0.37973392  0.07979743  0.60390808  1.0
  H  H9  1  0.62031454  0.08110218  0.39612235  1.0
  C  C10  1  0.46383190  0.49770427  0.65859042  1.0
  C  C11  1  0.50002012  0.18525113  0.50024835  1.0
  C  C12  1  0.27043555  0.49687120  0.46982084  1.0
  C  C13  1  0.72949953  0.49671185  0.53010829  1.0
  C  C14  1  0.93529987  0.43942136  0.50327865  1.0
  C  C15  1  0.06461071  0.43937248  0.49630636  1.0
  C  C16  1  0.86452642  0.50382471  0.53566421  1.0
  C  C17  1  0.13540390  0.50416341  0.46421348  1.0
  C  C18  1  0.51350458  0.58506692  0.04214726  1.0
  C  C19  1  0.49613567  0.58494771  0.95616618  1.0
  C  C20  1  0.51720057  0.50327547  0.08749487  1.0
  C  C21  1  0.53603371  0.49815563  0.34132517  1.0
  C  C22  1  0.48301622  0.50301073  0.91238509  1.0
  C  C23  1  0.50362369  0.42136220  0.04369190  1.0
  C  C24  1  0.48695808  0.42121248  0.95774662  1.0
  C  C25  1  0.53092844  0.50273856  0.17549626  1.0
  C  C26  1  0.46913689  0.50219555  0.82440351  1.0
  C  C27  1  0.46117740  0.49971393  0.74851842  1.0
  C  C28  1  0.53880933  0.50037940  0.25140539  1.0
  C  C29  1  0.43200724  0.94936026  0.55843091  1.0
  C  C30  1  0.56798160  0.95013060  0.44115056  1.0
  C  C31  1  0.50001688  0.90200244  0.49970892  1.0
  C  C32  1  0.56816987  0.04390957  0.44111577  1.0
  C  C33  1  0.43185608  0.04313630  0.55879747  1.0
  C  C34  1  0.50001228  0.08934735  0.50004262  1.0
  C  C35  1  0.49994238  0.80661089  0.49951636  1.0
  N  N36  1  0.50006360  0.26343461  0.50040424  1.0
  N  N37  1  0.49989546  0.72845415  0.49945198  1.0
  Cl  Cl38  1  0.92126175  0.59878883  0.58352241  1.0
  Cl  Cl39  1  0.07866445  0.59978237  0.41668181  1.0
  Cl  Cl40  1  0.34991685  0.89076416  0.62881137  1.0
  Cl  Cl41  1  0.65011998  0.89239088  0.37060506  1.0
  O  O42  1  0.44375624  0.57178936  0.62025990  1.0
  O  O43  1  0.55623720  0.57206319  0.37927782  1.0
  O  O44  1  0.48856325  0.42171513  0.62611572  1.0
  O  O45  1  0.51112411  0.42212080  0.37420104  1.0
  O  O46  1  0.32883174  0.56892681  0.45685409  1.0
  O  O47  1  0.67116596  0.56881241  0.54270995  1.0
  O  O48  1  0.31474314  0.42016677  0.48923940  1.0
  O  O49  1  0.68516877  0.42014486  0.51102287  1.0
