# generated using pymatgen
data_Zn2H29C41N9O2
_symmetry_space_group_name_H-M   'P 1'
_cell_length_a   19.65772791
_cell_length_b   20.63360979
_cell_length_c   21.07663091
_cell_angle_alpha   106.49463270
_cell_angle_beta   107.01743165
_cell_angle_gamma   112.43304236
_symmetry_Int_Tables_number   1
_chemical_formula_structural   Zn2H29C41N9O2
_chemical_formula_sum   'Zn4 H58 C82 N18 O4'
_cell_volume   6756.84391219
_cell_formula_units_Z   2
loop_
 _symmetry_equiv_pos_site_id
 _symmetry_equiv_pos_as_xyz
  1  'x, y, z'
loop_
 _atom_site_type_symbol
 _atom_site_label
 _atom_site_symmetry_multiplicity
 _atom_site_fract_x
 _atom_site_fract_y
 _atom_site_fract_z
 _atom_site_occupancy
  Zn  Zn0  1  0.41386125  0.38654428  0.49285187  1.0
  Zn  Zn1  1  0.63247341  0.63060193  0.50793808  1.0
  Zn  Zn2  1  0.42120497  0.50283909  0.40771967  1.0
  Zn  Zn3  1  0.62335052  0.54312775  0.61978115  1.0
  H  H4  1  0.26746750  0.22201713  0.34055806  1.0
  H  H5  1  0.73971779  0.56283649  0.44714131  1.0
  H  H6  1  0.44449670  0.37476771  0.30844892  1.0
  H  H7  1  0.59207069  0.28844297  0.58913570  1.0
  H  H8  1  0.65075715  0.58167286  0.33919445  1.0
  H  H9  1  0.44260164  0.26945198  0.37966013  1.0
  H  H10  1  0.67011864  0.41008589  0.54980875  1.0
  H  H11  1  0.22814627  0.39151365  0.27679827  1.0
  H  H12  1  0.36927144  0.38785170  0.62669938  1.0
  H  H13  1  0.63019760  0.78402467  0.53369525  1.0
  H  H14  1  0.31680384  0.56745932  0.46077051  1.0
  H  H15  1  0.64048425  0.67214506  0.74729895  1.0
  H  H16  1  0.74817857  0.82433522  0.65625770  1.0
  H  H17  1  0.22385000  0.34518550  0.47073167  1.0
  H  H18  1  0.63259123  0.52602251  0.77093278  1.0
  H  H19  1  0.44924437  0.97093458  0.28476563  1.0
  H  H20  1  0.57942632  0.93824082  0.31657595  1.0
  H  H21  1  0.39647285  0.90312018  0.37393787  1.0
  H  H22  1  0.50019947  0.05347150  0.49931022  1.0
  H  H23  1  0.63056477  0.02009139  0.53087386  1.0
  H  H24  1  0.68290932  0.08777448  0.44154949  1.0
  H  H25  1  0.85773493  0.28900724  0.42524174  1.0
  H  H26  1  0.89767591  0.29370973  0.30705147  1.0
  H  H27  1  0.02227709  0.41198165  0.52918969  1.0
  H  H28  1  0.97129892  0.52364071  0.52445973  1.0
  H  H29  1  0.01009283  0.52770292  0.40501905  1.0
  H  H30  1  0.59735230  0.53029729  0.87230940  1.0
  H  H31  1  0.41291828  0.33844108  0.16964869  1.0
  H  H32  1  0.67771758  0.47748827  0.26257505  1.0
  H  H33  1  0.59040637  0.39540839  0.01131216  1.0
  H  H34  1  0.35564048  0.28012310  0.80766476  1.0
  H  H35  1  0.40208533  0.29665553  0.04380605  1.0
  H  H36  1  0.36675828  0.31935819  0.70936004  1.0
  H  H37  1  0.40259910  0.32753783  0.94991750  1.0
  H  H38  1  0.66675719  0.43721385  0.13648146  1.0
  H  H39  1  0.12051680  0.13482961  0.27686856  1.0
  H  H40  1  0.71901832  0.77510986  0.86066591  1.0
  H  H41  1  0.75789664  0.93388469  0.76138335  1.0
  H  H42  1  0.90870127  0.09050888  0.01559748  1.0
  H  H43  1  0.94739323  0.20703987  0.12159517  1.0
  H  H44  1  0.78117975  0.88441538  0.98183490  1.0
  H  H45  1  0.09337091  0.30474216  0.20735757  1.0
  H  H46  1  0.97422814  0.03841185  0.19277043  1.0
  H  H47  1  0.82247239  0.04461437  0.88448605  1.0
  H  H48  1  0.21689725  0.62039111  0.25396744  1.0
  H  H49  1  0.18524131  0.55478079  0.29250225  1.0
  H  H50  1  0.18604615  0.64463138  0.32432279  1.0
  H  H51  1  0.30906560  0.65358340  0.41620140  1.0
  H  H52  1  0.34052138  0.72040010  0.37990618  1.0
  H  H53  1  0.36097442  0.63048751  0.29118181  1.0
  H  H54  1  0.32372886  0.55787413  0.32075194  1.0
  H  H55  1  0.67202574  0.94212767  0.13054677  1.0
  H  H56  1  0.75404638  0.94607533  0.19868962  1.0
  H  H57  1  0.72157208  0.01472250  0.22383701  1.0
  H  H58  1  0.85280217  0.07867567  0.21418891  1.0
  H  H59  1  0.77154313  0.07448226  0.14619113  1.0
  H  H60  1  0.75103682  0.95323148  0.05169699  1.0
  H  H61  1  0.83262582  0.95749897  0.11978491  1.0
  C  C62  1  0.27158318  0.27270464  0.33204557  1.0
  C  C63  1  0.71845129  0.53453085  0.47918657  1.0
  C  C64  1  0.49573905  0.43251352  0.32681804  1.0
  C  C65  1  0.55318220  0.29439988  0.54507988  1.0
  C  C66  1  0.60124953  0.53850935  0.34335836  1.0
  C  C67  1  0.47694012  0.28306202  0.43693770  1.0
  C  C68  1  0.68326540  0.45541354  0.53122654  1.0
  C  C69  1  0.25132909  0.35869591  0.29916251  1.0
  C  C70  1  0.20845362  0.28181604  0.29006129  1.0
  C  C71  1  0.71980709  0.46821454  0.48451441  1.0
  C  C72  1  0.54929534  0.45742111  0.29612045  1.0
  C  C73  1  0.52491402  0.25379519  0.46719627  1.0
  C  C74  1  0.43605142  0.42408845  0.65236909  1.0
  C  C75  1  0.56942294  0.73521142  0.49195127  1.0
  C  C76  1  0.30770651  0.51475788  0.46703755  1.0
  C  C77  1  0.66408334  0.69923050  0.71534786  1.0
  C  C78  1  0.71797813  0.77620169  0.66816190  1.0
  C  C79  1  0.26037312  0.40094797  0.47209402  1.0
  C  C80  1  0.57011754  0.49585494  0.72680397  1.0
  C  C81  1  0.44181886  0.65656394  0.39940136  1.0
  C  C82  1  0.49492592  0.44840493  0.72426791  1.0
  C  C83  1  0.50813198  0.73516477  0.43685326  1.0
  C  C84  1  0.23565558  0.45340037  0.45810657  1.0
  C  C85  1  0.70522951  0.77851894  0.73117465  1.0
  C  C86  1  0.56182467  0.96428644  0.35726662  1.0
  C  C87  1  0.48920207  0.98138800  0.33957947  1.0
  C  C88  1  0.53716195  0.19229913  0.43406509  1.0
  C  C89  1  0.51393347  0.79910328  0.42231154  1.0
  C  C90  1  0.61918166  0.04649785  0.42670702  1.0
  C  C91  1  0.54625977  0.06493906  0.40933716  1.0
  C  C92  1  0.59037625  0.01025952  0.47643414  1.0
  C  C93  1  0.53246783  0.92635473  0.40715538  1.0
  C  C94  1  0.51742624  0.02640659  0.45886948  1.0
  C  C95  1  0.46003081  0.94510703  0.38911868  1.0
  C  C96  1  0.54758103  0.13619397  0.41727578  1.0
  C  C97  1  0.52351026  0.85643275  0.41147196  1.0
  C  C98  1  0.91473084  0.34450900  0.35612525  1.0
  C  C99  1  0.89314833  0.34241361  0.42177488  1.0
  C  C100  1  0.75779370  0.43157095  0.45405468  1.0
  C  C101  1  0.15552346  0.44156739  0.43759744  1.0
  C  C102  1  0.88895170  0.40644675  0.35413504  1.0
  C  C103  1  0.86529970  0.40477393  0.42060992  1.0
  C  C104  1  0.97752606  0.47548000  0.41131923  1.0
  C  C105  1  0.00633943  0.41393087  0.41421486  1.0
  C  C106  1  0.95700564  0.47293768  0.47691741  1.0
  C  C107  1  0.98273889  0.41062996  0.47945165  1.0
  C  C108  1  0.79905010  0.40999655  0.43032890  1.0
  C  C109  1  0.08376541  0.42489203  0.41925394  1.0
  C  C110  1  0.48394652  0.42688781  0.78221307  1.0
  C  C111  1  0.54442288  0.47429740  0.85628545  1.0
  C  C112  1  0.53624597  0.45208839  0.91115464  1.0
  C  C113  1  0.47000366  0.38080831  0.89625930  1.0
  C  C114  1  0.40847532  0.33552142  0.82190575  1.0
  C  C115  1  0.41483566  0.35758653  0.76647676  1.0
  C  C116  1  0.46275792  0.33667476  0.09154478  1.0
  C  C117  1  0.46886371  0.35975126  0.16248627  1.0
  C  C118  1  0.61697929  0.43873242  0.21473941  1.0
  C  C119  1  0.61088084  0.41524807  0.14367178  1.0
  C  C120  1  0.53329620  0.36896515  0.08059501  1.0
  C  C121  1  0.46415792  0.35546754  0.95329100  1.0
  C  C122  1  0.53023666  0.37016700  0.01124332  1.0
  C  C123  1  0.54555648  0.41596337  0.22513521  1.0
  C  C124  1  0.11993058  0.22651224  0.24628915  1.0
  C  C125  1  0.08306749  0.15165565  0.24335967  1.0
  C  C126  1  0.99998807  0.09708504  0.19601799  1.0
  C  C127  1  0.95059775  0.11423846  0.14805962  1.0
  C  C128  1  0.98551908  0.19105960  0.15552403  1.0
  C  C129  1  0.06810944  0.24600599  0.20385160  1.0
  C  C130  1  0.77380648  0.89606497  0.93374618  1.0
  C  C131  1  0.73893879  0.83381149  0.86457703  1.0
  C  C132  1  0.76223825  0.92240420  0.80947709  1.0
  C  C133  1  0.79804489  0.98499036  0.87901263  1.0
  C  C134  1  0.80656950  0.97404321  0.94348247  1.0
  C  C135  1  0.87029193  0.04906292  0.08521787  1.0
  C  C136  1  0.86096938  0.04155864  0.01651456  1.0
  C  C137  1  0.73390012  0.84521331  0.80090922  1.0
  C  C138  1  0.35715485  0.62181149  0.33956077  1.0
  C  C139  1  0.30815444  0.65739647  0.36487379  1.0
  C  C140  1  0.21924892  0.61715400  0.30571597  1.0
  C  C141  1  0.80994200  0.99405019  0.10217604  1.0
  C  C142  1  0.79400659  0.03785576  0.16340471  1.0
  C  C143  1  0.73207047  0.98225717  0.18004919  1.0
  N  N144  1  0.34592545  0.33889981  0.36429404  1.0
  N  N145  1  0.68472475  0.55977048  0.51980253  1.0
  N  N146  1  0.51402852  0.49418790  0.38726345  1.0
  N  N147  1  0.52482225  0.34305215  0.56057171  1.0
  N  N148  1  0.57924208  0.56011717  0.39676057  1.0
  N  N149  1  0.47747708  0.33568922  0.49360233  1.0
  N  N150  1  0.66318389  0.51097949  0.55199897  1.0
  N  N151  1  0.33229181  0.39157432  0.34289458  1.0
  N  N152  1  0.47306326  0.45393055  0.61478713  1.0
  N  N153  1  0.54310684  0.66266397  0.48742815  1.0
  N  N154  1  0.37017545  0.49959768  0.48405811  1.0
  N  N155  1  0.65501366  0.65407099  0.64948534  1.0
  N  N156  1  0.68876952  0.70176520  0.62001261  1.0
  N  N157  1  0.33978051  0.42943796  0.48726861  1.0
  N  N158  1  0.55550009  0.49776246  0.66104947  1.0
  N  N159  1  0.46486667  0.61471549  0.43022991  1.0
  N  N160  1  0.83488430  0.40507330  0.28848747  1.0
  N  N161  1  0.59838431  0.51208404  0.98784796  1.0
  O  O162  1  0.79257932  0.34279290  0.23030870  1.0
  O  O163  1  0.83313589  0.46652437  0.29708753  1.0
  O  O164  1  0.67215031  0.53801367  0.00181730  1.0
  O  O165  1  0.57319718  0.53522353  0.03183341  1.0
