# generated using pymatgen
data_ZnH21C30NO6
_symmetry_space_group_name_H-M   'P 1'
_cell_length_a   14.66912445
_cell_length_b   15.19412964
_cell_length_c   17.10789202
_cell_angle_alpha   90.03231908
_cell_angle_beta   101.30945705
_cell_angle_gamma   99.19521984
_symmetry_Int_Tables_number   1
_chemical_formula_structural   ZnH21C30NO6
_chemical_formula_sum   'Zn2 H42 C60 N2 O12'
_cell_volume   3688.99068430
_cell_formula_units_Z   2
loop_
 _symmetry_equiv_pos_site_id
 _symmetry_equiv_pos_as_xyz
  1  'x, y, z'
loop_
 _atom_site_type_symbol
 _atom_site_label
 _atom_site_symmetry_multiplicity
 _atom_site_fract_x
 _atom_site_fract_y
 _atom_site_fract_z
 _atom_site_occupancy
  Zn  Zn0  1  0.59701158  0.48605403  0.52804017  1.0
  Zn  Zn1  1  0.40887066  0.52194643  0.48481384  1.0
  H  H2  1  0.35410133  0.43969899  0.24049053  1.0
  H  H3  1  0.60186102  0.41099184  0.76381782  1.0
  H  H4  1  0.76977005  0.53488636  0.47519387  1.0
  H  H5  1  0.23526710  0.47109842  0.53473976  1.0
  H  H6  1  0.68607860  0.34965816  0.63320607  1.0
  H  H7  1  0.32015198  0.65834077  0.37846631  1.0
  H  H8  1  0.16143591  0.70381775  0.34405435  1.0
  H  H9  1  0.84731978  0.30631966  0.66879546  1.0
  H  H10  1  0.86650787  0.59580194  0.41995973  1.0
  H  H11  1  0.14129231  0.41773861  0.59278222  1.0
  H  H12  1  0.33959515  0.51017338  0.71971769  1.0
  H  H13  1  0.64643404  0.41437112  0.29453607  1.0
  H  H14  1  0.36607102  0.41530931  0.98109167  1.0
  H  H15  1  0.56204653  0.35888465  0.01836668  1.0
  H  H16  1  0.63866467  0.37085854  0.15200946  1.0
  H  H17  1  0.31329887  0.46379491  0.85486823  1.0
  H  H18  1  0.57604958  0.36122718  0.89699083  1.0
  H  H19  1  0.34374504  0.39494795  0.09887736  1.0
  H  H20  1  0.76370691  0.07193172  0.45308726  1.0
  H  H21  1  0.26194214  0.95366904  0.32250549  1.0
  H  H22  1  0.53761161  0.22715481  0.47865347  1.0
  H  H23  1  0.46851688  0.78759317  0.43775760  1.0
  H  H24  1  0.24577672  0.24812527  0.41930050  1.0
  H  H25  1  0.75752399  0.76107074  0.51480536  1.0
  H  H26  1  0.80694099  0.92328911  0.49358021  1.0
  H  H27  1  0.20791798  0.09236004  0.35901577  1.0
  H  H28  1  0.60433996  0.22646619  0.37405076  1.0
  H  H29  1  0.43733999  0.81147050  0.30609509  1.0
  H  H30  1  0.90136368  0.73382844  0.25588163  1.0
  H  H31  1  0.85775829  0.62820582  0.29099383  1.0
  H  H32  1  0.02575274  0.66621044  0.20628593  1.0
  H  H33  1  0.98167499  0.56104870  0.24002993  1.0
  H  H34  1  0.82527060  0.56085666  0.14469875  1.0
  H  H35  1  0.91990287  0.57182658  0.09287806  1.0
  H  H36  1  0.86966561  0.66666667  0.11102078  1.0
  H  H37  1  0.10648119  0.28105192  0.75899577  1.0
  H  H38  1  0.15715596  0.37519747  0.71140928  1.0
  H  H39  1  0.09835231  0.18413835  0.63948540  1.0
  H  H40  1  0.15110754  0.27497571  0.59078909  1.0
  H  H41  1  0.29678300  0.29321816  0.70114438  1.0
  H  H42  1  0.27308950  0.18539156  0.65462435  1.0
  H  H43  1  0.24421737  0.20062925  0.74932657  1.0
  C  C44  1  0.57675902  0.67048574  0.49371923  1.0
  C  C45  1  0.41974983  0.33726860  0.48806076  1.0
  C  C46  1  0.60931950  0.76585894  0.47552663  1.0
  C  C47  1  0.39478406  0.24460051  0.45160366  1.0
  C  C48  1  0.73274740  0.89293430  0.47908769  1.0
  C  C49  1  0.28046088  0.12263020  0.38414109  1.0
  C  C50  1  0.70588251  0.80338915  0.49103402  1.0
  C  C51  1  0.30066125  0.20793053  0.41758762  1.0
  C  C52  1  0.54211087  0.81802844  0.44451098  1.0
  C  C53  1  0.46709004  0.19661440  0.44885405  1.0
  C  C54  1  0.56730756  0.90878437  0.42880775  1.0
  C  C55  1  0.44940577  0.11052113  0.41295962  1.0
  C  C56  1  0.66469581  0.94804119  0.45046305  1.0
  C  C57  1  0.35314458  0.07158220  0.38286868  1.0
  C  C58  1  0.49778684  0.96463916  0.39990601  1.0
  C  C59  1  0.52331626  0.05822367  0.41226580  1.0
  C  C60  1  0.62213482  0.09622549  0.42752036  1.0
  C  C61  1  0.40209242  0.92887113  0.36221153  1.0
  C  C62  1  0.68964754  0.04145587  0.44419990  1.0
  C  C63  1  0.33306454  0.98218688  0.35319612  1.0
  C  C64  1  0.17419716  0.65172173  0.38645567  1.0
  C  C65  1  0.83299133  0.35762287  0.62589673  1.0
  C  C66  1  0.50809120  0.46729726  0.35833033  1.0
  C  C67  1  0.49098535  0.49524952  0.65468169  1.0
  C  C68  1  0.26213728  0.62738611  0.40533243  1.0
  C  C69  1  0.74451332  0.38079172  0.60673834  1.0
  C  C70  1  0.21395786  0.52215719  0.49364415  1.0
  C  C71  1  0.79170436  0.48512814  0.51749108  1.0
  C  C72  1  0.12153786  0.54144149  0.47886322  1.0
  C  C73  1  0.88461543  0.46717482  0.53272293  1.0
  C  C74  1  0.10110353  0.60809204  0.42223671  1.0
  C  C75  1  0.90576732  0.40157555  0.59006796  1.0
  C  C76  1  0.04911613  0.49470953  0.51686911  1.0
  C  C77  1  0.95659950  0.51433779  0.49434245  1.0
  C  C78  1  0.93748234  0.58012021  0.43677230  1.0
  C  C79  1  0.06949222  0.43057144  0.57567231  1.0
  C  C80  1  0.00679040  0.62653230  0.40210828  1.0
  C  C81  1  0.00086863  0.38441271  0.61130861  1.0
  C  C82  1  0.50167101  0.43320223  0.27504836  1.0
  C  C83  1  0.47305798  0.46473144  0.73424096  1.0
  C  C84  1  0.41584392  0.42469242  0.21985725  1.0
  C  C85  1  0.53857661  0.42146118  0.78449872  1.0
  C  C86  1  0.41082610  0.39982507  0.14091880  1.0
  C  C87  1  0.52362359  0.39401793  0.85893146  1.0
  C  C88  1  0.49196663  0.38371842  0.11408815  1.0
  C  C89  1  0.44325033  0.41059671  0.88669867  1.0
  C  C90  1  0.57590839  0.38564895  0.17140402  1.0
  C  C91  1  0.37613317  0.45092746  0.83442936  1.0
  C  C92  1  0.58092743  0.41038248  0.25063695  1.0
  C  C93  1  0.39061665  0.47743352  0.75942914  1.0
  C  C94  1  0.49580761  0.37511027  0.03007085  1.0
  C  C95  1  0.43097693  0.39691184  0.96839372  1.0
  C  C96  1  0.65607254  0.19141577  0.41340729  1.0
  C  C97  1  0.37704347  0.84060232  0.31992668  1.0
  C  C98  1  0.92105783  0.66999954  0.27738043  1.0
  C  C99  1  0.96092420  0.62368335  0.21578034  1.0
  C  C100  1  0.89004451  0.60465336  0.13689953  1.0
  C  C101  1  0.11064490  0.30995137  0.70068365  1.0
  C  C102  1  0.14810936  0.24730839  0.64978535  1.0
  C  C103  1  0.24597255  0.23076544  0.69102893  1.0
  N  N104  1  0.28125492  0.56280537  0.45808106  1.0
  N  N105  1  0.72484455  0.44475861  0.55365335  1.0
  O  O106  1  0.63926261  0.62220113  0.51822610  1.0
  O  O107  1  0.35409492  0.38340171  0.48450229  1.0
  O  O108  1  0.48795791  0.64585305  0.48250849  1.0
  O  O109  1  0.50676550  0.36342838  0.51719905  1.0
  O  O110  1  0.58715682  0.47204456  0.40630897  1.0
  O  O111  1  0.42266100  0.52001103  0.60633920  1.0
  O  O112  1  0.43347175  0.48909320  0.37496933  1.0
  O  O113  1  0.57294260  0.49312375  0.64088964  1.0
  O  O114  1  0.73689887  0.22966356  0.43857195  1.0
  O  O115  1  0.29579874  0.80206447  0.29652288  1.0
  O  O116  1  0.99089446  0.69336229  0.34979628  1.0
  O  O117  1  0.01531612  0.32340754  0.66857341  1.0
