# generated using pymatgen
data_ZnH17C21NO5
_symmetry_space_group_name_H-M   'P 1'
_cell_length_a   10.86544019
_cell_length_b   12.42973611
_cell_length_c   13.53362218
_cell_angle_alpha   78.91750193
_cell_angle_beta   89.60373040
_cell_angle_gamma   73.48909055
_symmetry_Int_Tables_number   1
_chemical_formula_structural   ZnH17C21NO5
_chemical_formula_sum   'Zn2 H34 C42 N2 O10'
_cell_volume   1717.51750394
_cell_formula_units_Z   2
loop_
 _symmetry_equiv_pos_site_id
 _symmetry_equiv_pos_as_xyz
  1  'x, y, z'
loop_
 _atom_site_type_symbol
 _atom_site_label
 _atom_site_symmetry_multiplicity
 _atom_site_fract_x
 _atom_site_fract_y
 _atom_site_fract_z
 _atom_site_occupancy
  Zn  Zn0  1  0.45335027  0.61874205  0.50555943  1.0
  Zn  Zn1  1  0.53005791  0.38569605  0.49071399  1.0
  H  H2  1  0.82800063  0.68220112  0.44253170  1.0
  H  H3  1  0.27020812  0.81424954  0.00985917  1.0
  H  H4  1  0.84209386  0.60754041  0.34233678  1.0
  H  H5  1  0.67135999  0.41954584  0.24624256  1.0
  H  H6  1  0.27542729  0.74527435  0.63773355  1.0
  H  H7  1  0.27990533  0.12062761  0.68022820  1.0
  H  H8  1  0.22939345  0.93500842  0.69213724  1.0
  H  H9  1  0.55705345  0.81344539  0.45149126  1.0
  H  H10  1  0.72072848  0.25196844  0.38070529  1.0
  H  H11  1  0.67525403  0.91610948  0.40209690  1.0
  H  H12  1  0.40231387  0.25330692  0.60462704  1.0
  H  H13  1  0.15529196  0.32493953  0.53794793  1.0
  H  H14  1  0.06265853  0.58686790  0.33436337  1.0
  H  H15  1  0.04127915  0.68586142  0.41525455  1.0
  H  H16  1  0.84756165  0.57703724  0.62372130  1.0
  H  H17  1  0.04830398  0.61324928  0.60372661  1.0
  H  H18  1  0.94723509  0.31483463  0.50922600  1.0
  H  H19  1  0.93826255  0.38986085  0.38393289  1.0
  H  H20  1  0.15804605  0.37181994  0.40719574  1.0
  H  H21  1  0.77669961  0.28063254  0.69334182  1.0
  H  H22  1  0.93155229  0.91708179  0.42546476  1.0
  H  H23  1  0.95192258  0.05442116  0.42767493  1.0
  H  H24  1  0.92033998  0.42740341  0.65111460  1.0
  H  H25  1  0.01681948  0.92626195  0.25255998  1.0
  H  H26  1  0.03589188  0.06256217  0.25441623  1.0
  H  H27  1  0.17778805  0.83713745  0.40079892  1.0
  H  H28  1  0.19417231  0.97443718  0.40607409  1.0
  H  H29  1  0.24675552  0.91079487  0.30092970  1.0
  H  H30  1  0.11780039  0.46651964  0.65574732  1.0
  H  H31  1  0.79520012  0.29453696  0.13688861  1.0
  H  H32  1  0.82729291  0.24133940  0.96913573  1.0
  H  H33  1  0.44985746  0.56303637  0.82164918  1.0
  H  H34  1  0.31890198  0.76067897  0.19665979  1.0
  H  H35  1  0.38288605  0.68479790  0.90030773  1.0
  C  C36  1  0.47593819  0.57197246  0.30251149  1.0
  C  C37  1  0.50348637  0.55964991  0.02131757  1.0
  C  C38  1  0.53622018  0.53255423  0.12707438  1.0
  C  C39  1  0.73429237  0.49641589  0.49360029  1.0
  C  C40  1  0.57029423  0.48121758  0.95853517  1.0
  C  C41  1  0.67617108  0.38532897  0.00108385  1.0
  C  C42  1  0.71252616  0.36677870  0.10578133  1.0
  C  C43  1  0.64405717  0.43587433  0.16637988  1.0
  C  C44  1  0.53258226  0.49375573  0.85673512  1.0
  C  C45  1  0.70546660  0.32636126  0.83760724  1.0
  C  C46  1  0.46362784  0.60516130  0.18961161  1.0
  C  C47  1  0.11090128  0.50859353  0.49169728  1.0
  C  C48  1  0.30307171  0.91115993  0.63877103  1.0
  C  C49  1  0.67269447  0.18754879  0.41103189  1.0
  C  C50  1  0.71161821  0.07841998  0.38599327  1.0
  C  C51  1  0.53903637  0.43758807  0.69156720  1.0
  C  C52  1  0.64612040  0.99972903  0.42325897  1.0
  C  C53  1  0.54480117  0.02909561  0.48769450  1.0
  C  C54  1  0.51532344  0.13912495  0.51369518  1.0
  C  C55  1  0.46998168  0.95315650  0.52974100  1.0
  C  C56  1  0.37407753  0.98736447  0.59901018  1.0
  C  C57  1  0.35251757  0.09639050  0.62618021  1.0
  C  C58  1  0.05317576  0.52622672  0.59427051  1.0
  C  C59  1  0.42018470  0.16967147  0.58490647  1.0
  C  C60  1  0.48633356  0.84567433  0.50432139  1.0
  C  C61  1  0.32702766  0.80741247  0.60934301  1.0
  C  C62  1  0.24894609  0.51478340  0.49525096  1.0
  C  C63  1  0.88500169  0.60551628  0.41633437  1.0
  C  C64  1  0.02787130  0.60331248  0.40817057  1.0
  C  C65  1  0.91843508  0.50696687  0.59787289  1.0
  C  C66  1  0.96371428  0.39142355  0.46209654  1.0
  C  C67  1  0.87387300  0.49875068  0.49200108  1.0
  C  C68  1  0.79074403  0.25121989  0.77620355  1.0
  C  C69  1  0.10497676  0.39144722  0.47403191  1.0
  C  C70  1  0.93497276  0.99888096  0.37767731  1.0
  C  C71  1  0.03870445  0.97952446  0.30233730  1.0
  C  C72  1  0.17137857  0.92226441  0.35563392  1.0
  C  C73  1  0.74261481  0.31182224  0.93864247  1.0
  C  C74  1  0.59493572  0.41810183  0.79681903  1.0
  C  C75  1  0.37102764  0.70592556  0.14695036  1.0
  C  C76  1  0.34324786  0.73496986  0.04241527  1.0
  C  C77  1  0.40679965  0.66190765  0.98110491  1.0
  N  N78  1  0.41720580  0.77607114  0.54224446  1.0
  N  N79  1  0.57800556  0.21676865  0.47229094  1.0
  O  O80  1  0.46487573  0.65190215  0.35155779  1.0
  O  O81  1  0.81110365  0.05408199  0.32333985  1.0
  O  O82  1  0.49080115  0.46680827  0.34026900  1.0
  O  O83  1  0.65217154  0.58232946  0.51685221  1.0
  O  O84  1  0.70922309  0.40884856  0.47277258  1.0
  O  O85  1  0.46445449  0.53677373  0.65565727  1.0
  O  O86  1  0.56906980  0.35411749  0.64524611  1.0
  O  O87  1  0.26732960  0.61241341  0.48975019  1.0
  O  O88  1  0.33736951  0.42020118  0.50590534  1.0
  O  O89  1  0.87524086  0.16326764  0.81327515  1.0
