# generated using pymatgen
data_ZnH16C34(NO6)2
_symmetry_space_group_name_H-M   'P 1'
_cell_length_a   14.51249904
_cell_length_b   15.22063532
_cell_length_c   27.93292819
_cell_angle_alpha   87.31782610
_cell_angle_beta   89.64518435
_cell_angle_gamma   89.78634314
_symmetry_Int_Tables_number   1
_chemical_formula_structural   ZnH16C34(NO6)2
_chemical_formula_sum   'Zn2 H32 C68 N4 O24'
_cell_volume   6163.17514571
_cell_formula_units_Z   2
loop_
 _symmetry_equiv_pos_site_id
 _symmetry_equiv_pos_as_xyz
  1  'x, y, z'
loop_
 _atom_site_type_symbol
 _atom_site_label
 _atom_site_symmetry_multiplicity
 _atom_site_fract_x
 _atom_site_fract_y
 _atom_site_fract_z
 _atom_site_occupancy
  Zn  Zn0  1  0.59997362  0.50059552  0.50062493  1.0
  Zn  Zn1  1  0.39678052  0.50083453  0.49824579  1.0
  H  H2  1  0.33577798  0.55541672  0.65060111  1.0
  H  H3  1  0.34732406  0.46016685  0.34515800  1.0
  H  H4  1  0.65489585  0.22284643  0.47274303  1.0
  H  H5  1  0.37325800  0.77715437  0.48167866  1.0
  H  H6  1  0.65533761  0.77654902  0.52612893  1.0
  H  H7  1  0.37818030  0.22736135  0.52740091  1.0
  H  H8  1  0.52313197  0.27872332  0.87838258  1.0
  H  H9  1  0.49980073  0.70558133  0.12041062  1.0
  H  H10  1  0.65044866  0.51078114  0.26404402  1.0
  H  H11  1  0.61644847  0.45450942  0.73875314  1.0
  H  H12  1  0.52989637  0.27105323  0.96696063  1.0
  H  H13  1  0.48721213  0.71172984  0.03185056  1.0
  H  H14  1  0.06663410  0.43806129  0.57201434  1.0
  H  H15  1  0.93167674  0.62890552  0.46477985  1.0
  H  H16  1  0.06184071  0.56142612  0.42963619  1.0
  H  H17  1  0.93112354  0.37422754  0.53963346  1.0
  H  H18  1  0.25582665  0.39655440  0.64223859  1.0
  H  H19  1  0.74175479  0.76180091  0.44201582  1.0
  H  H20  1  0.32215803  0.66797832  0.39881956  1.0
  H  H21  1  0.73831783  0.24080882  0.55886014  1.0
  H  H22  1  0.33887572  0.55500893  0.74031990  1.0
  H  H23  1  0.36131949  0.45228036  0.25589807  1.0
  H  H24  1  0.63602997  0.51732735  0.35373069  1.0
  H  H25  1  0.61307433  0.45685783  0.64886584  1.0
  H  H26  1  0.45445609  0.14740734  0.16163840  1.0
  H  H27  1  0.45842679  0.84737386  0.84900341  1.0
  H  H28  1  0.51700455  0.26615354  0.03724866  1.0
  H  H29  1  0.44375483  0.70965911  0.96483872  1.0
  H  H30  1  0.65043095  0.05901217  0.47289240  1.0
  H  H31  1  0.37005028  0.94139034  0.48125660  1.0
  H  H32  1  0.65250600  0.94021706  0.52764468  1.0
  H  H33  1  0.37388539  0.06304190  0.52983446  1.0
  C  C34  1  0.52010277  0.33246587  0.50087066  1.0
  C  C35  1  0.51799929  0.66952395  0.50018442  1.0
  C  C36  1  0.48553625  0.49506166  0.89798758  1.0
  C  C37  1  0.50741946  0.48578278  0.10239046  1.0
  C  C38  1  0.49790564  0.41701918  0.87300400  1.0
  C  C39  1  0.50592912  0.56548148  0.12665244  1.0
  C  C40  1  0.51387552  0.33785940  0.89846832  1.0
  C  C41  1  0.49962726  0.64538488  0.10074506  1.0
  C  C42  1  0.46727886  0.57536252  0.87200276  1.0
  C  C43  1  0.51389633  0.40433495  0.12900871  1.0
  C  C44  1  0.47387674  0.50499366  0.64470603  1.0
  C  C45  1  0.49119374  0.48896960  0.35435071  1.0
  C  C46  1  0.50696729  0.40741086  0.02715835  1.0
  C  C47  1  0.47959322  0.57211554  0.97348439  1.0
  C  C48  1  0.49105423  0.57077409  0.02548771  1.0
  C  C49  1  0.50546450  0.40991958  0.97469229  1.0
  C  C50  1  0.50173574  0.48808404  0.05126129  1.0
  C  C51  1  0.49049924  0.49222976  0.94914426  1.0
  C  C52  1  0.51375122  0.32862751  0.05463785  1.0
  C  C53  1  0.45727648  0.64905956  0.94675961  1.0
  C  C54  1  0.51590797  0.32621040  0.10489494  1.0
  C  C55  1  0.45039047  0.65131161  0.89668691  1.0
  C  C56  1  0.47262055  0.50370750  0.59109394  1.0
  C  C57  1  0.48363626  0.49528758  0.40758045  1.0
  C  C58  1  0.51732778  0.33446844  0.94847335  1.0
  C  C59  1  0.49208959  0.64785121  0.05090836  1.0
  C  C60  1  0.59147697  0.09557208  0.48612582  1.0
  C  C61  1  0.43261271  0.90545272  0.49148784  1.0
  C  C62  1  0.59179869  0.90480840  0.51631828  1.0
  C  C63  1  0.43528069  0.09785697  0.51670985  1.0
  C  C64  1  0.59414440  0.18688986  0.48561282  1.0
  C  C65  1  0.43416905  0.81408570  0.49115270  1.0
  C  C66  1  0.59365220  0.81356106  0.51580904  1.0
  C  C67  1  0.43735533  0.18930217  0.51584906  1.0
  C  C68  1  0.51725404  0.23434563  0.50080250  1.0
  C  C69  1  0.51517766  0.76741988  0.50250978  1.0
  C  C70  1  0.51242101  0.04943358  0.50217728  1.0
  C  C71  1  0.51182127  0.95251858  0.50341635  1.0
  C  C72  1  0.10005844  0.46489432  0.53954575  1.0
  C  C73  1  0.89687381  0.57157061  0.48102576  1.0
  C  C74  1  0.09714602  0.53527836  0.46153583  1.0
  C  C75  1  0.89664603  0.43183245  0.52344046  1.0
  C  C76  1  0.19599656  0.46252405  0.53611113  1.0
  C  C77  1  0.80088859  0.56783639  0.48019069  1.0
  C  C78  1  0.19326669  0.53541814  0.46199827  1.0
  C  C79  1  0.80054602  0.43539571  0.52360552  1.0
  C  C80  1  0.04845010  0.50091199  0.50132749  1.0
  C  C81  1  0.94688657  0.50158510  0.50223019  1.0
  C  C82  1  0.49289857  0.41759886  0.82011185  1.0
  C  C83  1  0.50896657  0.56561819  0.17954057  1.0
  C  C84  1  0.46672417  0.58008012  0.81911722  1.0
  C  C85  1  0.51822771  0.40144024  0.18194356  1.0
  C  C86  1  0.55526890  0.47674864  0.71923761  1.0
  C  C87  1  0.58464417  0.49894430  0.28221235  1.0
  C  C88  1  0.55353718  0.47782234  0.66941811  1.0
  C  C89  1  0.57684422  0.50252995  0.33176120  1.0
  C  C90  1  0.39660621  0.53285534  0.67029839  1.0
  C  C91  1  0.41347491  0.47033186  0.32717067  1.0
  C  C92  1  0.39819202  0.53229731  0.72018638  1.0
  C  C93  1  0.42117758  0.46630183  0.27762088  1.0
  C  C94  1  0.47738645  0.50337872  0.74438554  1.0
  C  C95  1  0.50649924  0.48138080  0.25557936  1.0
  C  C96  1  0.24461518  0.40765186  0.57476244  1.0
  C  C97  1  0.75326326  0.63803923  0.44924721  1.0
  C  C98  1  0.23750257  0.57867710  0.41784774  1.0
  C  C99  1  0.75171694  0.36454165  0.55365784  1.0
  C  C100  1  0.52491479  0.23713009  0.13027301  1.0
  C  C101  1  0.41754541  0.73553803  0.87189400  1.0
  N  N102  1  0.47897005  0.50045656  0.79609488  1.0
  N  N103  1  0.51197081  0.48241714  0.20388241  1.0
  N  N104  1  0.24345589  0.49886995  0.49837647  1.0
  N  N105  1  0.75213818  0.50148113  0.50167025  1.0
  O  O106  1  0.59992466  0.36826474  0.49872302  1.0
  O  O107  1  0.44211398  0.63044685  0.49449596  1.0
  O  O108  1  0.59740880  0.63279332  0.50373960  1.0
  O  O109  1  0.44372575  0.37267713  0.50311269  1.0
  O  O110  1  0.54958564  0.49583433  0.57015724  1.0
  O  O111  1  0.40257888  0.49321483  0.42608761  1.0
  O  O112  1  0.55813051  0.50286252  0.43036809  1.0
  O  O113  1  0.39398935  0.51022126  0.57052341  1.0
  O  O114  1  0.50039718  0.35032174  0.79763885  1.0
  O  O115  1  0.50754291  0.63350118  0.20172597  1.0
  O  O116  1  0.52639702  0.33203902  0.20601683  1.0
  O  O117  1  0.45690322  0.65030372  0.79593902  1.0
  O  O118  1  0.28773636  0.34130130  0.56691406  1.0
  O  O119  1  0.22259535  0.43498435  0.61895319  1.0
  O  O120  1  0.71093257  0.62276857  0.41325943  1.0
  O  O121  1  0.77428593  0.71953385  0.46355293  1.0
  O  O122  1  0.21781801  0.55715949  0.37770802  1.0
  O  O123  1  0.29069015  0.64714079  0.42838182  1.0
  O  O124  1  0.70793807  0.37915558  0.58960738  1.0
  O  O125  1  0.77312426  0.28355508  0.53857873  1.0
  O  O126  1  0.59713151  0.19614322  0.13243753  1.0
  O  O127  1  0.44212281  0.20445048  0.14505815  1.0
  O  O128  1  0.33653608  0.75085121  0.86382697  1.0
  O  O129  1  0.48623375  0.79511902  0.86505561  1.0
