# generated using pymatgen
data_Tb2H30C45(SO8)3
_symmetry_space_group_name_H-M   'P 1'
_cell_length_a   9.26742396
_cell_length_b   15.58810275
_cell_length_c   21.85183571
_cell_angle_alpha   103.03920330
_cell_angle_beta   101.67880143
_cell_angle_gamma   104.50637959
_symmetry_Int_Tables_number   1
_chemical_formula_structural   Tb2H30C45(SO8)3
_chemical_formula_sum   'Tb4 H60 C90 S6 O48'
_cell_volume   2862.90749556
_cell_formula_units_Z   2
loop_
 _symmetry_equiv_pos_site_id
 _symmetry_equiv_pos_as_xyz
  1  'x, y, z'
loop_
 _atom_site_type_symbol
 _atom_site_label
 _atom_site_symmetry_multiplicity
 _atom_site_fract_x
 _atom_site_fract_y
 _atom_site_fract_z
 _atom_site_occupancy
  Tb  Tb0  1  0.50912587  0.86308994  0.81512314  1.0
  Tb  Tb1  1  0.03569885  0.90671469  0.85268310  1.0
  Tb  Tb2  1  0.49087359  0.13690769  0.18487535  1.0
  Tb  Tb3  1  0.96429950  0.09328504  0.14731791  1.0
  H  H4  1  0.87858969  0.83631482  0.67547951  1.0
  H  H5  1  0.73423445  0.84073972  0.56836041  1.0
  H  H6  1  0.30615185  0.90317624  0.62139465  1.0
  H  H7  1  0.65063104  0.78629557  0.45282464  1.0
  H  H8  1  0.66846956  0.90548257  0.48934699  1.0
  H  H9  1  0.67735775  0.86721578  0.40671762  1.0
  H  H10  1  0.97439690  0.84373267  0.36485941  1.0
  H  H11  1  0.95877742  0.90985661  0.26985452  1.0
  H  H12  1  0.45529878  0.01545245  0.32113850  1.0
  H  H13  1  0.47339107  0.95171618  0.41742689  1.0
  H  H14  1  0.97844487  0.66763882  0.91396402  1.0
  H  H15  1  0.90213897  0.50972718  0.92899764  1.0
  H  H16  1  0.26697091  0.44804443  0.84933942  1.0
  H  H17  1  0.34518137  0.60804213  0.83698030  1.0
  H  H18  1  0.05385538  0.23235565  0.01117935  1.0
  H  H19  1  0.47849405  0.16304831  0.02866742  1.0
  H  H20  1  0.58314670  0.28503368  0.97976470  1.0
  H  H21  1  0.66768732  0.44044180  0.98269973  1.0
  H  H22  1  0.59392098  0.35830773  0.90256072  1.0
  H  H23  1  0.59512125  0.47580299  0.91307835  1.0
  H  H24  1  0.56092946  0.56345207  0.79417904  1.0
  H  H25  1  0.00619186  0.55151503  0.70116463  1.0
  H  H26  1  0.93493060  0.69568073  0.72433289  1.0
  H  H27  1  0.95560103  0.38922797  0.64982553  1.0
  H  H28  1  0.09537258  0.43947714  0.72913659  1.0
  H  H29  1  0.99461339  0.31794285  0.70073972  1.0
  H  H30  1  0.23006079  0.27380239  0.79226671  1.0
  H  H31  1  0.19259533  0.15084047  0.84859196  1.0
  H  H32  1  0.60599970  0.09598529  0.81344662  1.0
  H  H33  1  0.64439897  0.21867797  0.75594193  1.0
  H  H34  1  0.12140395  0.16368005  0.32451944  1.0
  H  H35  1  0.26576671  0.15926340  0.43163679  1.0
  H  H36  1  0.69384915  0.09682217  0.37860958  1.0
  H  H37  1  0.34937715  0.21370621  0.54717432  1.0
  H  H38  1  0.33153898  0.09451988  0.51065118  1.0
  H  H39  1  0.32265592  0.13278808  0.59328166  1.0
  H  H40  1  0.02561504  0.15626778  0.63514241  1.0
  H  H41  1  0.04122323  0.09013689  0.73014481  1.0
  H  H42  1  0.54470532  0.98455419  0.67886270  1.0
  H  H43  1  0.52661958  0.04829464  0.58257596  1.0
  H  H44  1  0.02155634  0.33236436  0.08603639  1.0
  H  H45  1  0.09785928  0.49027457  0.07099956  1.0
  H  H46  1  0.73302310  0.55194903  0.15065751  1.0
  H  H47  1  0.65481329  0.39195477  0.16301630  1.0
  H  H48  1  0.94613640  0.76764200  0.98882125  1.0
  H  H49  1  0.52149986  0.83695139  0.97133138  1.0
  H  H50  1  0.41684976  0.71496882  0.02023612  1.0
  H  H51  1  0.33230765  0.55956208  0.01730164  1.0
  H  H52  1  0.40607174  0.64169821  0.09743986  1.0
  H  H53  1  0.40486675  0.52420230  0.08692493  1.0
  H  H54  1  0.43907614  0.43655108  0.20581945  1.0
  H  H55  1  0.99381301  0.44848884  0.29883574  1.0
  H  H56  1  0.06506693  0.30432173  0.27566572  1.0
  H  H57  1  0.04440505  0.61077179  0.35017614  1.0
  H  H58  1  0.90463128  0.56052261  0.27086489  1.0
  H  H59  1  0.00538495  0.68205899  0.29926299  1.0
  H  H60  1  0.76993250  0.72618756  0.20772733  1.0
  H  H61  1  0.80740049  0.84915227  0.15140319  1.0
  H  H62  1  0.39400499  0.90401173  0.18655680  1.0
  H  H63  1  0.35560901  0.78131904  0.24406085  1.0
  C  C64  1  0.18800862  0.86457650  0.71919942  1.0
  C  C65  1  0.10151310  0.86893540  0.65577615  1.0
  C  C66  1  0.94067784  0.85254438  0.64011009  1.0
  C  C67  1  0.85941907  0.85531841  0.57998323  1.0
  C  C68  1  0.93893017  0.87701555  0.53433451  1.0
  C  C69  1  0.10165526  0.89646526  0.55171919  1.0
  C  C70  1  0.18145984  0.89067669  0.61044434  1.0
  C  C71  1  0.70669056  0.85847786  0.45549364  1.0
  C  C72  1  0.22494543  0.89298473  0.39472016  1.0
  C  C73  1  0.07870847  0.88044463  0.35429135  1.0
  C  C74  1  0.07042428  0.91722474  0.30179496  1.0
  C  C75  1  0.20628179  0.96501049  0.28967792  1.0
  C  C76  1  0.35135559  0.97717569  0.33107351  1.0
  C  C77  1  0.36174570  0.94155811  0.38421226  1.0
  C  C78  1  0.19873091  0.00574548  0.23352664  1.0
  C  C79  1  0.21054643  0.74251078  0.86664926  1.0
  C  C80  1  0.16728079  0.64741475  0.87554910  1.0
  C  C81  1  0.04242646  0.61977386  0.90112453  1.0
  C  C82  1  0.99862223  0.53159794  0.90889262  1.0
  C  C83  1  0.08039437  0.47092293  0.88997668  1.0
  C  C84  1  0.20562614  0.49680795  0.86412871  1.0
  C  C85  1  0.24896876  0.58567151  0.85731526  1.0
  C  C86  1  0.23054186  0.31495989  0.97950664  1.0
  C  C87  1  0.16987764  0.24420684  0.00452409  1.0
  C  C88  1  0.26034664  0.18992305  0.02363919  1.0
  C  C89  1  0.40915773  0.20593864  0.01449895  1.0
  C  C90  1  0.46825127  0.27475184  0.98729077  1.0
  C  C91  1  0.37993964  0.33104532  0.96963508  1.0
  C  C92  1  0.20593251  0.12365200  0.05953613  1.0
  C  C93  1  0.58103392  0.41895549  0.93519993  1.0
  C  C94  1  0.70450574  0.72703778  0.77681636  1.0
  C  C95  1  0.74319429  0.63962983  0.76052982  1.0
  C  C96  1  0.65917369  0.56160008  0.77432815  1.0
  C  C97  1  0.70373075  0.48248551  0.76407390  1.0
  C  C98  1  0.82869510  0.47608721  0.73732455  1.0
  C  C99  1  0.90954268  0.55391899  0.72194341  1.0
  C  C100  1  0.86864702  0.63484054  0.73461391  1.0
  C  C101  1  0.98518925  0.38634749  0.70043772  1.0
  C  C102  1  0.43806391  0.25160799  0.77091512  1.0
  C  C103  1  0.31103689  0.23420629  0.79648469  1.0
  C  C104  1  0.29100461  0.16595783  0.82836019  1.0
  C  C105  1  0.39755884  0.11649527  0.83428786  1.0
  C  C106  1  0.52469307  0.13527672  0.80825663  1.0
  C  C107  1  0.54586261  0.20297244  0.77608633  1.0
  C  C108  1  0.37230701  0.04057520  0.86627911  1.0
  C  C109  1  0.81198867  0.13542117  0.28080165  1.0
  C  C110  1  0.89848130  0.13105879  0.34422367  1.0
  C  C111  1  0.05931469  0.14745048  0.35988830  1.0
  C  C112  1  0.14058144  0.14468339  0.42001737  1.0
  C  C113  1  0.06107221  0.12298558  0.46566706  1.0
  C  C114  1  0.89834496  0.10353380  0.44828279  1.0
  C  C115  1  0.81853893  0.10932169  0.38955833  1.0
  C  C116  1  0.29331578  0.14152461  0.54450527  1.0
  C  C117  1  0.77506421  0.10702196  0.60528288  1.0
  C  C118  1  0.92130200  0.11955512  0.64570977  1.0
  C  C119  1  0.92958212  0.08277568  0.69820501  1.0
  C  C120  1  0.79372426  0.03498924  0.71032191  1.0
  C  C121  1  0.64865366  0.02283237  0.66892971  1.0
  C  C122  1  0.63826498  0.05845062  0.61578981  1.0
  C  C123  1  0.80127115  0.99425077  0.76647232  1.0
  C  C124  1  0.78946003  0.25748970  0.13335438  1.0
  C  C125  1  0.83272271  0.35258429  0.12445132  1.0
  C  C126  1  0.95757442  0.38022655  0.09887497  1.0
  C  C127  1  0.00137278  0.46840175  0.09110582  1.0
  C  C128  1  0.91959217  0.52907532  0.11001853  1.0
  C  C129  1  0.79436779  0.50318965  0.13586839  1.0
  C  C130  1  0.75103033  0.41432541  0.14268218  1.0
  C  C131  1  0.76944949  0.68504122  0.02049445  1.0
  C  C132  1  0.83011631  0.75579290  0.99547701  1.0
  C  C133  1  0.73965133  0.81007807  0.97636200  1.0
  C  C134  1  0.59084353  0.79406247  0.98550161  1.0
  C  C135  1  0.53174081  0.72524857  0.01270936  1.0
  C  C136  1  0.62004990  0.66895441  0.03036610  1.0
  C  C137  1  0.79406949  0.87634842  0.94046438  1.0
  C  C138  1  0.41895811  0.58104908  0.06480175  1.0
  C  C139  1  0.29548710  0.27295985  0.22318203  1.0
  C  C140  1  0.25680469  0.36037119  0.23946549  1.0
  C  C141  1  0.34082461  0.43839960  0.22566965  1.0
  C  C142  1  0.29627186  0.51751830  0.23592261  1.0
  C  C143  1  0.17130868  0.52391457  0.26267403  1.0
  C  C144  1  0.09045778  0.44608276  0.27805398  1.0
  C  C145  1  0.13135268  0.36516189  0.26538260  1.0
  C  C146  1  0.01481275  0.61365503  0.29956495  1.0
  C  C147  1  0.56194000  0.74838968  0.22908605  1.0
  C  C148  1  0.68896371  0.76578717  0.20351189  1.0
  C  C149  1  0.70898977  0.83403423  0.17163564  1.0
  C  C150  1  0.60243514  0.88350027  0.16570985  1.0
  C  C151  1  0.47530607  0.86472025  0.19174402  1.0
  C  C152  1  0.45414421  0.79702663  0.22391530  1.0
  C  C153  1  0.62769288  0.95941898  0.13371980  1.0
  S  S154  1  0.23617389  0.84705985  0.46189391  1.0
  S  S155  1  0.02180003  0.35859068  0.89957586  1.0
  S  S156  1  0.46246713  0.33877437  0.73113536  1.0
  S  S157  1  0.76383354  0.15294682  0.53810894  1.0
  S  S158  1  0.97819096  0.64140762  0.10042248  1.0
  S  S159  1  0.53753459  0.66122121  0.26886438  1.0
  O  O160  1  0.12252471  0.86729687  0.76534134  1.0
  O  O161  1  0.32525765  0.85873522  0.72582405  1.0
  O  O162  1  0.87274658  0.88073993  0.47457804  1.0
  O  O163  1  0.18234979  0.92494634  0.50843165  1.0
  O  O164  1  0.12030124  0.75836368  0.44530508  1.0
  O  O165  1  0.39556482  0.85893630  0.49278727  1.0
  O  O166  1  0.06674193  0.99736391  0.19740729  1.0
  O  O167  1  0.32749236  0.04719566  0.22567477  1.0
  O  O168  1  0.12667289  0.79317005  0.88065706  1.0
  O  O169  1  0.32860476  0.76705568  0.84599405  1.0
  O  O170  1  0.87267758  0.34157413  0.91253895  1.0
  O  O171  1  0.04963737  0.29153535  0.84990643  1.0
  O  O172  1  0.14972390  0.37788745  0.96978334  1.0
  O  O173  1  0.46416272  0.99250760  0.86667521  1.0
  O  O174  1  0.25682325  0.02596459  0.89031239  1.0
  O  O175  1  0.06470109  0.10156101  0.06121944  1.0
  O  O176  1  0.30655380  0.09456314  0.09059395  1.0
  O  O177  1  0.34540091  0.38406397  0.73581637  1.0
  O  O178  1  0.62771648  0.40721638  0.78316401  1.0
  O  O179  1  0.56856644  0.72589657  0.78085778  1.0
  O  O180  1  0.42707265  0.40027140  0.94348822  1.0
  O  O181  1  0.81253448  0.80297315  0.78783820  1.0
  O  O182  1  0.86207332  0.39570828  0.72985802  1.0
  O  O183  1  0.48947910  0.30638519  0.66868599  1.0
  O  O184  1  0.87746997  0.13270216  0.23465880  1.0
  O  O185  1  0.67474616  0.14126870  0.27417899  1.0
  O  O186  1  0.12726489  0.11926606  0.52542459  1.0
  O  O187  1  0.81765328  0.07505826  0.49157143  1.0
  O  O188  1  0.87970435  0.24164158  0.55469557  1.0
  O  O189  1  0.60443713  0.14106828  0.50721480  1.0
  O  O190  1  0.93325903  0.00263235  0.80259157  1.0
  O  O191  1  0.67250634  0.95280265  0.77432330  1.0
  O  O192  1  0.87333865  0.20683389  0.11934709  1.0
  O  O193  1  0.67140249  0.23293993  0.15400708  1.0
  O  O194  1  0.12731599  0.65842489  0.08746063  1.0
  O  O195  1  0.95035841  0.70846367  0.15009334  1.0
  O  O196  1  0.85026606  0.62210881  0.03021643  1.0
  O  O197  1  0.53584406  0.00749352  0.13332581  1.0
  O  O198  1  0.74317741  0.97402681  0.10968524  1.0
  O  O199  1  0.93529839  0.89843665  0.93878089  1.0
  O  O200  1  0.69344565  0.90543449  0.90940454  1.0
  O  O201  1  0.65459858  0.61593370  0.26418442  1.0
  O  O202  1  0.37228330  0.59278402  0.21683494  1.0
  O  O203  1  0.43142912  0.27409768  0.21914535  1.0
  O  O204  1  0.57291981  0.59972973  0.05651342  1.0
  O  O205  1  0.18745572  0.19703002  0.21216219  1.0
  O  O206  1  0.13792862  0.60429629  0.27014313  1.0
  O  O207  1  0.51051747  0.69361108  0.33131388  1.0
