# generated using pymatgen
data_Al3H31(C24O7)2
_symmetry_space_group_name_H-M   'P 1'
_cell_length_a   13.01229811
_cell_length_b   13.11088133
_cell_length_c   28.48737391
_cell_angle_alpha   90.20954333
_cell_angle_beta   90.09709478
_cell_angle_gamma   119.60420736
_symmetry_Int_Tables_number   1
_chemical_formula_structural   Al3H31(C24O7)2
_chemical_formula_sum   'Al6 H62 C96 O28'
_cell_volume   4225.52636971
_cell_formula_units_Z   2
loop_
 _symmetry_equiv_pos_site_id
 _symmetry_equiv_pos_as_xyz
  1  'x, y, z'
loop_
 _atom_site_type_symbol
 _atom_site_label
 _atom_site_symmetry_multiplicity
 _atom_site_fract_x
 _atom_site_fract_y
 _atom_site_fract_z
 _atom_site_occupancy
  Al  Al0  1  0.47236819  0.24676404  0.50082210  1.0
  Al  Al1  1  0.72503441  0.48205899  0.49999156  1.0
  Al  Al2  1  0.72113227  0.25118334  0.49920525  1.0
  Al  Al3  1  0.22513599  0.75066440  0.99768553  1.0
  Al  Al4  1  0.24260390  0.51479194  0.99947028  1.0
  Al  Al5  1  0.46878317  0.74456405  0.00038398  1.0
  H  H6  1  0.97075781  0.30371769  0.22107295  1.0
  H  H7  1  0.69133344  0.56735952  0.79399898  1.0
  H  H8  1  0.43836187  0.12479797  0.79003028  1.0
  H  H9  1  0.87650665  0.30427095  0.78152531  1.0
  H  H10  1  0.76679381  0.29475880  0.26057314  1.0
  H  H11  1  0.54872277  0.20397319  0.26743762  1.0
  H  H12  1  0.63680273  0.41235552  0.25941993  1.0
  H  H13  1  0.44405355  0.65630115  0.76944581  1.0
  H  H14  1  0.34823228  0.79129244  0.76551343  1.0
  H  H15  1  0.21153953  0.54895103  0.75828225  1.0
  H  H16  1  0.79566999  0.47773488  0.19946509  1.0
  H  H17  1  0.34008217  0.04054317  0.21943639  1.0
  H  H18  1  0.68100253  0.12973777  0.21094163  1.0
  H  H19  1  0.41769960  0.30776159  0.21062097  1.0
  H  H20  1  0.31778749  0.45282426  0.71221769  1.0
  H  H21  1  0.55458781  0.86567400  0.70987878  1.0
  H  H22  1  0.13299992  0.68202473  0.70618865  1.0
  H  H23  1  0.14043528  0.65427570  0.23003353  1.0
  H  H24  1  0.43661301  0.79591990  0.23233859  1.0
  H  H25  1  0.39526200  0.59782097  0.23156640  1.0
  H  H26  1  0.56560344  0.36406919  0.73684927  1.0
  H  H27  1  0.64479595  0.19999875  0.73438931  1.0
  H  H28  1  0.70951963  0.62291542  0.20858103  1.0
  H  H29  1  0.79773136  0.43705044  0.72920524  1.0
  H  H30  1  0.05132343  0.79887039  0.22205326  1.0
  H  H31  1  0.90397877  0.71731897  0.20178374  1.0
  H  H32  1  0.94267121  0.83142515  0.24356504  1.0
  H  H33  1  0.84005593  0.64014788  0.28587993  1.0
  H  H34  1  0.98925902  0.71612801  0.30329876  1.0
  H  H35  1  0.67000995  0.85082336  0.22330322  1.0
  H  H36  1  0.78126983  0.00000387  0.22161272  1.0
  H  H37  1  0.79798216  0.90137885  0.25912820  1.0
  H  H38  1  0.73706121  0.02945535  0.30502405  1.0
  H  H39  1  0.65708636  0.70233522  0.72466458  1.0
  H  H40  1  0.63131728  0.87998496  0.30976605  1.0
  H  H41  1  0.19000747  0.38739332  0.23092135  1.0
  H  H42  1  0.19968397  0.25761617  0.22751289  1.0
  H  H43  1  0.10371589  0.26857721  0.26898579  1.0
  H  H44  1  0.29069912  0.29701617  0.30871735  1.0
  H  H45  1  0.27668927  0.42325842  0.31401450  1.0
  H  H46  1  0.22697346  0.21993342  0.72095730  1.0
  H  H47  1  0.34057263  0.18424935  0.72789994  1.0
  H  H48  1  0.20841312  0.10834505  0.76088401  1.0
  H  H49  1  0.36698343  0.25608076  0.81340305  1.0
  H  H50  1  0.30437976  0.95779380  0.71943482  1.0
  H  H51  1  0.25812300  0.29624749  0.80438320  1.0
  H  H52  1  0.78798069  0.99990483  0.72154860  1.0
  H  H53  1  0.82262486  0.14812454  0.72564927  1.0
  H  H54  1  0.90068106  0.09702289  0.76072575  1.0
  H  H55  1  0.75206197  0.11166514  0.81159534  1.0
  H  H56  1  0.71044686  0.96300539  0.80431857  1.0
  H  H57  1  0.98765722  0.77290196  0.72026915  1.0
  H  H58  1  0.83961486  0.65985355  0.72704947  1.0
  H  H59  1  0.89595485  0.78785376  0.76266758  1.0
  H  H60  1  0.88997413  0.62519712  0.81056362  1.0
  H  H61  1  0.04399846  0.34291487  0.71034988  1.0
  H  H62  1  0.03759557  0.73351191  0.80164783  1.0
  H  H63  1  0.11101985  0.47060634  0.29094453  1.0
  H  H64  1  0.30445141  0.87011213  0.28840774  1.0
  H  H65  1  0.61518559  0.70198977  0.28053864  1.0
  H  H66  1  0.27902487  0.14172931  0.47224247  1.0
  H  H67  1  0.13313157  0.85330109  0.02553646  1.0
  C  C68  1  0.54980486  0.11534270  0.43427814  1.0
  C  C69  1  0.49029285  0.51618799  0.80068863  1.0
  C  C70  1  0.48898993  0.97540529  0.79733829  1.0
  C  C71  1  0.02616053  0.50186533  0.79141015  1.0
  C  C72  1  0.86550044  0.47607564  0.22028205  1.0
  C  C73  1  0.59770914  0.07271283  0.22881213  1.0
  C  C74  1  0.46158898  0.39535878  0.22651010  1.0
  C  C75  1  0.40073541  0.47864452  0.73082543  1.0
  C  C76  1  0.52868691  0.92301543  0.72813623  1.0
  C  C77  1  0.07628020  0.59809694  0.72334470  1.0
  C  C78  1  0.84995440  0.37456844  0.25327091  1.0
  C  C79  1  0.55990373  0.44836696  0.43192481  1.0
  C  C80  1  0.52409523  0.11334894  0.25886921  1.0
  C  C81  1  0.58294332  0.45359299  0.25275344  1.0
  C  C82  1  0.47096345  0.59119930  0.76154094  1.0
  C  C83  1  0.41438659  0.88214045  0.75788519  1.0
  C  C84  1  0.11935844  0.52398730  0.75136321  1.0
  C  C85  1  0.01096038  0.49394193  0.15012417  1.0
  C  C86  1  0.46879255  0.95657930  0.15371774  1.0
  C  C87  1  0.48276370  0.52337247  0.14986038  1.0
  C  C88  1  0.53279436  0.49326209  0.65676496  1.0
  C  C89  1  0.51721753  0.04260956  0.65416017  1.0
  C  C90  1  0.85105269  0.42962671  0.43135660  1.0
  C  C91  1  0.95586102  0.47289700  0.64779225  1.0
  C  C92  1  0.90565597  0.45797999  0.34114954  1.0
  C  C93  1  0.51666866  0.04163330  0.34617017  1.0
  C  C94  1  0.54261083  0.48809400  0.34188639  1.0
  C  C95  1  0.47401008  0.52506550  0.84922444  1.0
  C  C96  1  0.47801175  0.95116048  0.84582552  1.0
  C  C97  1  0.04980200  0.51180587  0.84015216  1.0
  C  C98  1  0.55467526  0.12379309  0.56733972  1.0
  C  C99  1  0.56139994  0.45164313  0.56798464  1.0
  C  C100  1  0.87084518  0.43568642  0.56138891  1.0
  C  C101  1  0.43569986  0.87687805  0.93349444  1.0
  C  C102  1  0.42739679  0.87621248  0.06651787  1.0
  C  C103  1  0.10032145  0.54211652  0.06425423  1.0
  C  C104  1  0.43049896  0.56293052  0.06454760  1.0
  C  C105  1  0.04160863  0.47232476  0.26992162  1.0
  C  C106  1  0.38783048  0.92748991  0.27071207  1.0
  C  C107  1  0.57101341  0.61479140  0.26454236  1.0
  C  C108  1  0.60871625  0.54191931  0.77530601  1.0
  C  C109  1  0.46430754  0.06780715  0.77163453  1.0
  C  C110  1  0.93319027  0.38785678  0.76429028  1.0
  C  C111  1  0.96302859  0.37946549  0.23221201  1.0
  C  C112  1  0.11372126  0.54956368  0.92971428  1.0
  C  C113  1  0.40786289  0.02266443  0.23341621  1.0
  C  C114  1  0.62382637  0.57055376  0.22542964  1.0
  C  C115  1  0.58924302  0.61699648  0.73759325  1.0
  C  C116  1  0.38956261  0.97430505  0.73342022  1.0
  C  C117  1  0.02672080  0.40960663  0.72560600  1.0
  C  C118  1  0.04403473  0.50961999  0.10944084  1.0
  C  C119  1  0.45606494  0.92894064  0.11237142  1.0
  C  C120  1  0.46242757  0.53587157  0.10909683  1.0
  C  C121  1  0.54323828  0.47947106  0.61505347  1.0
  C  C122  1  0.53245922  0.07170468  0.61308070  1.0
  C  C123  1  0.42948032  0.55972631  0.93639794  1.0
  C  C124  1  0.92746483  0.46145340  0.60643987  1.0
  C  C125  1  0.89007888  0.44960051  0.38351904  1.0
  C  C126  1  0.52875097  0.06543879  0.38792753  1.0
  C  C127  1  0.54819257  0.47600483  0.38406841  1.0
  C  C128  1  0.45772694  0.53424256  0.89083462  1.0
  C  C129  1  0.46583147  0.92659304  0.88740090  1.0
  C  C130  1  0.07133283  0.52255217  0.88212424  1.0
  C  C131  1  0.05716843  0.57421806  0.23733608  1.0
  C  C132  1  0.46145815  0.88672442  0.24078980  1.0
  C  C133  1  0.44949670  0.55692314  0.23843341  1.0
  C  C134  1  0.92784410  0.46698255  0.29238959  1.0
  C  C135  1  0.53868769  0.42934960  0.74455545  1.0
  C  C136  1  0.57865099  0.10900909  0.74194349  1.0
  C  C137  1  0.88985459  0.46172175  0.73633912  1.0
  C  C138  1  0.97954862  0.48148160  0.19813410  1.0
  C  C139  1  0.48138666  0.98165050  0.20225019  1.0
  C  C140  1  0.50190843  0.51238096  0.19799151  1.0
  C  C141  1  0.51918683  0.50422977  0.70546774  1.0
  C  C142  1  0.50420037  0.01572002  0.70247780  1.0
  C  C143  1  0.98327117  0.48361612  0.69622834  1.0
  C  C144  1  0.94344679  0.56954046  0.25832828  1.0
  C  C145  1  0.50420848  0.01847836  0.29746568  1.0
  C  C146  1  0.57845283  0.97743973  0.26627878  1.0
  C  C147  1  0.40794453  0.43940288  0.26564614  1.0
  C  C148  1  0.41971808  0.40276787  0.76863358  1.0
  C  C149  1  0.60426649  0.01691743  0.76646938  1.0
  C  C150  1  0.98244040  0.57659547  0.76220407  1.0
  C  C151  1  0.93083739  0.67256613  0.27297323  1.0
  C  C152  1  0.95858137  0.75982875  0.23299791  1.0
  C  C153  1  0.67203016  0.95301145  0.28456315  1.0
  C  C154  1  0.73366611  0.92464814  0.24506515  1.0
  C  C155  1  0.29005466  0.36786343  0.28824106  1.0
  C  C156  1  0.53056927  0.49816735  0.29306968  1.0
  C  C157  1  0.19025345  0.31741862  0.25198760  1.0
  C  C158  1  0.32714379  0.28572105  0.78624291  1.0
  C  C159  1  0.27272904  0.19450660  0.74689047  1.0
  C  C160  1  0.72172383  0.04077229  0.78514344  1.0
  C  C161  1  0.81339910  0.07325697  0.74621245  1.0
  C  C162  1  0.95781130  0.66717617  0.78312655  1.0
  C  C163  1  0.91808785  0.72521484  0.74632149  1.0
  O  O164  1  0.48332566  0.34925181  0.44697206  1.0
  O  O165  1  0.33547335  0.85208735  0.94917954  1.0
  O  O166  1  0.13235258  0.47346791  0.95107022  1.0
  O  O167  1  0.50184040  0.65942911  0.95442367  1.0
  O  O168  1  0.48305185  0.35625097  0.55028344  1.0
  O  O169  1  0.84590450  0.51086636  0.54413790  1.0
  O  O170  1  0.65178655  0.14342631  0.54739455  1.0
  O  O171  1  0.12385366  0.64087421  0.04826636  1.0
  O  O172  1  0.33016201  0.48876863  0.04717740  1.0
  O  O173  1  0.50562338  0.85673836  0.04712611  1.0
  O  O174  1  0.48000252  0.14964580  0.55131178  1.0
  O  O175  1  0.83511974  0.50829948  0.45134289  1.0
  O  O176  1  0.65977902  0.52586709  0.54848668  1.0
  O  O177  1  0.84392685  0.33643372  0.54277318  1.0
  O  O178  1  0.32705506  0.84940336  0.04993285  1.0
  O  O179  1  0.12598315  0.46833109  0.04472754  1.0
  O  O180  1  0.50301585  0.66227409  0.04663313  1.0
  O  O181  1  0.64132727  0.32751996  0.49981400  1.0
  O  O182  1  0.31302123  0.66917050  0.99948000  1.0
  O  O183  1  0.64641264  0.13380858  0.45455438  1.0
  O  O184  1  0.13289084  0.64697390  0.94614018  1.0
  O  O185  1  0.33145109  0.48384421  0.95470707  1.0
  O  O186  1  0.51277366  0.85741774  0.95422771  1.0
  O  O187  1  0.47564057  0.14152183  0.45060121  1.0
  O  O188  1  0.65087116  0.52593523  0.45498225  1.0
  O  O189  1  0.82981856  0.33232554  0.44975310  1.0
  O  O190  1  0.31792212  0.17576241  0.50173302  1.0
  O  O191  1  0.14322195  0.82360055  0.99582468  1.0
