# generated using pymatgen
data_Al2H17C18S2NO10
_symmetry_space_group_name_H-M   'P 1'
_cell_length_a   6.65577131
_cell_length_b   10.98157905
_cell_length_c   12.60202893
_cell_angle_alpha   84.81398309
_cell_angle_beta   77.20786276
_cell_angle_gamma   72.42113696
_symmetry_Int_Tables_number   1
_chemical_formula_structural   Al2H17C18S2NO10
_chemical_formula_sum   'Al2 H17 C18 S2 N1 O10'
_cell_volume   856.01205991
_cell_formula_units_Z   1
loop_
 _symmetry_equiv_pos_site_id
 _symmetry_equiv_pos_as_xyz
  1  'x, y, z'
loop_
 _atom_site_type_symbol
 _atom_site_label
 _atom_site_symmetry_multiplicity
 _atom_site_fract_x
 _atom_site_fract_y
 _atom_site_fract_z
 _atom_site_occupancy
  Al  Al0  1  0.49950305  0.49723123  0.49913491  1.0
  Al  Al1  1  0.99503896  0.50115074  0.50200229  1.0
  H  H2  1  0.28661145  0.35478568  0.57391740  1.0
  H  H3  1  0.70323424  0.64420260  0.42634499  1.0
  H  H4  1  0.74771857  0.42390918  0.15759706  1.0
  H  H5  1  0.06586113  0.88725670  0.32855680  1.0
  H  H6  1  0.81036670  0.89766813  0.41249817  1.0
  H  H7  1  0.73023446  0.12044603  0.39475331  1.0
  H  H8  1  0.99692835  0.10850378  0.32494079  1.0
  H  H9  1  0.64538894  0.10696317  0.59929834  1.0
  H  H10  1  0.83544042  0.11252557  0.67532680  1.0
  H  H11  1  0.76211746  0.88375974  0.61582342  1.0
  H  H12  1  0.97174353  0.89023042  0.67803438  1.0
  H  H13  1  0.37209188  0.89211515  0.41659853  1.0
  H  H14  1  0.34487032  0.87856538  0.55888984  1.0
  H  H15  1  0.21853302  0.10062423  0.57443092  1.0
  H  H16  1  0.27885026  0.11355921  0.43149852  1.0
  H  H17  1  0.05719210  0.56365729  0.88362413  1.0
  H  H18  1  0.21922321  0.56334442  0.75558590  1.0
  C  C19  1  0.87330925  0.26902567  0.49861754  1.0
  C  C20  1  0.64935223  0.50585689  0.69732573  1.0
  C  C21  1  0.12617677  0.72940747  0.50201312  1.0
  C  C22  1  0.34475753  0.48415346  0.30534220  1.0
  C  C23  1  0.38103339  0.52602273  0.87787283  1.0
  C  C24  1  0.60489868  0.45083452  0.12225170  1.0
  C  C25  1  0.59165678  0.49766886  0.81461953  1.0
  C  C26  1  0.39922349  0.48104696  0.18584356  1.0
  C  C27  1  0.59878021  0.46403287  0.01062327  1.0
  C  C28  1  0.38878433  0.50586869  0.99069426  1.0
  C  C29  1  0.95582583  0.92845183  0.40384002  1.0
  C  C30  1  0.90041308  0.07625092  0.39842919  1.0
  C  C31  1  0.94594180  0.12393775  0.50005904  1.0
  C  C32  1  0.81707917  0.07244571  0.60230801  1.0
  C  C33  1  0.89665584  0.92457698  0.60725198  1.0
  C  C34  1  0.06248381  0.87449666  0.50235384  1.0
  C  C35  1  0.25915630  0.92338334  0.49372545  1.0
  C  C36  1  0.18765400  0.07058968  0.50009893  1.0
  S  S37  1  0.79168306  0.44513531  0.89187599  1.0
  S  S38  1  0.19777472  0.52609432  0.11026152  1.0
  N  N39  1  0.19872557  0.57172733  0.83752334  1.0
  O  O40  1  0.67128650  0.32426982  0.51401174  1.0
  O  O41  1  0.84850569  0.48638545  0.65178742  1.0
  O  O42  1  0.97524652  0.67639062  0.51964045  1.0
  O  O43  1  0.50372554  0.46260003  0.35231037  1.0
  O  O44  1  0.32612310  0.66965871  0.48233232  1.0
  O  O45  1  0.14591654  0.51051638  0.35115973  1.0
  O  O46  1  0.01765625  0.32634202  0.48296973  1.0
  O  O47  1  0.49286942  0.53120105  0.64646421  1.0
  O  O48  1  0.25340806  0.44404449  0.55075517  1.0
  O  O49  1  0.74039589  0.55547001  0.45083911  1.0
