# generated using pymatgen
data_Zn4H32(C12O5)3
_symmetry_space_group_name_H-M   'P 1'
_cell_length_a   17.80352809
_cell_length_b   18.65606101
_cell_length_c   23.31863577
_cell_angle_alpha   66.62188499
_cell_angle_beta   69.76608607
_cell_angle_gamma   89.94138105
_symmetry_Int_Tables_number   1
_chemical_formula_structural   Zn4H32(C12O5)3
_chemical_formula_sum   'Zn8 H64 C72 O30'
_cell_volume   6586.63280567
_cell_formula_units_Z   2
loop_
 _symmetry_equiv_pos_site_id
 _symmetry_equiv_pos_as_xyz
  1  'x, y, z'
loop_
 _atom_site_type_symbol
 _atom_site_label
 _atom_site_symmetry_multiplicity
 _atom_site_fract_x
 _atom_site_fract_y
 _atom_site_fract_z
 _atom_site_occupancy
  Zn  Zn0  1  0.11861674  0.53113866  0.94085127  1.0
  Zn  Zn1  1  0.97269156  0.56003026  0.05059884  1.0
  Zn  Zn2  1  0.97593213  0.38917315  0.05153455  1.0
  Zn  Zn3  1  0.93837494  0.53012389  0.93508145  1.0
  Zn  Zn4  1  0.38525415  0.97666155  0.05075111  1.0
  Zn  Zn5  1  0.52930136  0.11606477  0.93616117  1.0
  Zn  Zn6  1  0.52332206  0.94575874  0.93756367  1.0
  Zn  Zn7  1  0.56812276  0.97318223  0.05051645  1.0
  H  H8  1  0.50125990  0.86860192  0.26213431  1.0
  H  H9  1  0.43999972  0.80572702  0.38816193  1.0
  H  H10  1  0.26245338  0.87294636  0.25548319  1.0
  H  H11  1  0.24989451  0.63304430  0.73441498  1.0
  H  H12  1  0.01209312  0.63720720  0.72570756  1.0
  H  H13  1  0.07453283  0.70000628  0.59976129  1.0
  H  H14  1  0.63019377  0.01546486  0.73137823  1.0
  H  H15  1  0.69918437  0.07549300  0.60564822  1.0
  H  H16  1  0.62843453  0.24804839  0.72783001  1.0
  H  H17  1  0.86803051  0.25710313  0.26052117  1.0
  H  H18  1  0.86951638  0.48992302  0.25648501  1.0
  H  H19  1  0.81001041  0.43015846  0.38265309  1.0
  H  H20  1  0.19770630  0.30147206  0.91070534  1.0
  H  H21  1  0.12581529  0.22986269  0.98710403  1.0
  H  H22  1  0.21477812  0.13795246  0.98469829  1.0
  H  H23  1  0.28637972  0.21018497  0.90846575  1.0
  H  H24  1  0.21468076  0.12370270  0.09598237  1.0
  H  H25  1  0.28650044  0.18434702  0.10038108  1.0
  H  H26  1  0.12647955  0.21659748  0.09875614  1.0
  H  H27  1  0.19956223  0.27745016  0.10167035  1.0
  H  H28  1  0.30204542  0.39077883  0.91423757  1.0
  H  H29  1  0.30278306  0.38169905  0.99198450  1.0
  H  H30  1  0.39125565  0.28928746  0.99057923  1.0
  H  H31  1  0.39090967  0.29894689  0.91265640  1.0
  H  H32  1  0.89062975  0.80025865  0.90464664  1.0
  H  H33  1  0.88793699  0.78753266  0.98470587  1.0
  H  H34  1  0.79904086  0.87987528  0.98605123  1.0
  H  H35  1  0.80197952  0.89163439  0.90611088  1.0
  H  H36  1  0.69602325  0.77680810  0.09174879  1.0
  H  H37  1  0.62377401  0.71540635  0.08837680  1.0
  H  H38  1  0.78345425  0.68304401  0.09074436  1.0
  H  H39  1  0.71141654  0.62322573  0.08563444  1.0
  H  H40  1  0.78897114  0.71264091  0.89688619  1.0
  H  H41  1  0.71615437  0.63995328  0.97058596  1.0
  H  H42  1  0.62687402  0.73158534  0.97288179  1.0
  H  H43  1  0.69944332  0.80396713  0.89902132  1.0
  H  H44  1  0.16232196  0.79345206  0.93666701  1.0
  H  H45  1  0.24663844  0.75757070  0.89556870  1.0
  H  H46  1  0.33364165  0.85284770  0.89377862  1.0
  H  H47  1  0.24882280  0.88760604  0.93562847  1.0
  H  H48  1  0.39392378  0.74396111  0.96075178  1.0
  H  H49  1  0.35293329  0.70244889  0.04971083  1.0
  H  H50  1  0.30587159  0.64837684  0.96341454  1.0
  H  H51  1  0.26475088  0.60823447  0.05238791  1.0
  H  H52  1  0.10197507  0.73505471  0.06478837  1.0
  H  H53  1  0.14326319  0.65913770  0.11214821  1.0
  H  H54  1  0.23161015  0.75321804  0.11040176  1.0
  H  H55  1  0.18971241  0.82908530  0.06359782  1.0
  H  H56  1  0.89920559  0.26721058  0.92946526  1.0
  H  H57  1  0.85492673  0.34332103  0.88420726  1.0
  H  H58  1  0.76883254  0.24786120  0.88528026  1.0
  H  H59  1  0.81210561  0.17220671  0.93212520  1.0
  H  H60  1  0.64939469  0.29843026  0.94524866  1.0
  H  H61  1  0.60653104  0.25744118  0.03411522  1.0
  H  H62  1  0.73643477  0.39243793  0.94538855  1.0
  H  H63  1  0.69378829  0.35003145  0.03431079  1.0
  H  H64  1  0.83935200  0.20510811  0.05765797  1.0
  H  H65  1  0.75646301  0.23916774  0.10107884  1.0
  H  H66  1  0.66715942  0.14683143  0.10192615  1.0
  H  H67  1  0.75017775  0.11136558  0.06009936  1.0
  H  H68  1  0.17000266  0.78276530  0.43419016  1.0
  H  H69  1  0.34394238  0.72214265  0.55573106  1.0
  H  H70  1  0.72698701  0.33838266  0.54926575  1.0
  H  H71  1  0.78260880  0.16717323  0.43978689  1.0
  C  C72  1  0.14208269  0.63524925  0.00268265  1.0
  C  C73  1  0.90816083  0.41305175  0.17630150  1.0
  C  C74  1  0.14439496  0.36396602  0.00097208  1.0
  C  C75  1  0.86087661  0.36564106  0.99068515  1.0
  C  C76  1  0.09000706  0.59382445  0.81271676  1.0
  C  C77  1  0.86111834  0.64344275  0.98889722  1.0
  C  C78  1  0.36015933  0.14161786  0.99671069  1.0
  C  C79  1  0.58449611  0.09215448  0.81146623  1.0
  C  C80  1  0.35569342  0.86290023  0.99854216  1.0
  C  C81  1  0.64434397  0.86524534  0.99220520  1.0
  C  C82  1  0.42116960  0.91253318  0.17606444  1.0
  C  C83  1  0.64693747  0.14016636  0.99194776  1.0
  C  C84  1  0.38546653  0.87442901  0.25157529  1.0
  C  C85  1  0.43577909  0.85541657  0.28885165  1.0
  C  C86  1  0.40155039  0.82047758  0.35876625  1.0
  C  C87  1  0.31649686  0.80339160  0.39315740  1.0
  C  C88  1  0.26638207  0.82271541  0.35477510  1.0
  C  C89  1  0.30111166  0.85808022  0.28460237  1.0
  C  C90  1  0.27806815  0.76785520  0.46415065  1.0
  C  C91  1  0.23660673  0.73751321  0.52481190  1.0
  C  C92  1  0.19765654  0.70209456  0.59576870  1.0
  C  C93  1  0.24710356  0.68269206  0.63471896  1.0
  C  C94  1  0.21169502  0.64772968  0.70489945  1.0
  C  C95  1  0.12727048  0.63156636  0.73727554  1.0
  C  C96  1  0.07762715  0.65040698  0.69940151  1.0
  C  C97  1  0.11252478  0.68523152  0.62954093  1.0
  C  C98  1  0.62531097  0.12830213  0.73645827  1.0
  C  C99  1  0.64528407  0.07928540  0.70234938  1.0
  C  C100  1  0.68350979  0.11274783  0.63278995  1.0
  C  C101  1  0.70260798  0.19568281  0.59584838  1.0
  C  C102  1  0.68260595  0.24454117  0.63103010  1.0
  C  C103  1  0.64398783  0.21057570  0.70095720  1.0
  C  C104  1  0.74002594  0.23296708  0.52494612  1.0
  C  C105  1  0.77071986  0.27268590  0.46376662  1.0
  C  C106  1  0.80509405  0.30985194  0.39272835  1.0
  C  C107  1  0.82179677  0.26084847  0.35757490  1.0
  C  C108  1  0.85512758  0.29468897  0.28737987  1.0
  C  C109  1  0.87192353  0.37697076  0.25158246  1.0
  C  C110  1  0.85565536  0.42610214  0.28572203  1.0
  C  C111  1  0.82274158  0.39277982  0.35552973  1.0
  C  C112  1  0.18921619  0.25931299  0.96224525  1.0
  C  C113  1  0.24827287  0.19830878  0.96075710  1.0
  C  C114  1  0.30331038  0.20247325  0.99862050  1.0
  C  C115  1  0.24835716  0.18390156  0.07208926  1.0
  C  C116  1  0.18999930  0.24542665  0.07340840  1.0
  C  C117  1  0.20415645  0.30546173  0.00085687  1.0
  C  C118  1  0.29241866  0.34759316  0.96555858  1.0
  C  C119  1  0.35108399  0.28659966  0.96450906  1.0
  C  C120  1  0.84975115  0.78648565  0.95669547  1.0
  C  C121  1  0.79067590  0.84759459  0.95767832  1.0
  C  C122  1  0.70199496  0.80491540  0.99071930  1.0
  C  C123  1  0.68729648  0.74472397  0.06338615  1.0
  C  C124  1  0.74566088  0.68329589  0.06216699  1.0
  C  C125  1  0.80151543  0.70213422  0.98872556  1.0
  C  C126  1  0.74930568  0.70010312  0.94886734  1.0
  C  C127  1  0.69020092  0.76075233  0.95027484  1.0
  C  C128  1  0.21903713  0.77153283  0.93914918  1.0
  C  C129  1  0.27682818  0.83439118  0.93815007  1.0
  C  C130  1  0.29681535  0.80029840  0.00256973  1.0
  C  C131  1  0.33694790  0.72625687  0.00481798  1.0
  C  C132  1  0.27856519  0.66335124  0.00641031  1.0
  C  C133  1  0.19877838  0.69459877  0.00457927  1.0
  C  C134  1  0.15929657  0.71387189  0.06562723  1.0
  C  C135  1  0.21756954  0.77628993  0.06460066  1.0
  C  C136  1  0.84121825  0.28784901  0.92978630  1.0
  C  C137  1  0.78335820  0.22477539  0.93083029  1.0
  C  C138  1  0.70360221  0.19988999  0.99359371  1.0
  C  C139  1  0.66424345  0.27452429  0.99056435  1.0
  C  C140  1  0.72218395  0.33649983  0.99049978  1.0
  C  C141  1  0.80167836  0.30485675  0.99265010  1.0
  C  C142  1  0.78249870  0.22704139  0.05630591  1.0
  C  C143  1  0.72372049  0.16527310  0.05725575  1.0
  O  O144  1  0.00133942  0.50293408  0.99335886  1.0
  O  O145  1  0.17206375  0.60742338  0.95902718  1.0
  O  O146  1  0.91899998  0.48843234  0.14657585  1.0
  O  O147  1  0.07071174  0.33518986  0.04042816  1.0
  O  O148  1  0.06863096  0.61909127  0.04368837  1.0
  O  O149  1  0.17165405  0.43656073  0.96091608  1.0
  O  O150  1  0.92545233  0.36584425  0.14790672  1.0
  O  O151  1  0.89925098  0.33941489  0.02997168  1.0
  O  O152  1  0.01263595  0.58021431  0.83958771  1.0
  O  O153  1  0.86871143  0.43768590  0.94934798  1.0
  O  O154  1  0.13873029  0.57839540  0.84383119  1.0
  O  O155  1  0.90140651  0.63642949  0.02624470  1.0
  O  O156  1  0.86688964  0.60636900  0.95228542  1.0
  O  O157  1  0.50155867  0.00247550  0.99506849  1.0
  O  O158  1  0.32891914  0.06885738  0.03307994  1.0
  O  O159  1  0.56672163  0.13933349  0.83986848  1.0
  O  O160  1  0.42699857  0.87894322  0.95354600  1.0
  O  O161  1  0.43447499  0.16779948  0.95842797  1.0
  O  O162  1  0.32986643  0.89515230  0.03922243  1.0
  O  O163  1  0.57089166  0.01672840  0.84109397  1.0
  O  O164  1  0.60331948  0.87674014  0.95503723  1.0
  O  O165  1  0.49834287  0.92309379  0.14756950  1.0
  O  O166  1  0.64149670  0.89971398  0.03045393  1.0
  O  O167  1  0.37102334  0.93129955  0.14649933  1.0
  O  O168  1  0.61704979  0.16688738  0.94637204  1.0
  O  O169  1  0.63392619  0.06861174  0.03531967  1.0
  O  O170  1  0.18412560  0.80737980  0.38527599  1.0
  O  O171  1  0.32940487  0.69765583  0.60469847  1.0
  O  O172  1  0.70029186  0.32472692  0.59756309  1.0
  O  O173  1  0.80571351  0.18065292  0.39135193  1.0
