# generated using pymatgen
data_ZnH8C21Br6NO9
_symmetry_space_group_name_H-M   'P 1'
_cell_length_a   11.12965580
_cell_length_b   18.24291731
_cell_length_c   19.31750136
_cell_angle_alpha   88.52028393
_cell_angle_beta   89.40070819
_cell_angle_gamma   74.08756303
_symmetry_Int_Tables_number   1
_chemical_formula_structural   ZnH8C21Br6NO9
_chemical_formula_sum   'Zn2 H16 C42 Br12 N2 O18'
_cell_volume   3770.60334356
_cell_formula_units_Z   2
loop_
 _symmetry_equiv_pos_site_id
 _symmetry_equiv_pos_as_xyz
  1  'x, y, z'
loop_
 _atom_site_type_symbol
 _atom_site_label
 _atom_site_symmetry_multiplicity
 _atom_site_fract_x
 _atom_site_fract_y
 _atom_site_fract_z
 _atom_site_occupancy
  Zn  Zn0  1  0.52240194  0.42206098  0.50373327  1.0
  Zn  Zn1  1  0.45089220  0.59045068  0.49716590  1.0
  H  H2  1  0.33976319  0.19999365  0.51782100  1.0
  H  H3  1  0.21295183  0.61133122  0.11131601  1.0
  H  H4  1  0.34158635  0.41988993  0.87380300  1.0
  H  H5  1  0.47983389  0.60750150  0.12553354  1.0
  H  H6  1  0.27991925  0.42333168  0.10963472  1.0
  H  H7  1  0.53181624  0.60981111  0.88946957  1.0
  H  H8  1  0.74938407  0.32592710  0.49137109  1.0
  H  H9  1  0.23539616  0.69695383  0.50126620  1.0
  H  H10  1  0.67546420  0.79396494  0.50536377  1.0
  H  H11  1  0.34912352  0.33535273  0.51379809  1.0
  H  H12  1  0.64366325  0.66351116  0.50244335  1.0
  H  H13  1  0.41634734  0.94703713  0.60371411  1.0
  H  H14  1  0.61425760  0.05449564  0.40946299  1.0
  H  H15  1  0.20150696  0.58677889  0.71228210  1.0
  H  H16  1  0.28763161  0.61538198  0.34391858  1.0
  H  H17  1  0.22456010  0.57784808  0.87367127  1.0
  C  C18  1  0.44118696  0.50607492  0.36859891  1.0
  C  C19  1  0.41472819  0.52011068  0.92712603  1.0
  C  C20  1  0.65146707  0.25241163  0.50248108  1.0
  C  C21  1  0.34769439  0.76235930  0.49604295  1.0
  C  C22  1  0.65331252  0.17428138  0.50613090  1.0
  C  C23  1  0.35875867  0.83802032  0.49557438  1.0
  C  C24  1  0.54123140  0.15428330  0.51130056  1.0
  C  C25  1  0.47683065  0.85038250  0.49908628  1.0
  C  C26  1  0.42908072  0.21335813  0.51396092  1.0
  C  C27  1  0.58193479  0.78651941  0.50240959  1.0
  C  C28  1  0.43349266  0.28797975  0.51147201  1.0
  C  C29  1  0.51405607  0.50354727  0.63104436  1.0
  C  C30  1  0.56518640  0.71458643  0.50142142  1.0
  C  C31  1  0.47794830  0.04271122  0.56593310  1.0
  C  C32  1  0.55354081  0.95857435  0.44756094  1.0
  C  C33  1  0.24477131  0.53249867  0.51911713  1.0
  C  C34  1  0.72155688  0.48740443  0.46803581  1.0
  C  C35  1  0.45938757  0.97063188  0.56088474  1.0
  C  C36  1  0.57146977  0.03088016  0.45240660  1.0
  C  C37  1  0.49573896  0.92763077  0.50144245  1.0
  C  C38  1  0.53287391  0.07459175  0.51133222  1.0
  C  C39  1  0.11513442  0.52310051  0.51954327  1.0
  C  C40  1  0.49519641  0.50793598  0.70833843  1.0
  C  C41  1  0.85029540  0.49437906  0.45397162  1.0
  C  C42  1  0.07562626  0.47486296  0.47975281  1.0
  C  C43  1  0.95534719  0.45762856  0.48802414  1.0
  C  C44  1  0.37370496  0.54053679  0.73233079  1.0
  C  C45  1  0.32779559  0.56226925  0.26109865  1.0
  C  C46  1  0.34997239  0.54420154  0.80390619  1.0
  C  C47  1  0.30838335  0.56249076  0.18878213  1.0
  C  C48  1  0.44544799  0.51440719  0.85204465  1.0
  C  C49  1  0.39129547  0.50981151  0.14706933  1.0
  C  C50  1  0.56795917  0.48084911  0.82708494  1.0
  C  C51  1  0.42763799  0.50548417  0.29177456  1.0
  C  C52  1  0.49237695  0.45402724  0.17799211  1.0
  C  C53  1  0.59232595  0.47873031  0.75577306  1.0
  C  C54  1  0.51030087  0.45133959  0.24954448  1.0
  C  C55  1  0.35094513  0.47074860  0.95828540  1.0
  C  C56  1  0.44094074  0.57119360  0.03888365  1.0
  C  C57  1  0.33354963  0.47096255  0.03033105  1.0
  C  C58  1  0.45654588  0.57190392  0.96690450  1.0
  C  C59  1  0.38192582  0.51954092  0.07035544  1.0
  Br  Br60  1  0.96360027  0.37752737  0.55481417  1.0
  Br  Br61  1  0.60459744  0.38629676  0.11855754  1.0
  Br  Br62  1  0.75678302  0.43918169  0.72082524  1.0
  Br  Br63  1  0.65393944  0.37975080  0.28696132  1.0
  Br  Br64  1  0.17551432  0.42035957  0.40677835  1.0
  Br  Br65  1  0.81016694  0.10018940  0.50556029  1.0
  Br  Br66  1  0.21166949  0.91977144  0.48852740  1.0
  Br  Br67  1  0.42969614  0.09542511  0.64982007  1.0
  Br  Br68  1  0.60528762  0.90410163  0.36497760  1.0
  Br  Br69  1  0.85926213  0.57194682  0.38822128  1.0
  Br  Br70  1  0.00364358  0.58154623  0.58541182  1.0
  Br  Br71  1  0.69614881  0.43736841  0.89182662  1.0
  N  N72  1  0.54240561  0.30730665  0.50557557  1.0
  N  N73  1  0.45046203  0.70267385  0.49782086  1.0
  O  O74  1  0.48613900  0.44402622  0.40122600  1.0
  O  O75  1  0.24882856  0.61756169  0.29712111  1.0
  O  O76  1  0.22918349  0.57837464  0.82291617  1.0
  O  O77  1  0.21064495  0.61746911  0.16169222  1.0
  O  O78  1  0.31006791  0.41921558  0.92117162  1.0
  O  O79  1  0.49019842  0.61849638  0.07634870  1.0
  O  O80  1  0.27625702  0.42012533  0.05932724  1.0
  O  O81  1  0.51730226  0.62124847  0.93848751  1.0
  O  O82  1  0.75949304  0.26987558  0.49612154  1.0
  O  O83  1  0.23417654  0.75148604  0.49448432  1.0
  O  O84  1  0.49618805  0.56667020  0.59806207  1.0
  O  O85  1  0.40241725  0.57172821  0.39715500  1.0
  O  O86  1  0.54102480  0.43753852  0.60582152  1.0
  O  O87  1  0.33034922  0.47064950  0.52163710  1.0
  O  O88  1  0.63539790  0.54899351  0.46534039  1.0
  O  O89  1  0.26027997  0.59918004  0.51701192  1.0
  O  O90  1  0.70691658  0.42191312  0.48282999  1.0
  O  O91  1  0.27924266  0.56785809  0.68629279  1.0
