# generated using pymatgen
data_Al4H15C37NO22
_symmetry_space_group_name_H-M   'P 1'
_cell_length_a   6.67485270
_cell_length_b   16.82589410
_cell_length_c   18.33052834
_cell_angle_alpha   106.65233808
_cell_angle_beta   90.44659845
_cell_angle_gamma   90.52035003
_symmetry_Int_Tables_number   1
_chemical_formula_structural   Al4H15C37NO22
_chemical_formula_sum   'Al4 H15 C37 N1 O22'
_cell_volume   1972.17108934
_cell_formula_units_Z   1
loop_
 _symmetry_equiv_pos_site_id
 _symmetry_equiv_pos_as_xyz
  1  'x, y, z'
loop_
 _atom_site_type_symbol
 _atom_site_label
 _atom_site_symmetry_multiplicity
 _atom_site_fract_x
 _atom_site_fract_y
 _atom_site_fract_z
 _atom_site_occupancy
  Al  Al0  1  0.14217540  0.50016198  0.49816587  1.0
  Al  Al1  1  0.64266397  0.50081324  0.49813253  1.0
  Al  Al2  1  0.63151930  0.00055437  0.00048736  1.0
  Al  Al3  1  0.13026124  0.00032951  0.99967537  1.0
  H  H4  1  0.75580638  0.79142916  0.63999969  1.0
  H  H5  1  0.53692065  0.79775483  0.77404146  1.0
  H  H6  1  0.01738810  0.71069155  0.85873699  1.0
  H  H7  1  0.23436480  0.70509928  0.72422815  1.0
  H  H8  1  0.08971735  0.86695635  0.73327852  1.0
  H  H9  1  0.48381176  0.12396691  0.28157324  1.0
  H  H10  1  0.72002202  0.27223319  0.30856465  1.0
  H  H11  1  0.05321967  0.22808538  0.18879010  1.0
  H  H12  1  0.14328475  0.22436857  0.34047530  1.0
  H  H13  1  0.15047724  0.37641129  0.17991938  1.0
  H  H14  1  0.60516515  0.62935827  0.81269329  1.0
  H  H15  1  0.39545542  0.60337199  0.54800068  1.0
  H  H16  1  0.88987013  0.40738262  0.51959040  1.0
  H  H17  1  0.37814425  0.89327762  0.96185870  1.0
  H  H18  1  0.88290538  0.10915231  0.01452329  1.0
  C  C19  1  0.38718892  0.38644765  0.38382635  1.0
  C  C20  1  0.39335428  0.41416723  0.58562784  1.0
  C  C21  1  0.89744744  0.61640095  0.61403131  1.0
  C  C22  1  0.89259989  0.58232050  0.40990827  1.0
  C  C23  1  0.89314921  0.63249940  0.35804802  1.0
  C  C24  1  0.89119582  0.67734946  0.31581782  1.0
  C  C25  1  0.88863878  0.72669953  0.26993865  1.0
  C  C26  1  0.88586784  0.77243840  0.22800981  1.0
  C  C27  1  0.88351494  0.82166252  0.18200672  1.0
  C  C28  1  0.88179808  0.86637205  0.13960837  1.0
  C  C29  1  0.69122508  0.77666642  0.76267750  1.0
  C  C30  1  0.81342320  0.77470895  0.68958376  1.0
  C  C31  1  0.89659498  0.68578613  0.68529512  1.0
  C  C32  1  0.77285079  0.68786599  0.75871527  1.0
  C  C33  1  0.96008989  0.72791798  0.80927854  1.0
  C  C34  1  0.08039873  0.72635661  0.73584513  1.0
  C  C35  1  0.00009327  0.81463857  0.73958500  1.0
  C  C36  1  0.87608147  0.81653439  0.81286025  1.0
  C  C37  1  0.57092320  0.26111947  0.28233558  1.0
  C  C38  1  0.43949822  0.18071783  0.26837035  1.0
  C  C39  1  0.38562580  0.18490050  0.18540840  1.0
  C  C40  1  0.52412509  0.26497099  0.19910566  1.0
  C  C41  1  0.32733822  0.31914462  0.23048476  1.0
  C  C42  1  0.19974776  0.23821486  0.21704491  1.0
  C  C43  1  0.25110060  0.23474853  0.29944096  1.0
  C  C44  1  0.38601441  0.31507918  0.31399910  1.0
  C  C45  1  0.39316308  0.36426797  0.63772948  1.0
  C  C46  1  0.39139590  0.32009005  0.68060259  1.0
  C  C47  1  0.38932299  0.27173795  0.72740099  1.0
  C  C48  1  0.38719347  0.22715714  0.77038036  1.0
  C  C49  1  0.38492558  0.17907622  0.81741487  1.0
  C  C50  1  0.38276209  0.13533757  0.86066263  1.0
  C  C51  1  0.38155395  0.08600234  0.91327731  1.0
  C  C52  1  0.38557143  0.11412314  0.11496546  1.0
  C  C53  1  0.88073355  0.91626299  0.08751231  1.0
  C  C54  1  0.87601105  0.88571105  0.88420631  1.0
  C  C55  1  0.67486639  0.27999979  0.15034023  1.0
  N  N56  1  0.80723791  0.29413734  0.11418384  1.0
  O  O57  1  0.56438654  0.43331576  0.56489964  1.0
  O  O58  1  0.21774087  0.41323259  0.41089418  1.0
  O  O59  1  0.06269964  0.56385775  0.43165290  1.0
  O  O60  1  0.22182585  0.43288289  0.56477785  1.0
  O  O61  1  0.06724270  0.58916687  0.58698632  1.0
  O  O62  1  0.55795197  0.41416628  0.41140071  1.0
  O  O63  1  0.39341695  0.55031577  0.50900713  1.0
  O  O64  1  0.72607400  0.59108407  0.58463705  1.0
  O  O65  1  0.72162437  0.56263832  0.42985045  1.0
  O  O66  1  0.89100441  0.45079622  0.49431204  1.0
  O  O67  1  0.21499488  0.08664304  0.08724185  1.0
  O  O68  1  0.55241956  0.06686540  0.93413185  1.0
  O  O69  1  0.70718333  0.91152300  0.91314549  1.0
  O  O70  1  0.55545224  0.08771125  0.08811303  1.0
  O  O71  1  0.70948492  0.93565548  0.06732346  1.0
  O  O72  1  0.21003886  0.06748709  0.93404859  1.0
  O  O73  1  0.37970349  0.95112913  0.99138177  1.0
  O  O74  1  0.05115161  0.93475733  0.06593984  1.0
  O  O75  1  0.04781442  0.91268739  0.91206409  1.0
  O  O76  1  0.88209813  0.04972795  0.00716817  1.0
  O  O77  1  0.26969892  0.38920932  0.21272394  1.0
  O  O78  1  0.66384291  0.61857749  0.76229841  1.0
