# generated using pymatgen
data_Zn4H16C48N4(O5F2)5
_symmetry_space_group_name_H-M   'P 1'
_cell_length_a   17.79966464
_cell_length_b   19.07464194
_cell_length_c   19.34106506
_cell_angle_alpha   94.50377973
_cell_angle_beta   99.55696053
_cell_angle_gamma   104.58284869
_symmetry_Int_Tables_number   1
_chemical_formula_structural   Zn4H16C48N4(O5F2)5
_chemical_formula_sum   'Zn4 H16 C48 N4 O25 F10'
_cell_volume   6216.95658127
_cell_formula_units_Z   1
loop_
 _symmetry_equiv_pos_site_id
 _symmetry_equiv_pos_as_xyz
  1  'x, y, z'
loop_
 _atom_site_type_symbol
 _atom_site_label
 _atom_site_symmetry_multiplicity
 _atom_site_fract_x
 _atom_site_fract_y
 _atom_site_fract_z
 _atom_site_occupancy
  Zn  Zn0  1  0.56582956  0.45541823  0.45054473  1.0
  Zn  Zn1  1  0.42678981  0.43286374  0.54571230  1.0
  Zn  Zn2  1  0.43206833  0.53333450  0.42769693  1.0
  Zn  Zn3  1  0.56882539  0.57796866  0.57336925  1.0
  H  H4  1  0.05490786  0.38459354  0.28912773  1.0
  H  H5  1  0.24047552  0.44666210  0.56022801  1.0
  H  H6  1  0.44512076  0.03007961  0.57319036  1.0
  H  H7  1  0.51806354  0.96659059  0.63156503  1.0
  H  H8  1  0.53863289  0.28986714  0.38668316  1.0
  H  H9  1  0.56315050  0.14041010  0.34430768  1.0
  H  H10  1  0.94573203  0.35369265  0.29032058  1.0
  H  H11  1  0.18307384  0.62581299  0.60168512  1.0
  H  H12  1  0.63331290  0.47561655  0.25111107  1.0
  H  H13  1  0.19944992  0.40491560  0.32397328  1.0
  H  H14  1  0.79755159  0.47061354  0.48266017  1.0
  H  H15  1  0.07094600  0.67929156  0.67201093  1.0
  H  H16  1  0.62266946  0.58835837  0.74995298  1.0
  H  H17  1  0.61733954  0.54979865  0.98377972  1.0
  H  H18  1  0.40918273  0.54510850  0.26189813  1.0
  H  H19  1  0.42282197  0.26624359  0.58001441  1.0
  C  C20  1  0.49810239  0.51423846  0.68960333  1.0
  C  C21  1  0.91883654  0.43942202  0.42602848  1.0
  C  C22  1  0.95761281  0.41392813  0.37749662  1.0
  C  C23  1  0.51761637  0.50400373  0.31348102  1.0
  C  C24  1  0.04133337  0.42614491  0.39399562  1.0
  C  C25  1  0.08135328  0.45967620  0.46339298  1.0
  C  C26  1  0.08407288  0.40520873  0.34379934  1.0
  C  C27  1  0.16429529  0.41523844  0.36271587  1.0
  C  C28  1  0.15859557  0.45024405  0.48596518  1.0
  C  C29  1  0.52383664  0.50762650  0.23878805  1.0
  C  C30  1  0.46511669  0.52761666  0.19143124  1.0
  C  C31  1  0.84576404  0.60687050  0.61755958  1.0
  C  C32  1  0.47185743  0.52744843  0.11999642  1.0
  C  C33  1  0.53598619  0.51126732  0.09497425  1.0
  C  C34  1  0.59459680  0.49446698  0.14487016  1.0
  C  C35  1  0.48080356  0.30966027  0.48501065  1.0
  C  C36  1  0.58857368  0.49093448  0.21448513  1.0
  C  C37  1  0.56398503  0.53832058  0.88926545  1.0
  C  C38  1  0.56440147  0.54745042  0.81693478  1.0
  C  C39  1  0.49203831  0.50309664  0.90981440  1.0
  C  C40  1  0.49483663  0.51643818  0.76562726  1.0
  C  C41  1  0.42343052  0.48258147  0.78756330  1.0
  C  C42  1  0.83600211  0.51238586  0.52333631  1.0
  C  C43  1  0.42174053  0.47663521  0.85761564  1.0
  C  C44  1  0.48223046  0.75707446  0.50777957  1.0
  C  C45  1  0.46364979  0.78770323  0.44547469  1.0
  C  C46  1  0.46484572  0.86094769  0.44711177  1.0
  C  C47  1  0.48580531  0.67954131  0.50523930  1.0
  C  C48  1  0.48288896  0.90619348  0.51222825  1.0
  C  C49  1  0.49996142  0.87576666  0.57569337  1.0
  C  C50  1  0.49996432  0.80241484  0.57219782  1.0
  C  C51  1  0.46021155  0.11804780  0.53325831  1.0
  C  C52  1  0.45407334  0.19018153  0.53446913  1.0
  C  C53  1  0.91866959  0.52472270  0.53335274  1.0
  C  C54  1  0.49194861  0.08730002  0.47857665  1.0
  C  C55  1  0.48229507  0.23323824  0.48234832  1.0
  C  C56  1  0.51414036  0.20227144  0.42832516  1.0
  C  C57  1  0.51820390  0.13022143  0.42577474  1.0
  C  C58  1  0.28682850  0.44275782  0.45410348  1.0
  C  C59  1  0.71121208  0.53683993  0.54506861  1.0
  C  C60  1  0.79839798  0.55200268  0.56313753  1.0
  C  C61  1  0.20208577  0.43499461  0.43439054  1.0
  C  C62  1  0.92659334  0.61914856  0.62945106  1.0
  C  C63  1  0.96628139  0.58049386  0.58934661  1.0
  C  C64  1  0.95815421  0.48617547  0.48966477  1.0
  C  C65  1  0.04222075  0.49854697  0.50640012  1.0
  C  C66  1  0.08631117  0.55826920  0.55862089  1.0
  C  C67  1  0.04951941  0.59710210  0.59951364  1.0
  N  N68  1  0.54736327  0.51521753  0.02537494  1.0
  N  N69  1  0.48352926  0.49406368  0.97830128  1.0
  N  N70  1  0.48185721  0.97901819  0.52171917  1.0
  N  N71  1  0.49790610  0.01676670  0.47105591  1.0
  O  O72  1  0.50005453  0.50017846  0.50101872  1.0
  O  O73  1  0.31557601  0.43597907  0.51897281  1.0
  O  O74  1  0.67927535  0.58204637  0.57288143  1.0
  O  O75  1  0.33000171  0.45745658  0.40766167  1.0
  O  O76  1  0.67436250  0.47946243  0.50144403  1.0
  O  O77  1  0.10083339  0.65440385  0.64534851  1.0
  O  O78  1  0.63360746  0.58318054  0.80116506  1.0
  O  O79  1  0.63137391  0.56338738  0.93646868  1.0
  O  O80  1  0.40250348  0.54621631  0.20976524  1.0
  O  O81  1  0.42281732  0.21527333  0.58720093  1.0
  O  O82  1  0.18674191  0.45482345  0.55516424  1.0
  O  O83  1  0.51360553  0.34844101  0.44072612  1.0
  O  O84  1  0.43442632  0.07888452  0.58386227  1.0
  O  O85  1  0.51811916  0.91651086  0.63980510  1.0
  O  O86  1  0.54212180  0.23893452  0.37617864  1.0
  O  O87  1  0.54862498  0.10164158  0.37391128  1.0
  O  O88  1  0.91282923  0.37632861  0.31521367  1.0
  O  O89  1  0.16572147  0.58356341  0.56492950  1.0
  O  O90  1  0.54241480  0.66770097  0.54795224  1.0
  O  O91  1  0.44722912  0.46386653  0.64729884  1.0
  O  O92  1  0.46217264  0.52808817  0.33456265  1.0
  O  O93  1  0.55447130  0.56255475  0.67155194  1.0
  O  O94  1  0.56570282  0.47789685  0.35297413  1.0
  O  O95  1  0.44699174  0.33558913  0.53139091  1.0
  O  O96  1  0.43234338  0.63293173  0.46024042  1.0
  F  F97  1  0.65726229  0.47932807  0.12126561  1.0
  F  F98  1  0.83854288  0.42113904  0.40664329  1.0
  F  F99  1  0.35458274  0.45788351  0.74027871  1.0
  F  F100  1  0.41626637  0.54811386  0.07658745  1.0
  F  F101  1  0.35287332  0.44587895  0.87713533  1.0
  F  F102  1  0.51631438  0.77553085  0.63385770  1.0
  F  F103  1  0.44529528  0.88644373  0.38560581  1.0
  F  F104  1  0.44687715  0.74691906  0.38166293  1.0
  F  F105  1  0.97019163  0.67256155  0.68357167  1.0
  F  F106  1  0.81500604  0.64729658  0.65957153  1.0
