# generated using pymatgen
data_CrH2(C3O2)2
_symmetry_space_group_name_H-M   'P 1'
_cell_length_a   18.83266747
_cell_length_b   18.83266723
_cell_length_c   18.83265666
_cell_angle_alpha   59.99997402
_cell_angle_beta   59.99991645
_cell_angle_gamma   60.00000962
_symmetry_Int_Tables_number   1
_chemical_formula_structural   CrH2(C3O2)2
_chemical_formula_sum   'Cr12 H24 C72 O48'
_cell_volume   4723.02162113
_cell_formula_units_Z   12
loop_
 _symmetry_equiv_pos_site_id
 _symmetry_equiv_pos_as_xyz
  1  'x, y, z'
loop_
 _atom_site_type_symbol
 _atom_site_label
 _atom_site_symmetry_multiplicity
 _atom_site_fract_x
 _atom_site_fract_y
 _atom_site_fract_z
 _atom_site_occupancy
  Cr  Cr0  1  0.99999837  0.45074204  0.54925883  1.0
  Cr  Cr1  1  0.54926444  0.00000102  0.99999946  1.0
  Cr  Cr2  1  0.99999848  0.54925109  0.45074988  1.0
  Cr  Cr3  1  0.45074982  0.00000141  0.99999966  1.0
  Cr  Cr4  1  0.54924826  0.45075227  0.99999934  1.0
  Cr  Cr5  1  0.99999895  0.00000089  0.54926223  1.0
  Cr  Cr6  1  0.45074603  0.00000189  0.54925169  1.0
  Cr  Cr7  1  0.99999840  0.00000112  0.45075000  1.0
  Cr  Cr8  1  0.54925618  0.00000120  0.45074255  1.0
  Cr  Cr9  1  0.45074081  0.54925932  0.99999905  1.0
  Cr  Cr10  1  0.99999893  0.45073466  0.99999912  1.0
  Cr  Cr11  1  0.99999893  0.54924248  0.99999898  1.0
  H  H12  1  0.97294076  0.26604490  0.49497142  1.0
  H  H13  1  0.49497169  0.26604631  0.97294049  1.0
  H  H14  1  0.26604062  0.49497467  0.26604274  1.0
  H  H15  1  0.26604133  0.97294357  0.26604105  1.0
  H  H16  1  0.73395798  0.73395596  0.02705744  1.0
  H  H17  1  0.50502470  0.02706011  0.73395782  1.0
  H  H18  1  0.73395529  0.50502895  0.73395763  1.0
  H  H19  1  0.73395652  0.02706002  0.73395518  1.0
  H  H20  1  0.02705748  0.50502842  0.73395536  1.0
  H  H21  1  0.73395620  0.73395818  0.50502749  1.0
  H  H22  1  0.26604176  0.97294394  0.49497171  1.0
  H  H23  1  0.26604231  0.26604335  0.49497263  1.0
  H  H24  1  0.02705774  0.73395909  0.50502535  1.0
  H  H25  1  0.73395545  0.02705986  0.50502633  1.0
  H  H26  1  0.26603926  0.49497481  0.97294096  1.0
  H  H27  1  0.97294099  0.26604309  0.26604221  1.0
  H  H28  1  0.49497175  0.26604477  0.26604149  1.0
  H  H29  1  0.26604378  0.26604203  0.97294070  1.0
  H  H30  1  0.49497054  0.97294374  0.26604277  1.0
  H  H31  1  0.97294102  0.49497434  0.26604096  1.0
  H  H32  1  0.02705751  0.73395784  0.73395715  1.0
  H  H33  1  0.50502545  0.73396027  0.73395593  1.0
  H  H34  1  0.73395404  0.50502907  0.02705687  1.0
  H  H35  1  0.50502486  0.73396139  0.02705699  1.0
  C  C36  1  0.97637655  0.42935099  0.42935362  1.0
  C  C37  1  0.42936052  0.16491893  0.97637795  1.0
  C  C38  1  0.16491671  0.42934942  0.42935463  1.0
  C  C39  1  0.42936144  0.97638072  0.16491758  1.0
  C  C40  1  0.57065944  0.83508281  0.02361983  1.0
  C  C41  1  0.57065722  0.02362268  0.83508055  1.0
  C  C42  1  0.57064429  0.57065375  0.83508077  1.0
  C  C43  1  0.83508172  0.02362353  0.57065265  1.0
  C  C44  1  0.02362131  0.57064585  0.57065022  1.0
  C  C45  1  0.83508115  0.57064742  0.57064975  1.0
  C  C46  1  0.16491744  0.97638024  0.42935823  1.0
  C  C47  1  0.42935652  0.16491928  0.42934596  1.0
  C  C48  1  0.02362135  0.83508326  0.57065439  1.0
  C  C49  1  0.57065228  0.02362383  0.57064126  1.0
  C  C50  1  0.42934821  0.42935616  0.97637723  1.0
  C  C51  1  0.97637651  0.16491910  0.42935785  1.0
  C  C52  1  0.42934902  0.42935503  0.16491726  1.0
  C  C53  1  0.16491616  0.42934078  0.97637870  1.0
  C  C54  1  0.42935598  0.97638058  0.42934670  1.0
  C  C55  1  0.97637746  0.42934100  0.16491645  1.0
  C  C56  1  0.02362039  0.57063745  0.83508173  1.0
  C  C57  1  0.57065305  0.83508470  0.57064103  1.0
  C  C58  1  0.83508233  0.57063685  0.02361957  1.0
  C  C59  1  0.57064509  0.57065140  0.02362035  1.0
  C  C60  1  0.97142952  0.38576890  0.38577382  1.0
  C  C61  1  0.38577020  0.25702925  0.97142962  1.0
  C  C62  1  0.25702496  0.38577085  0.38577488  1.0
  C  C63  1  0.38576256  0.97143119  0.25702665  1.0
  C  C64  1  0.61422309  0.74297525  0.02856950  1.0
  C  C65  1  0.61422358  0.02857201  0.74297297  1.0
  C  C66  1  0.61422496  0.61423024  0.74297420  1.0
  C  C67  1  0.74296826  0.02857130  0.61423185  1.0
  C  C68  1  0.02857093  0.61422831  0.61422802  1.0
  C  C69  1  0.74296900  0.61422484  0.61423521  1.0
  C  C70  1  0.25702439  0.97143096  0.38577030  1.0
  C  C71  1  0.38576754  0.25702979  0.38577353  1.0
  C  C72  1  0.02857030  0.74297197  0.61422975  1.0
  C  C73  1  0.61421981  0.02857271  0.61423431  1.0
  C  C74  1  0.38576698  0.38577500  0.97142841  1.0
  C  C75  1  0.97142885  0.25702690  0.38577616  1.0
  C  C76  1  0.38576573  0.38577574  0.25702919  1.0
  C  C77  1  0.25702697  0.38576930  0.97142808  1.0
  C  C78  1  0.38576634  0.97143110  0.38577244  1.0
  C  C79  1  0.97142965  0.38576707  0.25703075  1.0
  C  C80  1  0.02857080  0.61422645  0.74297134  1.0
  C  C81  1  0.61422381  0.74297229  0.61423308  1.0
  C  C82  1  0.74296827  0.61422841  0.02856974  1.0
  C  C83  1  0.61421983  0.61423595  0.02857019  1.0
  C  C84  1  0.97140865  0.29991335  0.42876675  1.0
  C  C85  1  0.42877135  0.29991350  0.97140859  1.0
  C  C86  1  0.29990846  0.42877100  0.29990810  1.0
  C  C87  1  0.29991374  0.97141330  0.29990803  1.0
  C  C88  1  0.70009658  0.70008861  0.02858706  1.0
  C  C89  1  0.57123419  0.02859119  0.70008695  1.0
  C  C90  1  0.70009004  0.57123544  0.70008585  1.0
  C  C91  1  0.70009451  0.02858989  0.70008585  1.0
  C  C92  1  0.02859035  0.57123108  0.70008651  1.0
  C  C93  1  0.70009279  0.70009514  0.57122235  1.0
  C  C94  1  0.29991428  0.97141306  0.42876809  1.0
  C  C95  1  0.29991222  0.29991035  0.42876722  1.0
  C  C96  1  0.02858984  0.70009248  0.57122698  1.0
  C  C97  1  0.70009464  0.02858991  0.57122451  1.0
  C  C98  1  0.29990714  0.42877175  0.97140897  1.0
  C  C99  1  0.97141138  0.29990821  0.29990881  1.0
  C  C100  1  0.42877266  0.29991214  0.29990590  1.0
  C  C101  1  0.29991363  0.29990780  0.97140870  1.0
  C  C102  1  0.42877537  0.97141156  0.29990756  1.0
  C  C103  1  0.97141075  0.42877327  0.29990506  1.0
  C  C104  1  0.02859037  0.70008857  0.70009100  1.0
  C  C105  1  0.57123169  0.70009664  0.70008342  1.0
  C  C106  1  0.70009135  0.57122856  0.02858964  1.0
  C  C107  1  0.57123431  0.70009178  0.02858873  1.0
  O  O108  1  0.97994026  0.38828033  0.50700374  1.0
  O  O109  1  0.50701059  0.12477649  0.97994011  1.0
  O  O110  1  0.12476927  0.50699664  0.38829084  1.0
  O  O111  1  0.38829444  0.97994560  0.12476886  1.0
  O  O112  1  0.61172715  0.87522580  0.02005754  1.0
  O  O113  1  0.49300840  0.02005905  0.87522912  1.0
  O  O114  1  0.61170999  0.49300580  0.87522701  1.0
  O  O115  1  0.87522395  0.02006034  0.61172488  1.0
  O  O116  1  0.02005745  0.49299601  0.61172013  1.0
  O  O117  1  0.87522805  0.61170990  0.49300404  1.0
  O  O118  1  0.12477378  0.97994385  0.50700688  1.0
  O  O119  1  0.38828743  0.12477366  0.50699593  1.0
  O  O120  1  0.02005632  0.87523098  0.49300710  1.0
  O  O121  1  0.61171745  0.02005900  0.49299656  1.0
  O  O122  1  0.38827856  0.50700603  0.97994225  1.0
  O  O123  1  0.97994100  0.12477162  0.38829501  1.0
  O  O124  1  0.50699586  0.38829030  0.12477157  1.0
  O  O125  1  0.12477517  0.38826839  0.97994074  1.0
  O  O126  1  0.50700349  0.97994342  0.38828056  1.0
  O  O127  1  0.97994263  0.50698856  0.12476724  1.0
  O  O128  1  0.02005590  0.61169913  0.87523135  1.0
  O  O129  1  0.49300100  0.87523023  0.61171089  1.0
  O  O130  1  0.87522397  0.49298423  0.02005797  1.0
  O  O131  1  0.49299308  0.61172155  0.02005727  1.0
  O  O132  1  0.02005758  0.61170978  0.49300295  1.0
  O  O133  1  0.49300873  0.87523160  0.02005588  1.0
  O  O134  1  0.87522467  0.49299538  0.61172215  1.0
  O  O135  1  0.61172683  0.02005938  0.87522399  1.0
  O  O136  1  0.38829541  0.12477017  0.97994342  1.0
  O  O137  1  0.50701026  0.97994251  0.12477418  1.0
  O  O138  1  0.38827812  0.50700656  0.12477236  1.0
  O  O139  1  0.12476934  0.97994539  0.38829327  1.0
  O  O140  1  0.97994041  0.50699715  0.38829087  1.0
  O  O141  1  0.12477304  0.38827912  0.50700476  1.0
  O  O142  1  0.87522927  0.02005923  0.49300559  1.0
  O  O143  1  0.61171823  0.87522917  0.49299518  1.0
  O  O144  1  0.97994023  0.12477611  0.50700874  1.0
  O  O145  1  0.38828625  0.97994571  0.50699725  1.0
  O  O146  1  0.61170953  0.49300633  0.02005554  1.0
  O  O147  1  0.02005750  0.87522624  0.61172500  1.0
  O  O148  1  0.49299484  0.61172058  0.87522618  1.0
  O  O149  1  0.87523113  0.61169989  0.02005511  1.0
  O  O150  1  0.49300152  0.02005962  0.61171077  1.0
  O  O151  1  0.02005848  0.49298574  0.87522289  1.0
  O  O152  1  0.97994000  0.38826832  0.12477490  1.0
  O  O153  1  0.50700336  0.12477426  0.38828057  1.0
  O  O154  1  0.12476739  0.50698719  0.97994325  1.0
  O  O155  1  0.50699566  0.38829060  0.97994083  1.0
