# generated using pymatgen
data_H18PbC26(NO2)4
_symmetry_space_group_name_H-M   'P 1'
_cell_length_a   7.63251187
_cell_length_b   22.24094093
_cell_length_c   22.75582530
_cell_angle_alpha   79.33654722
_cell_angle_beta   80.38147477
_cell_angle_gamma   80.15413895
_symmetry_Int_Tables_number   1
_chemical_formula_structural   H18PbC26(NO2)4
_chemical_formula_sum   'H72 Pb4 C104 N16 O32'
_cell_volume   3703.50078597
_cell_formula_units_Z   4
loop_
 _symmetry_equiv_pos_site_id
 _symmetry_equiv_pos_as_xyz
  1  'x, y, z'
loop_
 _atom_site_type_symbol
 _atom_site_label
 _atom_site_symmetry_multiplicity
 _atom_site_fract_x
 _atom_site_fract_y
 _atom_site_fract_z
 _atom_site_occupancy
  H  H0  1  0.60872889  0.38866315  0.18981704  1.0
  H  H1  1  0.18750808  0.11135972  0.31019321  1.0
  H  H2  1  0.39126907  0.61133613  0.81018288  1.0
  H  H3  1  0.81249263  0.88864002  0.68980635  1.0
  H  H4  1  0.76896523  0.47137076  0.12582822  1.0
  H  H5  1  0.36633665  0.02861349  0.37416257  1.0
  H  H6  1  0.23103647  0.52862853  0.87417193  1.0
  H  H7  1  0.63366306  0.97138671  0.62583640  1.0
  H  H8  1  0.27356422  0.55590909  0.05795028  1.0
  H  H9  1  0.88757480  0.94407442  0.44197017  1.0
  H  H10  1  0.72643755  0.44409111  0.94204928  1.0
  H  H11  1  0.11242542  0.05592627  0.55803063  1.0
  H  H12  1  0.11626533  0.47483335  0.12320756  1.0
  H  H13  1  0.71448772  0.02518458  0.37677026  1.0
  H  H14  1  0.88373499  0.52516732  0.87679184  1.0
  H  H15  1  0.28551190  0.97481563  0.62323010  1.0
  H  H16  1  0.53354177  0.59183260  0.01744272  1.0
  H  H17  1  0.14276711  0.90815760  0.48249914  1.0
  H  H18  1  0.46645930  0.40816715  0.98255779  1.0
  H  H19  1  0.85723360  0.09184214  0.51750042  1.0
  H  H20  1  0.12163807  0.58448688  0.98284409  1.0
  H  H21  1  0.68910444  0.91535338  0.51707728  1.0
  H  H22  1  0.87836345  0.41551287  0.01715598  1.0
  H  H23  1  0.31089675  0.08464542  0.48292104  1.0
  H  H24  1  0.22524417  0.66253168  0.89304021  1.0
  H  H25  1  0.78094155  0.83730024  0.60687986  1.0
  H  H26  1  0.77475590  0.33746853  0.10695971  1.0
  H  H27  1  0.21906044  0.16269858  0.39311897  1.0
  H  H28  1  0.69928370  0.73998913  0.87409412  1.0
  H  H29  1  0.31294826  0.76000795  0.62590518  1.0
  H  H30  1  0.30071569  0.26000969  0.12590596  1.0
  H  H31  1  0.68705101  0.23999225  0.37409423  1.0
  H  H32  1  0.57679493  0.67149134  0.96323343  1.0
  H  H33  1  0.21102733  0.82854024  0.53678913  1.0
  H  H34  1  0.42320492  0.32850747  0.03676620  1.0
  H  H35  1  0.78897130  0.17146043  0.46321063  1.0
  H  H36  1  0.02527744  0.55810542  0.61239658  1.0
  H  H37  1  0.19602770  0.94184556  0.88738647  1.0
  H  H38  1  0.97472552  0.44189387  0.38760365  1.0
  H  H39  1  0.80397193  0.05815465  0.11261389  1.0
  H  H40  1  0.15888635  0.48856093  0.53746328  1.0
  H  H41  1  0.18492922  0.01145149  0.96234518  1.0
  H  H42  1  0.84111498  0.51143928  0.46253671  1.0
  H  H43  1  0.81506889  0.98854827  0.03765562  1.0
  H  H44  1  0.29223118  0.64659014  0.40645924  1.0
  H  H45  1  0.34482078  0.85349230  0.09349063  1.0
  H  H46  1  0.70776515  0.35341007  0.59354044  1.0
  H  H47  1  0.65517923  0.14650699  0.90650988  1.0
  H  H48  1  0.15677079  0.71541564  0.48260263  1.0
  H  H49  1  0.35470794  0.78461832  0.01731491  1.0
  H  H50  1  0.84322588  0.28458458  0.51739801  1.0
  H  H51  1  0.64529319  0.21538235  0.98268501  1.0
  H  H52  1  0.28346922  0.41838250  0.38368600  1.0
  H  H53  1  0.08518389  0.08154657  0.11629693  1.0
  H  H54  1  0.71652940  0.58161818  0.61631377  1.0
  H  H55  1  0.91481762  0.91845318  0.88370314  1.0
  H  H56  1  0.44251852  0.32623644  0.33915635  1.0
  H  H57  1  0.10752286  0.17370278  0.16091837  1.0
  H  H58  1  0.55748234  0.67376378  0.66084409  1.0
  H  H59  1  0.89247785  0.82629696  0.83908119  1.0
  H  H60  1  0.87935383  0.41480892  0.25997289  1.0
  H  H61  1  0.55392672  0.08531724  0.24008549  1.0
  H  H62  1  0.12064515  0.58519177  0.74002783  1.0
  H  H63  1  0.44607354  0.91468251  0.75991450  1.0
  H  H64  1  0.73245329  0.51399089  0.29988433  1.0
  H  H65  1  0.54627868  0.98615937  0.20003945  1.0
  H  H66  1  0.26754615  0.48600978  0.70011595  1.0
  H  H67  1  0.45372309  0.01384084  0.79996010  1.0
  H  H68  1  0.29846920  0.47652355  0.44481440  1.0
  H  H69  1  0.21944429  0.02353420  0.05506724  1.0
  H  H70  1  0.70152962  0.52347666  0.55518544  1.0
  H  H71  1  0.78055301  0.97646556  0.94493304  1.0
  Pb  Pb72  1  0.09424681  0.27159492  0.28033639  1.0
  Pb  Pb73  1  0.64609748  0.22845888  0.21980517  1.0
  Pb  Pb74  1  0.90575741  0.72840437  0.71966391  1.0
  Pb  Pb75  1  0.35390213  0.77154134  0.78019519  1.0
  C  C76  1  0.26009848  0.37503110  0.19837140  1.0
  C  C77  1  0.83370790  0.12503419  0.30166627  1.0
  C  C78  1  0.73990225  0.62496864  0.80162815  1.0
  C  C79  1  0.16629190  0.87496557  0.69833417  1.0
  C  C80  1  0.35314264  0.42566927  0.16045726  1.0
  C  C81  1  0.93948544  0.07436450  0.33953005  1.0
  C  C82  1  0.64685788  0.57433094  0.83954222  1.0
  C  C83  1  0.06051354  0.92563618  0.66047067  1.0
  C  C84  1  0.53635926  0.42571044  0.16073781  1.0
  C  C85  1  0.12303516  0.07430990  0.33924930  1.0
  C  C86  1  0.46364100  0.57428931  0.83926218  1.0
  C  C87  1  0.87696445  0.92569032  0.66075106  1.0
  C  C88  1  0.62730433  0.47158295  0.12479185  1.0
  C  C89  1  0.22386013  0.02841455  0.37518023  1.0
  C  C90  1  0.37269738  0.52841634  0.87520830  1.0
  C  C91  1  0.77613994  0.97158566  0.62481969  1.0
  C  C92  1  0.53352773  0.51822202  0.08619858  1.0
  C  C93  1  0.13808711  0.98176399  0.41374115  1.0
  C  C94  1  0.46647504  0.48177773  0.91380157  1.0
  C  C95  1  0.86191296  0.01823622  0.58625877  1.0
  C  C96  1  0.34850811  0.51908217  0.08664184  1.0
  C  C97  1  0.95439281  0.98090510  0.41328413  1.0
  C  C98  1  0.65149491  0.48091804  0.91335780  1.0
  C  C99  1  0.04560617  0.01909558  0.58671659  1.0
  C  C100  1  0.25915136  0.47360377  0.12353765  1.0
  C  C101  1  0.85648101  0.02641119  0.37642063  1.0
  C  C102  1  0.74084916  0.52639644  0.87646183  1.0
  C  C103  1  0.14351692  0.97358903  0.62358009  1.0
  C  C104  1  0.84199610  0.61999868  0.98119077  1.0
  C  C105  1  0.44301816  0.87995428  0.51879482  1.0
  C  C106  1  0.15800434  0.38000061  0.01880931  1.0
  C  C107  1  0.55698112  0.12004592  0.48120458  1.0
  C  C108  1  0.02566625  0.61930900  0.96042250  1.0
  C  C109  1  0.60542275  0.88055970  0.53951847  1.0
  C  C110  1  0.97433527  0.38069075  0.03957757  1.0
  C  C111  1  0.39457690  0.11943958  0.46048109  1.0
  C  C112  1  0.08529224  0.66045367  0.91122926  1.0
  C  C113  1  0.65700429  0.83940432  0.58870574  1.0
  C  C114  1  0.91470739  0.33954654  0.08877110  1.0
  C  C115  1  0.34299516  0.16059542  0.41129375  1.0
  C  C116  1  0.78555876  0.70536772  0.90080927  1.0
  C  C117  1  0.39141643  0.79460616  0.59918462  1.0
  C  C118  1  0.21444045  0.29463156  0.09919073  1.0
  C  C119  1  0.60858195  0.20539405  0.40081566  1.0
  C  C120  1  0.72223079  0.66506184  0.95053494  1.0
  C  C121  1  0.33747635  0.83493389  0.54946731  1.0
  C  C122  1  0.27776904  0.33493698  0.04946470  1.0
  C  C123  1  0.66252202  0.16506632  0.45053297  1.0
  C  C124  1  0.00888478  0.68163569  0.59956710  1.0
  C  C125  1  0.29043275  0.81831340  0.90030703  1.0
  C  C126  1  0.99111672  0.31836406  0.40043298  1.0
  C  C127  1  0.70956794  0.18168728  0.09969332  1.0
  C  C128  1  0.08165157  0.64131454  0.55225128  1.0
  C  C129  1  0.27543437  0.85868572  0.94759758  1.0
  C  C130  1  0.91834949  0.35868522  0.44774923  1.0
  C  C131  1  0.72456230  0.14131450  0.05240306  1.0
  C  C132  1  0.08146569  0.57714771  0.56690654  1.0
  C  C133  1  0.22572918  0.92283962  0.93289915  1.0
  C  C134  1  0.91853519  0.42285251  0.43309389  1.0
  C  C135  1  0.77426919  0.07716059  0.06710113  1.0
  C  C136  1  0.15687981  0.53850512  0.52512736  1.0
  C  C137  1  0.22055191  0.96151286  0.97468769  1.0
  C  C138  1  0.84312026  0.46149509  0.47487256  1.0
  C  C139  1  0.77944496  0.03848689  0.02531303  1.0
  C  C140  1  0.23459307  0.56332035  0.46707856  1.0
  C  C141  1  0.26482717  0.93672787  0.03278155  1.0
  C  C142  1  0.76540530  0.43667987  0.53292172  1.0
  C  C143  1  0.73517265  0.06327188  0.96721888  1.0
  C  C144  1  0.23255961  0.62762771  0.45135227  1.0
  C  C145  1  0.31127271  0.87242795  0.04855755  1.0
  C  C146  1  0.76743796  0.37237250  0.54864749  1.0
  C  C147  1  0.68872690  0.12757227  0.95144281  1.0
  C  C148  1  0.15701321  0.66560222  0.49410086  1.0
  C  C149  1  0.31668149  0.83442644  0.00579542  1.0
  C  C150  1  0.84298640  0.33439800  0.50589950  1.0
  C  C151  1  0.68331688  0.16557377  0.99420486  1.0
  C  C152  1  0.42747766  0.53102222  0.37460277  1.0
  C  C153  1  0.33302507  0.96906858  0.12525506  1.0
  C  C154  1  0.57251953  0.46897891  0.62539684  1.0
  C  C155  1  0.66697794  0.03093163  0.87474458  1.0
  C  C156  1  0.50174463  0.47358150  0.34830289  1.0
  C  C157  1  0.32345111  0.02647910  0.15163394  1.0
  C  C158  1  0.49825379  0.52641964  0.65169680  1.0
  C  C159  1  0.67655066  0.97352110  0.84836562  1.0
  C  C160  1  0.41779559  0.42053205  0.35872743  1.0
  C  C161  1  0.19673965  0.07945683  0.14126321  1.0
  C  C162  1  0.58220204  0.57946908  0.64127174  1.0
  C  C163  1  0.80326231  0.92054291  0.85873643  1.0
  C  C164  1  0.50133405  0.36842135  0.33495555  1.0
  C  C165  1  0.20436299  0.13156343  0.16509014  1.0
  C  C166  1  0.49866538  0.63157933  0.66504473  1.0
  C  C167  1  0.79563897  0.86843631  0.83490950  1.0
  C  C168  1  0.74959936  0.41972857  0.28847722  1.0
  C  C169  1  0.45757613  0.08036447  0.21155740  1.0
  C  C170  1  0.25040006  0.58027211  0.71152306  1.0
  C  C171  1  0.54242439  0.91963573  0.78844208  1.0
  C  C172  1  0.66726489  0.47264892  0.31083842  1.0
  C  C173  1  0.45062074  0.02745820  0.18911950  1.0
  C  C174  1  0.33273374  0.52735175  0.68916135  1.0
  C  C175  1  0.54937976  0.97254201  0.81087999  1.0
  C  C176  1  0.79340282  0.57132356  0.03337838  1.0
  C  C177  1  0.39803329  0.92867705  0.46663249  1.0
  C  C178  1  0.20659807  0.42867573  0.96662125  1.0
  C  C179  1  0.60196678  0.07132316  0.53336743  1.0
  N  N180  1  0.61522381  0.56416292  0.04543944  1.0
  N  N181  1  0.22482278  0.93581862  0.45451596  1.0
  N  N182  1  0.38477725  0.43583684  0.95456107  1.0
  N  N183  1  0.77517649  0.06418159  0.54548344  1.0
  N  N184  1  0.96545663  0.70214302  0.88085218  1.0
  N  N185  1  0.54830933  0.79777594  0.61911392  1.0
  N  N186  1  0.03454364  0.29785673  0.11914781  1.0
  N  N187  1  0.45168949  0.20222427  0.38088592  1.0
  N  N188  1  0.31210727  0.52131198  0.42787495  1.0
  N  N189  1  0.26100225  0.97875721  0.07199850  1.0
  N  N190  1  0.68789010  0.47868869  0.57212474  1.0
  N  N191  1  0.73899757  0.02124254  0.92800194  1.0
  N  N192  1  0.66826444  0.36774598  0.30225903  1.0
  N  N193  1  0.33793662  0.13229374  0.19781611  1.0
  N  N194  1  0.33173499  0.63225470  0.69774125  1.0
  N  N195  1  0.66206410  0.86770600  0.80218345  1.0
  O  O196  1  0.09012238  0.37964677  0.20372437  1.0
  O  O197  1  0.67352293  0.12047700  0.29642214  1.0
  O  O198  1  0.90987894  0.62035344  0.79627563  1.0
  O  O199  1  0.32647779  0.87952274  0.70357742  1.0
  O  O200  1  0.35716204  0.32767312  0.22407585  1.0
  O  O201  1  0.90925239  0.17235772  0.27589603  1.0
  O  O202  1  0.64283803  0.67232709  0.77592407  1.0
  O  O203  1  0.09074788  0.82764203  0.72410396  1.0
  O  O204  1  0.91026969  0.53931072  0.06202900  1.0
  O  O205  1  0.51152877  0.96072425  0.43804000  1.0
  O  O206  1  0.08973265  0.46068810  0.93797079  1.0
  O  O207  1  0.48847214  0.03927503  0.56195963  1.0
  O  O208  1  0.02133410  0.73859571  0.83196904  1.0
  O  O209  1  0.59178396  0.76133030  0.66800688  1.0
  O  O210  1  0.97866572  0.26140404  0.16803139  1.0
  O  O211  1  0.40821612  0.23866991  0.33199303  1.0
  O  O212  1  0.92979176  0.65449851  0.64954890  1.0
  O  O213  1  0.23433573  0.84540141  0.85026964  1.0
  O  O214  1  0.07021038  0.34550170  0.35045161  1.0
  O  O215  1  0.76566416  0.15459926  0.14973020  1.0
  O  O216  1  0.03127004  0.73796751  0.58979121  1.0
  O  O217  1  0.35926357  0.76199810  0.91016174  1.0
  O  O218  1  0.96873084  0.26203271  0.41020922  1.0
  O  O219  1  0.64073836  0.23800258  0.08983870  1.0
  O  O220  1  0.47261371  0.58167043  0.35092346  1.0
  O  O221  1  0.40537142  0.91844193  0.14886548  1.0
  O  O222  1  0.52738347  0.41833071  0.64907615  1.0
  O  O223  1  0.59463607  0.08155873  0.85113343  1.0
  O  O224  1  0.74951034  0.31655555  0.28276913  1.0
  O  O225  1  0.34844523  0.18347146  0.21737971  1.0
  O  O226  1  0.25048964  0.68344468  0.71723218  1.0
  O  O227  1  0.65155574  0.81652874  0.78261933  1.0
