# generated using pymatgen
data_AlH9C21Br3(NO2)3
_symmetry_space_group_name_H-M   'P 1'
_cell_length_a   4.01235290
_cell_length_b   27.94111578
_cell_length_c   27.94118679
_cell_angle_alpha   60.00063258
_cell_angle_beta   89.99894716
_cell_angle_gamma   89.99895527
_symmetry_Int_Tables_number   1
_chemical_formula_structural   AlH9C21Br3(NO2)3
_chemical_formula_sum   'Al2 H18 C42 Br6 N6 O12'
_cell_volume   2712.82086513
_cell_formula_units_Z   2
loop_
 _symmetry_equiv_pos_site_id
 _symmetry_equiv_pos_as_xyz
  1  'x, y, z'
loop_
 _atom_site_type_symbol
 _atom_site_label
 _atom_site_symmetry_multiplicity
 _atom_site_fract_x
 _atom_site_fract_y
 _atom_site_fract_z
 _atom_site_occupancy
  Al  Al0  1  0.98795400  0.49999991  0.00000221  1.0
  Al  Al1  1  0.98795483  0.16666540  0.66666745  1.0
  H  H2  1  0.52374672  0.31089392  0.51141404  1.0
  H  H3  1  0.51050116  0.36029753  0.40757542  1.0
  H  H4  1  0.49647157  0.20360453  0.41358294  1.0
  H  H5  1  0.49645294  0.46305969  0.25309005  1.0
  H  H6  1  0.51046176  0.30636632  0.25909466  1.0
  H  H7  1  0.52371437  0.35577226  0.15525560  1.0
  H  H8  1  0.52370606  0.17769298  0.81089510  1.0
  H  H9  1  0.51046462  0.23212546  0.86030287  1.0
  H  H10  1  0.49644341  0.38281237  0.70360848  1.0
  H  H11  1  0.49652028  0.28385428  0.96306265  1.0
  H  H12  1  0.51049013  0.43453636  0.80636783  1.0
  H  H13  1  0.52371764  0.48897428  0.85577165  1.0
  H  H14  1  0.52376003  0.01140858  0.67769400  1.0
  H  H15  1  0.51050228  0.90756848  0.73213001  1.0
  H  H16  1  0.49646307  0.91358056  0.88281359  1.0
  H  H17  1  0.49647211  0.75307916  0.78385811  1.0
  H  H18  1  0.51052364  0.75909640  0.93453630  1.0
  H  H19  1  0.52374591  0.65525780  0.98897523  1.0
  C  C20  1  0.49146746  0.58440306  0.95239312  1.0
  C  C21  1  0.49146169  0.46320801  0.08440576  1.0
  C  C22  1  0.49147513  0.45239022  0.96320781  1.0
  C  C23  1  0.49147616  0.20345837  0.58226436  1.0
  C  C24  1  0.49145773  0.21427704  0.70345983  1.0
  C  C25  1  0.49147787  0.08226143  0.71427864  1.0
  C  C26  1  0.50054044  0.22980438  0.52077188  1.0
  C  C27  1  0.51299281  0.28790611  0.48934999  1.0
  C  C28  1  0.50674155  0.31537424  0.43212775  1.0
  C  C29  1  0.49724708  0.28445711  0.40498469  1.0
  C  C30  1  0.49535962  0.22656879  0.43562469  1.0
  C  C31  1  0.49410901  0.19954713  0.49310357  1.0
  C  C32  1  0.49534674  0.44009394  0.23104914  1.0
  C  C33  1  0.49722764  0.38220889  0.26168830  1.0
  C  C34  1  0.50672203  0.35128745  0.23454523  1.0
  C  C35  1  0.51297465  0.37875937  0.17731967  1.0
  C  C36  1  0.50052144  0.43685994  0.14589946  1.0
  C  C37  1  0.49410256  0.46711745  0.17356942  1.0
  C  C38  1  0.50049589  0.24942258  0.72980861  1.0
  C  C39  1  0.51295966  0.22274409  0.78790759  1.0
  C  C40  1  0.50672277  0.25249799  0.81537795  1.0
  C  C41  1  0.49721791  0.31055917  0.78446026  1.0
  C  C42  1  0.49531329  0.33780533  0.72657390  1.0
  C  C43  1  0.49407080  0.30734906  0.69954986  1.0
  C  C44  1  0.49539487  0.32886148  0.94009765  1.0
  C  C45  1  0.49727107  0.35610789  0.88221005  1.0
  C  C46  1  0.50674510  0.41416696  0.85129152  1.0
  C  C47  1  0.51297969  0.44391999  0.87876145  1.0
  C  C48  1  0.50053608  0.41724358  0.93686190  1.0
  C  C49  1  0.49413260  0.35931899  0.96711921  1.0
  C  C50  1  0.50053655  0.02076791  0.74942478  1.0
  C  C51  1  0.51298253  0.98934559  0.72274492  1.0
  C  C52  1  0.50673853  0.93212187  0.75250095  1.0
  C  C53  1  0.49725083  0.90497999  0.81056172  1.0
  C  C54  1  0.49535548  0.93562078  0.83780726  1.0
  C  C55  1  0.49411013  0.99310061  0.80735077  1.0
  C  C56  1  0.49535906  0.73104037  0.82886444  1.0
  C  C57  1  0.49725450  0.76168121  0.85610916  1.0
  C  C58  1  0.50674818  0.73454378  0.91416743  1.0
  C  C59  1  0.51299312  0.67731944  0.94392180  1.0
  C  C60  1  0.50052035  0.64589400  0.91724779  1.0
  C  C61  1  0.49409217  0.67356069  0.85932135  1.0
  Br  Br62  1  0.50673998  0.12103070  0.53219583  1.0
  Br  Br63  1  0.50676098  0.54563401  0.13447755  1.0
  Br  Br64  1  0.50672745  0.34677328  0.62103343  1.0
  Br  Br65  1  0.50678598  0.31989585  0.04563541  1.0
  Br  Br66  1  0.50680022  0.03219482  0.84677310  1.0
  Br  Br67  1  0.50674312  0.63446908  0.81989616  1.0
  N  N68  1  0.49521813  0.30715929  0.34703633  1.0
  N  N69  1  0.49519414  0.35950390  0.31963585  1.0
  N  N70  1  0.49520044  0.34580303  0.80716371  1.0
  N  N71  1  0.49523605  0.32085998  0.85950827  1.0
  N  N72  1  0.49520108  0.84703129  0.84580624  1.0
  N  N73  1  0.49523681  0.81963259  0.82086216  1.0
  O  O74  1  0.25081671  0.44514812  0.99572655  1.0
  O  O75  1  0.25082020  0.55912780  0.94515124  1.0
  O  O76  1  0.25082190  0.49572456  0.05912954  1.0
  O  O77  1  0.72205164  0.48822647  0.94984795  1.0
  O  O78  1  0.72205686  0.44984505  0.06193242  1.0
  O  O79  1  0.72204700  0.56192808  0.98822860  1.0
  O  O80  1  0.25081901  0.10753864  0.72151930  1.0
  O  O81  1  0.25081980  0.17094148  0.60753894  1.0
  O  O82  1  0.25080754  0.22151736  0.67094233  1.0
  O  O83  1  0.72206165  0.10473636  0.67844276  1.0
  O  O84  1  0.72204953  0.17844243  0.71682093  1.0
  O  O85  1  0.72204681  0.21681836  0.60474100  1.0
