# generated using pymatgen
data_Zn2H25C39NO7
_symmetry_space_group_name_H-M   'P 1'
_cell_length_a   11.96119275
_cell_length_b   18.04579245
_cell_length_c   18.72946508
_cell_angle_alpha   89.99995976
_cell_angle_beta   89.99975958
_cell_angle_gamma   89.99996466
_symmetry_Int_Tables_number   1
_chemical_formula_structural   Zn2H25C39NO7
_chemical_formula_sum   'Zn8 H100 C156 N4 O28'
_cell_volume   4042.74008801
_cell_formula_units_Z   4
loop_
 _symmetry_equiv_pos_site_id
 _symmetry_equiv_pos_as_xyz
  1  'x, y, z'
loop_
 _atom_site_type_symbol
 _atom_site_label
 _atom_site_symmetry_multiplicity
 _atom_site_fract_x
 _atom_site_fract_y
 _atom_site_fract_z
 _atom_site_occupancy
  Zn  Zn0  1  0.39208447  0.30157271  0.00927460  1.0
  Zn  Zn1  1  0.10791478  0.30157296  0.99072586  1.0
  Zn  Zn2  1  0.60791584  0.19842674  0.00927434  1.0
  Zn  Zn3  1  0.89208411  0.19842743  0.99072698  1.0
  Zn  Zn4  1  0.60792325  0.69842437  0.99072559  1.0
  Zn  Zn5  1  0.89208459  0.69842578  0.00927753  1.0
  Zn  Zn6  1  0.39208520  0.80157201  0.99072638  1.0
  Zn  Zn7  1  0.10791275  0.80157298  0.00927427  1.0
  H  H8  1  0.87257724  0.76569603  0.79569828  1.0
  H  H9  1  0.53899565  0.49225003  0.92606347  1.0
  H  H10  1  0.87408818  0.66491373  0.23200203  1.0
  H  H11  1  0.64457392  0.58936187  0.86151740  1.0
  H  H12  1  0.87828549  0.66142478  0.36277137  1.0
  H  H13  1  0.84314441  0.69170711  0.59566220  1.0
  H  H14  1  0.91065461  0.43319911  0.82152503  1.0
  H  H15  1  0.80241942  0.33596315  0.88501715  1.0
  H  H16  1  0.78342708  0.66608277  0.86438700  1.0
  H  H17  1  0.84204043  0.69256664  0.46485228  1.0
  H  H18  1  0.01766471  0.60396658  0.65379581  1.0
  H  H19  1  0.92573785  0.50356291  0.72179069  1.0
  H  H20  1  0.75000125  0.09397577  0.00000003  1.0
  H  H21  1  0.62742135  0.76569629  0.20430105  1.0
  H  H22  1  0.96100486  0.49225081  0.07393552  1.0
  H  H23  1  0.62591050  0.66491359  0.76799845  1.0
  H  H24  1  0.85542316  0.58936098  0.13848152  1.0
  H  H25  1  0.62171152  0.66142640  0.63722963  1.0
  H  H26  1  0.65685592  0.69170777  0.40433825  1.0
  H  H27  1  0.58934512  0.43319886  0.17847399  1.0
  H  H28  1  0.69758291  0.33596289  0.11498248  1.0
  H  H29  1  0.71656992  0.66608194  0.13561187  1.0
  H  H30  1  0.65795822  0.69256721  0.53514657  1.0
  H  H31  1  0.48233510  0.60396716  0.34620231  1.0
  H  H32  1  0.57425931  0.50356259  0.27820882  1.0
  H  H33  1  0.12742247  0.73430326  0.79569876  1.0
  H  H34  1  0.46100366  0.00775096  0.92606267  1.0
  H  H35  1  0.12590937  0.83508430  0.23200137  1.0
  H  H36  1  0.35542619  0.91063904  0.86151661  1.0
  H  H37  1  0.12170953  0.83857371  0.36276912  1.0
  H  H38  1  0.15685410  0.80829288  0.59566041  1.0
  H  H39  1  0.08934622  0.06680085  0.82152572  1.0
  H  H40  1  0.19758016  0.16403732  0.88501695  1.0
  H  H41  1  0.21657384  0.83391702  0.86438824  1.0
  H  H42  1  0.15795726  0.80743234  0.46485209  1.0
  H  H43  1  0.98233843  0.89603225  0.65379762  1.0
  H  H44  1  0.07426150  0.99643587  0.72179060  1.0
  H  H45  1  0.24999913  0.40602479  0.00000006  1.0
  H  H46  1  0.37258056  0.73430398  0.20430140  1.0
  H  H47  1  0.03899586  0.00774969  0.07393692  1.0
  H  H48  1  0.37408938  0.83508627  0.76799979  1.0
  H  H49  1  0.14457584  0.91063823  0.13848290  1.0
  H  H50  1  0.37828839  0.83857522  0.63723044  1.0
  H  H51  1  0.34314551  0.80829291  0.40433970  1.0
  H  H52  1  0.41065492  0.06680102  0.17847276  1.0
  H  H53  1  0.30241755  0.16403703  0.11498093  1.0
  H  H54  1  0.28343077  0.83391783  0.13561186  1.0
  H  H55  1  0.34203984  0.80743283  0.53514803  1.0
  H  H56  1  0.51766505  0.89603301  0.34620216  1.0
  H  H57  1  0.42574128  0.99643818  0.27820885  1.0
  H  H58  1  0.12742297  0.23430272  0.20430083  1.0
  H  H59  1  0.46100455  0.50774982  0.07393672  1.0
  H  H60  1  0.12590952  0.33508501  0.76799869  1.0
  H  H61  1  0.35542712  0.41063743  0.13848278  1.0
  H  H62  1  0.12171053  0.33857396  0.63723095  1.0
  H  H63  1  0.15685580  0.30829274  0.40433852  1.0
  H  H64  1  0.08934726  0.56680074  0.17847302  1.0
  H  H65  1  0.19758245  0.66403726  0.11498197  1.0
  H  H66  1  0.21657395  0.33391763  0.13561158  1.0
  H  H67  1  0.15796061  0.30743321  0.53514684  1.0
  H  H68  1  0.98233633  0.39603271  0.34620331  1.0
  H  H69  1  0.07426152  0.49643638  0.27820843  1.0
  H  H70  1  0.24999979  0.90602353  0.99999962  1.0
  H  H71  1  0.37257885  0.23430411  0.79569860  1.0
  H  H72  1  0.03899451  0.50774848  0.92606306  1.0
  H  H73  1  0.37408970  0.33508626  0.23200067  1.0
  H  H74  1  0.14457704  0.41063831  0.86151867  1.0
  H  H75  1  0.37828869  0.33857400  0.36276948  1.0
  H  H76  1  0.34314345  0.30829318  0.59566140  1.0
  H  H77  1  0.41065090  0.56680266  0.82152726  1.0
  H  H78  1  0.30241479  0.66403917  0.88501824  1.0
  H  H79  1  0.28343112  0.33391846  0.86438832  1.0
  H  H80  1  0.34204114  0.30743209  0.46485254  1.0
  H  H81  1  0.51766427  0.39603269  0.65379681  1.0
  H  H82  1  0.42574173  0.49643781  0.72179083  1.0
  H  H83  1  0.87257690  0.26569769  0.20430089  1.0
  H  H84  1  0.53899655  0.99224944  0.07393592  1.0
  H  H85  1  0.87408665  0.16491333  0.76799775  1.0
  H  H86  1  0.64457402  0.08936137  0.13848197  1.0
  H  H87  1  0.87828901  0.16142558  0.63722893  1.0
  H  H88  1  0.84314694  0.19170753  0.40433977  1.0
  H  H89  1  0.91065565  0.93320011  0.17847446  1.0
  H  H90  1  0.80242005  0.83596419  0.11498377  1.0
  H  H91  1  0.78342804  0.16608338  0.13561195  1.0
  H  H92  1  0.84204127  0.19256751  0.53514756  1.0
  H  H93  1  0.01766261  0.10396870  0.34620150  1.0
  H  H94  1  0.92573870  0.00356453  0.27820852  1.0
  H  H95  1  0.75000352  0.59396600  0.00000039  1.0
  H  H96  1  0.62742048  0.26569642  0.79569878  1.0
  H  H97  1  0.96100267  0.99224849  0.92606380  1.0
  H  H98  1  0.62591166  0.16491413  0.23200146  1.0
  H  H99  1  0.85542436  0.08936051  0.86151675  1.0
  H  H100  1  0.62171182  0.16142463  0.36277028  1.0
  H  H101  1  0.65685469  0.19170805  0.59565995  1.0
  H  H102  1  0.58934278  0.93319939  0.82152476  1.0
  H  H103  1  0.69757848  0.83596338  0.88501658  1.0
  H  H104  1  0.71656944  0.16608257  0.86438779  1.0
  H  H105  1  0.65796036  0.19256758  0.46485216  1.0
  H  H106  1  0.48233516  0.10396739  0.65379749  1.0
  H  H107  1  0.57425976  0.00356333  0.72179133  1.0
  C  C108  1  0.60008738  0.35027897  0.94773623  1.0
  C  C109  1  0.66446818  0.40814509  0.90963413  1.0
  C  C110  1  0.88400427  0.70824330  0.77934224  1.0
  C  C111  1  0.94948540  0.69162448  0.71930734  1.0
  C  C112  1  0.62061719  0.47992693  0.90321006  1.0
  C  C113  1  0.92967283  0.70204203  0.26092642  1.0
  C  C114  1  0.68043657  0.53416395  0.86722175  1.0
  C  C115  1  0.78555412  0.51859798  0.83659875  1.0
  C  C116  1  0.84589018  0.57711135  0.79768029  1.0
  C  C117  1  0.93113398  0.70130943  0.33502837  1.0
  C  C118  1  0.91242270  0.71684261  0.56669865  1.0
  C  C119  1  0.82865769  0.44634124  0.84358717  1.0
  C  C120  1  0.76896289  0.39179501  0.87951781  1.0
  C  C121  1  0.83352258  0.65176864  0.81784209  1.0
  C  C122  1  0.91301820  0.71702495  0.49263780  1.0
  C  C123  1  0.96534094  0.61723927  0.69971309  1.0
  C  C124  1  0.91404161  0.56096466  0.73845320  1.0
  C  C125  1  0.89991243  0.35028034  0.05226392  1.0
  C  C126  1  0.83553241  0.40814480  0.09036651  1.0
  C  C127  1  0.61599521  0.70824411  0.22065767  1.0
  C  C128  1  0.55051493  0.69162472  0.28069204  1.0
  C  C129  1  0.87938166  0.47992828  0.09679000  1.0
  C  C130  1  0.57032499  0.70204304  0.73907563  1.0
  C  C131  1  0.81956140  0.53416142  0.13277774  1.0
  C  C132  1  0.71444302  0.51859935  0.16339862  1.0
  C  C133  1  0.65410858  0.57711105  0.20231811  1.0
  C  C134  1  0.56886300  0.70130993  0.66497368  1.0
  C  C135  1  0.58757593  0.71684272  0.43330339  1.0
  C  C136  1  0.67134370  0.44633986  0.15641292  1.0
  C  C137  1  0.73103689  0.39179751  0.12048284  1.0
  C  C138  1  0.66647527  0.65176835  0.18215625  1.0
  C  C139  1  0.58698127  0.71702612  0.50736317  1.0
  C  C140  1  0.53465862  0.61723895  0.30028475  1.0
  C  C141  1  0.58595717  0.56096379  0.26154413  1.0
  C  C142  1  0.39991346  0.14971813  0.94773604  1.0
  C  C143  1  0.33553040  0.09185481  0.90963361  1.0
  C  C144  1  0.11599638  0.79175655  0.77934324  1.0
  C  C145  1  0.05051731  0.80837431  0.71930851  1.0
  C  C146  1  0.37938143  0.02007408  0.90320948  1.0
  C  C147  1  0.07032788  0.79795654  0.26092540  1.0
  C  C148  1  0.31956099  0.96583695  0.86722049  1.0
  C  C149  1  0.21444448  0.98140183  0.83660042  1.0
  C  C150  1  0.15410867  0.92288905  0.79768217  1.0
  C  C151  1  0.06886206  0.79869020  0.33502843  1.0
  C  C152  1  0.08757516  0.78315740  0.56669813  1.0
  C  C153  1  0.17134132  0.05365815  0.84358818  1.0
  C  C154  1  0.23103590  0.10820436  0.87951810  1.0
  C  C155  1  0.16647781  0.84823174  0.81784399  1.0
  C  C156  1  0.08698098  0.78297290  0.49263568  1.0
  C  C157  1  0.03466273  0.88276008  0.69971371  1.0
  C  C158  1  0.08595930  0.93903523  0.73845525  1.0
  C  C159  1  0.10008593  0.14971685  0.05226292  1.0
  C  C160  1  0.16446988  0.09185348  0.09036485  1.0
  C  C161  1  0.38400743  0.79175670  0.22065635  1.0
  C  C162  1  0.44948481  0.80837550  0.28069214  1.0
  C  C163  1  0.12061724  0.02007055  0.09679010  1.0
  C  C164  1  0.42967007  0.79795740  0.73907632  1.0
  C  C165  1  0.18044015  0.96583614  0.13277792  1.0
  C  C166  1  0.28555832  0.98140151  0.16339744  1.0
  C  C167  1  0.34589418  0.92288922  0.20231627  1.0
  C  C168  1  0.43113672  0.79869056  0.66497383  1.0
  C  C169  1  0.41242447  0.78315794  0.43330253  1.0
  C  C170  1  0.32865816  0.05365892  0.15641084  1.0
  C  C171  1  0.26896353  0.10820185  0.12048089  1.0
  C  C172  1  0.33352678  0.84823250  0.18215449  1.0
  C  C173  1  0.41301782  0.78297394  0.50736498  1.0
  C  C174  1  0.46534183  0.88276180  0.30028475  1.0
  C  C175  1  0.41404437  0.93903700  0.26154263  1.0
  C  C176  1  0.39990195  0.64972310  0.05226128  1.0
  C  C177  1  0.33553035  0.59185310  0.09036285  1.0
  C  C178  1  0.11599761  0.29175710  0.22065634  1.0
  C  C179  1  0.05051814  0.30837482  0.28069124  1.0
  C  C180  1  0.37938217  0.52007292  0.09678852  1.0
  C  C181  1  0.07032654  0.29795671  0.73907697  1.0
  C  C182  1  0.31956280  0.46583590  0.13277790  1.0
  C  C183  1  0.21444608  0.48140186  0.16339877  1.0
  C  C184  1  0.15411002  0.42288905  0.20231830  1.0
  C  C185  1  0.06886288  0.29868987  0.66497448  1.0
  C  C186  1  0.08757667  0.28315835  0.43330260  1.0
  C  C187  1  0.17134335  0.55365805  0.15641035  1.0
  C  C188  1  0.23103648  0.60820484  0.12048023  1.0
  C  C189  1  0.16647929  0.34823121  0.18215649  1.0
  C  C190  1  0.08698284  0.28297435  0.50736452  1.0
  C  C191  1  0.03466177  0.38276058  0.30028603  1.0
  C  C192  1  0.08595943  0.43903519  0.26154485  1.0
  C  C193  1  0.10009446  0.64972228  0.94773680  1.0
  C  C194  1  0.16446863  0.59185394  0.90963741  1.0
  C  C195  1  0.38400583  0.29175684  0.77934305  1.0
  C  C196  1  0.44948444  0.30837569  0.71930708  1.0
  C  C197  1  0.12061938  0.52007157  0.90321072  1.0
  C  C198  1  0.42967438  0.29795792  0.26092402  1.0
  C  C199  1  0.18044048  0.46583677  0.86722351  1.0
  C  C200  1  0.28555718  0.48140216  0.83660263  1.0
  C  C201  1  0.34589496  0.42289046  0.79768368  1.0
  C  C202  1  0.43113720  0.29868991  0.33502651  1.0
  C  C203  1  0.41242260  0.28315713  0.56669680  1.0
  C  C204  1  0.32865483  0.55366165  0.84359047  1.0
  C  C205  1  0.26896165  0.60820567  0.87952055  1.0
  C  C206  1  0.33352744  0.34823261  0.81784500  1.0
  C  C207  1  0.41301726  0.28297318  0.49263648  1.0
  C  C208  1  0.46534075  0.38276145  0.69971437  1.0
  C  C209  1  0.41404471  0.43903717  0.73845605  1.0
  C  C210  1  0.60008256  0.85028726  0.05225667  1.0
  C  C211  1  0.66447064  0.90814615  0.09036497  1.0
  C  C212  1  0.88400466  0.20824385  0.22065587  1.0
  C  C213  1  0.94948457  0.19162609  0.28069061  1.0
  C  C214  1  0.62061794  0.97992743  0.09678964  1.0
  C  C215  1  0.92967149  0.20204165  0.73907585  1.0
  C  C216  1  0.68043921  0.03416401  0.13277809  1.0
  C  C217  1  0.78555573  0.01859913  0.16339976  1.0
  C  C218  1  0.84589069  0.07711191  0.20231802  1.0
  C  C219  1  0.93113647  0.20130910  0.66497336  1.0
  C  C220  1  0.91242671  0.21684189  0.43330259  1.0
  C  C221  1  0.82865888  0.94634225  0.15641254  1.0
  C  C222  1  0.76896347  0.89179771  0.12048262  1.0
  C  C223  1  0.83352156  0.15176921  0.18215673  1.0
  C  C224  1  0.91301838  0.21702640  0.50736450  1.0
  C  C225  1  0.96533831  0.11723976  0.30028540  1.0
  C  C226  1  0.91404090  0.06096518  0.26154386  1.0
  C  C227  1  0.89991845  0.85028854  0.94774314  1.0
  C  C228  1  0.83552865  0.90814582  0.90963587  1.0
  C  C229  1  0.61599361  0.20824425  0.77934277  1.0
  C  C230  1  0.55051372  0.19162435  0.71930751  1.0
  C  C231  1  0.87938129  0.97992709  0.90321008  1.0
  C  C232  1  0.57032930  0.20204356  0.26092386  1.0
  C  C233  1  0.81956005  0.03416316  0.86722120  1.0
  C  C234  1  0.71444272  0.01859890  0.83660008  1.0
  C  C235  1  0.65410770  0.07711173  0.79768178  1.0
  C  C236  1  0.56886432  0.20130929  0.33502636  1.0
  C  C237  1  0.58757573  0.21684246  0.56669658  1.0
  C  C238  1  0.67134121  0.94634148  0.84358774  1.0
  C  C239  1  0.73103583  0.89179744  0.87951823  1.0
  C  C240  1  0.66647509  0.15176791  0.81784355  1.0
  C  C241  1  0.58698239  0.21702647  0.49263467  1.0
  C  C242  1  0.53465838  0.11723971  0.69971490  1.0
  C  C243  1  0.58595667  0.06096396  0.73845541  1.0
  C  C244  1  0.00000017  0.75000065  0.60543935  1.0
  C  C245  1  0.99999819  0.74999831  0.37437108  1.0
  C  C246  1  0.00001172  0.75000192  0.14342830  1.0
  C  C247  1  0.00000067  0.74999738  0.45303351  1.0
  C  C248  1  0.99999953  0.74999781  0.22268816  1.0
  C  C249  1  0.49999950  0.75000007  0.39456133  1.0
  C  C250  1  0.49999957  0.75000054  0.62563040  1.0
  C  C251  1  0.49999046  0.75000433  0.85657399  1.0
  C  C252  1  0.49999900  0.74999946  0.54696718  1.0
  C  C253  1  0.49999908  0.74999937  0.77731385  1.0
  C  C254  1  0.00000193  0.24999996  0.39456110  1.0
  C  C255  1  0.00000117  0.24999988  0.62563070  1.0
  C  C256  1  0.99999601  0.24999737  0.85657669  1.0
  C  C257  1  0.00000060  0.24999991  0.54696749  1.0
  C  C258  1  0.99999878  0.24999795  0.77731549  1.0
  C  C259  1  0.50000071  0.24999978  0.60543832  1.0
  C  C260  1  0.49999979  0.24999931  0.37436925  1.0
  C  C261  1  0.50000139  0.25000106  0.14342512  1.0
  C  C262  1  0.49999954  0.24999984  0.45303247  1.0
  C  C263  1  0.50000113  0.25000103  0.22268526  1.0
  N  N264  1  0.00000160  0.74999951  0.68026744  1.0
  N  N265  1  0.49999891  0.74999954  0.31973325  1.0
  N  N266  1  0.00000301  0.24999943  0.31973249  1.0
  N  N267  1  0.49999879  0.24999975  0.68026640  1.0
  O  O268  1  0.50751959  0.36988632  0.97613278  1.0
  O  O269  1  0.91922953  0.71682781  0.11202842  1.0
  O  O270  1  0.64110255  0.28485429  0.94936038  1.0
  O  O271  1  0.99247937  0.36988712  0.02386628  1.0
  O  O272  1  0.58076910  0.71683037  0.88797255  1.0
  O  O273  1  0.85889732  0.28485568  0.05064088  1.0
  O  O274  1  0.49247939  0.13011131  0.97613289  1.0
  O  O275  1  0.08078051  0.78316865  0.11203166  1.0
  O  O276  1  0.35889745  0.21514558  0.94936238  1.0
  O  O277  1  0.00752001  0.13010899  0.02386555  1.0
  O  O278  1  0.41922164  0.78316941  0.88797061  1.0
  O  O279  1  0.14110021  0.21514429  0.05063973  1.0
  O  O280  1  0.49247727  0.63011464  0.02386633  1.0
  O  O281  1  0.08077234  0.28316705  0.88797337  1.0
  O  O282  1  0.35889180  0.71514556  0.05063980  1.0
  O  O283  1  0.00752084  0.63011107  0.97613283  1.0
  O  O284  1  0.41922441  0.28316782  0.11202817  1.0
  O  O285  1  0.14110121  0.71514583  0.94936037  1.0
  O  O286  1  0.50751997  0.86989075  0.02386356  1.0
  O  O287  1  0.91922220  0.21683230  0.88797387  1.0
  O  O288  1  0.64110192  0.78485649  0.05063620  1.0
  O  O289  1  0.99248103  0.86989031  0.97613624  1.0
  O  O290  1  0.58077606  0.21683266  0.11202744  1.0
  O  O291  1  0.85889665  0.78485723  0.94936419  1.0
  O  O292  1  0.25000089  0.35227893  0.99999981  1.0
  O  O293  1  0.75000039  0.14772182  0.00000161  1.0
  O  O294  1  0.75000099  0.64770540  0.00000518  1.0
  O  O295  1  0.24999892  0.85227840  0.00000044  1.0
