# generated using pymatgen
data_ZnH19C28I3NO7
_symmetry_space_group_name_H-M   'P 1'
_cell_length_a   14.14420320
_cell_length_b   15.21470588
_cell_length_c   15.35793821
_cell_angle_alpha   81.57793618
_cell_angle_beta   77.21997186
_cell_angle_gamma   88.61150757
_symmetry_Int_Tables_number   1
_chemical_formula_structural   ZnH19C28I3NO7
_chemical_formula_sum   'Zn2 H38 C56 I6 N2 O14'
_cell_volume   3188.27692542
_cell_formula_units_Z   2
loop_
 _symmetry_equiv_pos_site_id
 _symmetry_equiv_pos_as_xyz
  1  'x, y, z'
loop_
 _atom_site_type_symbol
 _atom_site_label
 _atom_site_symmetry_multiplicity
 _atom_site_fract_x
 _atom_site_fract_y
 _atom_site_fract_z
 _atom_site_occupancy
  Zn  Zn0  1  0.51865469  0.47496537  0.39843222  1.0
  Zn  Zn1  1  0.48451134  0.52738092  0.59529895  1.0
  H  H2  1  0.46318078  0.06336962  0.27357014  1.0
  H  H3  1  0.55444873  0.94251531  0.72087921  1.0
  H  H4  1  0.44128859  0.62590613  0.11298126  1.0
  H  H5  1  0.55583085  0.37780679  0.88157792  1.0
  H  H6  1  0.53162879  0.23215938  0.46982174  1.0
  H  H7  1  0.49166857  0.77430850  0.52425387  1.0
  H  H8  1  0.49421069  0.25061955  0.74981303  1.0
  H  H9  1  0.50982155  0.75392442  0.24730001  1.0
  H  H10  1  0.41523425  0.76734858  0.10036322  1.0
  H  H11  1  0.30741946  0.70068729  0.13123507  1.0
  H  H12  1  0.21719526  0.82648433  0.06060611  1.0
  H  H13  1  0.27025554  0.86126761  0.14514786  1.0
  H  H14  1  0.32536268  0.89248484  0.02925317  1.0
  H  H15  1  0.69035215  0.29886749  0.86525808  1.0
  H  H16  1  0.58173991  0.23316576  0.89648445  1.0
  H  H17  1  0.66926038  0.10931715  0.97250750  1.0
  H  H18  1  0.72626863  0.13658339  0.85650484  1.0
  H  H19  1  0.77805758  0.17426384  0.94051414  1.0
  H  H20  1  0.76759935  0.41742690  0.29838513  1.0
  H  H21  1  0.78158592  0.31989969  0.24291530  1.0
  H  H22  1  0.75687273  0.22350188  0.39372648  1.0
  H  H23  1  0.85432789  0.29978667  0.38136561  1.0
  H  H24  1  0.73835089  0.32003225  0.44863221  1.0
  H  H25  1  0.30713328  0.72804801  0.57949248  1.0
  H  H26  1  0.32426106  0.78349136  0.66906362  1.0
  H  H27  1  0.18168081  0.69833102  0.77295185  1.0
  H  H28  1  0.14719972  0.75612483  0.67551246  1.0
  H  H29  1  0.16882972  0.63973940  0.68298171  1.0
  H  H30  1  0.41764469  0.82801910  0.74302940  1.0
  H  H31  1  0.41185266  0.83074572  0.85979323  1.0
  H  H32  1  0.23979175  0.88474477  0.87869451  1.0
  H  H33  1  0.32073764  0.95865227  0.79663727  1.0
  H  H34  1  0.24603108  0.88417053  0.76168537  1.0
  H  H35  1  0.59576691  0.16710246  0.16401031  1.0
  H  H36  1  0.61146492  0.19320055  0.26984902  1.0
  H  H37  1  0.78506868  0.14495217  0.23335987  1.0
  H  H38  1  0.70575929  0.05734599  0.22867136  1.0
  H  H39  1  0.77048854  0.12048896  0.12695161  1.0
  C  C40  1  0.48630390  0.65814511  0.41700634  1.0
  C  C41  1  0.52141496  0.34761287  0.58094328  1.0
  C  C42  1  0.51116355  0.90145113  0.43663811  1.0
  C  C43  1  0.50889246  0.10442655  0.55694954  1.0
  C  C44  1  0.50542304  0.94307228  0.34803826  1.0
  C  C45  1  0.51205227  0.06251004  0.64606640  1.0
  C  C46  1  0.52043486  0.95637888  0.50397793  1.0
  C  C47  1  0.50106679  0.04961966  0.48914105  1.0
  C  C48  1  0.47214630  0.08387852  0.40624916  1.0
  C  C49  1  0.54830832  0.92220938  0.58740149  1.0
  C  C50  1  0.48236398  0.03467104  0.33657235  1.0
  C  C51  1  0.53635737  0.97119221  0.65736067  1.0
  C  C52  1  0.38557665  0.66631599  0.82252353  1.0
  C  C53  1  0.62183726  0.34220154  0.16747683  1.0
  C  C54  1  0.40472187  0.63144804  0.74083988  1.0
  C  C55  1  0.60108122  0.37377683  0.25067065  1.0
  C  C56  1  0.52169032  0.53600735  0.78686954  1.0
  C  C57  1  0.48225861  0.46810034  0.20758979  1.0
  C  C58  1  0.48811598  0.54750253  0.87878984  1.0
  C  C59  1  0.51561316  0.45869693  0.11499545  1.0
  C  C60  1  0.42658560  0.62315031  0.89386449  1.0
  C  C61  1  0.57829792  0.38424796  0.09784624  1.0
  C  C62  1  0.32009968  0.46856668  0.52547479  1.0
  C  C63  1  0.68547644  0.52676001  0.46223343  1.0
  C  C64  1  0.51259551  0.48957426  0.95368292  1.0
  C  C65  1  0.48995653  0.51612430  0.04018006  1.0
  C  C66  1  0.44747930  0.60058613  0.04963229  1.0
  C  C67  1  0.55289839  0.40417620  0.94395515  1.0
  C  C68  1  0.41242361  0.65102430  0.98184461  1.0
  C  C69  1  0.58839597  0.35396616  0.01150589  1.0
  C  C70  1  0.21847409  0.46979172  0.52254078  1.0
  C  C71  1  0.78749635  0.51968133  0.46325996  1.0
  C  C72  1  0.13525752  0.47692669  0.51102452  1.0
  C  C73  1  0.87121379  0.50867405  0.47251873  1.0
  C  C74  1  0.04477862  0.48626705  0.49775705  1.0
  C  C75  1  0.96201355  0.49682091  0.48446535  1.0
  C  C76  1  0.49766787  0.75677863  0.38940285  1.0
  C  C77  1  0.51490704  0.24867828  0.60657882  1.0
  C  C78  1  0.50939984  0.88807944  0.27962420  1.0
  C  C79  1  0.50337265  0.11681765  0.71559744  1.0
  C  C80  1  0.50711138  0.79651150  0.29895674  1.0
  C  C81  1  0.50212127  0.20837975  0.69722457  1.0
  C  C82  1  0.50048653  0.80861428  0.45587583  1.0
  C  C83  1  0.51859129  0.19741908  0.53838129  1.0
  C  C84  1  0.34600872  0.75526364  0.08192502  1.0
  C  C85  1  0.28604895  0.83880392  0.07869582  1.0
  C  C86  1  0.65068815  0.24540401  0.91532916  1.0
  C  C87  1  0.70970481  0.16143871  0.92176961  1.0
  C  C88  1  0.74876594  0.34675558  0.30511005  1.0
  C  C89  1  0.77579684  0.29414216  0.38722967  1.0
  C  C90  1  0.29734689  0.72216474  0.65306187  1.0
  C  C91  1  0.19251624  0.70219318  0.69960986  1.0
  C  C92  1  0.36829440  0.82334145  0.81012850  1.0
  C  C93  1  0.28882059  0.89158497  0.81179036  1.0
  C  C94  1  0.64890610  0.18775317  0.19999527  1.0
  C  C95  1  0.73279719  0.12413375  0.19693829  1.0
  I  I96  1  0.51832667  0.94624212  0.14397866  1.0
  I  I97  1  0.49188343  0.05779731  0.85137443  1.0
  I  I98  1  0.39248704  0.20293731  0.38642116  1.0
  I  I99  1  0.62669870  0.80268475  0.60965285  1.0
  I  I100  1  0.34137404  0.51645656  0.25584282  1.0
  I  I101  1  0.66220714  0.48654695  0.73940152  1.0
  N  N102  1  0.47742020  0.57186154  0.72247517  1.0
  N  N103  1  0.52767558  0.43162615  0.27149176  1.0
  O  O104  1  0.49743964  0.60843118  0.35570979  1.0
  O  O105  1  0.50068286  0.39574541  0.64380530  1.0
  O  O106  1  0.46629812  0.63276352  0.50148832  1.0
  O  O107  1  0.54675896  0.37551989  0.49721626  1.0
  O  O108  1  0.37640022  0.44467901  0.45611052  1.0
  O  O109  1  0.63143707  0.54547633  0.53472247  1.0
  O  O110  1  0.34206164  0.49242051  0.59413594  1.0
  O  O111  1  0.66102744  0.51229065  0.39067766  1.0
  O  O112  1  0.36554559  0.72909752  0.99309471  1.0
  O  O113  1  0.63058367  0.27363144  0.00319978  1.0
  O  O114  1  0.64271803  0.34160118  0.31949347  1.0
  O  O115  1  0.36186608  0.64961704  0.67112102  1.0
  O  O116  1  0.32269533  0.73594602  0.83204085  1.0
  O  O117  1  0.68675116  0.27471636  0.15513476  1.0
