# generated using pymatgen
data_Cd2H27C25N5O11
_symmetry_space_group_name_H-M   'P 1'
_cell_length_a   12.78684658
_cell_length_b   15.23613160
_cell_length_c   23.63242833
_cell_angle_alpha   90.00000151
_cell_angle_beta   90.00003844
_cell_angle_gamma   89.99987288
_symmetry_Int_Tables_number   1
_chemical_formula_structural   Cd2H27C25N5O11
_chemical_formula_sum   'Cd8 H108 C100 N20 O44'
_cell_volume   4604.11877751
_cell_formula_units_Z   4
loop_
 _symmetry_equiv_pos_site_id
 _symmetry_equiv_pos_as_xyz
  1  'x, y, z'
loop_
 _atom_site_type_symbol
 _atom_site_label
 _atom_site_symmetry_multiplicity
 _atom_site_fract_x
 _atom_site_fract_y
 _atom_site_fract_z
 _atom_site_occupancy
  Cd  Cd0  1  0.35947932  0.35924375  0.38106121  1.0
  Cd  Cd1  1  0.85947962  0.64075700  0.61893910  1.0
  Cd  Cd2  1  0.35947992  0.14075720  0.88106103  1.0
  Cd  Cd3  1  0.85947902  0.85924290  0.11893885  1.0
  Cd  Cd4  1  0.25441692  0.22447473  0.49915950  1.0
  Cd  Cd5  1  0.75441750  0.77552359  0.50084203  1.0
  Cd  Cd6  1  0.25441638  0.27552379  0.99916102  1.0
  Cd  Cd7  1  0.75441804  0.72447584  0.00084009  1.0
  H  H8  1  0.04343493  0.49108788  0.50805699  1.0
  H  H9  1  0.54343151  0.50891149  0.49194489  1.0
  H  H10  1  0.04343682  0.00891036  0.00805800  1.0
  H  H11  1  0.54343196  0.99108835  0.99194303  1.0
  H  H12  1  0.93622161  0.63745294  0.36375035  1.0
  H  H13  1  0.43622240  0.36254701  0.63625294  1.0
  H  H14  1  0.93622241  0.86254814  0.86375060  1.0
  H  H15  1  0.43622395  0.13745247  0.13625142  1.0
  H  H16  1  0.12334048  0.40503971  0.33994816  1.0
  H  H17  1  0.62334096  0.59496213  0.66005290  1.0
  H  H18  1  0.12334277  0.09496101  0.83994925  1.0
  H  H19  1  0.62334258  0.90503689  0.16005138  1.0
  H  H20  1  0.95774678  0.61953498  0.20166249  1.0
  H  H21  1  0.45774694  0.38046427  0.79833997  1.0
  H  H22  1  0.95774674  0.88046671  0.70166358  1.0
  H  H23  1  0.45774619  0.11953320  0.29833718  1.0
  H  H24  1  0.99850433  0.51129486  0.03450024  1.0
  H  H25  1  0.49850050  0.48870628  0.96550265  1.0
  H  H26  1  0.99850322  0.98870543  0.53450091  1.0
  H  H27  1  0.49850551  0.01129375  0.46550113  1.0
  H  H28  1  0.13436033  0.38114649  0.17859192  1.0
  H  H29  1  0.63435703  0.61885467  0.82141084  1.0
  H  H30  1  0.13436021  0.11885420  0.67859174  1.0
  H  H31  1  0.63436107  0.88114368  0.32141017  1.0
  H  H32  1  0.33342967  0.47488467  0.26300266  1.0
  H  H33  1  0.83342886  0.52511547  0.73699678  1.0
  H  H34  1  0.33342901  0.02511500  0.76300248  1.0
  H  H35  1  0.83343030  0.97488448  0.23699570  1.0
  H  H36  1  0.40394614  0.25791877  0.21171975  1.0
  H  H37  1  0.90394404  0.74208189  0.78828015  1.0
  H  H38  1  0.40394412  0.24208143  0.71171873  1.0
  H  H39  1  0.90394527  0.75791858  0.28828074  1.0
  H  H40  1  0.41905532  0.29664053  0.13991884  1.0
  H  H41  1  0.91905341  0.70335945  0.86008106  1.0
  H  H42  1  0.41905263  0.20335964  0.63991781  1.0
  H  H43  1  0.91905454  0.79664165  0.36008166  1.0
  H  H44  1  0.29308295  0.27108560  0.16582432  1.0
  H  H45  1  0.79308016  0.72891461  0.83417511  1.0
  H  H46  1  0.29307941  0.22891480  0.66582372  1.0
  H  H47  1  0.79308136  0.77108607  0.33417571  1.0
  H  H48  1  0.35582366  0.52201800  0.17639371  1.0
  H  H49  1  0.85582465  0.47798275  0.82360532  1.0
  H  H50  1  0.35582493  0.97798283  0.67639311  1.0
  H  H51  1  0.85582494  0.02201792  0.32360550  1.0
  H  H52  1  0.31130454  0.44890368  0.12205692  1.0
  H  H53  1  0.81130540  0.55109650  0.87794252  1.0
  H  H54  1  0.31130459  0.05109734  0.62205589  1.0
  H  H55  1  0.81130534  0.94890350  0.37794270  1.0
  H  H56  1  0.44783155  0.45796360  0.13698051  1.0
  H  H57  1  0.94783242  0.54203698  0.86301898  1.0
  H  H58  1  0.44783319  0.04203848  0.63697990  1.0
  H  H59  1  0.94783390  0.95796276  0.36301874  1.0
  H  H60  1  0.59950963  0.33163022  0.41868032  1.0
  H  H61  1  0.09951033  0.66837233  0.58131777  1.0
  H  H62  1  0.59951016  0.16837094  0.91867972  1.0
  H  H63  1  0.09951215  0.83162701  0.08132006  1.0
  H  H64  1  0.77475207  0.46639720  0.47654068  1.0
  H  H65  1  0.27475227  0.53360502  0.52345705  1.0
  H  H66  1  0.77475295  0.03360297  0.97654050  1.0
  H  H67  1  0.27475295  0.96639728  0.02345850  1.0
  H  H68  1  0.84270476  0.40691747  0.42289237  1.0
  H  H69  1  0.34270643  0.59308462  0.57710496  1.0
  H  H70  1  0.84270548  0.09308323  0.92289219  1.0
  H  H71  1  0.34270649  0.90691689  0.07710641  1.0
  H  H72  1  0.74328238  0.35366323  0.46366895  1.0
  H  H73  1  0.24328307  0.64633773  0.53632919  1.0
  H  H74  1  0.74328374  0.14633765  0.96366835  1.0
  H  H75  1  0.24328327  0.85366266  0.03633022  1.0
  H  H76  1  0.63704868  0.53617554  0.34504888  1.0
  H  H77  1  0.13705000  0.46382759  0.65494838  1.0
  H  H78  1  0.63704764  0.96382544  0.84504955  1.0
  H  H79  1  0.13704635  0.03617376  0.15494940  1.0
  H  H80  1  0.77605638  0.52333160  0.34915682  1.0
  H  H81  1  0.27605689  0.47666996  0.65084092  1.0
  H  H82  1  0.77605531  0.97666715  0.84915664  1.0
  H  H83  1  0.27605405  0.02333178  0.15084236  1.0
  H  H84  1  0.70765637  0.57865410  0.40486754  1.0
  H  H85  1  0.20765695  0.42134824  0.59513017  1.0
  H  H86  1  0.70765623  0.92134674  0.90486779  1.0
  H  H87  1  0.20765475  0.07865232  0.09513203  1.0
  H  H88  1  0.45537373  0.54973230  0.41287344  1.0
  H  H89  1  0.95537918  0.45027155  0.58712520  1.0
  H  H90  1  0.45537820  0.95026902  0.91287412  1.0
  H  H91  1  0.95537862  0.04972827  0.08712453  1.0
  H  H92  1  0.50343623  0.68372690  0.43278804  1.0
  H  H93  1  0.00344097  0.31627386  0.56721044  1.0
  H  H94  1  0.50343871  0.81627105  0.93278871  1.0
  H  H95  1  0.00343849  0.18372774  0.06720935  1.0
  H  H96  1  0.40121391  0.76070585  0.44534196  1.0
  H  H97  1  0.90121675  0.23929613  0.55465624  1.0
  H  H98  1  0.40121425  0.73929491  0.94534305  1.0
  H  H99  1  0.90121172  0.26070313  0.05465430  1.0
  H  H100  1  0.46586703  0.75927235  0.37855620  1.0
  H  H101  1  0.96586839  0.24072885  0.62144245  1.0
  H  H102  1  0.46586736  0.74072632  0.87855687  1.0
  H  H103  1  0.96586649  0.25927226  0.12144094  1.0
  H  H104  1  0.26365853  0.67673584  0.32113210  1.0
  H  H105  1  0.76366208  0.32326968  0.67886521  1.0
  H  H106  1  0.26366177  0.82326845  0.82113277  1.0
  H  H107  1  0.76366353  0.17673050  0.17886623  1.0
  H  H108  1  0.25530769  0.75602763  0.37679290  1.0
  H  H109  1  0.75530982  0.24397594  0.62320482  1.0
  H  H110  1  0.25531036  0.74397406  0.87679315  1.0
  H  H111  1  0.75531184  0.25602426  0.12320500  1.0
  H  H112  1  0.19676017  0.64974808  0.38465370  1.0
  H  H113  1  0.69676358  0.35025690  0.61534316  1.0
  H  H114  1  0.19676334  0.85025503  0.88465479  1.0
  H  H115  1  0.69676275  0.14974471  0.11534375  1.0
  C  C116  1  0.14789162  0.36624310  0.45292767  1.0
  C  C117  1  0.64789106  0.63375542  0.54707213  1.0
  C  C118  1  0.14789223  0.13375562  0.95292834  1.0
  C  C119  1  0.64789045  0.86624356  0.04707104  1.0
  C  C120  1  0.09118010  0.44157067  0.42679873  1.0
  C  C121  1  0.59117978  0.55842795  0.57320316  1.0
  C  C122  1  0.09118091  0.05842815  0.92680025  1.0
  C  C123  1  0.59117818  0.94156982  0.07320038  1.0
  C  C124  1  0.04040599  0.50115540  0.46254368  1.0
  C  C125  1  0.54040578  0.49884398  0.53745778  1.0
  C  C126  1  0.04040721  0.99884341  0.96254266  1.0
  C  C127  1  0.54040457  0.00115530  0.03745753  1.0
  C  C128  1  0.98456517  0.57179318  0.44039293  1.0
  C  C129  1  0.48456257  0.42820536  0.55960953  1.0
  C  C130  1  0.98456501  0.92820649  0.94039318  1.0
  C  C131  1  0.48456273  0.07179271  0.05960844  1.0
  C  C132  1  0.92281808  0.63014860  0.47939060  1.0
  C  C133  1  0.42281714  0.36985071  0.52061184  1.0
  C  C134  1  0.92282042  0.86984791  0.97938958  1.0
  C  C135  1  0.42281714  0.13015010  0.02061074  1.0
  C  C136  1  0.98036471  0.58312677  0.38176501  1.0
  C  C137  1  0.48036377  0.41687507  0.61823702  1.0
  C  C138  1  0.98036380  0.91687619  0.88176484  1.0
  C  C139  1  0.48036469  0.08312302  0.11823593  1.0
  C  C140  1  0.02977309  0.52300741  0.34566783  1.0
  C  C141  1  0.52977386  0.47699330  0.65433362  1.0
  C  C142  1  0.02977436  0.97699404  0.84566850  1.0
  C  C143  1  0.52977494  0.02300535  0.15433252  1.0
  C  C144  1  0.08573461  0.45179899  0.36822413  1.0
  C  C145  1  0.58573673  0.54820227  0.63177607  1.0
  C  C146  1  0.08573702  0.04820180  0.86822522  1.0
  C  C147  1  0.58573589  0.95179552  0.13177498  1.0
  C  C148  1  0.04400875  0.49728826  0.19674577  1.0
  C  C149  1  0.54401043  0.50271045  0.80325569  1.0
  C  C150  1  0.04400659  0.00271260  0.69674686  1.0
  C  C151  1  0.54400946  0.99728545  0.30325502  1.0
  C  C152  1  0.98813743  0.56845505  0.17399627  1.0
  C  C153  1  0.48813828  0.43154414  0.82600450  1.0
  C  C154  1  0.98813492  0.93154723  0.67399567  1.0
  C  C155  1  0.48813688  0.06845394  0.32600341  1.0
  C  C156  1  0.97162355  0.57298706  0.11584778  1.0
  C  C157  1  0.47162213  0.42701479  0.88415341  1.0
  C  C158  1  0.97162261  0.92701197  0.61585014  1.0
  C  C159  1  0.47162463  0.07298529  0.38415231  1.0
  C  C160  1  0.91147647  0.64903398  0.09159296  1.0
  C  C161  1  0.41147372  0.35096667  0.90840863  1.0
  C  C162  1  0.91147495  0.85096516  0.59159532  1.0
  C  C163  1  0.41147602  0.14903286  0.40840753  1.0
  C  C164  1  0.01195776  0.50793601  0.07997782  1.0
  C  C165  1  0.51195492  0.49206473  0.92002362  1.0
  C  C166  1  0.01195821  0.99206219  0.57997807  1.0
  C  C167  1  0.51195837  0.00793527  0.42002252  1.0
  C  C168  1  0.07334986  0.44023438  0.10213510  1.0
  C  C169  1  0.57334681  0.55976690  0.89786848  1.0
  C  C170  1  0.07335067  0.05976511  0.60213534  1.0
  C  C171  1  0.57335147  0.94023354  0.39786782  1.0
  C  C172  1  0.12888276  0.37795868  0.06333757  1.0
  C  C173  1  0.62888116  0.62204250  0.93666476  1.0
  C  C174  1  0.12888185  0.12204071  0.56333655  1.0
  C  C175  1  0.62888599  0.87795850  0.43666367  1.0
  C  C176  1  0.08809396  0.43439627  0.16069574  1.0
  C  C177  1  0.58809238  0.56560564  0.83930700  1.0
  C  C178  1  0.08809397  0.06560517  0.66069556  1.0
  C  C179  1  0.58809472  0.93439346  0.33930549  1.0
  C  C180  1  0.33765050  0.40471331  0.25155272  1.0
  C  C181  1  0.83764795  0.59528748  0.74844715  1.0
  C  C182  1  0.33764809  0.09528570  0.75155211  1.0
  C  C183  1  0.83765036  0.90471247  0.24844606  1.0
  C  C184  1  0.36971245  0.29776816  0.17783368  1.0
  C  C185  1  0.86971049  0.70223192  0.82216578  1.0
  C  C186  1  0.36970976  0.20223210  0.67783350  1.0
  C  C187  1  0.86971162  0.79776862  0.32216553  1.0
  C  C188  1  0.36916557  0.45847627  0.15581224  1.0
  C  C189  1  0.86916641  0.54152315  0.84418721  1.0
  C  C190  1  0.36916565  0.04152333  0.65581122  1.0
  C  C191  1  0.86916711  0.95847740  0.34418697  1.0
  C  C192  1  0.60238202  0.39256563  0.39329402  1.0
  C  C193  1  0.10238291  0.60743757  0.60670534  1.0
  C  C194  1  0.60238427  0.10743486  0.89329299  1.0
  C  C195  1  0.10238379  0.89256177  0.10670679  1.0
  C  C196  1  0.76647330  0.41569602  0.44370698  1.0
  C  C197  1  0.26647340  0.58430621  0.55629075  1.0
  C  C198  1  0.76647405  0.08430482  0.94370680  1.0
  C  C199  1  0.26647422  0.91569544  0.05629177  1.0
  C  C200  1  0.70304621  0.52522782  0.37369808  1.0
  C  C201  1  0.20304670  0.47477322  0.62629878  1.0
  C  C202  1  0.70304593  0.97477238  0.87369833  1.0
  C  C203  1  0.20304463  0.02522603  0.12630107  1.0
  C  C204  1  0.38078376  0.56802441  0.39276335  1.0
  C  C205  1  0.88078851  0.43197826  0.60723653  1.0
  C  C206  1  0.38078828  0.93197639  0.89276360  1.0
  C  C207  1  0.88078633  0.06802235  0.10723586  1.0
  C  C208  1  0.43698899  0.71783470  0.41333848  1.0
  C  C209  1  0.93699176  0.28216656  0.58665931  1.0
  C  C210  1  0.43699000  0.78216534  0.91333957  1.0
  C  C211  1  0.93698997  0.21783395  0.08665864  1.0
  C  C212  1  0.26360771  0.68601641  0.36729028  1.0
  C  C213  1  0.76361045  0.31398779  0.63270744  1.0
  C  C214  1  0.26361020  0.81398591  0.86729095  1.0
  C  C215  1  0.76360953  0.18601304  0.13270804  1.0
  N  N216  1  0.01512282  0.53821338  0.28713428  1.0
  N  N217  1  0.51512293  0.46178801  0.71286717  1.0
  N  N218  1  0.01512335  0.96178744  0.78713537  1.0
  N  N219  1  0.51512474  0.03821132  0.21286565  1.0
  N  N220  1  0.06142905  0.48402635  0.25515788  1.0
  N  N221  1  0.56143062  0.51597364  0.74484358  1.0
  N  N222  1  0.06142998  0.01597514  0.75515728  1.0
  N  N223  1  0.56143125  0.98402354  0.24484376  1.0
  N  N224  1  0.35934075  0.38834234  0.19737970  1.0
  N  N225  1  0.85933901  0.61165841  0.80262018  1.0
  N  N226  1  0.35933908  0.11165794  0.69737825  1.0
  N  N227  1  0.85934068  0.88834215  0.30262120  1.0
  N  N228  1  0.68745376  0.44183462  0.40274630  1.0
  N  N229  1  0.18745555  0.55816842  0.59725182  1.0
  N  N230  1  0.68745379  0.05816637  0.90274612  1.0
  N  N231  1  0.18745551  0.94183273  0.09725285  1.0
  N  N232  1  0.36083893  0.65424973  0.39241933  1.0
  N  N233  1  0.86084313  0.34575430  0.60757843  1.0
  N  N234  1  0.36084290  0.84575242  0.89242000  1.0
  N  N235  1  0.86084307  0.15424636  0.10757818  1.0
  O  O236  1  0.14158675  0.35397884  0.50570896  1.0
  O  O237  1  0.64158610  0.64601838  0.49429126  1.0
  O  O238  1  0.14158828  0.14602053  0.00570998  1.0
  O  O239  1  0.64158692  0.85398063  0.99428940  1.0
  O  O240  1  0.20135520  0.31461314  0.42045493  1.0
  O  O241  1  0.70135455  0.68538659  0.57954532  1.0
  O  O242  1  0.20135568  0.18538613  0.92045560  1.0
  O  O243  1  0.70135563  0.81461295  0.07954380  1.0
  O  O244  1  0.90931286  0.60078618  0.52927925  1.0
  O  O245  1  0.40931100  0.39921251  0.47072318  1.0
  O  O246  1  0.90931841  0.89920772  0.02928070  1.0
  O  O247  1  0.40931171  0.10078834  0.97072173  1.0
  O  O248  1  0.88757159  0.70110300  0.45872154  1.0
  O  O249  1  0.38757009  0.29889442  0.54128089  1.0
  O  O250  1  0.88757177  0.79889686  0.95872010  1.0
  O  O251  1  0.38757303  0.20110449  0.04128021  1.0
  O  O252  1  0.92214986  0.72169611  0.11723188  1.0
  O  O253  1  0.42214883  0.27830386  0.88276929  1.0
  O  O254  1  0.92214540  0.77830432  0.61723806  1.0
  O  O255  1  0.42214859  0.22169565  0.38276735  1.0
  O  O256  1  0.85676086  0.63228634  0.04799438  1.0
  O  O257  1  0.35675734  0.36771376  0.95200507  1.0
  O  O258  1  0.85676555  0.86771028  0.54799548  1.0
  O  O259  1  0.35676125  0.13228522  0.45200525  1.0
  O  O260  1  0.20190475  0.33102216  0.08532051  1.0
  O  O261  1  0.70190456  0.66897823  0.91468100  1.0
  O  O262  1  0.20190762  0.16897513  0.58531737  1.0
  O  O263  1  0.70190795  0.83102132  0.41468202  1.0
  O  O264  1  0.10611324  0.37572191  0.01115884  1.0
  O  O265  1  0.60610857  0.62428325  0.98884221  1.0
  O  O266  1  0.10610685  0.12428211  0.51115866  1.0
  O  O267  1  0.60611497  0.87572173  0.48884324  1.0
  O  O268  1  0.32307781  0.34502429  0.28749951  1.0
  O  O269  1  0.82307428  0.65497718  0.71250121  1.0
  O  O270  1  0.32307525  0.15497606  0.78749848  1.0
  O  O271  1  0.82307763  0.84502279  0.21250138  1.0
  O  O272  1  0.53097031  0.41201289  0.35922641  1.0
  O  O273  1  0.03097364  0.58798979  0.64077293  1.0
  O  O274  1  0.53097183  0.08798839  0.85922496  1.0
  O  O275  1  0.03097446  0.91200837  0.14077522  1.0
  O  O276  1  0.31990877  0.51183764  0.37211459  1.0
  O  O277  1  0.81991339  0.48816450  0.62788527  1.0
  O  O278  1  0.31991236  0.98816393  0.87211358  1.0
  O  O279  1  0.81991527  0.01183689  0.12788459  1.0
