# generated using pymatgen
data_MgH5C5O4
_symmetry_space_group_name_H-M   'P 1'
_cell_length_a   6.87927267
_cell_length_b   15.13857042
_cell_length_c   15.14717069
_cell_angle_alpha   117.70604983
_cell_angle_beta   98.70685970
_cell_angle_gamma   98.72517187
_symmetry_Int_Tables_number   1
_chemical_formula_structural   MgH5C5O4
_chemical_formula_sum   'Mg6 H30 C30 O24'
_cell_volume   1335.31467741
_cell_formula_units_Z   6
loop_
 _symmetry_equiv_pos_site_id
 _symmetry_equiv_pos_as_xyz
  1  'x, y, z'
loop_
 _atom_site_type_symbol
 _atom_site_label
 _atom_site_symmetry_multiplicity
 _atom_site_fract_x
 _atom_site_fract_y
 _atom_site_fract_z
 _atom_site_occupancy
  Mg  Mg0  1  0.70098426  0.32223398  0.73715884  1.0
  Mg  Mg1  1  0.37880254  0.41476021  0.67788320  1.0
  Mg  Mg2  1  0.96404099  0.26305958  0.58553352  1.0
  Mg  Mg3  1  0.29901500  0.67776533  0.26283880  1.0
  Mg  Mg4  1  0.62118870  0.58524064  0.32211727  1.0
  Mg  Mg5  1  0.03596011  0.73694051  0.41446329  1.0
  H  H6  1  0.69408403  0.56078853  0.53968324  1.0
  H  H7  1  0.13333332  0.97903145  0.43910404  1.0
  H  H8  1  0.15438925  0.45967357  0.02094946  1.0
  H  H9  1  0.30590043  0.43920770  0.46031000  1.0
  H  H10  1  0.86666913  0.02096555  0.56088745  1.0
  H  H11  1  0.84560847  0.54031957  0.97905181  1.0
  H  H12  1  0.77739819  0.28234818  0.92258899  1.0
  H  H13  1  0.49472838  0.64035824  0.71802339  1.0
  H  H14  1  0.85544956  0.07801718  0.36022020  1.0
  H  H15  1  0.22263378  0.71765808  0.07739953  1.0
  H  H16  1  0.50524813  0.35965109  0.28199326  1.0
  H  H17  1  0.14456214  0.92198059  0.63977622  1.0
  H  H18  1  0.56542561  0.18253162  0.90044835  1.0
  H  H19  1  0.38237646  0.71765164  0.81780586  1.0
  H  H20  1  0.66596811  0.10046534  0.28272330  1.0
  H  H21  1  0.43462125  0.81747464  0.09955635  1.0
  H  H22  1  0.61759039  0.28234997  0.18221315  1.0
  H  H23  1  0.33404868  0.89953089  0.71727076  1.0
  H  H24  1  0.55381449  0.31555487  0.96092035  1.0
  H  H25  1  0.23780703  0.64533602  0.68485678  1.0
  H  H26  1  0.59341324  0.03957498  0.35489503  1.0
  H  H27  1  0.44622459  0.68445061  0.03908083  1.0
  H  H28  1  0.76216317  0.35466945  0.31516029  1.0
  H  H29  1  0.40659736  0.96042356  0.64509970  1.0
  H  H30  1  0.39923188  0.25261632  0.79484591  1.0
  H  H31  1  0.14652610  0.54180051  0.74757672  1.0
  H  H32  1  0.60489490  0.20564356  0.45820725  1.0
  H  H33  1  0.60076955  0.74737836  0.20515632  1.0
  H  H34  1  0.85345484  0.45819416  0.25243272  1.0
  H  H35  1  0.39511531  0.79435730  0.54178259  1.0
  C  C36  1  0.75888088  0.43820422  0.61292591  1.0
  C  C37  1  0.32075812  0.17468965  0.56207033  1.0
  C  C38  1  0.14612587  0.38699582  0.82541582  1.0
  C  C39  1  0.24110295  0.56179354  0.38707526  1.0
  C  C40  1  0.67924773  0.82530812  0.43792768  1.0
  C  C41  1  0.85387713  0.61300503  0.17458608  1.0
  C  C42  1  0.88618074  0.46651799  0.55413822  1.0
  C  C43  1  0.41973241  0.08761547  0.53360726  1.0
  C  C44  1  0.33215395  0.44569482  0.91240351  1.0
  C  C45  1  0.11380785  0.53348364  0.44585451  1.0
  C  C46  1  0.58027866  0.91238384  0.46639512  1.0
  C  C47  1  0.66784899  0.55430604  0.08759246  1.0
  C  C48  1  0.83030813  0.53496990  0.52287706  1.0
  C  C49  1  0.29542159  0.98799064  0.46496591  1.0
  C  C50  1  0.30748141  0.47675176  0.01200342  1.0
  C  C51  1  0.16966800  0.46503327  0.47711623  1.0
  C  C52  1  0.70458209  0.01200867  0.53503334  1.0
  C  C53  1  0.69252076  0.52324755  0.98799177  1.0
  C  C54  1  0.06220431  0.42925142  0.53074049  1.0
  C  C55  1  0.63292711  0.10138844  0.57092680  1.0
  C  C56  1  0.53156863  0.46944132  0.89863003  1.0
  C  C57  1  0.93777113  0.57074711  0.46926378  1.0
  C  C58  1  0.36707326  0.89861010  0.42907319  1.0
  C  C59  1  0.46843261  0.53056185  0.10137416  1.0
  C  C60  1  0.61133035  0.25667068  0.90290819  1.0
  C  C61  1  0.35429457  0.64612897  0.74366982  1.0
  C  C62  1  0.70912035  0.09773669  0.35423140  1.0
  C  C63  1  0.38870206  0.74333327  0.09708985  1.0
  C  C64  1  0.64567854  0.35387342  0.25634865  1.0
  C  C65  1  0.29089388  0.90226031  0.64576219  1.0
  O  O66  1  0.81927047  0.38369643  0.65140328  1.0
  O  O67  1  0.43565715  0.26763693  0.61666037  1.0
  O  O68  1  0.16805540  0.34872080  0.73252196  1.0
  O  O69  1  0.18072521  0.61630751  0.34859563  1.0
  O  O70  1  0.56434802  0.73236238  0.38334030  1.0
  O  O71  1  0.83194487  0.65127466  0.26747330  1.0
  O  O72  1  0.59782250  0.46870390  0.62499069  1.0
  O  O73  1  0.12918575  0.15633104  0.53163935  1.0
  O  O74  1  0.97293321  0.37484287  0.84379095  1.0
  O  O75  1  0.40216719  0.53129387  0.37500758  1.0
  O  O76  1  0.87081715  0.84366982  0.46835332  1.0
  O  O77  1  0.02706088  0.62515490  0.15620761  1.0
  O  O78  1  0.13127869  0.36531252  0.55832668  1.0
  O  O79  1  0.76593954  0.19282852  0.63499382  1.0
  O  O80  1  0.57322442  0.44198812  0.80722291  1.0
  O  O81  1  0.86871673  0.63469373  0.44167790  1.0
  O  O82  1  0.23406109  0.80716771  0.36500050  1.0
  O  O83  1  0.42677415  0.55801274  0.19277607  1.0
  O  O84  1  0.53743609  0.24417292  0.80207150  1.0
  O  O85  1  0.29318216  0.55761082  0.75604534  1.0
  O  O86  1  0.73596642  0.19849145  0.44264522  1.0
  O  O87  1  0.46256975  0.75582485  0.19792586  1.0
  O  O88  1  0.70680037  0.44239003  0.24396379  1.0
  O  O89  1  0.26404748  0.80150786  0.55734876  1.0
