# generated using pymatgen
data_ZnH16C31N2Cl4O9
_symmetry_space_group_name_H-M   'P 1'
_cell_length_a   16.50797466
_cell_length_b   17.60901974
_cell_length_c   23.47719240
_cell_angle_alpha   89.63463433
_cell_angle_beta   89.51790111
_cell_angle_gamma   90.77054173
_symmetry_Int_Tables_number   1
_chemical_formula_structural   ZnH16C31N2Cl4O9
_chemical_formula_sum   'Zn2 H32 C62 N4 Cl8 O18'
_cell_volume   6823.56504114
_cell_formula_units_Z   2
loop_
 _symmetry_equiv_pos_site_id
 _symmetry_equiv_pos_as_xyz
  1  'x, y, z'
loop_
 _atom_site_type_symbol
 _atom_site_label
 _atom_site_symmetry_multiplicity
 _atom_site_fract_x
 _atom_site_fract_y
 _atom_site_fract_z
 _atom_site_occupancy
  Zn  Zn0  1  0.58854438  0.49177180  0.49372062  1.0
  Zn  Zn1  1  0.41795880  0.48813687  0.49629108  1.0
  H  H2  1  0.71432180  0.42803386  0.56800742  1.0
  H  H3  1  0.36976479  0.72654314  0.51507901  1.0
  H  H4  1  0.86653878  0.42857533  0.57351694  1.0
  H  H5  1  0.14254456  0.57785891  0.42799107  1.0
  H  H6  1  0.87092020  0.56860363  0.42121160  1.0
  H  H7  1  0.13370559  0.41767235  0.56868335  1.0
  H  H8  1  0.47949934  0.36344084  0.63636573  1.0
  H  H9  1  0.48485863  0.31984019  0.70564270  1.0
  H  H10  1  0.55866819  0.29793061  0.65160784  1.0
  H  H11  1  0.44995624  0.72836967  0.30930779  1.0
  H  H12  1  0.52444805  0.69854435  0.35999713  1.0
  H  H13  1  0.29469228  0.56800092  0.42968904  1.0
  H  H14  1  0.42529993  0.72464598  0.38388388  1.0
  H  H15  1  0.67361337  0.85509135  0.61855132  1.0
  H  H16  1  0.63017955  0.94584298  0.60141551  1.0
  H  H17  1  0.73254039  0.92625959  0.58120830  1.0
  H  H18  1  0.36614327  0.03077276  0.47651587  1.0
  H  H19  1  0.31159142  0.11732253  0.46402916  1.0
  H  H20  1  0.26674364  0.04196830  0.50623555  1.0
  H  H21  1  0.69746777  0.12748952  0.47399045  1.0
  H  H22  1  0.65036312  0.03557897  0.48555880  1.0
  H  H23  1  0.74440588  0.05874771  0.51943792  1.0
  H  H24  1  0.71855715  0.55969164  0.42141076  1.0
  H  H25  1  0.38549174  0.92795626  0.61775775  1.0
  H  H26  1  0.33096080  0.83952752  0.62855111  1.0
  H  H27  1  0.28043294  0.92116437  0.60014261  1.0
  H  H28  1  0.28604487  0.41505467  0.56414837  1.0
  H  H29  1  0.55800669  0.43564140  0.79534054  1.0
  H  H30  1  0.42591556  0.64740325  0.23466815  1.0
  H  H31  1  0.63071496  0.73067785  0.50584234  1.0
  H  H32  1  0.36969193  0.24897009  0.52473805  1.0
  H  H33  1  0.63045835  0.25529324  0.53112388  1.0
  C  C34  1  0.49889267  0.34353801  0.51192351  1.0
  C  C35  1  0.46219189  0.57605547  0.30520793  1.0
  C  C36  1  0.53457902  0.47837724  0.76633419  1.0
  C  C37  1  0.45596813  0.59552776  0.24769019  1.0
  C  C38  1  0.50004823  0.54414822  0.78733280  1.0
  C  C39  1  0.48679174  0.54737255  0.20652669  1.0
  C  C40  1  0.57523738  0.83561006  0.52966883  1.0
  C  C41  1  0.42682204  0.14194026  0.54081023  1.0
  C  C42  1  0.57424203  0.14556591  0.54462846  1.0
  C  C43  1  0.42743171  0.83312109  0.53499112  1.0
  C  C44  1  0.57395641  0.75991082  0.51319983  1.0
  C  C45  1  0.50027179  0.63779366  0.49398120  1.0
  C  C46  1  0.42677797  0.21956956  0.53001489  1.0
  C  C47  1  0.57366826  0.22319448  0.53354742  1.0
  C  C48  1  0.42702609  0.75751926  0.51838445  1.0
  C  C49  1  0.50022809  0.72084466  0.50727112  1.0
  C  C50  1  0.50008522  0.26028871  0.52538727  1.0
  C  C51  1  0.50164265  0.87465232  0.53978931  1.0
  C  C52  1  0.50085306  0.10270207  0.54669294  1.0
  C  C53  1  0.50905107  0.50664493  0.60633404  1.0
  C  C54  1  0.50446085  0.48980429  0.38434582  1.0
  C  C55  1  0.50149427  0.95365261  0.54847867  1.0
  C  C56  1  0.46958524  0.59940793  0.75042744  1.0
  C  C57  1  0.50134749  0.02292624  0.55097051  1.0
  C  C58  1  0.83595303  0.45841455  0.53929385  1.0
  C  C59  1  0.17216854  0.54126411  0.45877603  1.0
  C  C60  1  0.83840100  0.53662265  0.45421180  1.0
  C  C61  1  0.16719124  0.45175869  0.53737198  1.0
  C  C62  1  0.75206030  0.45748714  0.53629685  1.0
  C  C63  1  0.25595860  0.53613934  0.45948579  1.0
  C  C64  1  0.75444375  0.53214098  0.45418980  1.0
  C  C65  1  0.25111217  0.45004685  0.53505735  1.0
  C  C66  1  0.88097452  0.49868123  0.49742800  1.0
  C  C67  1  0.52530650  0.47978859  0.22168707  1.0
  C  C68  1  0.12594245  0.49811209  0.49833980  1.0
  C  C69  1  0.96655809  0.50022829  0.49838772  1.0
  C  C70  1  0.04039910  0.50023063  0.49855966  1.0
  C  C71  1  0.53746724  0.61166552  0.12165434  1.0
  C  C72  1  0.42542507  0.51978243  0.87433238  1.0
  C  C73  1  0.41274395  0.52852701  0.11967368  1.0
  C  C74  1  0.55280566  0.59950492  0.87374609  1.0
  C  C75  1  0.40882767  0.54000941  0.05697423  1.0
  C  C76  1  0.54555630  0.60756698  0.93675247  1.0
  C  C77  1  0.47551769  0.57512226  0.02744898  1.0
  C  C78  1  0.47405102  0.58724156  0.69140335  1.0
  C  C79  1  0.47921873  0.57210990  0.96662752  1.0
  C  C80  1  0.53744989  0.61440471  0.05814594  1.0
  C  C81  1  0.41585429  0.53437630  0.93633458  1.0
  C  C82  1  0.34213931  0.51330521  0.02623789  1.0
  C  C83  1  0.60278758  0.65004912  0.96714907  1.0
  C  C84  1  0.34570407  0.51027042  0.96553759  1.0
  C  C85  1  0.59829706  0.65403503  0.02800503  1.0
  C  C86  1  0.52068735  0.34261622  0.66940571  1.0
  C  C87  1  0.45950690  0.69754190  0.34957825  1.0
  C  C88  1  0.67172244  0.90156456  0.58698284  1.0
  C  C89  1  0.53087967  0.46018824  0.27962698  1.0
  C  C90  1  0.32352895  0.07157369  0.49500359  1.0
  C  C91  1  0.68639990  0.08136531  0.50516803  1.0
  C  C92  1  0.33763870  0.89034740  0.60115990  1.0
  C  C93  1  0.50737092  0.52036520  0.66974221  1.0
  C  C94  1  0.49928900  0.50795626  0.32157745  1.0
  C  C95  1  0.53838821  0.46626553  0.70775704  1.0
  N  N96  1  0.47736013  0.56519108  0.14705563  1.0
  N  N97  1  0.49290738  0.55451910  0.84790633  1.0
  N  N98  1  0.71225436  0.49330446  0.49438237  1.0
  N  N99  1  0.29443496  0.49126312  0.49687008  1.0
  Cl  Cl100  1  0.25442702  0.48394555  0.05892777  1.0
  Cl  Cl101  1  0.67995817  0.69919157  0.93440858  1.0
  Cl  Cl102  1  0.26195351  0.47700503  0.93116477  1.0
  Cl  Cl103  1  0.66971749  0.70853542  0.06109819  1.0
  Cl  Cl104  1  0.42703058  0.68018342  0.77757462  1.0
  Cl  Cl105  1  0.56419108  0.42218201  0.16959966  1.0
  Cl  Cl106  1  0.44048063  0.65605379  0.64513020  1.0
  Cl  Cl107  1  0.57580900  0.37645478  0.29916518  1.0
  O  O108  1  0.56705325  0.37796202  0.50630542  1.0
  O  O109  1  0.38029100  0.47892408  0.84636090  1.0
  O  O110  1  0.36609122  0.48782043  0.14743185  1.0
  O  O111  1  0.60727699  0.62710213  0.84411699  1.0
  O  O112  1  0.57531947  0.40163220  0.68825241  1.0
  O  O113  1  0.42989212  0.62051942  0.34732391  1.0
  O  O114  1  0.64930607  0.87202322  0.53214729  1.0
  O  O115  1  0.35450654  0.10251265  0.54716195  1.0
  O  O116  1  0.64649234  0.10976268  0.55523817  1.0
  O  O117  1  0.35425839  0.86814166  0.54332852  1.0
  O  O118  1  0.43166194  0.60395967  0.49160913  1.0
  O  O119  1  0.56897786  0.60680816  0.48756071  1.0
  O  O120  1  0.42951461  0.37354705  0.50723676  1.0
  O  O121  1  0.57779164  0.50693238  0.58211589  1.0
  O  O122  1  0.43744711  0.47852873  0.40987149  1.0
  O  O123  1  0.57464414  0.48971557  0.40595876  1.0
  O  O124  1  0.44043452  0.49586557  0.58350701  1.0
  O  O125  1  0.58702735  0.64382631  0.15207944  1.0
