# generated using pymatgen
data_Zn4H4C24S5(BrO4)4
_symmetry_space_group_name_H-M   'P 1'
_cell_length_a   19.61569189
_cell_length_b   19.70002572
_cell_length_c   33.25880927
_cell_angle_alpha   79.20462901
_cell_angle_beta   79.46728966
_cell_angle_gamma   64.05610180
_symmetry_Int_Tables_number   1
_chemical_formula_structural   Zn4H4C24S5(BrO4)4
_chemical_formula_sum   'Zn16 H16 C96 S20 Br16 O64'
_cell_volume   11278.21067452
_cell_formula_units_Z   4
loop_
 _symmetry_equiv_pos_site_id
 _symmetry_equiv_pos_as_xyz
  1  'x, y, z'
loop_
 _atom_site_type_symbol
 _atom_site_label
 _atom_site_symmetry_multiplicity
 _atom_site_fract_x
 _atom_site_fract_y
 _atom_site_fract_z
 _atom_site_occupancy
  Zn  Zn0  1  0.05635999  0.39844097  0.47925420  1.0
  Zn  Zn1  1  0.98708445  0.48106848  0.56007815  1.0
  Zn  Zn2  1  0.05591086  0.56283818  0.48081240  1.0
  Zn  Zn3  1  0.90103167  0.55716885  0.47911062  1.0
  Zn  Zn4  1  0.69021725  0.35207945  0.27190958  1.0
  Zn  Zn5  1  0.68958460  0.19097040  0.26672378  1.0
  Zn  Zn6  1  0.77021347  0.26726127  0.19029507  1.0
  Zn  Zn7  1  0.84738149  0.19971757  0.27204231  1.0
  Zn  Zn8  1  0.26797689  0.76401066  0.68896367  1.0
  Zn  Zn9  1  0.35136572  0.69652659  0.76955779  1.0
  Zn  Zn10  1  0.19087017  0.84660474  0.77077329  1.0
  Zn  Zn11  1  0.19091240  0.68724259  0.76641391  1.0
  Zn  Zn12  1  0.55771557  0.06294704  0.98300787  1.0
  Zn  Zn13  1  0.40195965  0.05416326  0.97709468  1.0
  Zn  Zn14  1  0.55561387  0.90055950  0.97850025  1.0
  Zn  Zn15  1  0.48219524  0.98546912  0.06043171  1.0
  H  H16  1  0.95189176  0.25467626  0.35084911  1.0
  H  H17  1  0.74074668  0.45598866  0.35408771  1.0
  H  H18  1  0.99942071  0.30503422  0.39820659  1.0
  H  H19  1  0.09198952  0.59903167  0.69836306  1.0
  H  H20  1  0.20349748  0.69927060  0.59767972  1.0
  H  H21  1  0.04445275  0.55534865  0.64764281  1.0
  H  H22  1  0.55436065  0.04909026  0.15315722  1.0
  H  H23  1  0.65027307  0.15640066  0.04816191  1.0
  H  H24  1  0.60726104  0.09568983  0.19967126  1.0
  H  H25  1  0.49831567  0.79249831  0.89901853  1.0
  H  H26  1  0.29787207  0.00440072  0.89741487  1.0
  H  H27  1  0.44499500  0.74886715  0.85122279  1.0
  H  H28  1  0.84573413  0.57404853  0.39916193  1.0
  H  H29  1  0.06597842  0.68869630  0.51308736  1.0
  H  H30  1  0.79838152  0.17575392  0.12291032  1.0
  H  H31  1  0.17639000  0.90524662  0.84979837  1.0
  C  C32  1  0.06112462  0.31467285  0.56260200  1.0
  C  C33  1  0.06368737  0.57517507  0.56727265  1.0
  C  C34  1  0.18154491  0.44066220  0.43876679  1.0
  C  C35  1  0.93367197  0.68786138  0.43877373  1.0
  C  C36  1  0.93395018  0.43499932  0.42865556  1.0
  C  C37  1  0.82055727  0.55998310  0.56222865  1.0
  C  C38  1  0.56513683  0.30952174  0.31249629  1.0
  C  C39  1  0.68924289  0.17463383  0.18121998  1.0
  C  C40  1  0.68720865  0.43283236  0.18734722  1.0
  C  C41  1  0.93574590  0.19147620  0.18939851  1.0
  C  C42  1  0.81558985  0.32354734  0.32011032  1.0
  C  C43  1  0.81390983  0.06742358  0.30915074  1.0
  C  C44  1  0.43541806  0.68630995  0.68651545  1.0
  C  C45  1  0.31460115  0.81768363  0.82037195  1.0
  C  C46  1  0.19174504  0.93132831  0.68892777  1.0
  C  C47  1  0.06368713  0.80856848  0.81016727  1.0
  C  C48  1  0.18007500  0.67846137  0.68065048  1.0
  C  C49  1  0.31530240  0.56858751  0.81207782  1.0
  C  C50  1  0.43571280  0.18487944  0.93794897  1.0
  C  C51  1  0.43158395  0.92869815  0.93008586  1.0
  C  C52  1  0.68293548  0.94097292  0.93914141  1.0
  C  C53  1  0.56101727  0.81776121  0.06245104  1.0
  C  C54  1  0.56832555  0.07169617  0.06944664  1.0
  C  C55  1  0.31537299  0.06143806  0.06001485  1.0
  C  C56  1  0.89831943  0.40905248  0.40197268  1.0
  C  C57  1  0.84398270  0.35259458  0.34905352  1.0
  C  C58  1  0.82438643  0.45123413  0.38947928  1.0
  C  C59  1  0.91663188  0.30970602  0.36180392  1.0
  C  C60  1  0.79782741  0.42297944  0.36333257  1.0
  C  C61  1  0.94299807  0.33780586  0.38805149  1.0
  C  C62  1  0.09586975  0.60349570  0.59453940  1.0
  C  C63  1  0.15022766  0.65213525  0.65115173  1.0
  C  C64  1  0.14123114  0.64455156  0.58060728  1.0
  C  C65  1  0.10545188  0.61154929  0.66534307  1.0
  C  C66  1  0.16801116  0.66835409  0.60877094  1.0
  C  C67  1  0.07897318  0.58746131  0.63716373  1.0
  C  C68  1  0.30218733  0.45601298  0.39992848  1.0
  C  C69  1  0.44375793  0.29472014  0.35079181  1.0
  C  C70  1  0.25605821  0.41706790  0.41374193  1.0
  C  C71  1  0.48995157  0.33352694  0.33703337  1.0
  C  C72  1  0.37515156  0.33936573  0.37353818  1.0
  C  C73  1  0.37041288  0.41140777  0.37682096  1.0
  C  C74  1  0.72866996  0.57503844  0.62994666  1.0
  C  C75  1  0.52754051  0.67043621  0.61874865  1.0
  C  C76  1  0.74619410  0.58340844  0.58733457  1.0
  C  C77  1  0.50987884  0.66187622  0.66135126  1.0
  C  C78  1  0.60733319  0.63836169  0.60730244  1.0
  C  C79  1  0.64899491  0.60635817  0.64145708  1.0
  C  C80  1  0.07658631  0.22344752  0.63080976  1.0
  C  C81  1  0.17619564  0.02295859  0.62107613  1.0
  C  C82  1  0.08577023  0.24067379  0.58815359  1.0
  C  C83  1  0.16748595  0.00576912  0.66374734  1.0
  C  C84  1  0.14345111  0.10230743  0.60914240  1.0
  C  C85  1  0.10995982  0.14409149  0.64292987  1.0
  C  C86  1  0.83906702  0.80692514  0.39795809  1.0
  C  C87  1  0.90756469  0.94966662  0.35133384  1.0
  C  C88  1  0.90808632  0.76260104  0.41407759  1.0
  C  C89  1  0.83910207  0.99325179  0.33457171  1.0
  C  C90  1  0.90784514  0.88148339  0.37430603  1.0
  C  C91  1  0.83916205  0.87488527  0.37492876  1.0
  C  C92  1  0.65925722  0.15093897  0.15047783  1.0
  C  C93  1  0.59948819  0.09920153  0.09781895  1.0
  C  C94  1  0.67087414  0.16805285  0.10719511  1.0
  C  C95  1  0.58714737  0.08235538  0.14055530  1.0
  C  C96  1  0.64120617  0.14231083  0.08136562  1.0
  C  C97  1  0.61667665  0.10820239  0.16635124  1.0
  C  C98  1  0.67533827  0.52498674  0.11943153  1.0
  C  C99  1  0.57604686  0.72523887  0.13032708  1.0
  C  C100  1  0.66444461  0.50700081  0.16196179  1.0
  C  C101  1  0.58598179  0.74335614  0.08779309  1.0
  C  C102  1  0.60868508  0.64572803  0.14193616  1.0
  C  C103  1  0.64315609  0.60459260  0.10797745  1.0
  C  C104  1  0.08321304  0.12327936  0.17764028  1.0
  C  C105  1  0.16765452  0.12564835  0.07176430  1.0
  C  C106  1  0.01071527  0.16391422  0.16500217  1.0
  C  C107  1  0.24021901  0.08619947  0.08442624  1.0
  C  C108  1  0.11041028  0.13914275  0.10578404  1.0
  C  C109  1  0.14050928  0.10928564  0.14369742  1.0
  C  C110  1  0.34151792  0.85074915  0.84798794  1.0
  C  C111  1  0.40124980  0.90084536  0.90146962  1.0
  C  C112  1  0.30022349  0.92364100  0.86127067  1.0
  C  C113  1  0.44287867  0.82889391  0.88833112  1.0
  C  C114  1  0.33010811  0.94801445  0.88765335  1.0
  C  C115  1  0.41313036  0.80465981  0.86181711  1.0
  C  C116  1  0.40908946  0.44944577  0.85373506  1.0
  C  C117  1  0.34249681  0.30358413  0.89591907  1.0
  C  C118  1  0.34098964  0.49365230  0.83675786  1.0
  C  C119  1  0.41052022  0.25965261  0.91304238  1.0
  C  C120  1  0.34199899  0.37277530  0.87425860  1.0
  C  C121  1  0.40976013  0.38013656  0.87526538  1.0
  C  C122  1  0.94294447  0.79410062  0.84975164  1.0
  C  C123  1  0.80515229  0.95422178  0.90101105  1.0
  C  C124  1  0.98962420  0.83228519  0.83570384  1.0
  C  C125  1  0.75804198  0.91637674  0.91453616  1.0
  C  C126  1  0.87257004  0.90965393  0.87734182  1.0
  C  C127  1  0.87570254  0.83848308  0.87350818  1.0
  S  S128  1  0.29612610  0.32620480  0.39827832  1.0
  S  S129  1  0.44926535  0.42473202  0.35195352  1.0
  S  S130  1  0.66520781  0.62901584  0.56130612  1.0
  S  S131  1  0.59089261  0.61477592  0.68738602  1.0
  S  S132  1  0.13509381  0.15964683  0.56287002  1.0
  S  S133  1  0.11938085  0.08662335  0.68922573  1.0
  S  S134  1  0.97277163  0.80431785  0.40127372  1.0
  S  S135  1  0.77495875  0.95104667  0.34705489  1.0
  S  S136  1  0.61557277  0.58743565  0.18784641  1.0
  S  S137  1  0.63558016  0.66290277  0.06204296  1.0
  S  S138  1  0.01255631  0.18440996  0.11155893  1.0
  S  S139  1  0.23846759  0.06518429  0.13784801  1.0
  S  S140  1  0.27784504  0.45018232  0.84701942  1.0
  S  S141  1  0.47387475  0.30283098  0.90259487  1.0
  S  S142  1  0.95127895  0.92248056  0.85179505  1.0
  S  S143  1  0.79649062  0.82608752  0.89861487  1.0
  S  S144  1  0.75701507  0.54023071  0.40711280  1.0
  S  S145  1  0.17383018  0.66402836  0.52742226  1.0
  S  S146  1  0.71725389  0.22818671  0.08155320  1.0
  S  S147  1  0.21083348  0.99284468  0.84408224  1.0
  Br  Br148  1  0.28208278  0.55428714  0.40902050  1.0
  Br  Br149  1  0.46412000  0.19592242  0.34193292  1.0
  Br  Br150  1  0.79752315  0.52754659  0.66967823  1.0
  Br  Br151  1  0.45923397  0.71733962  0.57885199  1.0
  Br  Br152  1  0.02739680  0.29214481  0.67004458  1.0
  Br  Br153  1  0.22377802  0.95453898  0.58162845  1.0
  Br  Br154  1  0.75449249  0.78387185  0.40330909  1.0
  Br  Br155  1  0.99259674  0.97238350  0.34565742  1.0
  Br  Br156  1  0.72510857  0.45716647  0.07998591  1.0
  Br  Br157  1  0.52616084  0.79300709  0.16999999  1.0
  Br  Br158  1  0.10800279  0.08886895  0.23189280  1.0
  Br  Br159  1  0.14236726  0.15961131  0.01764481  1.0
  Br  Br160  1  0.49313408  0.47306957  0.84999977  1.0
  Br  Br161  1  0.25889483  0.27950064  0.89923987  1.0
  Br  Br162  1  0.96121565  0.69642144  0.83997509  1.0
  Br  Br163  1  0.78742297  0.05137140  0.91128693  1.0
  O  O164  1  0.00081261  0.49818375  0.49970547  1.0
  O  O165  1  0.08194287  0.31329806  0.52375738  1.0
  O  O166  1  0.04955732  0.51805336  0.58261510  1.0
  O  O167  1  0.15510303  0.50435799  0.45290703  1.0
  O  O168  1  0.02141946  0.37359632  0.58092663  1.0
  O  O169  1  0.14987652  0.39418600  0.44421982  1.0
  O  O170  1  0.05016675  0.61022118  0.53085629  1.0
  O  O171  1  0.00366181  0.65783144  0.44596862  1.0
  O  O172  1  0.91085195  0.50681845  0.42964916  1.0
  O  O173  1  0.88553046  0.65889081  0.45099727  1.0
  O  O174  1  0.98726510  0.38364042  0.44806877  1.0
  O  O175  1  0.87988977  0.53482870  0.58085110  1.0
  O  O176  1  0.81849519  0.56781326  0.52322983  1.0
  O  O177  1  0.74798335  0.25317123  0.25039412  1.0
  O  O178  1  0.59239739  0.35964641  0.30305123  1.0
  O  O179  1  0.65455999  0.17763715  0.21748109  1.0
  O  O180  1  0.71997324  0.37352203  0.16875835  1.0
  O  O181  1  0.59653182  0.24190585  0.30286767  1.0
  O  O182  1  0.67151677  0.43498243  0.22638844  1.0
  O  O183  1  0.74858514  0.18877212  0.17013835  1.0
  O  O184  1  0.87849915  0.22895683  0.16868634  1.0
  O  O185  1  0.86092002  0.25876565  0.30870825  1.0
  O  O186  1  0.93338115  0.17659004  0.22844841  1.0
  O  O187  1  0.74934463  0.36583133  0.30934000  1.0
  O  O188  1  0.74911192  0.09107800  0.29557248  1.0
  O  O189  1  0.85760077  0.10159693  0.30300907  1.0
  O  O190  1  0.25052409  0.74843196  0.74940430  1.0
  O  O191  1  0.37609408  0.72144915  0.66774287  1.0
  O  O192  1  0.36578391  0.76599104  0.80015343  1.0
  O  O193  1  0.17681511  0.93249676  0.72807701  1.0
  O  O194  1  0.43711831  0.66975041  0.72563994  1.0
  O  O195  1  0.22475018  0.87275851  0.66989547  1.0
  O  O196  1  0.24249499  0.84111726  0.81930629  1.0
  O  O197  1  0.09113087  0.85863863  0.80071124  1.0
  O  O198  1  0.16386392  0.66114632  0.71899059  1.0
  O  O199  1  0.09426952  0.74169642  0.79959681  1.0
  O  O200  1  0.21920893  0.71604974  0.66458727  1.0
  O  O201  1  0.35898740  0.60304764  0.80553254  1.0
  O  O202  1  0.24987606  0.59237463  0.79935307  1.0
  O  O203  1  0.50023136  0.99973221  0.99988875  1.0
  O  O204  1  0.50211064  0.15922495  0.94980337  1.0
  O  O205  1  0.38880749  0.99473068  0.94046753  1.0
  O  O206  1  0.65347575  0.89255525  0.94692860  1.0
  O  O207  1  0.39037962  0.15233444  0.94560016  1.0
  O  O208  1  0.65393589  0.00726652  0.95029250  1.0
  O  O209  1  0.49701016  0.88438648  0.94154204  1.0
  O  O210  1  0.57758396  0.81596762  0.02341078  1.0
  O  O211  1  0.53014565  0.03336726  0.08627685  1.0
  O  O212  1  0.52556600  0.87677811  0.08105929  1.0
  O  O213  1  0.58283939  0.08900905  0.03097527  1.0
  O  O214  1  0.31686127  0.07519106  0.02100123  1.0
  O  O215  1  0.37295562  0.02804368  0.08068400  1.0
  O  O216  1  0.79691877  0.59545369  0.38622174  1.0
  O  O217  1  0.68883799  0.56604555  0.38782932  1.0
  O  O218  1  0.75395245  0.53184450  0.45130621  1.0
  O  O219  1  0.09603677  0.72026193  0.50903023  1.0
  O  O220  1  0.21677895  0.70803661  0.52499206  1.0
  O  O221  1  0.20669002  0.59347674  0.50975433  1.0
  O  O222  1  0.80278443  0.17952463  0.09204490  1.0
  O  O223  1  0.71988966  0.23107192  0.03792567  1.0
  O  O224  1  0.68309502  0.29708287  0.10086175  1.0
  O  O225  1  0.15495405  0.95296549  0.86345699  1.0
  O  O226  1  0.18577080  0.05880911  0.86478774  1.0
  O  O227  1  0.21919193  0.99922293  0.79976316  1.0
