# generated using pymatgen
data_Zn4H45C60N3O13
_symmetry_space_group_name_H-M   'P 1'
_cell_length_a   27.00525384
_cell_length_b   27.14865192
_cell_length_c   27.18569625
_cell_angle_alpha   60.78575649
_cell_angle_beta   60.60342420
_cell_angle_gamma   60.52478116
_symmetry_Int_Tables_number   1
_chemical_formula_structural   Zn4H45C60N3O13
_chemical_formula_sum   'Zn8 H90 C120 N6 O26'
_cell_volume   14296.47228462
_cell_formula_units_Z   2
loop_
 _symmetry_equiv_pos_site_id
 _symmetry_equiv_pos_as_xyz
  1  'x, y, z'
loop_
 _atom_site_type_symbol
 _atom_site_label
 _atom_site_symmetry_multiplicity
 _atom_site_fract_x
 _atom_site_fract_y
 _atom_site_fract_z
 _atom_site_occupancy
  Zn  Zn0  1  0.03312670  0.03954447  0.90245224  1.0
  Zn  Zn1  1  0.03449099  0.04146000  0.01892210  1.0
  Zn  Zn2  1  0.03647725  0.92362129  0.01779974  1.0
  Zn  Zn3  1  0.91733359  0.03876820  0.01981814  1.0
  Zn  Zn4  1  0.47651434  0.48228076  0.57609568  1.0
  Zn  Zn5  1  0.47442628  0.48208008  0.46170433  1.0
  Zn  Zn6  1  0.59440235  0.48108607  0.46103195  1.0
  Zn  Zn7  1  0.47797350  0.59839363  0.46059420  1.0
  H  H8  1  0.19876105  0.08249410  0.91428824  1.0
  H  H9  1  0.27698563  0.13235139  0.84453207  1.0
  H  H10  1  0.17418237  0.24434088  0.72439895  1.0
  H  H11  1  0.09942263  0.19036445  0.79127670  1.0
  H  H12  1  0.31557667  0.19854016  0.75608010  1.0
  H  H13  1  0.22399579  0.29250610  0.77041234  1.0
  H  H14  1  0.24194669  0.37974564  0.74478699  1.0
  H  H15  1  0.31192113  0.43908646  0.68029939  1.0
  H  H16  1  0.41246876  0.32842033  0.56851022  1.0
  H  H17  1  0.34961672  0.26553166  0.58630649  1.0
  H  H18  1  0.45300680  0.21104632  0.61422274  1.0
  H  H19  1  0.44577810  0.10403192  0.66364010  1.0
  H  H20  1  0.33055370  0.11639904  0.72507426  1.0
  H  H21  1  0.33903190  0.13381356  0.65061109  1.0
  H  H22  1  0.26929045  0.23018471  0.65872394  1.0
  H  H23  1  0.06960518  0.82362376  0.91435069  1.0
  H  H24  1  0.11813725  0.76409300  0.84582027  1.0
  H  H25  1  0.23673360  0.86802009  0.72561520  1.0
  H  H26  1  0.18406471  0.93123588  0.79107151  1.0
  H  H27  1  0.18622492  0.74410175  0.75844118  1.0
  H  H28  1  0.28092274  0.72696113  0.77323459  1.0
  H  H29  1  0.36886250  0.64851516  0.74772808  1.0
  H  H30  1  0.43040053  0.58476609  0.68197519  1.0
  H  H31  1  0.32130180  0.70400534  0.56878543  1.0
  H  H32  1  0.25560168  0.80929985  0.58800944  1.0
  H  H33  1  0.20178682  0.73117175  0.61723995  1.0
  H  H34  1  0.09362300  0.79546369  0.66616959  1.0
  H  H35  1  0.10509079  0.84013606  0.72599364  1.0
  H  H36  1  0.12373414  0.88616953  0.65099390  1.0
  H  H37  1  0.21997914  0.85322957  0.66035626  1.0
  H  H38  1  0.81589044  0.20816576  0.91816363  1.0
  H  H39  1  0.75841533  0.28761153  0.84835047  1.0
  H  H40  1  0.86154310  0.18487689  0.72828446  1.0
  H  H41  1  0.92269382  0.10868955  0.79521302  1.0
  H  H42  1  0.74064222  0.32699905  0.75955333  1.0
  H  H43  1  0.71895504  0.23741687  0.77500509  1.0
  H  H44  1  0.63918623  0.25561208  0.74883323  1.0
  H  H45  1  0.57629865  0.32397062  0.68240340  1.0
  H  H46  1  0.70129187  0.42086560  0.57014640  1.0
  H  H47  1  0.80733725  0.35881190  0.58964565  1.0
  H  H48  1  0.73335708  0.46193700  0.61760353  1.0
  H  H49  1  0.80023884  0.45406036  0.66658552  1.0
  H  H50  1  0.84047501  0.33958257  0.72755396  1.0
  H  H51  1  0.88731118  0.34753807  0.65277098  1.0
  H  H52  1  0.84932288  0.27859326  0.66257668  1.0
  H  H53  1  0.20321298  0.82448511  0.05543851  1.0
  H  H54  1  0.28118132  0.76584159  0.10593478  1.0
  H  H55  1  0.18056039  0.87428467  0.22041940  1.0
  H  H56  1  0.10598546  0.93624067  0.16608805  1.0
  H  H57  1  0.32031539  0.74845996  0.17322932  1.0
  H  H58  1  0.22824704  0.73124103  0.26597602  1.0
  H  H59  1  0.24478278  0.65203277  0.35285211  1.0
  H  H60  1  0.31372832  0.58713756  0.41331866  1.0
  H  H61  1  0.41732960  0.70587418  0.30731663  1.0
  H  H62  1  0.35723754  0.81251690  0.24474176  1.0
  H  H63  1  0.45842212  0.73590696  0.18917907  1.0
  H  H64  1  0.45158856  0.80207720  0.08250995  1.0
  H  H65  1  0.33599802  0.84661559  0.09406708  1.0
  H  H66  1  0.34710395  0.89167254  0.11467943  1.0
  H  H67  1  0.27586924  0.85701511  0.20939207  1.0
  H  H68  1  0.81955613  0.07223411  0.18878097  1.0
  H  H69  1  0.76091397  0.12090870  0.26793195  1.0
  H  H70  1  0.86225429  0.24216003  0.16594334  1.0
  H  H71  1  0.92452119  0.18966191  0.09006110  1.0
  H  H72  1  0.74197231  0.18871080  0.30768356  1.0
  H  H73  1  0.71837386  0.28187487  0.21901656  1.0
  H  H74  1  0.63718766  0.36745462  0.23788054  1.0
  H  H75  1  0.57377696  0.42876004  0.30600389  1.0
  H  H76  1  0.70023099  0.32702434  0.40125343  1.0
  H  H77  1  0.80622850  0.26494748  0.33974943  1.0
  H  H78  1  0.73314384  0.20758055  0.44256674  1.0
  H  H79  1  0.80165266  0.10108916  0.43453497  1.0
  H  H80  1  0.84217514  0.11254565  0.32024222  1.0
  H  H81  1  0.88799805  0.13512210  0.32825198  1.0
  H  H82  1  0.84889435  0.22930116  0.25956192  1.0
  H  H83  1  0.81991865  0.93114192  0.05627354  1.0
  H  H84  1  0.76239184  0.86034076  0.10668005  1.0
  H  H85  1  0.87191129  0.74342559  0.22030180  1.0
  H  H86  1  0.93262350  0.81156186  0.16615430  1.0
  H  H87  1  0.74557314  0.77232973  0.17447587  1.0
  H  H88  1  0.72902318  0.78971353  0.26702372  1.0
  H  H89  1  0.64962164  0.76540867  0.35426557  1.0
  H  H90  1  0.58421611  0.70142802  0.41437894  1.0
  H  H91  1  0.70435770  0.58595336  0.30756593  1.0
  H  H92  1  0.81228359  0.60286638  0.24527430  1.0
  H  H93  1  0.73627960  0.62865749  0.19058909  1.0
  H  H94  1  0.80157463  0.67589159  0.08348461  1.0
  H  H95  1  0.84346637  0.73902576  0.09398757  1.0
  H  H96  1  0.89085927  0.66436549  0.11350486  1.0
  H  H97  1  0.85605947  0.67565651  0.20842852  1.0
  C  C98  1  0.10041941  0.10093280  0.89657298  1.0
  C  C99  1  0.14490172  0.13322145  0.85656092  1.0
  C  C100  1  0.19431536  0.11742729  0.87217289  1.0
  C  C101  1  0.23754128  0.14558138  0.83329903  1.0
  C  C102  1  0.23109558  0.19092965  0.77963694  1.0
  C  C103  1  0.18026546  0.20798785  0.76541143  1.0
  C  C104  1  0.13810060  0.17857703  0.80285436  1.0
  C  C105  1  0.27850498  0.22061272  0.73740763  1.0
  C  C106  1  0.29012589  0.31812308  0.69472773  1.0
  C  C107  1  0.27997010  0.36815655  0.70637045  1.0
  C  C108  1  0.31844310  0.40149636  0.67044973  1.0
  C  C109  1  0.36654257  0.38722809  0.62036526  1.0
  C  C110  1  0.37537030  0.33854036  0.60797939  1.0
  C  C111  1  0.33903502  0.30259739  0.64517831  1.0
  C  C112  1  0.35121512  0.24883305  0.63183473  1.0
  C  C113  1  0.41182613  0.20053366  0.63340784  1.0
  C  C114  1  0.40788760  0.14563494  0.65896408  1.0
  C  C115  1  0.34431403  0.14729060  0.67956864  1.0
  C  C116  1  0.30621127  0.21355579  0.67542554  1.0
  C  C117  1  0.40788849  0.42275030  0.58172943  1.0
  C  C118  1  0.09219504  0.91856095  0.89590134  1.0
  C  C119  1  0.12356952  0.88123571  0.85643553  1.0
  C  C120  1  0.10561424  0.83356889  0.87241358  1.0
  C  C121  1  0.13307244  0.80032885  0.83421181  1.0
  C  C122  1  0.17995619  0.81271378  0.78088720  1.0
  C  C123  1  0.19915903  0.85914991  0.76631832  1.0
  C  C124  1  0.17044110  0.89405337  0.80300328  1.0
  C  C125  1  0.20933514  0.77689523  0.73940734  1.0
  C  C126  1  0.30788213  0.71067718  0.69695173  1.0
  C  C127  1  0.35806465  0.66016254  0.70874426  1.0
  C  C128  1  0.39266414  0.62490054  0.67212852  1.0
  C  C129  1  0.37953146  0.64080216  0.62123415  1.0
  C  C130  1  0.33058942  0.69187749  0.60881748  1.0
  C  C131  1  0.29336548  0.72623176  0.64672627  1.0
  C  C132  1  0.23906119  0.77951940  0.63366395  1.0
  C  C133  1  0.19079649  0.76430818  0.63585465  1.0
  C  C134  1  0.13536386  0.79730888  0.66113300  1.0
  C  C135  1  0.13670733  0.83968475  0.68078589  1.0
  C  C136  1  0.20317656  0.81652438  0.67709758  1.0
  C  C137  1  0.41662908  0.60327387  0.58188042  1.0
  C  C138  1  0.90986637  0.10853539  0.90004491  1.0
  C  C139  1  0.87301615  0.15412002  0.86046154  1.0
  C  C140  1  0.82610076  0.20395092  0.87603494  1.0
  C  C141  1  0.79402461  0.24793201  0.83709170  1.0
  C  C142  1  0.80683794  0.24187080  0.78340345  1.0
  C  C143  1  0.85239093  0.19065720  0.76927774  1.0
  C  C144  1  0.88608619  0.14771057  0.80675202  1.0
  C  C145  1  0.77230638  0.28967661  0.74114926  1.0
  C  C146  1  0.70436662  0.30193982  0.69839420  1.0
  C  C147  1  0.65227742  0.29247620  0.70988656  1.0
  C  C148  1  0.61747478  0.33001720  0.67293126  1.0
  C  C149  1  0.63520889  0.37653684  0.62212679  1.0
  C  C150  1  0.68775500  0.38491076  0.61012048  1.0
  C  C151  1  0.72196372  0.34937399  0.64818945  1.0
  C  C152  1  0.77746582  0.36075707  0.63513083  1.0
  C  C153  1  0.76543567  0.42088065  0.63666482  1.0
  C  C154  1  0.79976417  0.41659666  0.66197252  1.0
  C  C155  1  0.84007999  0.35322325  0.68231266  1.0
  C  C156  1  0.81384875  0.31586829  0.67889627  1.0
  C  C157  1  0.59817878  0.41626481  0.58233437  1.0
  C  C158  1  0.10532478  0.92056386  0.07557380  1.0
  C  C159  1  0.15030723  0.88407193  0.10747808  1.0
  C  C160  1  0.19915922  0.83554889  0.09105873  1.0
  C  C161  1  0.24227473  0.80281699  0.11960442  1.0
  C  C162  1  0.23639504  0.81661152  0.16596499  1.0
  C  C163  1  0.18625167  0.86408032  0.18343439  1.0
  C  C164  1  0.14418415  0.89835220  0.15374308  1.0
  C  C165  1  0.28361802  0.78118347  0.19623927  1.0
  C  C166  1  0.29438179  0.71417271  0.29354885  1.0
  C  C167  1  0.28321846  0.66336129  0.34250692  1.0
  C  C168  1  0.32113333  0.62739881  0.37647255  1.0
  C  C169  1  0.36983027  0.64269745  0.36384751  1.0
  C  C170  1  0.37975952  0.69413256  0.31617418  1.0
  C  C171  1  0.34385853  0.72939471  0.27974021  1.0
  C  C172  1  0.35732452  0.78335320  0.22709231  1.0
  C  C173  1  0.41760854  0.76916054  0.17875943  1.0
  C  C174  1  0.41385281  0.80313199  0.12409264  1.0
  C  C175  1  0.35071110  0.84530820  0.12611518  1.0
  C  C176  1  0.31224759  0.82093347  0.19168098  1.0
  C  C177  1  0.41054681  0.60439889  0.40007133  1.0
  C  C178  1  0.91289942  0.09635877  0.08971960  1.0
  C  C179  1  0.87583919  0.12769383  0.13509442  1.0
  C  C180  1  0.82912853  0.10892019  0.18467234  1.0
  C  C181  1  0.79636493  0.13645127  0.22848808  1.0
  C  C182  1  0.80825555  0.18411235  0.22263153  1.0
  C  C183  1  0.85367686  0.20406648  0.17169371  1.0
  C  C184  1  0.88807343  0.17541965  0.12886128  1.0
  C  C185  1  0.77291247  0.21341822  0.27053433  1.0
  C  C186  1  0.70328447  0.31027270  0.28333960  1.0
  C  C187  1  0.65056580  0.35822987  0.27430355  1.0
  C  C188  1  0.61543384  0.39267173  0.31171836  1.0
  C  C189  1  0.63342094  0.38158933  0.35770072  1.0
  C  C190  1  0.68650660  0.33475485  0.36570162  1.0
  C  C191  1  0.72102539  0.29778992  0.33035756  1.0
  C  C192  1  0.77690710  0.24609360  0.34163614  1.0
  C  C193  1  0.76542151  0.19742893  0.40158099  1.0
  C  C194  1  0.80060129  0.14283388  0.39720909  1.0
  C  C195  1  0.84097046  0.14530927  0.33393620  1.0
  C  C196  1  0.81389114  0.21063036  0.29673444  1.0
  C  C197  1  0.59626241  0.41886896  0.39732554  1.0
  C  C198  1  0.91560146  0.91623723  0.07634364  1.0
  C  C199  1  0.87979011  0.87528357  0.10805463  1.0
  C  C200  1  0.83139860  0.88949536  0.09171493  1.0
  C  C201  1  0.79933142  0.85002808  0.12018102  1.0
  C  C202  1  0.81377863  0.79703515  0.16626967  1.0
  C  C203  1  0.86123026  0.78397609  0.18354473  1.0
  C  C204  1  0.89476795  0.82210656  0.15399219  1.0
  C  C205  1  0.77889013  0.75451482  0.19674458  1.0
  C  C206  1  0.71222610  0.71355399  0.29436095  1.0
  C  C207  1  0.66106582  0.72633356  0.34362972  1.0
  C  C208  1  0.62485702  0.69067733  0.37741786  1.0
  C  C209  1  0.64040320  0.63973395  0.36441193  1.0
  C  C210  1  0.69238485  0.62612987  0.31662484  1.0
  C  C211  1  0.72781735  0.66299801  0.28024540  1.0
  C  C212  1  0.78248079  0.64826626  0.22749087  1.0
  C  C213  1  0.76882236  0.64810676  0.17970346  1.0
  C  C214  1  0.80235126  0.67254474  0.12474604  1.0
  C  C215  1  0.84366320  0.69388894  0.12587129  1.0
  C  C216  1  0.81947602  0.69174294  0.19146326  1.0
  C  C217  1  0.60155823  0.60159341  0.40027271  1.0
  N  N218  1  0.25216886  0.28413926  0.73128905  1.0
  N  N219  1  0.27302106  0.74567545  0.73392806  1.0
  N  N220  1  0.73894838  0.26452574  0.73567107  1.0
  N  N221  1  0.25686222  0.74977291  0.25904646  1.0
  N  N222  1  0.73835325  0.27575924  0.24588456  1.0
  N  N223  1  0.74784582  0.74994114  0.25976484  1.0
  O  O224  1  0.00550972  0.01104160  0.98964526  1.0
  O  O225  1  0.09524243  0.07740996  0.95192972  1.0
  O  O226  1  0.07149859  0.09904041  0.87215832  1.0
  O  O227  1  0.43782338  0.42142777  0.52812035  1.0
  O  O228  1  0.41070814  0.45212513  0.60505143  1.0
  O  O229  1  0.06834357  0.89342616  0.95145252  1.0
  O  O230  1  0.09128526  0.97285662  0.87090752  1.0
  O  O231  1  0.41608260  0.62771637  0.52807899  1.0
  O  O232  1  0.44647213  0.54889172  0.60494626  1.0
  O  O233  1  0.88543161  0.10369226  0.95542288  1.0
  O  O234  1  0.96328310  0.07804297  0.87519324  1.0
  O  O235  1  0.62341757  0.44593265  0.52902314  1.0
  O  O236  1  0.54336635  0.41777509  0.60450985  1.0
  O  O237  1  0.10050333  0.89496344  0.04990256  1.0
  O  O238  1  0.07541331  0.97430611  0.07624613  1.0
  O  O239  1  0.44213998  0.62814210  0.39907401  1.0
  O  O240  1  0.41108584  0.55026637  0.42960732  1.0
  O  O241  1  0.88844534  0.06943191  0.08505485  1.0
  O  O242  1  0.96639164  0.09860959  0.05936749  1.0
  O  O243  1  0.62193495  0.41943353  0.42604408  1.0
  O  O244  1  0.54109430  0.44771511  0.39966896  1.0
  O  O245  1  0.88983918  0.97096926  0.05004300  1.0
  O  O246  1  0.96930009  0.89333733  0.07780594  1.0
  O  O247  1  0.62579678  0.54731304  0.40058532  1.0
  O  O248  1  0.54643765  0.62616320  0.42813918  1.0
  O  O249  1  0.50652231  0.51111732  0.48903489  1.0
