# generated using pymatgen
data_ZnH8C14NO4
_symmetry_space_group_name_H-M   'P 1'
_cell_length_a   9.60957991
_cell_length_b   11.06334388
_cell_length_c   17.93918498
_cell_angle_alpha   90.29994878
_cell_angle_beta   90.01047073
_cell_angle_gamma   89.99789728
_symmetry_Int_Tables_number   1
_chemical_formula_structural   ZnH8C14NO4
_chemical_formula_sum   'Zn2 H16 C28 N2 O8'
_cell_volume   1907.16190683
_cell_formula_units_Z   2
loop_
 _symmetry_equiv_pos_site_id
 _symmetry_equiv_pos_as_xyz
  1  'x, y, z'
loop_
 _atom_site_type_symbol
 _atom_site_label
 _atom_site_symmetry_multiplicity
 _atom_site_fract_x
 _atom_site_fract_y
 _atom_site_fract_z
 _atom_site_occupancy
  Zn  Zn0  1  0.35844688  0.50022545  0.49994177  1.0
  Zn  Zn1  1  0.64155189  0.50018012  0.50005572  1.0
  H  H2  1  0.27564745  0.49274194  0.12215072  1.0
  H  H3  1  0.27699590  0.11377021  0.49540571  1.0
  H  H4  1  0.72295132  0.11394600  0.50439165  1.0
  H  H5  1  0.27705164  0.88634675  0.49566413  1.0
  H  H6  1  0.86619374  0.36479731  0.41958375  1.0
  H  H7  1  0.13379987  0.63530572  0.58050841  1.0
  H  H8  1  0.86623773  0.63522600  0.58054740  1.0
  H  H9  1  0.13376004  0.36487432  0.41954532  1.0
  H  H10  1  0.72433421  0.49292544  0.87776274  1.0
  H  H11  1  0.27564341  0.49293331  0.87773010  1.0
  H  H12  1  0.72436322  0.49273856  0.12217389  1.0
  H  H13  1  0.27690665  0.49638564  0.26163450  1.0
  H  H14  1  0.72309863  0.49740150  0.73831423  1.0
  H  H15  1  0.27685331  0.49740394  0.73828226  1.0
  H  H16  1  0.72315301  0.49638227  0.26165922  1.0
  H  H17  1  0.72299560  0.88652155  0.50461997  1.0
  C  C18  1  0.50000673  0.73797912  0.50080814  1.0
  C  C19  1  0.49997731  0.49743973  0.35329947  1.0
  C  C20  1  0.49998606  0.12684400  0.49963083  1.0
  C  C21  1  0.50001066  0.87344695  0.50042941  1.0
  C  C22  1  0.37343932  0.49323433  0.15293630  1.0
  C  C23  1  0.62655164  0.49414413  0.84698194  1.0
  C  C24  1  0.37341570  0.49414809  0.84695860  1.0
  C  C25  1  0.62658254  0.49323486  0.15295018  1.0
  C  C26  1  0.37403376  0.49507795  0.23032854  1.0
  C  C27  1  0.62596743  0.49680829  0.76961499  1.0
  C  C28  1  0.37399699  0.49680502  0.76959113  1.0
  C  C29  1  0.50000143  0.26231180  0.49924150  1.0
  C  C30  1  0.62601356  0.49508030  0.23034571  1.0
  C  C31  1  0.50002809  0.49584021  0.26988744  1.0
  C  C32  1  0.49998341  0.49840434  0.73007620  1.0
  C  C33  1  0.92752147  0.42466737  0.45516517  1.0
  C  C34  1  0.07247422  0.57545371  0.54491700  1.0
  C  C35  1  0.92755427  0.57541621  0.54493550  1.0
  C  C36  1  0.07244558  0.42470307  0.45515000  1.0
  C  C37  1  0.50000641  0.49229929  0.11283846  1.0
  C  C38  1  0.49998462  0.49302998  0.88705644  1.0
  C  C39  1  0.49999861  0.49128491  0.03398921  1.0
  C  C40  1  0.49998940  0.49144473  0.96589230  1.0
  C  C41  1  0.62597654  0.93733571  0.50269673  1.0
  C  C42  1  0.37402017  0.06295973  0.49735571  1.0
  C  C43  1  0.62596645  0.06305581  0.50235994  1.0
  C  C44  1  0.37403026  0.93723787  0.49770978  1.0
  C  C45  1  0.50002987  0.50093205  0.64668808  1.0
  N  N46  1  0.14313988  0.50010669  0.50001204  1.0
  N  N47  1  0.85685788  0.50004687  0.50004901  1.0
  O  O48  1  0.38199014  0.68520464  0.50077979  1.0
  O  O49  1  0.61801490  0.31508635  0.49929215  1.0
  O  O50  1  0.38200141  0.31512296  0.49899883  1.0
  O  O51  1  0.61801090  0.68517599  0.50101237  1.0
  O  O52  1  0.38201200  0.50174324  0.61404522  1.0
  O  O53  1  0.61799097  0.49801153  0.38595589  1.0
  O  O54  1  0.38189322  0.49809750  0.38585443  1.0
  O  O55  1  0.61811495  0.50169251  0.61414119  1.0
