# generated using pymatgen
data_AlH3C27(OF2)6
_symmetry_space_group_name_H-M   'P 1'
_cell_length_a   4.07411715
_cell_length_b   27.87248620
_cell_length_c   27.88873781
_cell_angle_alpha   60.06588384
_cell_angle_beta   89.76633410
_cell_angle_gamma   89.57715243
_symmetry_Int_Tables_number   1
_chemical_formula_structural   AlH3C27(OF2)6
_chemical_formula_sum   'Al3 H9 C81 O18 F36'
_cell_volume   2744.38338529
_cell_formula_units_Z   3
loop_
 _symmetry_equiv_pos_site_id
 _symmetry_equiv_pos_as_xyz
  1  'x, y, z'
loop_
 _atom_site_type_symbol
 _atom_site_label
 _atom_site_symmetry_multiplicity
 _atom_site_fract_x
 _atom_site_fract_y
 _atom_site_fract_z
 _atom_site_occupancy
  Al  Al0  1  0.00110814  0.00018256  0.49989724  1.0
  Al  Al1  1  0.03388069  0.33373048  0.83314918  1.0
  Al  Al2  1  0.95672809  0.66703761  0.16640874  1.0
  H  H3  1  0.48988499  0.00023242  0.92253850  1.0
  H  H4  1  0.53636493  0.91152168  0.83330557  1.0
  H  H5  1  0.44345178  0.08888904  0.74490418  1.0
  H  H6  1  0.48947459  0.42249534  0.07756698  1.0
  H  H7  1  0.44136670  0.24478702  0.16647495  1.0
  H  H8  1  0.53915334  0.33325713  0.25521715  1.0
  H  H9  1  0.50930391  0.57740372  0.49969884  1.0
  H  H10  1  0.56328119  0.75502908  0.41113354  1.0
  H  H11  1  0.46750025  0.66687177  0.58824717  1.0
  C  C12  1  0.50569356  0.92698425  0.49980473  1.0
  C  C13  1  0.49868741  0.00022870  0.57306995  1.0
  C  C14  1  0.49898906  0.07331286  0.42669314  1.0
  C  C15  1  0.53586184  0.26074676  0.83295656  1.0
  C  C16  1  0.53031628  0.33338303  0.90638447  1.0
  C  C17  1  0.53135066  0.40694130  0.76038356  1.0
  C  C18  1  0.45610624  0.73973086  0.09318107  1.0
  C  C19  1  0.46169198  0.59355494  0.16713455  1.0
  C  C20  1  0.45703643  0.66735829  0.23927789  1.0
  C  C21  1  0.49909830  0.94974523  0.88399608  1.0
  C  C22  1  0.48980826  0.00021578  0.88365623  1.0
  C  C23  1  0.48057330  0.05067241  0.83366344  1.0
  C  C24  1  0.46943142  0.05020104  0.78367571  1.0
  C  C25  1  0.48990175  0.00020473  0.78324082  1.0
  C  C26  1  0.51011492  0.95020632  0.83352155  1.0
  C  C27  1  0.35741859  0.16110249  0.87504476  1.0
  C  C28  1  0.33681639  0.11156635  0.87442148  1.0
  C  C29  1  0.49057271  0.10380988  0.83355181  1.0
  C  C30  1  0.66493167  0.14965476  0.79300793  1.0
  C  C31  1  0.68059733  0.19958377  0.79293066  1.0
  C  C32  1  0.52697004  0.20622880  0.83394785  1.0
  C  C33  1  0.64676390  0.88914565  0.98517421  1.0
  C  C34  1  0.63013452  0.83954497  0.03523903  1.0
  C  C35  1  0.46354832  0.79408652  0.03957374  1.0
  C  C36  1  0.30930843  0.80041496  0.99227804  1.0
  C  C37  1  0.32099566  0.85040018  0.94252865  1.0
  C  C38  1  0.49199514  0.89660731  0.93693079  1.0
  C  C39  1  0.32793448  0.95995108  0.72329649  1.0
  C  C40  1  0.32896317  0.95970976  0.67349052  1.0
  C  C41  1  0.49618051  0.00022831  0.62665846  1.0
  C  C42  1  0.66064056  0.04077335  0.63317650  1.0
  C  C43  1  0.65705211  0.04057926  0.68319743  1.0
  C  C44  1  0.49133443  0.00025565  0.73020518  1.0
  C  C45  1  0.47856987  0.33357144  0.11595930  1.0
  C  C46  1  0.48961929  0.38360839  0.11642064  1.0
  C  C47  1  0.50103292  0.38399040  0.16647209  1.0
  C  C48  1  0.51174703  0.33348906  0.21639002  1.0
  C  C49  1  0.49007495  0.28319162  0.21667534  1.0
  C  C50  1  0.46813354  0.28357646  0.16635522  1.0
  C  C51  1  0.63868185  0.53498783  0.12558464  1.0
  C  C52  1  0.65330598  0.48485814  0.12598381  1.0
  C  C53  1  0.49612010  0.43696818  0.16674152  1.0
  C  C54  1  0.32506978  0.44291891  0.20742192  1.0
  C  C55  1  0.31508710  0.49273672  0.20767836  1.0
  C  C56  1  0.47116414  0.53972811  0.16667955  1.0
  C  C57  1  0.32968273  0.37430531  0.01486332  1.0
  C  C58  1  0.34848673  0.37496080  0.96466980  1.0
  C  C59  1  0.51959887  0.33396951  0.96010613  1.0
  C  C60  1  0.67530625  0.29287222  0.00730157  1.0
  C  C61  1  0.66109738  0.29287902  0.05719120  1.0
  C  C62  1  0.48615279  0.33341988  0.06296321  1.0
  C  C63  1  0.65943691  0.18311141  0.27625512  1.0
  C  C64  1  0.66305329  0.13314513  0.32606052  1.0
  C  C65  1  0.49628891  0.12681676  0.37309316  1.0
  C  C66  1  0.32648101  0.17373261  0.36677027  1.0
  C  C67  1  0.32553095  0.22348520  0.31675432  1.0
  C  C68  1  0.49152231  0.23019506  0.26961774  1.0
  C  C69  1  0.52253150  0.66630760  0.44931609  1.0
  C  C70  1  0.51133450  0.61630952  0.49973023  1.0
  C  C71  1  0.50194003  0.61601901  0.55014760  1.0
  C  C72  1  0.49369131  0.66656811  0.54963984  1.0
  C  C73  1  0.51606886  0.71679592  0.49969769  1.0
  C  C74  1  0.53611565  0.71630673  0.44977583  1.0
  C  C75  1  0.35943468  0.46522424  0.66032788  1.0
  C  C76  1  0.34729956  0.51523130  0.61057994  1.0
  C  C77  1  0.50507898  0.56310067  0.60333091  1.0
  C  C78  1  0.67426682  0.55721837  0.64987950  1.0
  C  C79  1  0.68111417  0.50755880  0.69999761  1.0
  C  C80  1  0.52451618  0.46060363  0.70608865  1.0
  C  C81  1  0.66397712  0.62556418  0.38836097  1.0
  C  C82  1  0.64113333  0.62502083  0.33881753  1.0
  C  C83  1  0.46937167  0.66624059  0.29381910  1.0
  C  C84  1  0.31651067  0.70734149  0.30054227  1.0
  C  C85  1  0.33468362  0.70720578  0.35045438  1.0
  C  C86  1  0.51090625  0.66650948  0.39617722  1.0
  C  C87  1  0.34871419  0.81695541  0.45929152  1.0
  C  C88  1  0.34457354  0.86699676  0.45910784  1.0
  C  C89  1  0.50992277  0.87342794  0.49968044  1.0
  C  C90  1  0.67883183  0.82651872  0.54016608  1.0
  C  C91  1  0.68021725  0.77667834  0.53992022  1.0
  C  C92  1  0.51567635  0.76986479  0.49961477  1.0
  O  O93  1  0.26286624  0.06481802  0.45989524  1.0
  O  O94  1  0.26805095  0.95997560  0.47526371  1.0
  O  O95  1  0.26427325  0.97556834  0.56452703  1.0
  O  O96  1  0.73712531  0.04029979  0.43512810  1.0
  O  O97  1  0.73466442  0.02486846  0.54002637  1.0
  O  O98  1  0.74012863  0.93553513  0.52450755  1.0
  O  O99  1  0.29619909  0.39867484  0.79345604  1.0
  O  O100  1  0.30157335  0.29410712  0.80795881  1.0
  O  O101  1  0.29783947  0.30854475  0.89791094  1.0
  O  O102  1  0.77160636  0.37469847  0.76838207  1.0
  O  O103  1  0.76952512  0.35754652  0.87435842  1.0
  O  O104  1  0.77486692  0.26870619  0.85697354  1.0
  O  O105  1  0.21761150  0.64338365  0.23145839  1.0
  O  O106  1  0.21617205  0.73187318  0.12523850  1.0
  O  O107  1  0.22179887  0.62572141  0.14287371  1.0
  O  O108  1  0.68922237  0.69242023  0.20575007  1.0
  O  O109  1  0.69508134  0.60204925  0.19182795  1.0
  O  O110  1  0.69161598  0.70648487  0.10154900  1.0
  F  F111  1  0.85054853  0.24206476  0.75244092  1.0
  F  F112  1  0.20589205  0.16542150  0.91591732  1.0
  F  F113  1  0.83479361  0.14612575  0.75295185  1.0
  F  F114  1  0.15385437  0.07067578  0.91458225  1.0
  F  F115  1  0.78252917  0.83552477  0.08004474  1.0
  F  F116  1  0.82715212  0.93036135  0.98415329  1.0
  F  F117  1  0.14264677  0.75757614  0.99452437  1.0
  F  F118  1  0.15069706  0.85355836  0.89934984  1.0
  F  F119  1  0.15186154  0.91998049  0.76560011  1.0
  F  F120  1  0.16448456  0.91857533  0.67233793  1.0
  F  F121  1  0.83109870  0.08057503  0.68570117  1.0
  F  F122  1  0.82700132  0.08189919  0.59109557  1.0
  F  F123  1  0.14779108  0.49540027  0.24824836  1.0
  F  F124  1  0.79330010  0.57946802  0.08482698  1.0
  F  F125  1  0.15295479  0.40006569  0.24742934  1.0
  F  F126  1  0.83382252  0.48337039  0.08576264  1.0
  F  F127  1  0.19463127  0.41586980  0.91995444  1.0
  F  F128  1  0.14621836  0.41444703  0.01618190  1.0
  F  F129  1  0.84664971  0.25247005  0.00477830  1.0
  F  F130  1  0.83321311  0.25282385  0.10028922  1.0
  F  F131  1  0.83553948  0.18555284  0.23371637  1.0
  F  F132  1  0.83171261  0.09094568  0.32703448  1.0
  F  F133  1  0.14739042  0.26594157  0.31436318  1.0
  F  F134  1  0.15940727  0.17271066  0.40902122  1.0
  F  F135  1  0.84635465  0.50500619  0.74314525  1.0
  F  F136  1  0.20469487  0.42075803  0.66410028  1.0
  F  F137  1  0.84734988  0.59996671  0.64697951  1.0
  F  F138  1  0.16845877  0.51660762  0.56897472  1.0
  F  F139  1  0.79193590  0.58406468  0.33441650  1.0
  F  F140  1  0.84814815  0.58525436  0.42920793  1.0
  F  F141  1  0.14441370  0.74790901  0.25817593  1.0
  F  F142  1  0.16519062  0.74730517  0.35411836  1.0
  F  F143  1  0.17347532  0.81447824  0.41933744  1.0
  F  F144  1  0.17660991  0.90915270  0.41801485  1.0
  F  F145  1  0.85716620  0.73422861  0.57990940  1.0
  F  F146  1  0.84432605  0.82761286  0.58130215  1.0
