# generated using pymatgen
data_Al2H24(C11O4)3
_symmetry_space_group_name_H-M   'P 1'
_cell_length_a   3.98442992
_cell_length_b   17.22713194
_cell_length_c   17.22762912
_cell_angle_alpha   119.99882559
_cell_angle_beta   89.99993860
_cell_angle_gamma   89.99737920
_symmetry_Int_Tables_number   1
_chemical_formula_structural   Al2H24(C11O4)3
_chemical_formula_sum   'Al2 H24 C33 O12'
_cell_volume   1024.09549703
_cell_formula_units_Z   1
loop_
 _symmetry_equiv_pos_site_id
 _symmetry_equiv_pos_as_xyz
  1  'x, y, z'
loop_
 _atom_site_type_symbol
 _atom_site_label
 _atom_site_symmetry_multiplicity
 _atom_site_fract_x
 _atom_site_fract_y
 _atom_site_fract_z
 _atom_site_occupancy
  Al  Al0  1  0.01849050  0.00000657  0.50000194  1.0
  Al  Al1  1  0.98277315  0.33332320  0.16665692  1.0
  H  H2  1  0.43291153  0.58311227  0.16656920  1.0
  H  H3  1  0.76721440  0.58591309  0.47058516  1.0
  H  H4  1  0.32058617  0.58292282  0.47484426  1.0
  H  H5  1  0.30203778  0.75117209  0.55617823  1.0
  H  H6  1  0.74867098  0.75472466  0.55425104  1.0
  H  H7  1  0.43299490  0.33343985  0.41652493  1.0
  H  H8  1  0.76726814  0.02939704  0.11533695  1.0
  H  H9  1  0.32064256  0.02513684  0.10807510  1.0
  H  H10  1  0.30202264  0.94379872  0.19498498  1.0
  H  H11  1  0.74870115  0.94573576  0.20048276  1.0
  H  H12  1  0.43302276  0.08345174  0.91689663  1.0
  H  H13  1  0.76715470  0.38468566  0.91408248  1.0
  H  H14  1  0.32049538  0.39193059  0.91707799  1.0
  H  H15  1  0.30190163  0.30501585  0.74883062  1.0
  H  H16  1  0.74854071  0.29954784  0.74528341  1.0
  H  H17  1  0.73280581  0.77181884  0.21396228  1.0
  H  H18  1  0.35459580  0.82650661  0.26597849  1.0
  H  H19  1  0.34347035  0.71990089  0.16586592  1.0
  H  H20  1  0.73283625  0.28604450  0.55784720  1.0
  H  H21  1  0.35459639  0.23403892  0.56051901  1.0
  H  H22  1  0.34347358  0.33414000  0.55401634  1.0
  H  H23  1  0.73289888  0.94214861  0.72820146  1.0
  H  H24  1  0.35470462  0.93947346  0.67351479  1.0
  H  H25  1  0.34351020  0.94597230  0.78011611  1.0
  C  C26  1  0.51536282  0.06800383  0.63773742  1.0
  C  C27  1  0.51538041  0.86227002  0.43027209  1.0
  C  C28  1  0.51535556  0.06973555  0.43199734  1.0
  C  C29  1  0.48287907  0.47086947  0.23426176  1.0
  C  C30  1  0.48297396  0.26572168  0.23659533  1.0
  C  C31  1  0.48292192  0.26339021  0.02912208  1.0
  C  C32  1  0.48654626  0.57042498  0.28395897  1.0
  C  C33  1  0.50144576  0.76271798  0.37831745  1.0
  C  C34  1  0.51484398  0.62021651  0.37676693  1.0
  C  C35  1  0.48101108  0.71366509  0.28359119  1.0
  C  C36  1  0.50894453  0.71354461  0.42230919  1.0
  C  C37  1  0.46204127  0.61977545  0.23930292  1.0
  C  C38  1  0.53487726  0.61519816  0.46214921  1.0
  C  C39  1  0.52496346  0.72132380  0.51402386  1.0
  C  C40  1  0.48654479  0.21604011  0.28646657  1.0
  C  C41  1  0.50150932  0.12168200  0.38439722  1.0
  C  C42  1  0.51486897  0.12321450  0.24344168  1.0
  C  C43  1  0.48102547  0.21640707  0.43006212  1.0
  C  C44  1  0.50901793  0.07767875  0.29123735  1.0
  C  C45  1  0.46209266  0.26070168  0.38046930  1.0
  C  C46  1  0.53489022  0.03783408  0.15305272  1.0
  C  C47  1  0.52498148  0.98595939  0.20730542  1.0
  C  C48  1  0.48655874  0.21353020  0.92956672  1.0
  C  C49  1  0.50144641  0.11560437  0.73728212  1.0
  C  C50  1  0.51484485  0.25655696  0.87978811  1.0
  C  C51  1  0.48107637  0.06993934  0.78634299  1.0
  C  C52  1  0.50893409  0.20878216  0.78646302  1.0
  C  C53  1  0.46209256  0.11952541  0.88021787  1.0
  C  C54  1  0.53477632  0.34696802  0.88480905  1.0
  C  C55  1  0.52488069  0.29271460  0.77868279  1.0
  C  C56  1  0.47580647  0.76057915  0.22963809  1.0
  C  C57  1  0.47583492  0.27036713  0.53092435  1.0
  C  C58  1  0.47589590  0.96907338  0.73944085  1.0
  O  O59  1  0.28687182  0.01093871  0.41348880  1.0
  O  O60  1  0.28686923  0.08651280  0.59745087  1.0
  O  O61  1  0.28690210  0.90256229  0.48907237  1.0
  O  O62  1  0.75623153  0.08586690  0.48677664  1.0
  O  O63  1  0.75627445  0.90092695  0.41415799  1.0
  O  O64  1  0.75624827  0.01321893  0.59908484  1.0
  O  O65  1  0.24800906  0.24627886  0.06865690  1.0
  O  O66  1  0.24799115  0.43132794  0.17761427  1.0
  O  O67  1  0.24804156  0.32236636  0.25370863  1.0
  O  O68  1  0.71693228  0.32062079  0.06823583  1.0
  O  O69  1  0.71700679  0.24760353  0.17937260  1.0
  O  O70  1  0.71692378  0.43175923  0.25237522  1.0
