# generated using pymatgen
data_AlH3C12(SO3)3
_symmetry_space_group_name_H-M   'P 1'
_cell_length_a   3.96884150
_cell_length_b   20.15959630
_cell_length_c   20.15951222
_cell_angle_alpha   60.00021345
_cell_angle_beta   89.99979232
_cell_angle_gamma   89.99986225
_symmetry_Int_Tables_number   1
_chemical_formula_structural   AlH3C12(SO3)3
_chemical_formula_sum   'Al2 H6 C24 S6 O18'
_cell_volume   1396.87380009
_cell_formula_units_Z   2
loop_
 _symmetry_equiv_pos_site_id
 _symmetry_equiv_pos_as_xyz
  1  'x, y, z'
loop_
 _atom_site_type_symbol
 _atom_site_label
 _atom_site_symmetry_multiplicity
 _atom_site_fract_x
 _atom_site_fract_y
 _atom_site_fract_z
 _atom_site_occupancy
  Al  Al0  1  0.00368575  0.99999848  0.50000106  1.0
  Al  Al1  1  0.00367978  0.66666495  0.16666771  1.0
  H  H2  1  0.49609743  0.27025462  0.21601272  1.0
  H  H3  1  0.49609957  0.39639783  0.45066962  1.0
  H  H4  1  0.49609801  0.71601196  0.51373195  1.0
  H  H5  1  0.49609991  0.95066704  0.15293288  1.0
  H  H6  1  0.49609893  0.01372929  0.77025628  1.0
  H  H7  1  0.49609993  0.65293043  0.89640072  1.0
  C  C8  1  0.50266689  0.94360790  0.61742697  1.0
  C  C9  1  0.50266749  0.11742429  0.43896507  1.0
  C  C10  1  0.50266851  0.93896310  0.44361068  1.0
  C  C11  1  0.50267440  0.54923675  0.22771148  1.0
  C  C12  1  0.50267086  0.72770997  0.22305143  1.0
  C  C13  1  0.50267500  0.72304857  0.04923947  1.0
  C  C14  1  0.48866118  0.25153114  0.31903644  1.0
  C  C15  1  0.48872041  0.41512819  0.34764197  1.0
  C  C16  1  0.49722497  0.20201736  0.39745134  1.0
  C  C17  1  0.49722709  0.46464254  0.26922628  1.0
  C  C18  1  0.50705603  0.33735288  0.36584356  1.0
  C  C19  1  0.50701384  0.32930587  0.30083463  1.0
  C  C20  1  0.48867031  0.81903529  0.42943136  1.0
  C  C21  1  0.48871725  0.84763971  0.23722903  1.0
  C  C22  1  0.49723180  0.89745037  0.40053016  1.0
  C  C23  1  0.49723127  0.76922519  0.26612944  1.0
  C  C24  1  0.50705192  0.86584208  0.29680163  1.0
  C  C25  1  0.50701889  0.80083291  0.36985825  1.0
  C  C26  1  0.48866418  0.92942830  0.75153472  1.0
  C  C27  1  0.48871675  0.73722798  0.91513194  1.0
  C  C28  1  0.49722398  0.90052871  0.70202065  1.0
  C  C29  1  0.49722994  0.76612699  0.96464580  1.0
  C  C30  1  0.50705495  0.79679861  0.83735690  1.0
  C  C31  1  0.50701931  0.86985652  0.82930933  1.0
  S  S32  1  0.52088855  0.24992116  0.44911439  1.0
  S  S33  1  0.52079896  0.41673759  0.21756528  1.0
  S  S34  1  0.52088666  0.94911263  0.30096265  1.0
  S  S35  1  0.52080934  0.71756408  0.36569587  1.0
  S  S36  1  0.52088344  0.80096035  0.74992575  1.0
  S  S37  1  0.52080845  0.86569248  0.91674162  1.0
  O  O38  1  0.73873726  0.98772887  0.42742387  1.0
  O  O39  1  0.73873618  0.92742228  0.58484757  1.0
  O  O40  1  0.73873361  0.08484524  0.48773048  1.0
  O  O41  1  0.27043917  0.92425650  0.49272697  1.0
  O  O42  1  0.27043381  0.08301406  0.42425777  1.0
  O  O43  1  0.27043542  0.99272537  0.58301692  1.0
  O  O44  1  0.73872333  0.73923587  0.08181736  1.0
  O  O45  1  0.73872086  0.58181405  0.17894777  1.0
  O  O46  1  0.73871721  0.67894417  0.23923858  1.0
  O  O47  1  0.27043088  0.67393227  0.08365307  1.0
  O  O48  1  0.27042965  0.74241261  0.17393530  1.0
  O  O49  1  0.27042745  0.58364989  0.24241601  1.0
  O  O50  1  0.47702616  0.22644570  0.26748732  1.0
  O  O51  1  0.47714714  0.44021192  0.39919344  1.0
  O  O52  1  0.47703680  0.76748757  0.50606555  1.0
  O  O53  1  0.47713996  0.89919144  0.16059433  1.0
  O  O54  1  0.47702832  0.00606319  0.72644929  1.0
  O  O55  1  0.47713929  0.66059080  0.94021257  1.0
