# generated using pymatgen
data_Cu3H12(C11N3)2
_symmetry_space_group_name_H-M   'P 1'
_cell_length_a   21.96358526
_cell_length_b   25.68301870
_cell_length_c   27.30551631
_cell_angle_alpha   90.90922414
_cell_angle_beta   92.07988643
_cell_angle_gamma   90.11442242
_symmetry_Int_Tables_number   1
_chemical_formula_structural   Cu3H12(C11N3)2
_chemical_formula_sum   'Cu12 H48 C88 N24'
_cell_volume   15390.66413952
_cell_formula_units_Z   4
loop_
 _symmetry_equiv_pos_site_id
 _symmetry_equiv_pos_as_xyz
  1  'x, y, z'
loop_
 _atom_site_type_symbol
 _atom_site_label
 _atom_site_symmetry_multiplicity
 _atom_site_fract_x
 _atom_site_fract_y
 _atom_site_fract_z
 _atom_site_occupancy
  Cu  Cu0  1  0.59898480  0.43712598  0.65685110  1.0
  Cu  Cu1  1  0.64681778  0.39761838  0.55810363  1.0
  Cu  Cu2  1  0.59101956  0.31734551  0.63455639  1.0
  Cu  Cu3  1  0.35898001  0.10611228  0.17311149  1.0
  Cu  Cu4  1  0.35408213  0.10511458  0.05650491  1.0
  Cu  Cu5  1  0.44358167  0.18049077  0.11787411  1.0
  Cu  Cu6  1  0.10723999  0.56814163  0.84236665  1.0
  Cu  Cu7  1  0.15265560  0.59930962  0.94766796  1.0
  Cu  Cu8  1  0.08948034  0.68321139  0.87416456  1.0
  Cu  Cu9  1  0.87428488  0.91079655  0.32613462  1.0
  Cu  Cu10  1  0.86064911  0.89256564  0.43707414  1.0
  Cu  Cu11  1  0.92710400  0.80752129  0.36869866  1.0
  H  H12  1  0.68209848  0.53685748  0.67634302  1.0
  H  H13  1  0.73839285  0.49069438  0.53169857  1.0
  H  H14  1  0.51502599  0.28008749  0.72637331  1.0
  H  H15  1  0.50151364  0.44791769  0.73969374  1.0
  H  H16  1  0.64195266  0.32483158  0.46339472  1.0
  H  H17  1  0.60620287  0.21138812  0.57438018  1.0
  H  H18  1  0.25455452  0.02543082  0.19286450  1.0
  H  H19  1  0.27177714  0.00342634  0.03635886  1.0
  H  H20  1  0.55126332  0.19716549  0.20006719  1.0
  H  H21  1  0.41940803  0.11100537  0.28076827  1.0
  H  H22  1  0.34993860  0.16123281  0.95321889  1.0
  H  H23  1  0.45375625  0.27232821  0.04305908  1.0
  H  H24  1  0.19511922  0.47389773  0.81994714  1.0
  H  H25  1  0.24741717  0.50627319  0.97174681  1.0
  H  H26  1  0.00749108  0.72514330  0.78173308  1.0
  H  H27  1  0.00987615  0.55879650  0.75344320  1.0
  H  H28  1  0.15024045  0.66593616  0.04674006  1.0
  H  H29  1  0.10436690  0.78432572  0.94072551  1.0
  H  H30  1  0.77167572  0.99680065  0.30684708  1.0
  H  H31  1  0.77339628  0.98824462  0.46520841  1.0
  H  H32  1  0.01898319  0.77397999  0.28337357  1.0
  H  H33  1  0.95669845  0.92511846  0.23503209  1.0
  H  H34  1  0.87176289  0.83622068  0.53879491  1.0
  H  H35  1  0.92139084  0.71097442  0.44034766  1.0
  H  H36  1  0.16201898  0.97604062  0.18354682  1.0
  H  H37  1  0.23191401  0.91580850  0.04831373  1.0
  H  H38  1  0.08396222  0.92650920  0.22643076  1.0
  H  H39  1  0.02671370  0.77530344  0.17159310  1.0
  H  H40  1  0.06817461  0.74004213  0.09418374  1.0
  H  H41  1  0.19176284  0.83249071  0.01263325  1.0
  H  H42  1  0.80717152  0.54601728  0.68159784  1.0
  H  H43  1  0.76102091  0.60370796  0.53765556  1.0
  H  H44  1  0.89413304  0.58399217  0.73004209  1.0
  H  H45  1  0.99180698  0.71526317  0.67538855  1.0
  H  H46  1  0.95899050  0.75388981  0.59491163  1.0
  H  H47  1  0.81820366  0.67854745  0.50545160  1.0
  H  H48  1  0.67039794  0.03303920  0.31521689  1.0
  H  H49  1  0.73582673  0.08264555  0.45938887  1.0
  H  H50  1  0.58878750  0.08213049  0.27190222  1.0
  H  H51  1  0.51259237  0.21852151  0.33952775  1.0
  H  H52  1  0.55422962  0.25009293  0.42085016  1.0
  H  H53  1  0.69173462  0.16151697  0.49888982  1.0
  H  H54  1  0.31868696  0.46488879  0.82244462  1.0
  H  H55  1  0.27006316  0.39327368  0.95725805  1.0
  H  H56  1  0.40022713  0.42709932  0.77330040  1.0
  H  H57  1  0.49006525  0.28602464  0.81924746  1.0
  H  H58  1  0.45819005  0.24163403  0.89476715  1.0
  H  H59  1  0.32496951  0.31368255  0.98553119  1.0
  C  C60  1  0.68864057  0.51852194  0.64082808  1.0
  C  C61  1  0.72984800  0.53140698  0.60485962  1.0
  C  C62  1  0.71662950  0.49568880  0.56652401  1.0
  C  C63  1  0.51882401  0.32206104  0.72354815  1.0
  C  C64  1  0.49055008  0.36156725  0.75055095  1.0
  C  C65  1  0.51098555  0.40775925  0.72964895  1.0
  C  C66  1  0.63266304  0.30397730  0.49660021  1.0
  C  C67  1  0.62423652  0.25038002  0.50294469  1.0
  C  C68  1  0.61580773  0.24577387  0.55333610  1.0
  C  C69  1  0.26482809  0.02728634  0.15435175  1.0
  C  C70  1  0.24424691  0.99547798  0.11477617  1.0
  C  C71  1  0.27439805  0.01551689  0.07463950  1.0
  C  C72  1  0.51210620  0.17612273  0.21279785  1.0
  C  C73  1  0.50288444  0.15440148  0.25868872  1.0
  C  C74  1  0.44452716  0.13238465  0.25404008  1.0
  C  C75  1  0.37657512  0.18211014  0.98146990  1.0
  C  C76  1  0.40013287  0.23282561  0.98128600  1.0
  C  C77  1  0.42907189  0.23895491  0.02757884  1.0
  C  C78  1  0.20059615  0.48876059  0.85728071  1.0
  C  C79  1  0.24111891  0.47272012  0.89492621  1.0
  C  C80  1  0.22657042  0.50441519  0.93512186  1.0
  C  C81  1  0.01561796  0.68347309  0.78111698  1.0
  C  C82  1  0.99065567  0.64479277  0.74950416  1.0
  C  C83  1  0.01578338  0.59833158  0.76747992  1.0
  C  C84  1  0.13813738  0.68836711  0.01448371  1.0
  C  C85  1  0.12866205  0.74210083  0.01033511  1.0
  C  C86  1  0.11618050  0.74899690  0.96015612  1.0
  C  C87  1  0.77889536  0.98778742  0.34531083  1.0
  C  C88  1  0.75307318  0.01073704  0.38672541  1.0
  C  C89  1  0.78058593  0.98416163  0.42622483  1.0
  C  C90  1  0.99622848  0.81097352  0.27758015  1.0
  C  C91  1  0.00654234  0.84906285  0.24253310  1.0
  C  C92  1  0.96513619  0.88864511  0.25362758  1.0
  C  C93  1  0.88532209  0.81174363  0.50832390  1.0
  C  C94  1  0.89600954  0.75801131  0.50679764  1.0
  C  C95  1  0.90940883  0.74761973  0.45779343  1.0
  C  C96  1  0.12609238  0.90119767  0.15955725  1.0
  C  C97  1  0.16378667  0.94549472  0.15537736  1.0
  C  C98  1  0.20278155  0.95088639  0.11618499  1.0
  C  C99  1  0.20203112  0.91228853  0.07918876  1.0
  C  C100  1  0.16499485  0.86726279  0.08159083  1.0
  C  C101  1  0.12805560  0.86086401  0.12307742  1.0
  C  C102  1  0.08623673  0.89551549  0.19871829  1.0
  C  C103  1  0.05021851  0.85078279  0.20307927  1.0
  C  C104  1  0.05487049  0.81011020  0.16862695  1.0
  C  C105  1  0.09294963  0.81449920  0.12803489  1.0
  C  C106  1  0.09547240  0.77533868  0.09105000  1.0
  C  C107  1  0.12980423  0.78215327  0.04932431  1.0
  C  C108  1  0.16415833  0.82774565  0.04473817  1.0
  C  C109  1  0.86173562  0.61101856  0.65903069  1.0
  C  C110  1  0.81430041  0.57393487  0.65261099  1.0
  C  C111  1  0.77802474  0.57101069  0.60930837  1.0
  C  C112  1  0.78917771  0.60551857  0.57143454  1.0
  C  C113  1  0.83512706  0.64425187  0.57671134  1.0
  C  C114  1  0.87123686  0.64758606  0.62123028  1.0
  C  C115  1  0.90089992  0.61227337  0.70127979  1.0
  C  C116  1  0.94814461  0.64888794  0.70703576  1.0
  C  C117  1  0.95495079  0.68674978  0.67113276  1.0
  C  C118  1  0.91709857  0.68690581  0.62786956  1.0
  C  C119  1  0.92438660  0.72348096  0.59007383  1.0
  C  C120  1  0.88928104  0.72024870  0.54622812  1.0
  C  C121  1  0.84574691  0.68056101  0.53953681  1.0
  C  C122  1  0.62760080  0.10205019  0.34405588  1.0
  C  C123  1  0.66937444  0.06033784  0.34622568  1.0
  C  C124  1  0.70855908  0.05306234  0.38724612  1.0
  C  C125  1  0.70498589  0.08744318  0.42752360  1.0
  C  C126  1  0.66391637  0.12997357  0.42719194  1.0
  C  C127  1  0.62521351  0.13760124  0.38467600  1.0
  C  C128  1  0.58761159  0.10949966  0.30287142  1.0
  C  C129  1  0.54589543  0.15066096  0.30139223  1.0
  C  C130  1  0.54471258  0.18614806  0.34074790  1.0
  C  C131  1  0.58442061  0.18077384  0.38255968  1.0
  C  C132  1  0.58496076  0.21676039  0.42236802  1.0
  C  C133  1  0.62339630  0.21017985  0.46394549  1.0
  C  C134  1  0.66152421  0.16651893  0.46664704  1.0
  C  C135  1  0.36909351  0.39501865  0.84068708  1.0
  C  C136  1  0.32452279  0.43357315  0.84877653  1.0
  C  C137  1  0.28858096  0.43304031  0.89017711  1.0
  C  C138  1  0.29806224  0.39414814  0.92504220  1.0
  C  C139  1  0.34169149  0.35429181  0.91824086  1.0
  C  C140  1  0.37677607  0.35418203  0.87522662  1.0
  C  C141  1  0.40637691  0.39580804  0.79959657  1.0
  C  C142  1  0.45026468  0.35727779  0.79184066  1.0
  C  C143  1  0.45571850  0.31600518  0.82475711  1.0
  C  C144  1  0.41962119  0.31354081  0.86662562  1.0
  C  C145  1  0.42580317  0.27298877  0.90117002  1.0
  C  C146  1  0.39232094  0.27334450  0.94380910  1.0
  C  C147  1  0.35103391  0.31377112  0.95225664  1.0
  N  N148  1  0.67121219  0.46346774  0.57911187  1.0
  N  N149  1  0.65353161  0.47806179  0.62508923  1.0
  N  N150  1  0.54877907  0.39651191  0.69317252  1.0
  N  N151  1  0.55340098  0.34325924  0.68914169  1.0
  N  N152  1  0.61868896  0.29332952  0.57531537  1.0
  N  N153  1  0.62969450  0.32944130  0.54002555  1.0
  N  N154  1  0.31006764  0.05610079  0.08927329  1.0
  N  N155  1  0.30425746  0.06327696  0.13891829  1.0
  N  N156  1  0.42067425  0.14026698  0.20844585  1.0
  N  N157  1  0.46258636  0.16752426  0.18288111  1.0
  N  N158  1  0.42314279  0.19504281  0.05351560  1.0
  N  N159  1  0.39020233  0.15972466  0.02503788  1.0
  N  N160  1  0.18090812  0.53720362  0.92211537  1.0
  N  N161  1  0.16452699  0.52707044  0.87387066  1.0
  N  N162  1  0.05320008  0.60865021  0.80663745  1.0
  N  N163  1  0.05277594  0.66146816  0.81542778  1.0
  N  N164  1  0.11790090  0.70268764  0.93616291  1.0
  N  N165  1  0.13209704  0.66499399  0.96989591  1.0
  N  N166  1  0.81972302  0.94816960  0.40947029  1.0
  N  N167  1  0.81889089  0.95066096  0.35921611  1.0
  N  N168  1  0.93249227  0.87509362  0.29230949  1.0
  N  N169  1  0.95209606  0.82706651  0.30761138  1.0
  N  N170  1  0.90711985  0.79205754  0.43201494  1.0
  N  N171  1  0.89159202  0.83192157  0.46335812  1.0
