# generated using pymatgen
data_Zn2SiH36C51(NO4)2
_symmetry_space_group_name_H-M   'P 1'
_cell_length_a   11.80220163
_cell_length_b   15.63871700
_cell_length_c   16.19373502
_cell_angle_alpha   89.84272714
_cell_angle_beta   89.98635333
_cell_angle_gamma   89.96853772
_symmetry_Int_Tables_number   1
_chemical_formula_structural   Zn2SiH36C51(NO4)2
_chemical_formula_sum   'Zn2 Si1 H36 C51 N2 O8'
_cell_volume   2988.88678864
_cell_formula_units_Z   1
loop_
 _symmetry_equiv_pos_site_id
 _symmetry_equiv_pos_as_xyz
  1  'x, y, z'
loop_
 _atom_site_type_symbol
 _atom_site_label
 _atom_site_symmetry_multiplicity
 _atom_site_fract_x
 _atom_site_fract_y
 _atom_site_fract_z
 _atom_site_occupancy
  Zn  Zn0  1  0.68991033  0.31720439  0.82773637  1.0
  Zn  Zn1  1  0.68875121  0.31497273  0.99770592  1.0
  Si  Si2  1  0.93708250  0.60000654  0.43929678  1.0
  H  H3  1  0.13163315  0.02682854  0.02339964  1.0
  H  H4  1  0.13207117  0.60627512  0.80473460  1.0
  H  H5  1  0.85148892  0.07013595  0.79795760  1.0
  H  H6  1  0.00357609  0.47964885  0.80244778  1.0
  H  H7  1  0.85400689  0.55954666  0.03091858  1.0
  H  H8  1  0.00270438  0.15350236  0.02454821  1.0
  H  H9  1  0.53337531  0.06901430  0.01721398  1.0
  H  H10  1  0.53431355  0.56418980  0.80697292  1.0
  H  H11  1  0.41093042  0.93874277  0.01964230  1.0
  H  H12  1  0.41183259  0.69455747  0.80597883  1.0
  H  H13  1  0.36825211  0.15477552  0.79618710  1.0
  H  H14  1  0.36914680  0.47607883  0.02721433  1.0
  H  H15  1  0.39829402  0.81627262  0.91174297  1.0
  H  H16  1  0.24072124  0.60274956  0.02374255  1.0
  H  H17  1  0.23988377  0.02822535  0.80102515  1.0
  H  H18  1  0.98037307  0.81563090  0.91623563  1.0
  H  H19  1  0.97393594  0.93953497  0.79926239  1.0
  H  H20  1  0.97626311  0.69007547  0.03095796  1.0
  H  H21  1  0.78454704  0.43633022  0.70390066  1.0
  H  H22  1  0.73070629  0.15896779  0.27287285  1.0
  H  H23  1  0.73793723  0.17960424  0.11868159  1.0
  H  H24  1  0.70311322  0.40991452  0.41580479  1.0
  H  H25  1  0.67415932  0.21423923  0.40828465  1.0
  H  H26  1  0.63553836  0.43145590  0.13746509  1.0
  H  H27  1  0.58980964  0.22007511  0.53558913  1.0
  H  H28  1  0.62719700  0.42371565  0.29182720  1.0
  H  H29  1  0.59626481  0.21401062  0.69062395  1.0
  H  H30  1  0.95632159  0.61241868  0.28637506  1.0
  H  H31  1  0.81619644  0.58227767  0.31418755  1.0
  H  H32  1  0.92697712  0.50511956  0.31606730  1.0
  H  H33  1  0.94147344  0.75787237  0.42540554  1.0
  H  H34  1  0.90669841  0.72791574  0.52844221  1.0
  H  H35  1  0.80221347  0.72211574  0.44956157  1.0
  H  H36  1  0.14392526  0.62503662  0.42608494  1.0
  H  H37  1  0.11558260  0.51631561  0.45190154  1.0
  H  H38  1  0.10821764  0.59649809  0.52938721  1.0
  C  C39  1  0.06934883  0.03558696  0.97435782  1.0
  C  C40  1  0.07018908  0.59677304  0.85395855  1.0
  C  C41  1  0.91214373  0.05923745  0.84759522  1.0
  C  C42  1  0.99905782  0.52577957  0.85268394  1.0
  C  C43  1  0.91418439  0.57122976  0.98112074  1.0
  C  C44  1  0.91899162  0.11911236  0.91157832  1.0
  C  C45  1  0.92038556  0.51234521  0.91622931  1.0
  C  C46  1  0.99807522  0.10657056  0.97502188  1.0
  C  C47  1  0.84127348  0.43749691  0.91434682  1.0
  C  C48  1  0.84023401  0.19428239  0.91268354  1.0
  C  C49  1  0.53751288  0.19456541  0.90461409  1.0
  C  C50  1  0.53821656  0.43743064  0.91895067  1.0
  C  C51  1  0.46976913  0.05860954  0.96958323  1.0
  C  C52  1  0.47065128  0.57406966  0.85474256  1.0
  C  C53  1  0.45980925  0.51274879  0.91748183  1.0
  C  C54  1  0.45909347  0.11928348  0.90626990  1.0
  C  C55  1  0.40122985  0.98634302  0.97073504  1.0
  C  C56  1  0.40210403  0.64643185  0.85440991  1.0
  C  C57  1  0.37628933  0.10741246  0.84536470  1.0
  C  C58  1  0.37702754  0.52398903  0.97855524  1.0
  C  C59  1  0.31851816  0.65802056  0.91516615  1.0
  C  C60  1  0.31760303  0.97415129  0.91019035  1.0
  C  C61  1  0.30581117  0.81611978  0.91270025  1.0
  C  C62  1  0.30590946  0.59507261  0.97661276  1.0
  C  C63  1  0.30503803  0.03642261  0.84809553  1.0
  C  C64  1  0.24952957  0.73725277  0.91452314  1.0
  C  C65  1  0.24889766  0.89480546  0.91195504  1.0
  C  C66  1  0.12923266  0.89458188  0.91267640  1.0
  C  C67  1  0.12990247  0.73712922  0.91638431  1.0
  C  C68  1  0.07287806  0.81575024  0.91526929  1.0
  C  C69  1  0.06027712  0.97391420  0.91178501  1.0
  C  C70  1  0.06150996  0.65759072  0.91735262  1.0
  C  C71  1  0.98064932  0.98677519  0.84852246  1.0
  C  C72  1  0.98261154  0.64367001  0.98093182  1.0
  C  C73  1  0.74391915  0.39976275  0.57744830  1.0
  C  C74  1  0.74233153  0.39041190  0.66370220  1.0
  C  C75  1  0.70940093  0.22063747  0.24541932  1.0
  C  C76  1  0.71329346  0.23112701  0.16028267  1.0
  C  C77  1  0.68866963  0.33669247  0.52861771  1.0
  C  C78  1  0.67994329  0.29020123  0.29587150  1.0
  C  C79  1  0.68833805  0.34528662  0.43924092  1.0
  C  C80  1  0.67833851  0.28001452  0.38532898  1.0
  C  C81  1  0.65756428  0.37308469  0.17089987  1.0
  C  C82  1  0.63550493  0.26879322  0.57014006  1.0
  C  C83  1  0.65336643  0.36797501  0.25635120  1.0
  C  C84  1  0.63802069  0.26471859  0.65565243  1.0
  C  C85  1  0.85427067  0.52478154  0.50278921  1.0
  C  C86  1  0.80262854  0.46842861  0.53964381  1.0
  C  C87  1  0.90622069  0.57233132  0.32870593  1.0
  C  C88  1  0.89251485  0.71244440  0.46310697  1.0
  C  C89  1  0.09068068  0.58277430  0.46411913  1.0
  N  N90  1  0.68740518  0.30592425  0.12375628  1.0
  N  N91  1  0.69081042  0.32478612  0.70122480  1.0
  O  O92  1  0.78986066  0.41970923  0.98152970  1.0
  O  O93  1  0.82744147  0.23358141  0.98086492  1.0
  O  O94  1  0.79012762  0.21229267  0.84502125  1.0
  O  O95  1  0.82948082  0.39807711  0.84611028  1.0
  O  O96  1  0.54956640  0.23517921  0.83685989  1.0
  O  O97  1  0.58951314  0.42063907  0.85154099  1.0
  O  O98  1  0.54968242  0.39673265  0.98670481  1.0
  O  O99  1  0.58841670  0.21141039  0.97211804  1.0
