# generated using pymatgen
data_AlH39(C6O)6
_symmetry_space_group_name_H-M   'P 1'
_cell_length_a   4.01112239
_cell_length_b   28.61592585
_cell_length_c   28.63279332
_cell_angle_alpha   119.96543810
_cell_angle_beta   89.97191927
_cell_angle_gamma   89.86787118
_symmetry_Int_Tables_number   1
_chemical_formula_structural   AlH39(C6O)6
_chemical_formula_sum   'Al2 H78 C72 O12'
_cell_volume   2847.19542169
_cell_formula_units_Z   2
loop_
 _symmetry_equiv_pos_site_id
 _symmetry_equiv_pos_as_xyz
  1  'x, y, z'
loop_
 _atom_site_type_symbol
 _atom_site_label
 _atom_site_symmetry_multiplicity
 _atom_site_fract_x
 _atom_site_fract_y
 _atom_site_fract_z
 _atom_site_occupancy
  Al  Al0  1  0.00567246  0.99870786  0.50034213  1.0
  Al  Al1  1  0.02145610  0.33180126  0.16649281  1.0
  H  H2  1  0.17902975  0.65803281  0.29253943  1.0
  H  H3  1  0.77972067  0.66867715  0.36270838  1.0
  H  H4  1  0.16408127  0.20419573  0.36463727  1.0
  H  H5  1  0.78419907  0.13709550  0.30911901  1.0
  H  H6  1  0.77982529  0.13991805  0.83620739  1.0
  H  H7  1  0.17156272  0.19896544  0.82658681  1.0
  H  H8  1  0.54266873  0.47241427  0.11903097  1.0
  H  H9  1  0.74393446  0.42653295  0.13412622  1.0
  H  H10  1  0.95807201  0.48431896  0.14359392  1.0
  H  H11  1  0.82740301  0.61871365  0.22397805  1.0
  H  H12  1  0.41786980  0.60954963  0.19864424  1.0
  H  H13  1  0.73069951  0.56145995  0.16099671  1.0
  H  H14  1  0.41459506  0.49038682  0.35536363  1.0
  H  H15  1  0.34178924  0.43064584  0.29312319  1.0
  H  H16  1  0.01764225  0.47821310  0.32457919  1.0
  H  H17  1  0.20543242  0.63269170  0.38531291  1.0
  H  H18  1  0.38374166  0.58283813  0.39722591  1.0
  H  H19  1  0.97407910  0.57434246  0.37179638  1.0
  H  H20  1  0.09587046  0.73339603  0.28095380  1.0
  H  H21  1  0.49520551  0.70285787  0.26698836  1.0
  H  H22  1  0.43638631  0.76610185  0.27060666  1.0
  H  H23  1  0.48510828  0.85626066  0.32034448  1.0
  H  H24  1  0.24563272  0.89960605  0.37787214  1.0
  H  H25  1  0.06956013  0.83917415  0.32662923  1.0
  H  H26  1  0.01829766  0.73504582  0.45491258  1.0
  H  H27  1  0.62195738  0.70415898  0.44436620  1.0
  H  H28  1  0.69652069  0.76711059  0.50270396  1.0
  H  H29  1  0.57026884  0.85441846  0.54323768  1.0
  H  H30  1  0.75136647  0.90361840  0.53100107  1.0
  H  H31  1  0.98916610  0.84739330  0.52087680  1.0
  H  H32  1  0.56589903  0.37816771  0.35609883  1.0
  H  H33  1  0.74504328  0.36386363  0.29381279  1.0
  H  H34  1  0.97625822  0.35164413  0.33891384  1.0
  H  H35  1  0.79341692  0.26949540  0.39638165  1.0
  H  H36  1  0.41427624  0.30552732  0.41184553  1.0
  H  H37  1  0.77682332  0.33281539  0.39929729  1.0
  H  H38  1  0.41005296  0.14285504  0.13594775  1.0
  H  H39  1  0.34083836  0.20529355  0.13849174  1.0
  H  H40  1  0.01425797  0.17437673  0.15453640  1.0
  H  H41  1  0.19699344  0.11299786  0.24818037  1.0
  H  H42  1  0.35912536  0.10117151  0.18554165  1.0
  H  H43  1  0.95487891  0.12847362  0.20566239  1.0
  H  H44  1  0.07502897  0.21669061  0.45610142  1.0
  H  H45  1  0.45834962  0.23174367  0.43590771  1.0
  H  H46  1  0.43294563  0.22888325  0.49631050  1.0
  H  H47  1  0.46640740  0.17966968  0.53740000  1.0
  H  H48  1  0.23796845  0.12131944  0.52353191  1.0
  H  H49  1  0.05219627  0.17133821  0.51313645  1.0
  H  H50  1  0.03275554  0.04462397  0.28443921  1.0
  H  H51  1  0.64195347  0.05540648  0.26240363  1.0
  H  H52  1  0.71057261  0.99679492  0.26699566  1.0
  H  H53  1  0.57863141  0.95622589  0.31286848  1.0
  H  H54  1  0.74615905  0.96776758  0.37485427  1.0
  H  H55  1  0.99614674  0.97834663  0.33024580  1.0
  H  H56  1  0.58503903  0.14490644  0.02270842  1.0
  H  H57  1  0.77734801  0.20574888  0.07079427  1.0
  H  H58  1  0.00358254  0.15861042  0.01366501  1.0
  H  H59  1  0.03441498  0.11448807  0.90387220  1.0
  H  H60  1  0.64312318  0.09362055  0.87118330  1.0
  H  H61  1  0.70777714  0.09756984  0.93408015  1.0
  H  H62  1  0.49033502  0.36896857  0.02370062  1.0
  H  H63  1  0.25999769  0.35533926  0.06820276  1.0
  H  H64  1  0.07336173  0.34603236  0.00832780  1.0
  H  H65  1  0.08900879  0.28738122  0.90393602  1.0
  H  H66  1  0.47955598  0.26908143  0.87059056  1.0
  H  H67  1  0.43890697  0.32891963  0.93405358  1.0
  H  H68  1  0.20181080  0.08140444  0.80184629  1.0
  H  H69  1  0.36703359  0.01881170  0.75131669  1.0
  H  H70  1  0.95992768  0.03801479  0.74432407  1.0
  H  H71  1  0.40703147  0.96837379  0.65953157  1.0
  H  H72  1  0.32816618  0.97069079  0.59978856  1.0
  H  H73  1  0.00823972  0.98715598  0.64803507  1.0
  H  H74  1  0.79624490  0.22898399  0.78906301  1.0
  H  H75  1  0.40039913  0.24435667  0.77339488  1.0
  H  H76  1  0.74154952  0.23254741  0.72949403  1.0
  H  H77  1  0.53487515  0.18802253  0.64242119  1.0
  H  H78  1  0.71162993  0.12576881  0.59397581  1.0
  H  H79  1  0.94969158  0.17128297  0.65011232  1.0
  C  C80  1  0.50342192  0.04228074  0.58327675  1.0
  C  C81  1  0.50806161  0.91554930  0.46045000  1.0
  C  C82  1  0.50567691  0.03862398  0.45711016  1.0
  C  C83  1  0.51741551  0.41478265  0.20511039  1.0
  C  C84  1  0.51988181  0.29291600  0.21062991  1.0
  C  C85  1  0.52242432  0.28782133  0.08341036  1.0
  C  C86  1  0.50105689  0.47505124  0.23351849  1.0
  C  C87  1  0.38780077  0.50315296  0.28700618  1.0
  C  C88  1  0.35509645  0.55974270  0.31285299  1.0
  C  C89  1  0.43504942  0.58660892  0.28435963  1.0
  C  C90  1  0.55044814  0.55752236  0.23052757  1.0
  C  C91  1  0.58587246  0.50122850  0.20470065  1.0
  C  C92  1  0.38733941  0.64564915  0.30855833  1.0
  C  C93  1  0.57802864  0.68347746  0.34786897  1.0
  C  C94  1  0.63759601  0.77203382  0.43012250  1.0
  C  C95  1  0.54706714  0.74259236  0.37488017  1.0
  C  C96  1  0.44292929  0.77038263  0.34799374  1.0
  C  C97  1  0.42161794  0.82709191  0.37670117  1.0
  C  C98  1  0.51585367  0.85519696  0.43110701  1.0
  C  C99  1  0.62684164  0.82867582  0.45832547  1.0
  C  C100  1  0.50312218  0.26433716  0.24233958  1.0
  C  C101  1  0.38477051  0.21118413  0.21700702  1.0
  C  C102  1  0.34783819  0.18540328  0.24774181  1.0
  C  C103  1  0.43080164  0.21349937  0.30291755  1.0
  C  C104  1  0.55294753  0.26686040  0.32757005  1.0
  C  C105  1  0.59087578  0.29273765  0.29717535  1.0
  C  C106  1  0.37926203  0.18917491  0.33757405  1.0
  C  C107  1  0.57619230  0.15106355  0.33756500  1.0
  C  C108  1  0.64172130  0.06914616  0.34435556  1.0
  C  C109  1  0.54459437  0.12418150  0.36975658  1.0
  C  C110  1  0.43339997  0.15091164  0.42403210  1.0
  C  C111  1  0.41298940  0.12223845  0.45207235  1.0
  C  C112  1  0.51264872  0.06799122  0.42611920  1.0
  C  C113  1  0.62894815  0.04088855  0.37270128  1.0
  C  C114  1  0.52655468  0.25721001  0.02308579  1.0
  C  C115  1  0.42759981  0.28368640  0.99528352  1.0
  C  C116  1  0.44472050  0.25590040  0.93858979  1.0
  C  C117  1  0.55084534  0.20131097  0.91055538  1.0
  C  C118  1  0.64806108  0.17540867  0.93970615  1.0
  C  C119  1  0.64023391  0.20360118  0.99630296  1.0
  C  C120  1  0.57709048  0.16939558  0.85144450  1.0
  C  C121  1  0.38114938  0.17072432  0.81398126  1.0
  C  C122  1  0.54019631  0.16021564  0.72554493  1.0
  C  C123  1  0.42633894  0.13576923  0.75497016  1.0
  C  C124  1  0.34624977  0.08046462  0.72849532  1.0
  C  C125  1  0.37826284  0.04941916  0.67196252  1.0
  C  C126  1  0.48990219  0.07450592  0.64349432  1.0
  C  C127  1  0.57361235  0.12950661  0.66926432  1.0
  C  C128  1  0.71341959  0.46942855  0.14754416  1.0
  C  C129  1  0.63646547  0.58796734  0.20181685  1.0
  C  C130  1  0.28713635  0.47387128  0.31625498  1.0
  C  C131  1  0.22311594  0.58922748  0.36970483  1.0
  C  C132  1  0.36455515  0.74159411  0.28863958  1.0
  C  C133  1  0.29975404  0.85718549  0.34921640  1.0
  C  C134  1  0.74780579  0.74302144  0.45937444  1.0
  C  C135  1  0.73912596  0.86026512  0.51623817  1.0
  C  C136  1  0.72505683  0.34944752  0.32262499  1.0
  C  C137  1  0.64008293  0.29532294  0.38662970  1.0
  C  C138  1  0.28400340  0.18220253  0.15853352  1.0
  C  C139  1  0.20819095  0.12911247  0.22069903  1.0
  C  C140  1  0.34654840  0.21005773  0.45439567  1.0
  C  C141  1  0.28655118  0.14977564  0.50934448  1.0
  C  C142  1  0.76121886  0.04015515  0.28661163  1.0
  C  C143  1  0.74266377  0.98294528  0.34656316  1.0
  C  C144  1  0.75656313  0.17706257  0.02758763  1.0
  C  C145  1  0.76271218  0.11734332  0.91058588  1.0
  C  C146  1  0.30696924  0.34132384  0.02556988  1.0
  C  C147  1  0.35971237  0.28669765  0.91017270  1.0
  C  C148  1  0.21258890  0.05360875  0.75834961  1.0
  C  C149  1  0.27713160  0.99094474  0.64310928  1.0
  C  C150  1  0.62483340  0.21939674  0.75553382  1.0
  C  C151  1  0.69794574  0.15474313  0.63719425  1.0
  O  O152  1  0.26980974  0.00534722  0.44801657  1.0
  O  O153  1  0.26970543  0.05056936  0.55800865  1.0
  O  O154  1  0.27106488  0.93974051  0.49368216  1.0
  O  O155  1  0.73988310  0.04885016  0.49102075  1.0
  O  O156  1  0.74199589  0.93934906  0.45028093  1.0
  O  O157  1  0.74156496  0.00876329  0.56071067  1.0
  O  O158  1  0.28765281  0.27877714  0.10788105  1.0
  O  O159  1  0.28602596  0.38924706  0.17127036  1.0
  O  O160  1  0.28782060  0.32683275  0.21890452  1.0
  O  O161  1  0.75782523  0.32147453  0.10680348  1.0
  O  O162  1  0.75971428  0.28208752  0.17749404  1.0
  O  O163  1  0.75689441  0.39249339  0.21607351  1.0
