# generated using pymatgen
data_ZnH31C26NO8
_symmetry_space_group_name_H-M   'P 1'
_cell_length_a   12.70999224
_cell_length_b   14.06354143
_cell_length_c   16.94293645
_cell_angle_alpha   92.14794159
_cell_angle_beta   90.23816121
_cell_angle_gamma   94.85432340
_symmetry_Int_Tables_number   1
_chemical_formula_structural   ZnH31C26NO8
_chemical_formula_sum   'Zn2 H62 C52 N2 O16'
_cell_volume   3015.44262111
_cell_formula_units_Z   2
loop_
 _symmetry_equiv_pos_site_id
 _symmetry_equiv_pos_as_xyz
  1  'x, y, z'
loop_
 _atom_site_type_symbol
 _atom_site_label
 _atom_site_symmetry_multiplicity
 _atom_site_fract_x
 _atom_site_fract_y
 _atom_site_fract_z
 _atom_site_occupancy
  Zn  Zn0  1  0.40504607  0.49263105  0.48087940  1.0
  Zn  Zn1  1  0.62103820  0.50313669  0.49173257  1.0
  H  H2  1  0.67534602  0.58699186  0.71693754  1.0
  H  H3  1  0.74194805  0.74504167  0.39774201  1.0
  H  H4  1  0.92552081  0.72409022  0.34099697  1.0
  H  H5  1  0.91493485  0.84201285  0.38005536  1.0
  H  H6  1  0.90884921  0.81800327  0.27643931  1.0
  H  H7  1  0.22655169  0.62115670  0.65953488  1.0
  H  H8  1  0.26533145  0.69143705  0.74599287  1.0
  H  H9  1  0.11312707  0.50989913  0.74258752  1.0
  H  H10  1  0.15223165  0.58025254  0.82787443  1.0
  H  H11  1  0.06876573  0.72159316  0.76977696  1.0
  H  H12  1  0.97505243  0.62236651  0.78129345  1.0
  H  H13  1  0.41812817  0.40363023  0.21832008  1.0
  H  H14  1  0.02620967  0.64781847  0.68643588  1.0
  H  H15  1  0.34019389  0.79226842  0.84540305  1.0
  H  H16  1  0.40306305  0.77696358  0.93793634  1.0
  H  H17  1  0.16491638  0.73870595  0.90661811  1.0
  H  H18  1  0.22976532  0.73010306  0.99828267  1.0
  H  H19  1  0.29080912  0.90740576  0.99654039  1.0
  H  H20  1  0.15111542  0.88828636  0.99191833  1.0
  H  H21  1  0.22375851  0.91503610  0.90522207  1.0
  H  H22  1  0.50856929  0.81622294  0.20532708  1.0
  H  H23  1  0.44668536  0.78819673  0.11114313  1.0
  H  H24  1  0.60998857  0.70080064  0.98609054  1.0
  H  H25  1  0.65142169  0.91784966  0.13835200  1.0
  H  H26  1  0.58839301  0.89031226  0.04599406  1.0
  H  H27  1  0.42658530  0.96862574  0.09497405  1.0
  H  H28  1  0.54093390  0.05015647  0.09990175  1.0
  H  H29  1  0.49096036  0.99701761  0.18703242  1.0
  H  H30  1  0.30997773  0.96642157  0.30396443  1.0
  H  H31  1  0.39822807  0.07160379  0.31579304  1.0
  H  H32  1  0.18901047  0.03620326  0.40402297  1.0
  H  H33  1  0.27323631  0.14317278  0.40905073  1.0
  H  H34  1  0.24290187  0.16426319  0.26249721  1.0
  H  H35  1  0.41477491  0.55637349  0.98185373  1.0
  H  H36  1  0.12235817  0.15837290  0.31495162  1.0
  H  H37  1  0.15754351  0.05736525  0.25828109  1.0
  H  H38  1  0.79653401  0.01164300  0.51650836  1.0
  H  H39  1  0.73186314  0.90734574  0.46859693  1.0
  H  H40  1  0.72096298  0.96304810  0.64521048  1.0
  H  H41  1  0.65005448  0.86183672  0.59911626  1.0
  H  H42  1  0.81784497  0.79336661  0.55958990  1.0
  H  H43  1  0.81714520  0.81650416  0.66308600  1.0
  H  H44  1  0.89345361  0.89537797  0.60193695  1.0
  H  H45  1  0.97154743  0.27174306  0.37231537  1.0
  H  H46  1  0.39876020  0.44900151  0.07843585  1.0
  H  H47  1  0.88282657  0.36338682  0.37219688  1.0
  H  H48  1  0.87607359  0.19727143  0.48568436  1.0
  H  H49  1  0.78710826  0.28813940  0.48839595  1.0
  H  H50  1  0.72230425  0.24131255  0.35249741  1.0
  H  H51  1  0.70693639  0.14287313  0.41473493  1.0
  H  H52  1  0.81176305  0.15020741  0.34509106  1.0
  H  H53  1  0.02020203  0.72702587  0.45731966  1.0
  H  H54  1  0.14129871  0.67246246  0.44511837  1.0
  H  H55  1  0.08173578  0.78587854  0.59413458  1.0
  H  H56  1  0.20379910  0.73654035  0.57678666  1.0
  H  H57  1  0.69515637  0.64905694  0.85679646  1.0
  H  H58  1  0.23888927  0.84313045  0.46112359  1.0
  H  H59  1  0.21942437  0.91161757  0.54831976  1.0
  H  H60  1  0.11592284  0.89241238  0.47741605  1.0
  H  H61  1  0.74948140  0.71272869  0.21766348  1.0
  H  H62  1  0.75345017  0.62330780  0.29067629  1.0
  H  H63  1  0.72607074  0.83440124  0.32897085  1.0
  C  C64  1  0.50316904  0.31378275  0.48453241  1.0
  C  C65  1  0.97247707  0.45704147  0.48426328  1.0
  C  C66  1  0.86733955  0.48247277  0.49338092  1.0
  C  C67  1  0.15839449  0.50542662  0.48385900  1.0
  C  C68  1  0.52510726  0.50088518  0.33543282  1.0
  C  C69  1  0.50222890  0.53378524  0.63550080  1.0
  C  C70  1  0.51692415  0.53010647  0.25186388  1.0
  C  C71  1  0.50634008  0.57266828  0.71897831  1.0
  C  C72  1  0.56218554  0.61891280  0.22742337  1.0
  C  C73  1  0.41528765  0.58900207  0.76346911  1.0
  C  C74  1  0.54924626  0.64557171  0.14896311  1.0
  C  C75  1  0.52219928  0.68202953  0.47069401  1.0
  C  C76  1  0.42697646  0.63135940  0.84016581  1.0
  C  C77  1  0.49191556  0.58389304  0.09364338  1.0
  C  C78  1  0.52733273  0.64669430  0.87658944  1.0
  C  C79  1  0.44458918  0.49660680  0.12051388  1.0
  C  C80  1  0.61695719  0.63493239  0.82985378  1.0
  C  C81  1  0.45608177  0.47056207  0.19787915  1.0
  C  C82  1  0.60630277  0.59864179  0.75273828  1.0
  C  C83  1  0.47886700  0.60201512  0.01041464  1.0
  C  C84  1  0.54054816  0.65782128  0.96263828  1.0
  C  C85  1  0.72468923  0.69298750  0.27766052  1.0
  C  C86  1  0.52870616  0.78376121  0.46341478  1.0
  C  C87  1  0.76539132  0.76895397  0.33875214  1.0
  C  C88  1  0.88506457  0.78947725  0.33388018  1.0
  C  C89  1  0.23778793  0.61888809  0.72406563  1.0
  C  C90  1  0.13598515  0.58354817  0.76429056  1.0
  C  C91  1  0.04672398  0.64722961  0.74950768  1.0
  C  C92  1  0.33414434  0.75226000  0.90043975  1.0
  C  C93  1  0.23239225  0.76901445  0.94303024  1.0
  C  C94  1  0.22402135  0.87567963  0.96014348  1.0
  C  C95  1  0.52298381  0.80892008  0.14126476  1.0
  C  C96  1  0.57384290  0.90115999  0.10959900  1.0
  C  C97  1  0.49402754  0.21198523  0.46971350  1.0
  C  C98  1  0.50437535  0.98372840  0.12363410  1.0
  C  C99  1  0.33681779  0.02592720  0.34534264  1.0
  C  C100  1  0.24452456  0.08245267  0.36974556  1.0
  C  C101  1  0.18891792  0.11744135  0.29741500  1.0
  C  C102  1  0.72716858  0.95933295  0.51840661  1.0
  C  C103  1  0.72325154  0.90915172  0.59659738  1.0
  C  C104  1  0.81840043  0.85054928  0.60574609  1.0
  C  C105  1  0.91900336  0.31228095  0.40941716  1.0
  C  C106  1  0.83634867  0.24675284  0.44911408  1.0
  C  C107  1  0.76559387  0.19193709  0.38650102  1.0
  C  C108  1  0.55079216  0.97051249  0.46902123  1.0
  C  C109  1  0.08482690  0.69706928  0.48888166  1.0
  C  C110  1  0.13848220  0.76871323  0.54791548  1.0
  C  C111  1  0.18031520  0.85875298  0.50623711  1.0
  C  C112  1  0.47429195  0.02656102  0.44323932  1.0
  C  C113  1  0.48451081  0.12584034  0.45576796  1.0
  C  C114  1  0.53694118  0.87082674  0.46293054  1.0
  C  C115  1  0.05297354  0.52705625  0.49778665  1.0
  N  N116  1  0.24597005  0.49162013  0.47282864  1.0
  N  N117  1  0.78071061  0.50215831  0.49876473  1.0
  O  O118  1  0.41769430  0.35137004  0.50059993  1.0
  O  O119  1  0.31785364  0.55421899  0.73631632  1.0
  O  O120  1  0.33634646  0.65164277  0.88029653  1.0
  O  O121  1  0.59280073  0.73400360  0.12688610  1.0
  O  O122  1  0.38333915  0.98078476  0.41096573  1.0
  O  O123  1  0.63850495  0.01557401  0.50640358  1.0
  O  O124  1  0.99196253  0.36616516  0.46617464  1.0
  O  O125  1  0.03492345  0.61383881  0.52931228  1.0
  O  O126  1  0.60533279  0.64876995  0.49717212  1.0
  O  O127  1  0.59551053  0.35630643  0.47918087  1.0
  O  O128  1  0.43504415  0.63550968  0.45137827  1.0
  O  O129  1  0.44039337  0.46276620  0.36514468  1.0
  O  O130  1  0.58686091  0.50194517  0.60869503  1.0
  O  O131  1  0.61382196  0.51576102  0.37095032  1.0
  O  O132  1  0.41774122  0.53810041  0.59538245  1.0
  O  O133  1  0.61085689  0.68402540  0.28123997  1.0
