# generated using pymatgen
data_ZnH23C24(N2O3)2
_symmetry_space_group_name_H-M   'P 1'
_cell_length_a   14.65694488
_cell_length_b   16.06705416
_cell_length_c   19.19307348
_cell_angle_alpha   90.02543635
_cell_angle_beta   90.14889631
_cell_angle_gamma   89.98279589
_symmetry_Int_Tables_number   1
_chemical_formula_structural   ZnH23C24(N2O3)2
_chemical_formula_sum   'Zn2 H46 C48 N8 O12'
_cell_volume   4519.83633920
_cell_formula_units_Z   2
loop_
 _symmetry_equiv_pos_site_id
 _symmetry_equiv_pos_as_xyz
  1  'x, y, z'
loop_
 _atom_site_type_symbol
 _atom_site_label
 _atom_site_symmetry_multiplicity
 _atom_site_fract_x
 _atom_site_fract_y
 _atom_site_fract_z
 _atom_site_occupancy
  Zn  Zn0  1  0.40321146  0.49970243  0.50008588  1.0
  Zn  Zn1  1  0.59567238  0.49814088  0.50027773  1.0
  H  H2  1  0.35365883  0.50403843  0.27735677  1.0
  H  H3  1  0.64500608  0.52613289  0.28118958  1.0
  H  H4  1  0.35302630  0.52945216  0.14838946  1.0
  H  H5  1  0.64560800  0.55214249  0.15210122  1.0
  H  H6  1  0.35281957  0.53929187  0.84954224  1.0
  H  H7  1  0.64645899  0.54210588  0.85074387  1.0
  H  H8  1  0.35423945  0.51435452  0.72029985  1.0
  H  H9  1  0.64656895  0.51710422  0.72150187  1.0
  H  H10  1  0.43140171  0.92360980  0.60595335  1.0
  H  H11  1  0.59358236  0.93548749  0.59276157  1.0
  H  H12  1  0.64902545  0.92120519  0.51234969  1.0
  H  H13  1  0.35660281  0.92997391  0.53360539  1.0
  H  H14  1  0.41105667  0.06715281  0.41684574  1.0
  H  H15  1  0.52641194  0.07459614  0.39495129  1.0
  H  H16  1  0.42366876  0.92316990  0.41011168  1.0
  H  H17  1  0.54331463  0.92928745  0.39953476  1.0
  H  H18  1  0.07316391  0.40516914  0.56999790  1.0
  H  H19  1  0.91629334  0.38515656  0.55332649  1.0
  H  H20  1  0.91451029  0.61997206  0.55031682  1.0
  H  H21  1  0.06984052  0.63099255  0.52360837  1.0
  H  H22  1  0.93199540  0.53198144  0.60379612  1.0
  H  H23  1  0.08810369  0.56196063  0.59380781  1.0
  H  H24  1  0.91289354  0.49071551  0.38341372  1.0
  H  H25  1  0.06188921  0.46332390  0.38660658  1.0
  H  H26  1  0.92860540  0.37282497  0.46233125  1.0
  H  H27  1  0.08609717  0.36660076  0.48438157  1.0
  H  H28  1  0.93654694  0.61852305  0.29345811  1.0
  H  H29  1  0.82365658  0.58972942  0.31579592  1.0
  H  H30  1  0.85678976  0.69589979  0.31884710  1.0
  H  H31  1  0.84598488  0.63288104  0.43749058  1.0
  H  H32  1  0.95692036  0.66893872  0.42126737  1.0
  H  H33  1  0.23304815  0.52381658  0.36293839  1.0
  H  H34  1  0.15497154  0.51888021  0.29191219  1.0
  H  H35  1  0.21709300  0.61157168  0.30906176  1.0
  H  H36  1  0.05700445  0.62697661  0.34673737  1.0
  H  H37  1  0.13059997  0.63541561  0.41815656  1.0
  H  H38  1  0.41630018  0.97724599  0.70428489  1.0
  H  H39  1  0.53033727  0.00249249  0.68250156  1.0
  H  H40  1  0.46791922  0.06714494  0.73973900  1.0
  H  H41  1  0.46222428  0.14331702  0.63103328  1.0
  H  H42  1  0.35582145  0.10067353  0.64645476  1.0
  H  H43  1  0.76166922  0.15643254  0.54800138  1.0
  H  H44  1  0.66034153  0.21680393  0.55564078  1.0
  H  H45  1  0.72438505  0.19006438  0.63108164  1.0
  H  H46  1  0.59340222  0.09916181  0.63017860  1.0
  H  H47  1  0.69183904  0.03973347  0.61356728  1.0
  C  C48  1  0.49735530  0.33708833  0.50177955  1.0
  C  C49  1  0.49879748  0.50344902  0.36432374  1.0
  C  C50  1  0.50037370  0.66168061  0.50134302  1.0
  C  C51  1  0.50073070  0.50430041  0.63593574  1.0
  C  C52  1  0.41700202  0.51444913  0.24918301  1.0
  C  C53  1  0.58173814  0.52688092  0.25126488  1.0
  C  C54  1  0.41672146  0.52845605  0.17776748  1.0
  C  C55  1  0.58203263  0.54114933  0.17986690  1.0
  C  C56  1  0.49929388  0.54282801  0.14254794  1.0
  C  C57  1  0.49928507  0.51427155  0.28661902  1.0
  C  C58  1  0.49902413  0.55892474  0.93293513  1.0
  C  C59  1  0.49890732  0.55910726  0.06748599  1.0
  C  C60  1  0.41685283  0.53399917  0.82119461  1.0
  C  C61  1  0.58276285  0.53560947  0.82188908  1.0
  C  C62  1  0.41755726  0.52026874  0.74972693  1.0
  C  C63  1  0.58290099  0.52184410  0.75040556  1.0
  C  C64  1  0.50043622  0.51484773  0.71366936  1.0
  C  C65  1  0.49957727  0.54267359  0.85784202  1.0
  C  C66  1  0.42421543  0.04613766  0.55832609  1.0
  C  C67  1  0.59826191  0.04579551  0.52792877  1.0
  C  C68  1  0.59023129  0.95112361  0.53708063  1.0
  C  C69  1  0.42264997  0.95067219  0.55400571  1.0
  C  C70  1  0.50055693  0.75178461  0.50409709  1.0
  C  C71  1  0.50160202  0.08156452  0.50613486  1.0
  C  C72  1  0.49978243  0.91773251  0.50690350  1.0
  C  C73  1  0.48609865  0.95071537  0.43177824  1.0
  C  C74  1  0.47932374  0.04650953  0.43218120  1.0
  C  C75  1  0.50006327  0.82735460  0.50631678  1.0
  C  C76  1  0.49995717  0.17164703  0.50539317  1.0
  C  C77  1  0.49656449  0.24705920  0.50368061  1.0
  C  C78  1  0.94843573  0.41190777  0.50682678  1.0
  C  C79  1  0.05297595  0.41527919  0.51548818  1.0
  C  C80  1  0.94867042  0.55931060  0.55293931  1.0
  C  C81  1  0.05253625  0.56903639  0.54374625  1.0
  C  C82  1  0.91220217  0.50135343  0.49467307  1.0
  C  C83  1  0.08713909  0.50210367  0.49183640  1.0
  C  C84  1  0.05045985  0.52074126  0.41669695  1.0
  C  C85  1  0.94397330  0.53318794  0.42176125  1.0
  C  C86  1  0.18589090  0.50174196  0.49429858  1.0
  C  C87  1  0.81339779  0.49968581  0.49681073  1.0
  C  C88  1  0.90712091  0.62116473  0.40571749  1.0
  C  C89  1  0.87996703  0.63209965  0.32920304  1.0
  C  C90  1  0.10366787  0.59082776  0.37960039  1.0
  C  C91  1  0.18158035  0.55910892  0.33369512  1.0
  C  C92  1  0.42605336  0.08348277  0.63306878  1.0
  C  C93  1  0.46259261  0.02900390  0.69235027  1.0
  C  C94  1  0.64631966  0.08734522  0.59130662  1.0
  C  C95  1  0.70084981  0.16744674  0.58006570  1.0
  N  N96  1  0.57925891  0.57269758  0.03465728  1.0
  N  N97  1  0.41777110  0.56841032  0.03428350  1.0
  N  N98  1  0.57934953  0.57281561  0.96611687  1.0
  N  N99  1  0.41788105  0.56808832  0.96574963  1.0
  N  N100  1  0.26463412  0.50064621  0.49950076  1.0
  N  N101  1  0.73445447  0.49757249  0.49887355  1.0
  N  N102  1  0.66886093  0.06246346  0.46725098  1.0
  N  N103  1  0.33144850  0.07969335  0.52573285  1.0
  O  O104  1  0.42014154  0.37288944  0.49860222  1.0
  O  O105  1  0.57584790  0.37109283  0.50368756  1.0
  O  O106  1  0.42113125  0.50199686  0.39388235  1.0
  O  O107  1  0.57608264  0.49801892  0.39449296  1.0
  O  O108  1  0.42232137  0.62692737  0.50147804  1.0
  O  O109  1  0.57800899  0.62624923  0.49911343  1.0
  O  O110  1  0.42332884  0.49954063  0.60594773  1.0
  O  O111  1  0.57832215  0.50225787  0.60625819  1.0
  O  O112  1  0.65981378  0.12581746  0.43180085  1.0
  O  O113  1  0.73446891  0.01424687  0.46342864  1.0
  O  O114  1  0.30950799  0.15144913  0.54087378  1.0
  O  O115  1  0.28734133  0.03362623  0.48636485  1.0
