# generated using pymatgen
data_Zn4H9C21N3O13
_symmetry_space_group_name_H-M   'P 1'
_cell_length_a   15.98486977
_cell_length_b   16.58413180
_cell_length_c   16.89144797
_cell_angle_alpha   63.27286450
_cell_angle_beta   61.97412653
_cell_angle_gamma   61.23097334
_symmetry_Int_Tables_number   1
_chemical_formula_structural   Zn4H9C21N3O13
_chemical_formula_sum   'Zn8 H18 C42 N6 O26'
_cell_volume   3317.02665957
_cell_formula_units_Z   2
loop_
 _symmetry_equiv_pos_site_id
 _symmetry_equiv_pos_as_xyz
  1  'x, y, z'
loop_
 _atom_site_type_symbol
 _atom_site_label
 _atom_site_symmetry_multiplicity
 _atom_site_fract_x
 _atom_site_fract_y
 _atom_site_fract_z
 _atom_site_occupancy
  Zn  Zn0  1  0.87993851  0.01444908  0.08158062  1.0
  Zn  Zn1  1  0.05989664  0.82704580  0.09271428  1.0
  Zn  Zn2  1  0.06731802  0.01608760  0.09860452  1.0
  Zn  Zn3  1  0.08038449  0.00300180  0.90382571  1.0
  Zn  Zn4  1  0.68207275  0.39870283  0.48592811  1.0
  Zn  Zn5  1  0.48689289  0.59836561  0.49570979  1.0
  Zn  Zn6  1  0.48549636  0.40194055  0.67035276  1.0
  Zn  Zn7  1  0.47640848  0.41399039  0.48925498  1.0
  H  H8  1  0.82465959  0.80599772  0.01796809  1.0
  H  H9  1  0.70538935  0.58835119  0.19333187  1.0
  H  H10  1  0.77810699  0.71766400  0.31378996  1.0
  H  H11  1  0.77790532  0.92062625  0.39294331  1.0
  H  H12  1  0.60204546  0.09100878  0.57220089  1.0
  H  H13  1  0.81894207  0.18929793  0.31219173  1.0
  H  H14  1  0.82021141  0.33439647  0.91650359  1.0
  H  H15  1  0.67291117  0.49350670  0.71938534  1.0
  H  H16  1  0.81262556  0.18580132  0.76698396  1.0
  H  H17  1  0.38766099  0.76444922  0.01474546  1.0
  H  H18  1  0.57050206  0.57478343  0.17918370  1.0
  H  H19  1  0.26388981  0.73629986  0.31136095  1.0
  H  H20  1  0.99801114  0.73745688  0.92931005  1.0
  H  H21  1  0.17497177  0.56742714  0.75034494  1.0
  H  H22  1  0.29466227  0.75229166  0.75012914  1.0
  H  H23  1  0.98646733  0.30916943  0.88903225  1.0
  H  H24  1  0.15010555  0.48020472  0.67128724  1.0
  H  H25  1  0.31178447  0.18666798  0.79653558  1.0
  C  C26  1  0.86222075  0.83251863  0.14259861  1.0
  C  C27  1  0.80964516  0.76814401  0.16340132  1.0
  C  C28  1  0.80008847  0.76019631  0.08899574  1.0
  C  C29  1  0.73325038  0.64078704  0.18602884  1.0
  C  C30  1  0.73328208  0.64784402  0.26578792  1.0
  C  C31  1  0.77399634  0.71180562  0.25407316  1.0
  C  C32  1  0.68737296  0.58803211  0.35989295  1.0
  C  C33  1  0.87261344  0.04058465  0.24611966  1.0
  C  C34  1  0.80674070  0.05335511  0.34090959  1.0
  C  C35  1  0.75934470  0.98608308  0.40778573  1.0
  C  C36  1  0.66227910  0.08012319  0.50674337  1.0
  C  C37  1  0.70526718  0.15167672  0.44451786  1.0
  C  C38  1  0.78275855  0.13594016  0.36168135  1.0
  C  C39  1  0.66127365  0.24648582  0.46242984  1.0
  C  C40  1  0.88098995  0.15566854  0.90311900  1.0
  C  C41  1  0.82526161  0.24878971  0.84697938  1.0
  C  C42  1  0.79883945  0.33496374  0.86353489  1.0
  C  C43  1  0.71669292  0.42285095  0.75495951  1.0
  C  C44  1  0.73607953  0.34029023  0.73591503  1.0
  C  C45  1  0.79438925  0.25171184  0.78063404  1.0
  C  C46  1  0.68650818  0.34955524  0.67441624  1.0
  C  C47  1  0.21205205  0.82043317  0.14822988  1.0
  C  C48  1  0.31275105  0.75793014  0.16183701  1.0
  C  C49  1  0.39563052  0.73307710  0.08434508  1.0
  C  C50  1  0.49698591  0.62855869  0.17506560  1.0
  C  C51  1  0.41952556  0.65006133  0.25648955  1.0
  C  C52  1  0.32584494  0.71814444  0.24938349  1.0
  C  C53  1  0.43731259  0.59557841  0.34885739  1.0
  C  C54  1  0.12667668  0.81572847  0.89759669  1.0
  C  C55  1  0.14449904  0.75285947  0.84571800  1.0
  C  C56  1  0.06881276  0.71587644  0.87432254  1.0
  C  C57  1  0.16652618  0.62196048  0.77564086  1.0
  C  C58  1  0.24729275  0.65394857  0.74244818  1.0
  C  C59  1  0.23448983  0.72436449  0.77508831  1.0
  C  C60  1  0.34533909  0.60339931  0.68030290  1.0
  C  C61  1  0.13777239  0.13962916  0.91298359  1.0
  C  C62  1  0.14817881  0.23501008  0.84941690  1.0
  C  C63  1  0.06039191  0.31536793  0.84272865  1.0
  C  C64  1  0.15049728  0.41025688  0.72296888  1.0
  C  C65  1  0.24259024  0.33597820  0.72803990  1.0
  C  C66  1  0.24145236  0.24616033  0.79221549  1.0
  C  C67  1  0.33855689  0.35555391  0.66715244  1.0
  N  N68  1  0.76418984  0.69673247  0.09944304  1.0
  N  N69  1  0.69131439  0.99691035  0.49088756  1.0
  N  N70  1  0.74821993  0.42077520  0.81669060  1.0
  N  N71  1  0.48666869  0.67114034  0.09008869  1.0
  N  N72  1  0.07756434  0.65450928  0.83774321  1.0
  N  N73  1  0.06088630  0.40111283  0.78037023  1.0
  O  O74  1  0.02815653  0.96599266  0.04068413  1.0
  O  O75  1  0.93474999  0.79577996  0.17527916  1.0
  O  O76  1  0.83323114  0.91851686  0.09104034  1.0
  O  O77  1  0.61103466  0.63268096  0.41693431  1.0
  O  O78  1  0.72732324  0.49737650  0.37307072  1.0
  O  O79  1  0.95564550  0.05642626  0.20836722  1.0
  O  O80  1  0.83658316  0.01578529  0.21076249  1.0
  O  O81  1  0.56503309  0.28099903  0.48936862  1.0
  O  O82  1  0.72120237  0.28538442  0.44800152  1.0
  O  O83  1  0.96241051  0.10100553  0.85939500  1.0
  O  O84  1  0.84013451  0.13961773  0.99199763  1.0
  O  O85  1  0.59758434  0.34524756  0.71772711  1.0
  O  O86  1  0.73442609  0.36262844  0.58725996  1.0
  O  O87  1  0.18034434  0.90883382  0.14210331  1.0
  O  O88  1  0.16904072  0.77633229  0.14219289  1.0
  O  O89  1  0.47006181  0.50407534  0.36657389  1.0
  O  O90  1  0.41952296  0.64220379  0.40104106  1.0
  O  O91  1  0.14302928  0.89541745  0.85082012  1.0
  O  O92  1  0.09427999  0.78275594  0.98643531  1.0
  O  O93  1  0.37494379  0.51240750  0.71468685  1.0
  O  O94  1  0.38881974  0.65255422  0.60074148  1.0
  O  O95  1  0.10125539  0.12944043  0.00076875  1.0
  O  O96  1  0.16352046  0.07805219  0.87270070  1.0
  O  O97  1  0.34431644  0.40716293  0.58253417  1.0
  O  O98  1  0.40692209  0.32155000  0.70431022  1.0
  O  O99  1  0.53531666  0.45785465  0.53511212  1.0
