# generated using pymatgen
data_AlH7C13NO7F
_symmetry_space_group_name_H-M   'P 1'
_cell_length_a   6.60924526
_cell_length_b   11.03564047
_cell_length_c   16.83436289
_cell_angle_alpha   85.70091191
_cell_angle_beta   84.22856590
_cell_angle_gamma   73.12988307
_symmetry_Int_Tables_number   1
_chemical_formula_structural   AlH7C13NO7F
_chemical_formula_sum   'Al2 H14 C26 N2 O14 F2'
_cell_volume   1167.70334470
_cell_formula_units_Z   2
loop_
 _symmetry_equiv_pos_site_id
 _symmetry_equiv_pos_as_xyz
  1  'x, y, z'
loop_
 _atom_site_type_symbol
 _atom_site_label
 _atom_site_symmetry_multiplicity
 _atom_site_fract_x
 _atom_site_fract_y
 _atom_site_fract_z
 _atom_site_occupancy
  Al  Al0  1  0.50559197  0.49982019  0.48846902  1.0
  Al  Al1  1  0.00296518  0.50244128  0.49028156  1.0
  H  H2  1  0.23891447  0.57408227  0.39433414  1.0
  H  H3  1  0.81234186  0.34988407  0.54025526  1.0
  H  H4  1  0.86101297  0.56090728  0.72077513  1.0
  H  H5  1  0.79406665  0.56204644  0.87017162  1.0
  H  H6  1  0.46957514  0.44239757  0.89050351  1.0
  H  H7  1  0.56007756  0.54284459  0.08469833  1.0
  H  H8  1  0.23056785  0.45764248  0.10988188  1.0
  H  H9  1  0.15564692  0.45617852  0.25845365  1.0
  H  H10  1  0.87061870  0.76847718  0.61902836  1.0
  H  H11  1  0.59569779  0.23577807  0.61830994  1.0
  H  H12  1  0.10021733  0.20916249  0.43937676  1.0
  H  H13  1  0.32101844  0.77944008  0.45077722  1.0
  H  H14  1  0.06365094  0.78727048  0.71808947  1.0
  H  H15  1  0.80354466  0.22262150  0.71839736  1.0
  C  C16  1  0.64728462  0.72759544  0.50486745  1.0
  C  C17  1  0.78406698  0.49912302  0.34476587  1.0
  C  C18  1  0.35546500  0.27015756  0.49582802  1.0
  C  C19  1  0.22947387  0.50427710  0.63248926  1.0
  C  C20  1  0.19993882  0.50426382  0.72146362  1.0
  C  C21  1  0.99211393  0.53674324  0.75896787  1.0
  C  C22  1  0.95453987  0.53666195  0.84133763  1.0
  C  C23  1  0.12740196  0.50206126  0.88902599  1.0
  C  C24  1  0.33595536  0.47003031  0.85343642  1.0
  C  C25  1  0.36838516  0.47074181  0.77076837  1.0
  C  C26  1  0.69092309  0.52299054  0.12278099  1.0
  C  C27  1  0.89989907  0.50052244  0.08847881  1.0
  C  C28  1  0.06926133  0.47556753  0.13745438  1.0
  C  C29  1  0.02692585  0.47490143  0.21959849  1.0
  C  C30  1  0.81844660  0.49849164  0.25590461  1.0
  C  C31  1  0.65371803  0.52225844  0.20535305  1.0
  C  C32  1  0.55775558  0.86359555  0.51731448  1.0
  C  C33  1  0.65404663  0.93265475  0.56463694  1.0
  C  C34  1  0.37253935  0.92790278  0.47988872  1.0
  C  C35  1  0.80982465  0.87134507  0.61754082  1.0
  C  C36  1  0.88495630  0.93705296  0.66903345  1.0
  C  C37  1  0.41173062  0.13270679  0.51255324  1.0
  C  C38  1  0.30108101  0.06367893  0.47662179  1.0
  C  C39  1  0.57828411  0.06798970  0.56313192  1.0
  C  C40  1  0.65804231  0.13322862  0.61609665  1.0
  C  C41  1  0.80625833  0.07102012  0.66880298  1.0
  N  N42  1  0.10835840  0.49614940  0.97356848  1.0
  N  N43  1  0.92157734  0.50557833  0.00405771  1.0
  O  O44  1  0.52303065  0.66919205  0.47958686  1.0
  O  O45  1  0.93060616  0.52030715  0.38076245  1.0
  O  O46  1  0.16749313  0.32675151  0.47288210  1.0
  O  O47  1  0.39464770  0.52761162  0.59788515  1.0
  O  O48  1  0.49122465  0.32950997  0.50272690  1.0
  O  O49  1  0.08313217  0.48082829  0.59799218  1.0
  O  O50  1  0.84065823  0.67049151  0.51491164  1.0
  O  O51  1  0.61462107  0.47876915  0.37804023  1.0
  O  O52  1  0.23497618  0.55980812  0.45208001  1.0
  O  O53  1  0.77601263  0.43908110  0.52351434  1.0
  O  O54  1  0.13283529  0.11575745  0.43407023  1.0
  O  O55  1  0.25682784  0.87289158  0.44163299  1.0
  O  O56  1  0.02993914  0.87868047  0.72270703  1.0
  O  O57  1  0.87897818  0.13242835  0.72256162  1.0
  F  F58  1  0.57307616  0.43254925  0.73809337  1.0
  F  F59  1  0.44804917  0.54980588  0.23602974  1.0
