# generated using pymatgen
data_Al6H65C96N27O28
_symmetry_space_group_name_H-M   'P 1'
_cell_length_a   13.20537064
_cell_length_b   13.22577927
_cell_length_c   33.70660916
_cell_angle_alpha   83.46939731
_cell_angle_beta   83.59998568
_cell_angle_gamma   63.55351458
_symmetry_Int_Tables_number   1
_chemical_formula_structural   Al6H65C96N27O28
_chemical_formula_sum   'Al6 H65 C96 N27 O28'
_cell_volume   5224.38930981
_cell_formula_units_Z   1
loop_
 _symmetry_equiv_pos_site_id
 _symmetry_equiv_pos_as_xyz
  1  'x, y, z'
loop_
 _atom_site_type_symbol
 _atom_site_label
 _atom_site_symmetry_multiplicity
 _atom_site_fract_x
 _atom_site_fract_y
 _atom_site_fract_z
 _atom_site_occupancy
  Al  Al0  1  0.57957484  0.60068856  0.49108916  1.0
  Al  Al1  1  0.57455628  0.35919917  0.50272581  1.0
  Al  Al2  1  0.35337717  0.56885840  0.50222991  1.0
  Al  Al3  1  0.06094523  0.08609798  0.01626106  1.0
  Al  Al4  1  0.30271453  0.08927300  0.00360526  1.0
  Al  Al5  1  0.09513721  0.31181509  0.00468646  1.0
  H  H6  1  0.45206502  0.88121422  0.91156205  1.0
  H  H7  1  0.13886594  0.89373190  0.83936438  1.0
  H  H8  1  0.71791581  0.23361976  0.60586354  1.0
  H  H9  1  0.73911419  0.55004432  0.59095943  1.0
  H  H10  1  0.92377946  0.14443490  0.91494590  1.0
  H  H11  1  0.73911717  0.22204305  0.67944758  1.0
  H  H12  1  0.76228956  0.53823260  0.66479633  1.0
  H  H13  1  0.53224407  0.19992092  0.41328920  1.0
  H  H14  1  0.23680123  0.51913271  0.40729952  1.0
  H  H15  1  0.43413540  0.10231620  0.09961292  1.0
  H  H16  1  0.21549672  0.51501367  0.68936515  1.0
  H  H17  1  0.17453516  0.43532805  0.17385707  1.0
  H  H18  1  0.10172444  0.99615695  0.12900764  1.0
  H  H19  1  0.95579153  0.44469240  0.11042762  1.0
  H  H20  1  0.89699738  0.14823150  0.12011851  1.0
  H  H21  1  0.52353402  0.21276525  0.61252796  1.0
  H  H22  1  0.46025790  0.14577209  0.81894683  1.0
  H  H23  1  0.43298338  0.12211540  0.89339742  1.0
  H  H24  1  0.50275527  0.18641913  0.68709253  1.0
  H  H25  1  0.14772339  0.44975576  0.89373965  1.0
  H  H26  1  0.17631270  0.74729037  0.57535319  1.0
  H  H27  1  0.09899545  0.79008286  0.62012116  1.0
  H  H28  1  0.62317730  0.72511750  0.64772270  1.0
  H  H29  1  0.56320447  0.73125916  0.69653442  1.0
  H  H30  1  0.19309768  0.77120729  0.68048997  1.0
  H  H31  1  0.53511599  0.76902908  0.81361300  1.0
  H  H32  1  0.57891761  0.79318728  0.85795548  1.0
  H  H33  1  0.10095688  0.95871048  0.90885977  1.0
  H  H34  1  0.17356408  0.47501840  0.81923517  1.0
  H  H35  1  0.82553828  0.15570555  0.81894666  1.0
  H  H36  1  0.88358185  0.07450836  0.86272885  1.0
  H  H37  1  0.93246700  0.48432388  0.93216705  1.0
  H  H38  1  0.93540729  0.54236521  0.88504091  1.0
  H  H39  1  0.79597786  0.59970371  0.85241368  1.0
  H  H40  1  0.77951825  0.55324070  0.80774590  1.0
  H  H41  1  0.58092779  0.08379941  0.36189811  1.0
  H  H42  1  0.50754153  0.11801555  0.31787924  1.0
  H  H43  1  0.17101727  0.49511837  0.30871557  1.0
  H  H44  1  0.13824448  0.57807645  0.35049444  1.0
  H  H45  1  0.51482005  0.01323378  0.15849121  1.0
  H  H46  1  0.47781551  0.07693333  0.20438692  1.0
  H  H47  1  0.15382848  0.43397511  0.10114121  1.0
  H  H48  1  0.02416383  0.01585021  0.20181114  1.0
  H  H49  1  0.11709876  0.95502407  0.23833585  1.0
  H  H50  1  0.18105558  0.78724037  0.32549534  1.0
  H  H51  1  0.21267238  0.72357193  0.39795288  1.0
  H  H52  1  0.55303923  0.84908717  0.37565585  1.0
  H  H53  1  0.54362107  0.76628091  0.41838732  1.0
  H  H54  1  0.48328816  0.83687391  0.18068756  1.0
  H  H55  1  0.55765971  0.81631686  0.11086475  1.0
  H  H56  1  0.47302203  0.89615005  0.07342654  1.0
  H  H57  1  0.23639265  0.54005378  0.61517359  1.0
  H  H58  1  0.57745253  0.80767680  0.31562812  1.0
  H  H59  1  0.48040788  0.87373222  0.28122840  1.0
  H  H60  1  0.92390625  0.54315637  0.17205082  1.0
  H  H61  1  0.89508352  0.48574084  0.21827847  1.0
  H  H62  1  0.78909393  0.51913925  0.30758473  1.0
  H  H63  1  0.72779945  0.55160942  0.37985528  1.0
  H  H64  1  0.75274987  0.21533964  0.40083021  1.0
  H  H65  1  0.81643528  0.10489690  0.18620454  1.0
  H  H66  1  0.81779805  0.16549295  0.22771257  1.0
  H  H67  1  0.81271223  0.18152109  0.32867011  1.0
  H  H68  1  0.53582106  0.71798568  0.59278434  1.0
  H  H69  1  0.72811404  0.65577289  0.48192436  1.0
  H  H70  1  0.99354473  0.95557180  0.00636126  1.0
  C  C71  1  0.69818702  0.40744717  0.55189815  1.0
  C  C72  1  0.35695684  0.34853432  0.69321597  1.0
  C  C73  1  0.28161177  0.44818207  0.67239408  1.0
  C  C74  1  0.29269516  0.46163548  0.63095674  1.0
  C  C75  1  0.23077000  0.39841271  0.83565166  1.0
  C  C76  1  0.21664789  0.38467913  0.87699785  1.0
  C  C77  1  0.37814280  0.19963856  0.87684671  1.0
  C  C78  1  0.39278545  0.21261934  0.83550463  1.0
  C  C79  1  0.31919685  0.31229896  0.81414898  1.0
  C  C80  1  0.33310695  0.32494830  0.77194503  1.0
  C  C81  1  0.34515260  0.33523613  0.73546430  1.0
  C  C82  1  0.39829218  0.39693679  0.56544127  1.0
  C  C83  1  0.28999814  0.28543654  0.89802517  1.0
  C  C84  1  0.36949201  0.72946777  0.59579921  1.0
  C  C85  1  0.46053188  0.73144597  0.61259038  1.0
  C  C86  1  0.46025573  0.74639250  0.65301545  1.0
  C  C87  1  0.36085762  0.75902792  0.67802182  1.0
  C  C88  1  0.26752696  0.76149175  0.66071018  1.0
  C  C89  1  0.26809934  0.74773665  0.62015625  1.0
  C  C90  1  0.33411202  0.80786241  0.79645984  1.0
  C  C91  1  0.35433897  0.76656288  0.72105619  1.0
  C  C92  1  0.40856980  0.84335357  0.85683993  1.0
  C  C93  1  0.39081062  0.69795775  0.55377353  1.0
  C  C94  1  0.38422206  0.88186376  0.89566271  1.0
  C  C95  1  0.18577789  0.92545168  0.89407677  1.0
  C  C96  1  0.20723340  0.88978545  0.85576420  1.0
  C  C97  1  0.31732702  0.84711804  0.83632597  1.0
  C  C98  1  0.27578167  0.92115057  0.91420769  1.0
  C  C99  1  0.72723595  0.39257011  0.59427154  1.0
  C  C100  1  0.72896136  0.29914832  0.61906087  1.0
  C  C101  1  0.74048953  0.29283837  0.65984014  1.0
  C  C102  1  0.75061935  0.38032548  0.67658599  1.0
  C  C103  1  0.75299340  0.47189474  0.65145919  1.0
  C  C104  1  0.69508492  0.40893403  0.43667764  1.0
  C  C105  1  0.74078626  0.47822212  0.61073498  1.0
  C  C106  1  0.79772048  0.35982679  0.79541499  1.0
  C  C107  1  0.75658783  0.37737381  0.71989964  1.0
  C  C108  1  0.87010595  0.23484281  0.85809672  1.0
  C  C109  1  0.90279169  0.22383639  0.89682092  1.0
  C  C110  1  0.88886991  0.41439096  0.89126927  1.0
  C  C111  1  0.84798928  0.43121539  0.85261443  1.0
  C  C112  1  0.83904430  0.34209935  0.83480382  1.0
  C  C113  1  0.91374385  0.31043945  0.91355265  1.0
  C  C114  1  0.38431386  0.36019479  0.41417195  1.0
  C  C115  1  0.40420943  0.38433667  0.45383066  1.0
  C  C116  1  0.46082751  0.26114671  0.39686413  1.0
  C  C117  1  0.44712334  0.24016911  0.35840229  1.0
  C  C118  1  0.35398920  0.32208469  0.33595849  1.0
  C  C119  1  0.27763401  0.42493935  0.35464853  1.0
  C  C120  1  0.29391965  0.44125923  0.39349536  1.0
  C  C121  1  0.32025761  0.27704930  0.22076797  1.0
  C  C122  1  0.33752864  0.30173557  0.29631899  1.0
  C  C123  1  0.39329240  0.17588281  0.15663669  1.0
  C  C124  1  0.37925494  0.17683248  0.11568452  1.0
  C  C125  1  0.22052273  0.36358875  0.11679008  1.0
  C  C126  1  0.37964666  0.70588144  0.43900289  1.0
  C  C127  1  0.23247032  0.36393632  0.15693771  1.0
  C  C128  1  0.31682266  0.27159436  0.17802806  1.0
  C  C129  1  0.29456295  0.26808810  0.09602078  1.0
  C  C130  1  0.36121647  0.75086814  0.39733584  1.0
  C  C131  1  0.43739130  0.78788493  0.37450340  1.0
  C  C132  1  0.41952750  0.82272482  0.33325872  1.0
  C  C133  1  0.32797445  0.82162620  0.31584519  1.0
  C  C134  1  0.25082840  0.78819633  0.33963917  1.0
  C  C135  1  0.26862308  0.75271646  0.37931678  1.0
  C  C136  1  0.19421925  0.93880640  0.18238260  1.0
  C  C137  1  0.37977242  0.37652108  0.60922558  1.0
  C  C138  1  0.18456982  0.96166681  0.14118846  1.0
  C  C139  1  0.38915814  0.89885690  0.12787255  1.0
  C  C140  1  0.39943909  0.87257199  0.16906029  1.0
  C  C141  1  0.30561152  0.89177180  0.19635731  1.0
  C  C142  1  0.31790409  0.86746040  0.23784118  1.0
  C  C143  1  0.31831171  0.84866288  0.27428573  1.0
  C  C144  1  0.27858509  0.94310557  0.11378202  1.0
  C  C145  1  0.73859585  0.38468312  0.39457829  1.0
  C  C146  1  0.76213869  0.28056728  0.38010857  1.0
  C  C147  1  0.79512773  0.26207183  0.34000097  1.0
  C  C148  1  0.45540335  0.27737414  0.62968571  1.0
  C  C149  1  0.80525820  0.34800046  0.31323065  1.0
  C  C150  1  0.78201136  0.45244275  0.32818047  1.0
  C  C151  1  0.74881920  0.47046570  0.36823655  1.0
  C  C152  1  0.91066719  0.39390243  0.17069517  1.0
  C  C153  1  0.93170409  0.38529332  0.12924202  1.0
  C  C154  1  0.89856345  0.21660841  0.13489060  1.0
  C  C155  1  0.87663843  0.22395270  0.17612562  1.0
  C  C156  1  0.88259980  0.31245824  0.19461437  1.0
  C  C157  1  0.85861292  0.32153390  0.23609338  1.0
  C  C158  1  0.83546375  0.33196888  0.27209780  1.0
  C  C159  1  0.44412670  0.26302442  0.67109777  1.0
  C  C160  1  0.92612004  0.29711449  0.11190493  1.0
  C  C161  1  0.25365965  0.96556921  0.95454197  1.0
  C  C162  1  0.26844944  0.26600217  0.94167452  1.0
  C  C163  1  0.95909587  0.28201468  0.95387920  1.0
  C  C164  1  0.25482452  0.97425672  0.07112114  1.0
  C  C165  1  0.27523202  0.25723045  0.05448628  1.0
  C  C166  1  0.96119534  0.27999295  0.06876704  1.0
  N  N167  1  0.43857744  0.76697129  0.77710524  1.0
  N  N168  1  0.40614221  0.20152525  0.28004759  1.0
  N  N169  1  0.24575367  0.37939057  0.27616876  1.0
  N  N170  1  0.23704226  0.36739126  0.23909226  1.0
  N  N171  1  0.44844780  0.74703403  0.73914194  1.0
  N  N172  1  0.25600976  0.78031312  0.74331205  1.0
  N  N173  1  0.24582447  0.80145322  0.78071309  1.0
  N  N174  1  0.77711253  0.27817409  0.78094810  1.0
  N  N175  1  0.75739267  0.28674256  0.74325484  1.0
  N  N176  1  0.74771934  0.47055771  0.73589455  1.0
  N  N177  1  0.76751740  0.46198039  0.77366628  1.0
  N  N178  1  0.39792816  0.18957060  0.24254843  1.0
  N  N179  1  0.17506647  0.74561270  0.60559220  1.0
  N  N180  1  0.55265039  0.75060027  0.66666667  1.0
  N  N181  1  0.51689322  0.80607510  0.84015291  1.0
  N  N182  1  0.87151613  0.14195366  0.84305137  1.0
  N  N183  1  0.89553353  0.50674736  0.90549483  1.0
  N  N184  1  0.81992130  0.53689488  0.83360882  1.0
  N  N185  1  0.52553911  0.14183003  0.34299841  1.0
  N  N186  1  0.18901787  0.50861035  0.33578384  1.0
  N  N187  1  0.47939688  0.08387197  0.17388177  1.0
  N  N188  1  0.10232506  0.95594605  0.20932783  1.0
  N  N189  1  0.53080682  0.78815074  0.38863481  1.0
  N  N190  1  0.48584144  0.88528773  0.10315935  1.0
  N  N191  1  0.49444656  0.85900133  0.31092355  1.0
  N  N192  1  0.91970159  0.47674061  0.18884744  1.0
  N  N193  1  0.85462917  0.14171850  0.20001527  1.0
  O  O194  1  0.48619153  0.68114044  0.53638602  1.0
  O  O195  1  0.49788923  0.31685072  0.46914291  1.0
  O  O196  1  0.33024001  0.47370137  0.46964492  1.0
  O  O197  1  0.30767190  0.67317180  0.45859065  1.0
  O  O198  1  0.50245603  0.50785429  0.49920955  1.0
  O  O199  1  0.97761098  0.18613125  0.97086731  1.0
  O  O200  1  0.15921852  0.98649372  0.97346432  1.0
  O  O201  1  0.33315481  0.98350103  0.96690911  1.0
  O  O202  1  0.33679834  0.17290449  0.95904531  1.0
  O  O203  1  0.17930696  0.34059565  0.95914983  1.0
  O  O204  1  0.98100475  0.35583808  0.96926923  1.0
  O  O205  1  0.68525545  0.49844304  0.53161918  1.0
  O  O206  1  0.96701429  0.19216485  0.05530104  1.0
  O  O207  1  0.15685160  0.99950452  0.06086493  1.0
  O  O208  1  0.33605752  0.97741395  0.04564461  1.0
  O  O209  1  0.34325456  0.16650405  0.03777910  1.0
  O  O210  1  0.18767837  0.33507877  0.03842130  1.0
  O  O211  1  0.98912780  0.35354350  0.04810094  1.0
  O  O212  1  0.15409939  0.16325870  0.00781466  1.0
  O  O213  1  0.68148312  0.32763700  0.53934149  1.0
  O  O214  1  0.48979638  0.32696942  0.54774832  1.0
  O  O215  1  0.32436363  0.48715773  0.54813665  1.0
  O  O216  1  0.31366508  0.68378542  0.53737391  1.0
  O  O217  1  0.46733564  0.69730640  0.45422424  1.0
  O  O218  1  0.66853616  0.50726638  0.44686879  1.0
  O  O219  1  0.68358792  0.32932857  0.45987224  1.0
  O  O220  1  0.64673193  0.69144993  0.48058125  1.0
  O  O221  1  0.97593518  0.01359703  0.02451901  1.0
