# generated using pymatgen
data_CdH18C18(NO)4
_symmetry_space_group_name_H-M   'P 1'
_cell_length_a   11.90542037
_cell_length_b   13.63572643
_cell_length_c   15.83880797
_cell_angle_alpha   87.77195636
_cell_angle_beta   67.92274827
_cell_angle_gamma   90.00947278
_symmetry_Int_Tables_number   1
_chemical_formula_structural   CdH18C18(NO)4
_chemical_formula_sum   'Cd4 H72 C72 N16 O16'
_cell_volume   2380.62269710
_cell_formula_units_Z   4
loop_
 _symmetry_equiv_pos_site_id
 _symmetry_equiv_pos_as_xyz
  1  'x, y, z'
loop_
 _atom_site_type_symbol
 _atom_site_label
 _atom_site_symmetry_multiplicity
 _atom_site_fract_x
 _atom_site_fract_y
 _atom_site_fract_z
 _atom_site_occupancy
  Cd  Cd0  1  0.00184393  0.36728802  0.54866536  1.0
  Cd  Cd1  1  0.55067021  0.13255045  0.45114035  1.0
  Cd  Cd2  1  0.99815408  0.63270920  0.45133268  1.0
  Cd  Cd3  1  0.44933061  0.86745043  0.54886182  1.0
  H  H4  1  0.94378212  0.41156759  0.75571832  1.0
  H  H5  1  0.69999249  0.08794113  0.24398277  1.0
  H  H6  1  0.05621958  0.58843330  0.24427729  1.0
  H  H7  1  0.30000474  0.91206195  0.75601783  1.0
  H  H8  1  0.77121257  0.40859854  0.90879775  1.0
  H  H9  1  0.68046186  0.09094751  0.09092296  1.0
  H  H10  1  0.22878552  0.59140234  0.09120141  1.0
  H  H11  1  0.31953440  0.90905190  0.90907803  1.0
  H  H12  1  0.52846441  0.38044934  0.76543267  1.0
  H  H13  1  0.29439957  0.11930762  0.23434534  1.0
  H  H14  1  0.47153367  0.61955081  0.23456651  1.0
  H  H15  1  0.70559843  0.88068812  0.76565653  1.0
  H  H16  1  0.70893157  0.38710116  0.62050852  1.0
  H  H17  1  0.32997969  0.11262097  0.37924274  1.0
  H  H18  1  0.29106737  0.61289679  0.37948986  1.0
  H  H19  1  0.67001930  0.88737991  0.62075680  1.0
  H  H20  1  0.33959461  0.37286662  0.00962878  1.0
  H  H21  1  0.34959770  0.12700715  0.99030865  1.0
  H  H22  1  0.66040621  0.62713500  0.99037211  1.0
  H  H23  1  0.65039858  0.87299373  0.00969166  1.0
  H  H24  1  0.39693474  0.30605811  0.90729993  1.0
  H  H25  1  0.30491407  0.19383349  0.09262697  1.0
  H  H26  1  0.60306244  0.69394277  0.09269949  1.0
  H  H27  1  0.69508765  0.80616739  0.90737242  1.0
  H  H28  1  0.38747316  0.43581354  0.90045190  1.0
  H  H29  1  0.28823727  0.06409958  0.09949883  1.0
  H  H30  1  0.61252675  0.56418808  0.09954672  1.0
  H  H31  1  0.71175902  0.93590203  0.90050082  1.0
  H  H32  1  0.68102937  0.37010076  0.09834721  1.0
  H  H33  1  0.77968297  0.12953127  0.90130755  1.0
  H  H34  1  0.31897590  0.62989646  0.90165003  1.0
  H  H35  1  0.22031781  0.87046740  0.09869660  1.0
  H  H36  1  0.62580311  0.29872674  0.20381877  1.0
  H  H37  1  0.82990095  0.20087783  0.79580761  1.0
  H  H38  1  0.37420037  0.70127121  0.79617832  1.0
  H  H39  1  0.17010165  0.79912084  0.20419539  1.0
  H  H40  1  0.62448574  0.42735420  0.20644252  1.0
  H  H41  1  0.83094755  0.07222462  0.79320285  1.0
  H  H42  1  0.37551862  0.57264229  0.79355500  1.0
  H  H43  1  0.16904779  0.92777479  0.20679903  1.0
  H  H44  1  0.48076581  0.35857991  0.34456309  1.0
  H  H45  1  0.82544604  0.14104723  0.65517701  1.0
  H  H46  1  0.51923496  0.64141877  0.65543601  1.0
  H  H47  1  0.17455589  0.85896391  0.34482768  1.0
  H  H48  1  0.29380276  0.35101232  0.48416769  1.0
  H  H49  1  0.77809725  0.14878326  0.51563678  1.0
  H  H50  1  0.70619889  0.64898489  0.51583057  1.0
  H  H51  1  0.22190743  0.85122934  0.48436961  1.0
  H  H52  1  0.07320958  0.33642309  0.33593045  1.0
  H  H53  1  0.40931555  0.16393947  0.66386722  1.0
  H  H54  1  0.92679475  0.66357267  0.66406647  1.0
  H  H55  1  0.59068893  0.83606362  0.33613195  1.0
  H  H56  1  0.25143351  0.35063241  0.18753113  1.0
  H  H57  1  0.43915426  0.14971524  0.81225899  1.0
  H  H58  1  0.74857260  0.64936114  0.81246472  1.0
  H  H59  1  0.56084662  0.85028931  0.18774116  1.0
  H  H60  1  0.18738215  0.18821231  0.72642536  1.0
  H  H61  1  0.91409997  0.31174675  0.27343724  1.0
  H  H62  1  0.81261775  0.81178857  0.27357455  1.0
  H  H63  1  0.08589080  0.68825046  0.72656348  1.0
  H  H64  1  0.04492768  0.12673382  0.75950197  1.0
  H  H65  1  0.80462809  0.37303962  0.24032810  1.0
  H  H66  1  0.95507040  0.87326632  0.24049974  1.0
  H  H67  1  0.19536549  0.62696273  0.75967103  1.0
  H  H68  1  0.19031135  0.00370922  0.67794680  1.0
  H  H69  1  0.86842237  0.49622495  0.32182178  1.0
  H  H70  1  0.80969036  0.99629093  0.32205388  1.0
  H  H71  1  0.13158027  0.50377667  0.67817732  1.0
  H  H72  1  0.12137623  0.04801978  0.60391300  1.0
  H  H73  1  0.72544521  0.45190777  0.39584837  1.0
  H  H74  1  0.87862911  0.95198111  0.39608347  1.0
  H  H75  1  0.27455568  0.54809751  0.60415049  1.0
  C  C76  1  0.84941752  0.40698780  0.76207990  1.0
  C  C77  1  0.61199626  0.09259567  0.23763605  1.0
  C  C78  1  0.15058235  0.59301161  0.23791817  1.0
  C  C79  1  0.38800272  0.90740448  0.76236414  1.0
  C  C80  1  0.75431473  0.40419858  0.84615265  1.0
  C  C81  1  0.60093954  0.09536904  0.15358059  1.0
  C  C82  1  0.24568516  0.59580157  0.15384476  1.0
  C  C83  1  0.39905759  0.90462891  0.84642020  1.0
  C  C84  1  0.63479973  0.39278384  0.85058829  1.0
  C  C85  1  0.48584832  0.10683483  0.14918613  1.0
  C  C86  1  0.36520109  0.60721778  0.14940944  1.0
  C  C87  1  0.51414872  0.89315871  0.85081672  1.0
  C  C88  1  0.61820008  0.38878995  0.76762314  1.0
  C  C89  1  0.38631436  0.11088777  0.23215501  1.0
  C  C90  1  0.38179982  0.61121094  0.23237298  1.0
  C  C91  1  0.61368091  0.88910723  0.76784829  1.0
  C  C92  1  0.71880245  0.39232043  0.68596367  1.0
  C  C93  1  0.40528525  0.10732715  0.31379587  1.0
  C  C94  1  0.28119746  0.60768119  0.31403432  1.0
  C  C95  1  0.59471281  0.89267226  0.68620461  1.0
  C  C96  1  0.53173496  0.38285368  0.93909614  1.0
  C  C97  1  0.47130847  0.11679449  0.06071239  1.0
  C  C98  1  0.46826486  0.61714280  0.06090140  1.0
  C  C99  1  0.52868859  0.88319978  0.93928854  1.0
  C  C100  1  0.40601672  0.37402470  0.93967106  1.0
  C  C101  1  0.34614815  0.12580378  0.06025170  1.0
  C  C102  1  0.59398228  0.62597618  0.06032784  1.0
  C  C103  1  0.65385172  0.87419563  0.93974763  1.0
  C  C104  1  0.61266731  0.36552730  0.16770244  1.0
  C  C105  1  0.78059276  0.13409975  0.83197231  1.0
  C  C106  1  0.38733796  0.63446992  0.83229416  1.0
  C  C107  1  0.21940803  0.86589965  0.16803118  1.0
  C  C108  1  0.48795970  0.36526576  0.16572338  1.0
  C  C109  1  0.65387475  0.13459450  0.83402988  1.0
  C  C110  1  0.51204467  0.63473145  0.83427474  1.0
  C  C111  1  0.34612521  0.86540857  0.16597310  1.0
  C  C112  1  0.38158617  0.35787975  0.25261827  1.0
  C  C113  1  0.63434788  0.14203882  0.74715264  1.0
  C  C114  1  0.61841823  0.64211967  0.74737914  1.0
  C  C115  1  0.36565486  0.85796793  0.25284880  1.0
  C  C116  1  0.39289168  0.35704417  0.33773593  1.0
  C  C117  1  0.73074999  0.14276558  0.66202520  1.0
  C  C118  1  0.60710998  0.64295378  0.66226168  1.0
  C  C119  1  0.26925097  0.85724189  0.33798114  1.0
  C  C120  1  0.28823668  0.35204006  0.41698131  1.0
  C  C121  1  0.70534390  0.14785849  0.58280185  1.0
  C  C122  1  0.71176584  0.64795568  0.58301676  1.0
  C  C123  1  0.29465888  0.85214972  0.41720206  1.0
  C  C124  1  0.16534649  0.34402846  0.33390065  1.0
  C  C125  1  0.49941510  0.15620650  0.66587874  1.0
  C  C126  1  0.83465686  0.65596288  0.66609732  1.0
  C  C127  1  0.50058669  0.84379805  0.33412178  1.0
  C  C128  1  0.26402981  0.35054566  0.25207078  1.0
  C  C129  1  0.51627384  0.14962580  0.74771075  1.0
  C  C130  1  0.73597448  0.64944789  0.74792622  1.0
  C  C131  1  0.48372706  0.85037949  0.25229063  1.0
  C  C132  1  0.07816804  0.23472022  0.65185519  1.0
  C  C133  1  0.73033981  0.26507354  0.34804431  1.0
  C  C134  1  0.92183093  0.76527919  0.34814503  1.0
  C  C135  1  0.26964842  0.73493247  0.65196190  1.0
  C  C136  1  0.12364476  0.15471479  0.70032377  1.0
  C  C137  1  0.82421300  0.34514873  0.29951461  1.0
  C  C138  1  0.87635598  0.84528242  0.29967602  1.0
  C  C139  1  0.17577879  0.65485435  0.70048564  1.0
  C  C140  1  0.18098010  0.06965001  0.63924672  1.0
  C  C141  1  0.82038503  0.43029162  0.36055943  1.0
  C  C142  1  0.81902612  0.93034941  0.36075017  1.0
  C  C143  1  0.17961399  0.56971073  0.63943879  1.0
  C  C144  1  0.30398667  0.09627473  0.56664994  1.0
  C  C145  1  0.87084067  0.40383069  0.43317457  1.0
  C  C146  1  0.69602048  0.90372542  0.43335172  1.0
  C  C147  1  0.12915915  0.59616579  0.56682297  1.0
  N  N148  1  0.83247190  0.39970964  0.68299797  1.0
  N  N149  1  0.51598725  0.09989272  0.31673252  1.0
  N  N150  1  0.16752981  0.60029125  0.31699953  1.0
  N  N151  1  0.48400995  0.90010889  0.68326876  1.0
  N  N152  1  0.55991752  0.38081528  0.01125581  1.0
  N  N153  1  0.57157765  0.11889745  0.98849359  1.0
  N  N154  1  0.44008316  0.61917900  0.98874156  1.0
  N  N155  1  0.42842217  0.88109902  0.01150838  1.0
  N  N156  1  0.46230949  0.37123922  0.09247390  1.0
  N  N157  1  0.55501939  0.12860230  0.90732825  1.0
  N  N158  1  0.53769396  0.62875726  0.90752514  1.0
  N  N159  1  0.44498144  0.87139930  0.09267390  1.0
  N  N160  1  0.17642857  0.34621676  0.41534413  1.0
  N  N161  1  0.59191198  0.15385621  0.58443917  1.0
  N  N162  1  0.82357391  0.65377679  0.58465338  1.0
  N  N163  1  0.40809344  0.84614760  0.41556413  1.0
  O  O164  1  0.01474855  0.20730529  0.60676055  1.0
  O  O165  1  0.62180098  0.29246509  0.39307485  1.0
  O  O166  1  0.98525583  0.79269267  0.39323565  1.0
  O  O167  1  0.37818918  0.70754751  0.60693061  1.0
  O  O168  1  0.10196667  0.32421863  0.65842243  1.0
  O  O169  1  0.76074252  0.17559594  0.34148445  1.0
  O  O170  1  0.89803321  0.67578153  0.34157372  1.0
  O  O171  1  0.23923935  0.82441006  0.65852042  1.0
  O  O172  1  0.33366267  0.18498256  0.54192357  1.0
  O  O173  1  0.87631537  0.31510625  0.45765305  1.0
  O  O174  1  0.66634088  0.81501905  0.45807907  1.0
  O  O175  1  0.12367537  0.68489023  0.54234518  1.0
  O  O176  1  0.37767852  0.02662171  0.53145930  1.0
  O  O177  1  0.90887032  0.47355880  0.46858362  1.0
  O  O178  1  0.62231494  0.97337255  0.46854706  1.0
  O  O179  1  0.09113671  0.52643548  0.53141195  1.0
