# generated using pymatgen
data_AlH7C14ClO5
_symmetry_space_group_name_H-M   'P 1'
_cell_length_a   6.62996213
_cell_length_b   13.01681613
_cell_length_c   17.71232747
_cell_angle_alpha   92.10517267
_cell_angle_beta   99.10787210
_cell_angle_gamma   100.99918446
_symmetry_Int_Tables_number   1
_chemical_formula_structural   AlH7C14ClO5
_chemical_formula_sum   'Al2 H14 C28 Cl2 O10'
_cell_volume   1478.05563545
_cell_formula_units_Z   2
loop_
 _symmetry_equiv_pos_site_id
 _symmetry_equiv_pos_as_xyz
  1  'x, y, z'
loop_
 _atom_site_type_symbol
 _atom_site_label
 _atom_site_symmetry_multiplicity
 _atom_site_fract_x
 _atom_site_fract_y
 _atom_site_fract_z
 _atom_site_occupancy
  Al  Al0  1  0.99996573  0.49987089  0.49998917  1.0
  Al  Al1  1  0.49994133  0.49982755  0.49997344  1.0
  H  H2  1  0.31230705  0.55854571  0.59314102  1.0
  H  H3  1  0.68744252  0.44124447  0.40683099  1.0
  H  H4  1  0.91165870  0.58975619  0.27792348  1.0
  H  H5  1  0.82757758  0.59061559  0.13577410  1.0
  H  H6  1  0.32328617  0.42392085  0.11606210  1.0
  H  H7  1  0.67698866  0.57647690  0.88388469  1.0
  H  H8  1  0.08875560  0.41061577  0.72219990  1.0
  H  H9  1  0.17318725  0.41012684  0.86435463  1.0
  H  H10  1  0.15691473  0.82120894  0.46880447  1.0
  H  H11  1  0.58013498  0.81112215  0.55262733  1.0
  H  H12  1  0.63400308  0.00672579  0.55747360  1.0
  H  H13  1  0.84262333  0.17850916  0.53109225  1.0
  H  H14  1  0.41961590  0.18856617  0.44741852  1.0
  H  H15  1  0.36572030  0.99297663  0.44252047  1.0
  C  C16  1  0.83174192  0.68923078  0.50849967  1.0
  C  C17  1  0.79309430  0.48601415  0.63694286  1.0
  C  C18  1  0.16795843  0.31044540  0.49144248  1.0
  C  C19  1  0.20683504  0.51384723  0.36303262  1.0
  C  C20  1  0.16765468  0.51122044  0.27752121  1.0
  C  C21  1  0.00282541  0.55534863  0.24154247  1.0
  C  C22  1  0.95522459  0.55543450  0.16246742  1.0
  C  C23  1  0.07068414  0.50786414  0.11587900  1.0
  C  C24  1  0.23511096  0.46248298  0.15117581  1.0
  C  C25  1  0.28340519  0.46474541  0.23072242  1.0
  C  C26  1  0.02158129  0.50312984  0.03497058  1.0
  C  C27  1  0.97896734  0.49753918  0.96510553  1.0
  C  C28  1  0.92982575  0.49274321  0.88419661  1.0
  C  C29  1  0.76537757  0.53802752  0.84881988  1.0
  C  C30  1  0.71688604  0.53551062  0.76927547  1.0
  C  C31  1  0.83237937  0.48882659  0.72250387  1.0
  C  C32  1  0.99734541  0.44485670  0.75857062  1.0
  C  C33  1  0.04527310  0.44510372  0.83766668  1.0
  C  C34  1  0.04281446  0.86268846  0.48719663  1.0
  C  C35  1  0.71687280  0.85835908  0.53507216  1.0
  C  C36  1  0.74686228  0.96602771  0.53721910  1.0
  C  C37  1  0.92442455  0.02637018  0.51282329  1.0
  C  C38  1  0.95670716  0.13698118  0.51270413  1.0
  C  C39  1  0.28273252  0.14133586  0.46490207  1.0
  C  C40  1  0.25285700  0.03367175  0.46275938  1.0
  C  C41  1  0.07523938  0.97331426  0.48711274  1.0
  C  C42  1  0.86652472  0.80597839  0.51011188  1.0
  C  C43  1  0.13305140  0.19369269  0.48982682  1.0
  Cl  Cl44  1  0.48156073  0.40124976  0.26728933  1.0
  Cl  Cl45  1  0.51827988  0.59870258  0.73261751  1.0
  O  O46  1  0.98123720  0.64573029  0.49612568  1.0
  O  O47  1  0.60535947  0.46940823  0.60283092  1.0
  O  O48  1  0.34587463  0.35804572  0.47956181  1.0
  O  O49  1  0.04576775  0.49934379  0.39508376  1.0
  O  O50  1  0.01856409  0.35398705  0.50386121  1.0
  O  O51  1  0.39454133  0.53041757  0.39716862  1.0
  O  O52  1  0.65390502  0.64160585  0.52044709  1.0
  O  O53  1  0.95412877  0.50047660  0.60487887  1.0
  O  O54  1  0.28185185  0.54199589  0.53811755  1.0
  O  O55  1  0.71782380  0.45772903  0.46186689  1.0
