# generated using pymatgen
data_Zn2H18C32S3(N2O5)3
_symmetry_space_group_name_H-M   'P 1'
_cell_length_a   12.80389974
_cell_length_b   15.96450065
_cell_length_c   17.22135573
_cell_angle_alpha   95.43539064
_cell_angle_beta   90.51365292
_cell_angle_gamma   93.69449972
_symmetry_Int_Tables_number   1
_chemical_formula_structural   Zn2H18C32S3(N2O5)3
_chemical_formula_sum   'Zn2 H18 C32 S3 N6 O15'
_cell_volume   3496.66756774
_cell_formula_units_Z   1
loop_
 _symmetry_equiv_pos_site_id
 _symmetry_equiv_pos_as_xyz
  1  'x, y, z'
loop_
 _atom_site_type_symbol
 _atom_site_label
 _atom_site_symmetry_multiplicity
 _atom_site_fract_x
 _atom_site_fract_y
 _atom_site_fract_z
 _atom_site_occupancy
  Zn  Zn0  1  0.49732901  0.40942990  0.49738256  1.0
  Zn  Zn1  1  0.49988753  0.59065654  0.50090449  1.0
  H  H2  1  0.38100751  0.71838862  0.44154694  1.0
  H  H3  1  0.38209621  0.87649337  0.44455903  1.0
  H  H4  1  0.66886780  0.89033068  0.58124328  1.0
  H  H5  1  0.36600905  0.10699846  0.39604868  1.0
  H  H6  1  0.60657195  0.12839646  0.57623887  1.0
  H  H7  1  0.60197017  0.28614770  0.57847581  1.0
  H  H8  1  0.50453714  0.61904034  0.25825211  1.0
  H  H9  1  0.50131065  0.61327623  0.11177178  1.0
  H  H10  1  0.50592964  0.34262861  0.09904887  1.0
  H  H11  1  0.50963147  0.65743371  0.89963290  1.0
  H  H12  1  0.48459946  0.38581883  0.88506524  1.0
  H  H13  1  0.47819660  0.38131050  0.73869845  1.0
  H  H14  1  0.87396276  0.63447131  0.50401627  1.0
  H  H15  1  0.67907252  0.66630560  0.55112539  1.0
  H  H16  1  0.34187742  0.32718542  0.41865831  1.0
  H  H17  1  0.51535724  0.34847831  0.30602561  1.0
  H  H18  1  0.50768926  0.65332546  0.69272758  1.0
  H  H19  1  0.06973362  0.27439287  0.39341822  1.0
  C  C20  1  0.50845647  0.49122731  0.34698564  1.0
  C  C21  1  0.29219967  0.49396271  0.49139936  1.0
  C  C22  1  0.48956665  0.51048708  0.65099940  1.0
  C  C23  1  0.70645643  0.50331729  0.51161078  1.0
  C  C24  1  0.44353948  0.75958741  0.47078973  1.0
  C  C25  1  0.44363646  0.84603950  0.47281185  1.0
  C  C26  1  0.52647244  0.89429090  0.51370899  1.0
  C  C27  1  0.60448834  0.85428399  0.54930672  1.0
  C  C28  1  0.60106551  0.76551963  0.54131769  1.0
  C  C29  1  0.41960563  0.14461239  0.43683200  1.0
  C  C30  1  0.48596971  0.10675982  0.48512766  1.0
  C  C31  1  0.55400257  0.15702187  0.53812632  1.0
  C  C32  1  0.55106411  0.24331866  0.53961478  1.0
  C  C33  1  0.42034968  0.23314584  0.44304816  1.0
  C  C34  1  0.50790898  0.48513908  0.26091589  1.0
  C  C35  1  0.50500861  0.55913385  0.22221349  1.0
  C  C36  1  0.50312059  0.55645259  0.14188061  1.0
  C  C37  1  0.50325778  0.47721169  0.09767026  1.0
  C  C38  1  0.50601443  0.40303920  0.13425699  1.0
  C  C39  1  0.50918871  0.40589106  0.21588459  1.0
  C  C40  1  0.50308655  0.59710832  0.86406775  1.0
  C  C41  1  0.49753506  0.52230353  0.90011738  1.0
  C  C42  1  0.48878711  0.44314823  0.85542132  1.0
  C  C43  1  0.48564196  0.44112989  0.77511925  1.0
  C  C44  1  0.49188019  0.51579192  0.73699717  1.0
  C  C45  1  0.50111731  0.59502666  0.78250026  1.0
  C  C46  1  0.10174950  0.42519629  0.50694801  1.0
  C  C47  1  0.89453780  0.56989626  0.50765970  1.0
  C  C48  1  0.17674761  0.49115068  0.49959410  1.0
  C  C49  1  0.82138134  0.50313063  0.51265914  1.0
  C  C50  1  0.99687182  0.54142216  0.50675614  1.0
  C  C51  1  0.99893909  0.45368827  0.51110004  1.0
  S  S52  1  0.12141137  0.58756313  0.49993082  1.0
  S  S53  1  0.87511373  0.40636965  0.51734795  1.0
  S  S54  1  0.11952489  0.31647460  0.51010968  1.0
  N  N55  1  0.52002651  0.71937604  0.50442729  1.0
  N  N56  1  0.53713513  0.98384052  0.52193247  1.0
  N  N57  1  0.47734122  0.01722098  0.47680224  1.0
  N  N58  1  0.48604666  0.28116583  0.49301410  1.0
  N  N59  1  0.50042646  0.46560575  0.01515633  1.0
  N  N60  1  0.50119286  0.53350341  0.98256824  1.0
  O  O61  1  0.51841452  0.42256706  0.38007632  1.0
  O  O62  1  0.49894508  0.56284470  0.38447654  1.0
  O  O63  1  0.33842395  0.56714864  0.50342890  1.0
  O  O64  1  0.33649115  0.42578199  0.47298605  1.0
  O  O65  1  0.50241595  0.58060049  0.61885001  1.0
  O  O66  1  0.47560239  0.43865258  0.61244801  1.0
  O  O67  1  0.65650114  0.43239241  0.51455315  1.0
  O  O68  1  0.66448036  0.57346323  0.50605942  1.0
  O  O69  1  0.68004151  0.72803964  0.57112467  1.0
  O  O70  1  0.35501485  0.26860199  0.39749154  1.0
  O  O71  1  0.51268975  0.33247705  0.24829878  1.0
  O  O72  1  0.50804439  0.66907947  0.75055257  1.0
  O  O73  1  0.13826285  0.28597490  0.41928484  1.0
  O  O74  1  0.21401291  0.30243484  0.55019367  1.0
  O  O75  1  0.01964224  0.27871176  0.53118211  1.0
