# generated using pymatgen
data_AlH6C13O5F2
_symmetry_space_group_name_H-M   'P 1'
_cell_length_a   6.70519613
_cell_length_b   11.20493738
_cell_length_c   17.77858080
_cell_angle_alpha   90.09507180
_cell_angle_beta   100.60715614
_cell_angle_gamma   107.15541884
_symmetry_Int_Tables_number   1
_chemical_formula_structural   AlH6C13O5F2
_chemical_formula_sum   'Al2 H12 C26 O10 F4'
_cell_volume   1252.26159149
_cell_formula_units_Z   2
loop_
 _symmetry_equiv_pos_site_id
 _symmetry_equiv_pos_as_xyz
  1  'x, y, z'
loop_
 _atom_site_type_symbol
 _atom_site_label
 _atom_site_symmetry_multiplicity
 _atom_site_fract_x
 _atom_site_fract_y
 _atom_site_fract_z
 _atom_site_occupancy
  Al  Al0  1  0.99536308  0.50091328  0.49577664  1.0
  Al  Al1  1  0.49457585  0.49915219  0.49563307  1.0
  H  H2  1  0.14549746  0.36740448  0.43143781  1.0
  H  H3  1  0.83977863  0.64145937  0.54969894  1.0
  H  H4  1  0.04591316  0.50764309  0.72777289  1.0
  H  H5  1  0.11836938  0.51217779  0.87107603  1.0
  H  H6  1  0.64758264  0.44349846  0.72568008  1.0
  H  H7  1  0.32940222  0.53617325  0.26482782  1.0
  H  H8  1  0.95464640  0.50658437  0.26406895  1.0
  H  H9  1  0.88074271  0.49816351  0.12074846  1.0
  H  H10  1  0.10910878  0.12840017  0.53296865  1.0
  H  H11  1  0.28836227  0.13316555  0.62135783  1.0
  H  H12  1  0.16229905  0.89836029  0.62056488  1.0
  H  H13  1  0.98400768  0.89281963  0.53144246  1.0
  C  C14  1  0.63388757  0.27455325  0.49095354  1.0
  C  C15  1  0.68459474  0.51526859  0.35792927  1.0
  C  C16  1  0.35537452  0.72547556  0.49435111  1.0
  C  C17  1  0.30476976  0.48303001  0.63317140  1.0
  C  C18  1  0.34173945  0.47628012  0.71817070  1.0
  C  C19  1  0.19214264  0.49398761  0.75936869  1.0
  C  C20  1  0.23275665  0.49692349  0.83885441  1.0
  C  C21  1  0.42422874  0.48124120  0.87984430  1.0
  C  C22  1  0.56729146  0.45936590  0.83637466  1.0
  C  C23  1  0.53096005  0.45764927  0.75725539  1.0
  C  C24  1  0.47293327  0.49017522  0.96061684  1.0
  C  C25  1  0.51479121  0.50188539  0.03049014  1.0
  C  C26  1  0.56342253  0.51219502  0.11126547  1.0
  C  C27  1  0.41364349  0.52539273  0.15427168  1.0
  C  C28  1  0.45055032  0.52889780  0.23338422  1.0
  C  C29  1  0.64694592  0.52076186  0.27289054  1.0
  C  C30  1  0.80282704  0.51187054  0.23210946  1.0
  C  C31  1  0.76167796  0.50709581  0.15261021  1.0
  C  C32  1  0.56077494  0.13548083  0.48798610  1.0
  C  C33  1  0.42110290  0.86366364  0.48890582  1.0
  C  C34  1  0.38888455  0.06937703  0.52026650  1.0
  C  C35  1  0.59158367  0.92924400  0.45443305  1.0
  C  C36  1  0.32119220  0.93929938  0.52029374  1.0
  C  C37  1  0.65814926  0.06004984  0.45378768  1.0
  C  C38  1  0.22399575  0.08501930  0.56426193  1.0
  C  C39  1  0.14565886  0.93708316  0.56379816  1.0
  O  O40  1  0.83057007  0.32855100  0.49382903  1.0
  O  O41  1  0.52953806  0.51306715  0.39056891  1.0
  O  O42  1  0.49882989  0.67130666  0.49905574  1.0
  O  O43  1  0.12412253  0.49171066  0.60048349  1.0
  O  O44  1  0.16027167  0.67376542  0.49651382  1.0
  O  O45  1  0.45866690  0.48307715  0.60042848  1.0
  O  O46  1  0.49056144  0.32766233  0.49153962  1.0
  O  O47  1  0.86691232  0.50930330  0.39076556  1.0
  O  O48  1  0.20146783  0.44747487  0.46036978  1.0
  O  O49  1  0.78856544  0.55436972  0.53099840  1.0
  F  F50  1  0.75066441  0.44102463  0.87453705  1.0
  F  F51  1  0.22314442  0.53293781  0.11538268  1.0
  F  F52  1  0.69624022  0.86739231  0.41834382  1.0
  F  F53  1  0.81948053  0.11180678  0.41648058  1.0
