# generated using pymatgen
data_Zn3Si2H30(C16O5)2
_symmetry_space_group_name_H-M   'P 1'
_cell_length_a   6.24271217
_cell_length_b   12.22923299
_cell_length_c   14.10285127
_cell_angle_alpha   111.71131595
_cell_angle_beta   96.39393435
_cell_angle_gamma   103.65673797
_symmetry_Int_Tables_number   1
_chemical_formula_structural   Zn3Si2H30(C16O5)2
_chemical_formula_sum   'Zn3 Si2 H30 C32 O10'
_cell_volume   948.16649919
_cell_formula_units_Z   1
loop_
 _symmetry_equiv_pos_site_id
 _symmetry_equiv_pos_as_xyz
  1  'x, y, z'
loop_
 _atom_site_type_symbol
 _atom_site_label
 _atom_site_symmetry_multiplicity
 _atom_site_fract_x
 _atom_site_fract_y
 _atom_site_fract_z
 _atom_site_occupancy
  Zn  Zn0  1  0.49999304  0.49999673  0.00000059  1.0
  Zn  Zn1  1  0.93597701  0.43848421  0.88271717  1.0
  Zn  Zn2  1  0.06400093  0.56150074  0.11727331  1.0
  Si  Si3  1  0.24596669  0.75438147  0.51550695  1.0
  Si  Si4  1  0.75405303  0.24562044  0.48449993  1.0
  H  H5  1  0.26290259  0.64328777  0.99286181  1.0
  H  H6  1  0.73707068  0.35668974  0.00712395  1.0
  H  H7  1  0.54436583  0.96307925  0.70252488  1.0
  H  H8  1  0.45562518  0.03691905  0.29747432  1.0
  H  H9  1  0.52303773  0.16813813  0.81621436  1.0
  H  H10  1  0.47695934  0.83186220  0.18377631  1.0
  H  H11  1  0.84553664  0.07939438  0.64574270  1.0
  H  H12  1  0.15445011  0.92060036  0.35425197  1.0
  H  H13  1  0.86953531  0.87608141  0.52791783  1.0
  H  H14  1  0.13045492  0.12390769  0.47207946  1.0
  H  H15  1  0.62213341  0.63849330  0.52076223  1.0
  H  H16  1  0.37790605  0.36153469  0.47925399  1.0
  H  H17  1  0.78617182  0.56364340  0.64416551  1.0
  H  H18  1  0.21388655  0.43639292  0.35585691  1.0
  H  H19  1  0.32807107  0.67449493  0.83995308  1.0
  H  H20  1  0.67195467  0.32552873  0.16006570  1.0
  H  H21  1  0.15971700  0.74722511  0.71616757  1.0
  H  H22  1  0.84028514  0.25277218  0.28383216  1.0
  H  H23  1  0.86066300  0.67948313  0.40109970  1.0
  H  H24  1  0.13934249  0.32050730  0.59889759  1.0
  H  H25  1  0.88372280  0.58284514  0.46812025  1.0
  H  H26  1  0.11628287  0.41714504  0.53188057  1.0
  H  H27  1  0.01247700  0.57163758  0.36049599  1.0
  H  H28  1  0.98753567  0.42835214  0.63950321  1.0
  H  H29  1  0.32909614  0.78159687  0.35781902  1.0
  H  H30  1  0.67087939  0.21838187  0.64217270  1.0
  H  H31  1  0.51551999  0.71145422  0.39802091  1.0
  H  H32  1  0.48447952  0.28854003  0.60197384  1.0
  H  H33  1  0.56342691  0.87410374  0.46387567  1.0
  H  H34  1  0.43655828  0.12588985  0.53610835  1.0
  C  C35  1  0.20887689  0.90413378  0.60493479  1.0
  C  C36  1  0.79113308  0.09586082  0.39506098  1.0
  C  C37  1  0.39068094  0.98800144  0.68843339  1.0
  C  C38  1  0.60932131  0.01199645  0.31156601  1.0
  C  C39  1  0.37925715  0.10294914  0.75360501  1.0
  C  C40  1  0.62074550  0.89705493  0.24638653  1.0
  C  C41  1  0.18270432  0.13685647  0.73844256  1.0
  C  C42  1  0.81728880  0.86313772  0.26154946  1.0
  C  C43  1  0.99836053  0.05329732  0.65750065  1.0
  C  C44  1  0.00163958  0.94669288  0.34248705  1.0
  C  C45  1  0.01298210  0.93889741  0.59157341  1.0
  C  C46  1  0.98702199  0.06109017  0.40842096  1.0
  C  C47  1  0.17649995  0.26237828  0.80710705  1.0
  C  C48  1  0.82347148  0.73761306  0.19288644  1.0
  C  C49  1  0.37804494  0.69797153  0.60826982  1.0
  C  C50  1  0.62195622  0.30204382  0.39173534  1.0
  C  C51  1  0.55588424  0.64651896  0.59041098  1.0
  C  C52  1  0.44413473  0.35350222  0.40960067  1.0
  C  C53  1  0.64961320  0.60457391  0.65961353  1.0
  C  C54  1  0.35044132  0.39546271  0.34040456  1.0
  C  C55  1  0.56912317  0.61527388  0.75046500  1.0
  C  C56  1  0.43091368  0.38474814  0.24954892  1.0
  C  C57  1  0.39153696  0.66687497  0.76963121  1.0
  C  C58  1  0.60848188  0.33314852  0.23037809  1.0
  C  C59  1  0.29722239  0.70697391  0.69940523  1.0
  C  C60  1  0.70278653  0.29303668  0.30059478  1.0
  C  C61  1  0.66844328  0.57206673  0.82619366  1.0
  C  C62  1  0.33155871  0.42794262  0.17382142  1.0
  C  C63  1  0.97409524  0.63652487  0.42963877  1.0
  C  C64  1  0.02591591  0.36346845  0.57036325  1.0
  C  C65  1  0.43360239  0.78399647  0.42702174  1.0
  C  C66  1  0.56638888  0.21599307  0.57297407  1.0
  O  O67  1  0.20892623  0.56328219  0.99557024  1.0
  O  O68  1  0.79104618  0.43669755  0.00441785  1.0
  O  O69  1  0.36196640  0.34186289  0.86173059  1.0
  O  O70  1  0.63798993  0.65813540  0.13827337  1.0
  O  O71  1  0.98060379  0.28071547  0.80407096  1.0
  O  O72  1  0.01935192  0.71926177  0.19590076  1.0
  O  O73  1  0.80418427  0.50757921  0.79562411  1.0
  O  O74  1  0.19581770  0.49242953  0.20438559  1.0
  O  O75  1  0.61703614  0.60124772  0.91468926  1.0
  O  O76  1  0.38291684  0.39875097  0.08531711  1.0
