# generated using pymatgen
data_CoH17C30(NO2)3
_symmetry_space_group_name_H-M   'P 1'
_cell_length_a   10.03523270
_cell_length_b   12.45920561
_cell_length_c   29.39013461
_cell_angle_alpha   89.99853070
_cell_angle_beta   89.99881912
_cell_angle_gamma   109.97559286
_symmetry_Int_Tables_number   1
_chemical_formula_structural   CoH17C30(NO2)3
_chemical_formula_sum   'Co4 H68 C120 N12 O24'
_cell_volume   3453.60355433
_cell_formula_units_Z   4
loop_
 _symmetry_equiv_pos_site_id
 _symmetry_equiv_pos_as_xyz
  1  'x, y, z'
loop_
 _atom_site_type_symbol
 _atom_site_label
 _atom_site_symmetry_multiplicity
 _atom_site_fract_x
 _atom_site_fract_y
 _atom_site_fract_z
 _atom_site_occupancy
  Co  Co0  1  0.04355967  0.36151115  0.05956781  1.0
  Co  Co1  1  0.45644627  0.63849691  0.55957165  1.0
  Co  Co2  1  0.95644108  0.63849189  0.94043571  1.0
  Co  Co3  1  0.54356557  0.36150644  0.44043120  1.0
  H  H4  1  0.40406901  0.85591149  0.80807749  1.0
  H  H5  1  0.09590999  0.14407118  0.30807059  1.0
  H  H6  1  0.59590789  0.14408918  0.19191821  1.0
  H  H7  1  0.90407397  0.85596852  0.69191218  1.0
  H  H8  1  0.71925137  0.27436108  0.95533000  1.0
  H  H9  1  0.78076105  0.72562352  0.45533160  1.0
  H  H10  1  0.28075076  0.72563777  0.04466706  1.0
  H  H11  1  0.21925179  0.27437985  0.54466615  1.0
  H  H12  1  0.30151949  0.30290172  0.94820688  1.0
  H  H13  1  0.19849466  0.69708311  0.44821109  1.0
  H  H14  1  0.69847361  0.69709181  0.05179120  1.0
  H  H15  1  0.80152051  0.30292371  0.55179243  1.0
  H  H16  1  0.54038164  0.38027620  0.07208471  1.0
  H  H17  1  0.95962169  0.61973538  0.57209180  1.0
  H  H18  1  0.45961050  0.61971224  0.92791405  1.0
  H  H19  1  0.04038201  0.38027533  0.42791241  1.0
  H  H20  1  0.34085990  0.32276519  0.87868976  1.0
  H  H21  1  0.15915715  0.67721615  0.37868530  1.0
  H  H22  1  0.65912579  0.67722982  0.12131241  1.0
  H  H23  1  0.84085337  0.32278379  0.62131278  1.0
  H  H24  1  0.32139139  0.26178729  0.79906992  1.0
  H  H25  1  0.17861494  0.73820280  0.29906259  1.0
  H  H26  1  0.67860931  0.73822080  0.20093021  1.0
  H  H27  1  0.82139481  0.26180808  0.70093481  1.0
  H  H28  1  0.63827520  0.10471481  0.82170614  1.0
  H  H29  1  0.86172765  0.89527036  0.32170558  1.0
  H  H30  1  0.36171113  0.89528444  0.17829535  1.0
  H  H31  1  0.13827879  0.10473452  0.67829420  1.0
  H  H32  1  0.64790315  0.15638179  0.90213076  1.0
  H  H33  1  0.85210865  0.84359535  0.40213051  1.0
  H  H34  1  0.35208055  0.84361063  0.09787039  1.0
  H  H35  1  0.14789716  0.15640530  0.59786961  1.0
  H  H36  1  0.46107057  0.32111235  0.73927520  1.0
  H  H37  1  0.03893402  0.67887669  0.23927296  1.0
  H  H38  1  0.53892204  0.67889805  0.26072288  1.0
  H  H39  1  0.96107253  0.32111553  0.76072886  1.0
  H  H40  1  0.70266571  0.02958000  0.62720126  1.0
  H  H41  1  0.79736220  0.97040834  0.12719421  1.0
  H  H42  1  0.29735853  0.97042708  0.37279615  1.0
  H  H43  1  0.20263847  0.02956599  0.87279230  1.0
  H  H44  1  0.67410059  0.85584189  0.57996288  1.0
  H  H45  1  0.82591121  0.14415409  0.07995803  1.0
  H  H46  1  0.32590925  0.14415887  0.42003452  1.0
  H  H47  1  0.17409237  0.85583299  0.92003495  1.0
  H  H48  1  0.27748349  0.68577968  0.63445295  1.0
  H  H49  1  0.22251231  0.31423207  0.13445105  1.0
  H  H50  1  0.72251721  0.31422841  0.36554275  1.0
  H  H51  1  0.77747505  0.68576468  0.86555690  1.0
  H  H52  1  0.29609202  0.84654785  0.68784303  1.0
  H  H53  1  0.20390587  0.15345704  0.18784442  1.0
  H  H54  1  0.70391773  0.15346303  0.31215301  1.0
  H  H55  1  0.79607856  0.84652949  0.81216183  1.0
  H  H56  1  0.57622685  0.28112252  0.59072822  1.0
  H  H57  1  0.92375225  0.71888346  0.09072985  1.0
  H  H58  1  0.42377622  0.71888395  0.40927293  1.0
  H  H59  1  0.07623943  0.28111931  0.90927163  1.0
  H  H60  1  0.55848467  0.44097040  0.54335843  1.0
  H  H61  1  0.94149788  0.55903704  0.04336104  1.0
  H  H62  1  0.44151770  0.55903943  0.45664441  1.0
  H  H63  1  0.05851972  0.44096057  0.95664079  1.0
  H  H64  1  0.30462120  0.52228476  0.63920094  1.0
  H  H65  1  0.19538131  0.47771666  0.13919503  1.0
  H  H66  1  0.69536951  0.47771293  0.36080361  1.0
  H  H67  1  0.80462297  0.52226705  0.86080986  1.0
  H  H68  1  0.32323107  0.37329623  0.69238621  1.0
  H  H69  1  0.17676542  0.62670319  0.19237674  1.0
  H  H70  1  0.67676604  0.62669994  0.30761800  1.0
  H  H71  1  0.82322735  0.37328949  0.80762543  1.0
  C  C72  1  0.76730244  0.32902076  0.04381379  1.0
  C  C73  1  0.73270512  0.67096625  0.54381755  1.0
  C  C74  1  0.23270166  0.67098322  0.95618225  1.0
  C  C75  1  0.26730461  0.32904717  0.45617815  1.0
  C  C76  1  0.64063249  0.32506446  0.01618664  1.0
  C  C77  1  0.85937884  0.67494350  0.51619079  1.0
  C  C78  1  0.35936587  0.67494273  0.98381144  1.0
  C  C79  1  0.14062155  0.32506121  0.48380798  1.0
  C  C80  1  0.62993134  0.29201944  0.97050744  1.0
  C  C81  1  0.87007823  0.70797312  0.47051197  1.0
  C  C82  1  0.37007105  0.70798786  0.02948929  1.0
  C  C83  1  0.12992697  0.29202075  0.52948645  1.0
  C  C84  1  0.50832962  0.28263996  0.94492656  1.0
  C  C85  1  0.99168068  0.71735304  0.44492806  1.0
  C  C86  1  0.49166681  0.71735705  0.05507424  1.0
  C  C87  1  0.00832886  0.28264433  0.55507241  1.0
  C  C88  1  0.39938913  0.31092004  0.96613766  1.0
  C  C89  1  0.10061762  0.68906395  0.46613860  1.0
  C  C90  1  0.60060726  0.68908202  0.03386178  1.0
  C  C91  1  0.89939956  0.31094292  0.53386527  1.0
  C  C92  1  0.41167902  0.34795254  0.01134355  1.0
  C  C93  1  0.08833277  0.65206048  0.51135130  1.0
  C  C94  1  0.58831408  0.65204099  0.98865623  1.0
  C  C95  1  0.91167799  0.34795043  0.48865529  1.0
  C  C96  1  0.53191106  0.35396283  0.03657127  1.0
  C  C97  1  0.96808897  0.64603975  0.53657664  1.0
  C  C98  1  0.46808434  0.64603667  0.96342681  1.0
  C  C99  1  0.03190612  0.35395637  0.46342382  1.0
  C  C100  1  0.29401187  0.37475772  0.03397592  1.0
  C  C101  1  0.20598750  0.62523958  0.53398311  1.0
  C  C102  1  0.70599648  0.62525988  0.96602488  1.0
  C  C103  1  0.79398783  0.37474922  0.46602450  1.0
  C  C104  1  0.49602734  0.24468758  0.89703047  1.0
  C  C105  1  0.00397587  0.75529438  0.39703002  1.0
  C  C106  1  0.50396668  0.75531610  0.10296965  1.0
  C  C107  1  0.99602365  0.24469511  0.60297078  1.0
  C  C108  1  0.40420661  0.27266416  0.86677458  1.0
  C  C109  1  0.09579615  0.72731184  0.36677173  1.0
  C  C110  1  0.59579177  0.72734049  0.13322418  1.0
  C  C111  1  0.90421238  0.27268551  0.63322737  1.0
  C  C112  1  0.39531745  0.24016757  0.82140277  1.0
  C  C113  1  0.10468586  0.75981301  0.32139813  1.0
  C  C114  1  0.60468262  0.75983629  0.17859565  1.0
  C  C115  1  0.89531861  0.24018675  0.67859996  1.0
  C  C116  1  0.47934390  0.17953656  0.80395375  1.0
  C  C117  1  0.02065506  0.82043774  0.30394871  1.0
  C  C118  1  0.52066684  0.82047689  0.19604434  1.0
  C  C119  1  0.97933471  0.17955232  0.69604734  1.0
  C  C120  1  0.56939273  0.14969208  0.83414807  1.0
  C  C121  1  0.93061336  0.85028794  0.33414615  1.0
  C  C122  1  0.43059894  0.85031070  0.16585172  1.0
  C  C123  1  0.06939179  0.14971099  0.66585262  1.0
  C  C124  1  0.57659588  0.18090652  0.87973868  1.0
  C  C125  1  0.92340864  0.81906887  0.37973784  1.0
  C  C126  1  0.42339514  0.81909455  0.12026043  1.0
  C  C127  1  0.07659956  0.18092762  0.62026229  1.0
  C  C128  1  0.47857383  0.15764172  0.75468394  1.0
  C  C129  1  0.02143704  0.84234792  0.25467967  1.0
  C  C130  1  0.52143128  0.84236228  0.24531653  1.0
  C  C131  1  0.97857819  0.15765130  0.74531842  1.0
  C  C132  1  0.46839144  0.24262865  0.72507731  1.0
  C  C133  1  0.03160476  0.75735964  0.22507425  1.0
  C  C134  1  0.53160525  0.75737680  0.27492214  1.0
  C  C135  1  0.96839143  0.24262638  0.77492860  1.0
  C  C136  1  0.47504612  0.23042328  0.67799216  1.0
  C  C137  1  0.02494237  0.76957118  0.17799072  1.0
  C  C138  1  0.52495829  0.76958407  0.32200864  1.0
  C  C139  1  0.97504407  0.23041541  0.82201349  1.0
  C  C140  1  0.50158715  0.05490629  0.68674870  1.0
  C  C141  1  0.99842468  0.94508599  0.18674319  1.0
  C  C142  1  0.49843069  0.94510229  0.31325142  1.0
  C  C143  1  0.00157118  0.05489918  0.81325660  1.0
  C  C144  1  0.49288313  0.05900586  0.73465084  1.0
  C  C145  1  0.00713970  0.94098577  0.23464388  1.0
  C  C146  1  0.50712568  0.94099740  0.26535303  1.0
  C  C147  1  0.99288029  0.05900768  0.76535353  1.0
  C  C148  1  0.50241275  0.96118654  0.76250241  1.0
  C  C149  1  0.99760777  0.03880146  0.26249611  1.0
  C  C150  1  0.49758765  0.03881817  0.23750555  1.0
  C  C151  1  0.00239176  0.96118803  0.73750163  1.0
  C  C152  1  0.50164307  0.95122701  0.66172885  1.0
  C  C153  1  0.99837174  0.04877163  0.16172516  1.0
  C  C154  1  0.49837175  0.04878149  0.33827127  1.0
  C  C155  1  0.00162046  0.95120921  0.83827496  1.0
  C  C156  1  0.60847357  0.95374335  0.63074628  1.0
  C  C157  1  0.89154349  0.04625621  0.13074204  1.0
  C  C158  1  0.39153686  0.04626671  0.36925112  1.0
  C  C159  1  0.10846283  0.95372503  0.86924788  1.0
  C  C160  1  0.59251852  0.85827259  0.60398109  1.0
  C  C161  1  0.90748597  0.14172375  0.10397703  1.0
  C  C162  1  0.40749227  0.14173580  0.39601700  1.0
  C  C163  1  0.09251259  0.85826065  0.89601799  1.0
  C  C164  1  0.37267536  0.76119522  0.63569138  1.0
  C  C165  1  0.12731691  0.23882308  0.13569135  1.0
  C  C166  1  0.62733102  0.23881725  0.36430535  1.0
  C  C167  1  0.87266740  0.76117611  0.86431115  1.0
  C  C168  1  0.38314200  0.85153844  0.66474650  1.0
  C  C169  1  0.11685739  0.14846671  0.16474382  1.0
  C  C170  1  0.61686534  0.14847913  0.33525124  1.0
  C  C171  1  0.88312809  0.85151479  0.83525562  1.0
  C  C172  1  0.45905127  0.31829910  0.64697350  1.0
  C  C173  1  0.04095253  0.68170172  0.14697360  1.0
  C  C174  1  0.54095517  0.68170578  0.35302866  1.0
  C  C175  1  0.95904733  0.31828863  0.85303265  1.0
  C  C176  1  0.51933405  0.33536797  0.60341469  1.0
  C  C177  1  0.98065098  0.66462954  0.10341549  1.0
  C  C178  1  0.48066503  0.66463333  0.39658577  1.0
  C  C179  1  0.01934488  0.33535562  0.89658463  1.0
  C  C180  1  0.50798434  0.42363493  0.57660627  1.0
  C  C181  1  0.99198874  0.57636613  0.07660593  1.0
  C  C182  1  0.49201066  0.57637132  0.42339590  1.0
  C  C183  1  0.00801583  0.42362350  0.92339318  1.0
  C  C184  1  0.36887445  0.47022895  0.63084649  1.0
  C  C185  1  0.13111672  0.52977536  0.13084047  1.0
  C  C186  1  0.63111957  0.52977473  0.36915772  1.0
  C  C187  1  0.86888304  0.47022511  0.86916101  1.0
  C  C188  1  0.37989959  0.38678384  0.66011183  1.0
  C  C189  1  0.12009020  0.61321635  0.16010973  1.0
  C  C190  1  0.62009046  0.61321214  0.33988863  1.0
  C  C191  1  0.87990520  0.38678315  0.83989788  1.0
  N  N192  1  0.49569247  0.13883497  0.65917710  1.0
  N  N193  1  0.00429447  0.86115508  0.15917479  1.0
  N  N194  1  0.50431700  0.86117000  0.34082098  1.0
  N  N195  1  0.99567656  0.13882515  0.84082397  1.0
  N  N196  1  0.47504285  0.76371626  0.60541960  1.0
  N  N197  1  0.02495883  0.23628285  0.10541764  1.0
  N  N198  1  0.52496833  0.23628539  0.39457474  1.0
  N  N199  1  0.97503699  0.76370738  0.89458078  1.0
  N  N200  1  0.43570632  0.49157570  0.59029612  1.0
  N  N201  1  0.06427962  0.50842673  0.09029186  1.0
  N  N202  1  0.56429204  0.50843148  0.40970911  1.0
  N  N203  1  0.93572032  0.49155349  0.90970861  1.0
  O  O204  1  0.87737559  0.32708572  0.02057703  1.0
  O  O205  1  0.62263438  0.67291424  0.52058396  1.0
  O  O206  1  0.12262079  0.67291635  0.97941663  1.0
  O  O207  1  0.37736869  0.32709223  0.47941515  1.0
  O  O208  1  0.76551012  0.33385069  0.08632872  1.0
  O  O209  1  0.73447841  0.66612469  0.58633252  1.0
  O  O210  1  0.23449834  0.66615425  0.91366732  1.0
  O  O211  1  0.26550606  0.33385678  0.41366250  1.0
  O  O212  1  0.17654908  0.35407257  0.01141311  1.0
  O  O213  1  0.32345163  0.64593760  0.51142057  1.0
  O  O214  1  0.82346422  0.64595530  0.98858803  1.0
  O  O215  1  0.67655244  0.35406890  0.48859759  1.0
  O  O216  1  0.30592700  0.41126852  0.07426981  1.0
  O  O217  1  0.19408094  0.58873669  0.57427851  1.0
  O  O218  1  0.69408057  0.58872373  0.92573508  1.0
  O  O219  1  0.80588832  0.41125447  0.42572910  1.0
  O  O220  1  0.60142323  0.92513116  0.76071831  1.0
  O  O221  1  0.89857865  0.07485477  0.26070315  1.0
  O  O222  1  0.39856101  0.07487563  0.23928760  1.0
  O  O223  1  0.10141792  0.92512704  0.73928847  1.0
  O  O224  1  0.38848173  0.91683900  0.79001502  1.0
  O  O225  1  0.11152136  0.08315935  0.29000665  1.0
  O  O226  1  0.61149507  0.08317433  0.20998952  1.0
  O  O227  1  0.88849257  0.91687276  0.70998701  1.0
