# generated using pymatgen
data_Zn4H12C18N6O13
_symmetry_space_group_name_H-M   'P 1'
_cell_length_a   15.89851496
_cell_length_b   16.02994596
_cell_length_c   18.25331439
_cell_angle_alpha   68.94345243
_cell_angle_beta   65.72250657
_cell_angle_gamma   64.36127752
_symmetry_Int_Tables_number   1
_chemical_formula_structural   Zn4H12C18N6O13
_chemical_formula_sum   'Zn8 H24 C36 N12 O26'
_cell_volume   3728.71060293
_cell_formula_units_Z   2
loop_
 _symmetry_equiv_pos_site_id
 _symmetry_equiv_pos_as_xyz
  1  'x, y, z'
loop_
 _atom_site_type_symbol
 _atom_site_label
 _atom_site_symmetry_multiplicity
 _atom_site_fract_x
 _atom_site_fract_y
 _atom_site_fract_z
 _atom_site_occupancy
  Zn  Zn0  1  0.00623691  0.89683071  0.09186661  1.0
  Zn  Zn1  1  0.07160084  0.08582999  0.00460577  1.0
  Zn  Zn2  1  0.84844079  0.10217175  0.09578933  1.0
  Zn  Zn3  1  0.96096300  0.03168264  0.92390478  1.0
  Zn  Zn4  1  0.39632091  0.65044424  0.51535097  1.0
  Zn  Zn5  1  0.42163296  0.47420177  0.46232708  1.0
  Zn  Zn6  1  0.42229827  0.45133488  0.64371827  1.0
  Zn  Zn7  1  0.60636223  0.48787171  0.48913255  1.0
  H  H8  1  0.31135869  0.90688497  0.11139994  1.0
  H  H9  1  0.31489753  0.79736904  0.10313096  1.0
  H  H10  1  0.16213848  0.87011627  0.39710590  1.0
  H  H11  1  0.33808831  0.67663178  0.23196780  1.0
  H  H12  1  0.73490181  0.96385256  0.35162910  1.0
  H  H13  1  0.82946128  0.84947880  0.35163759  1.0
  H  H14  1  0.50075322  0.88886330  0.32115494  1.0
  H  H15  1  0.76357536  0.71812977  0.39473707  1.0
  H  H16  1  0.96493276  0.75815909  0.91121599  1.0
  H  H17  1  0.04037360  0.67812297  0.97641873  1.0
  H  H18  1  0.24184065  0.84129009  0.69657326  1.0
  H  H19  1  0.16795333  0.59144458  0.85711041  1.0
  H  H20  1  0.91552931  0.38430190  0.04587600  1.0
  H  H21  1  0.96461388  0.32784093  0.12989521  1.0
  H  H22  1  0.58303471  0.43371102  0.20300473  1.0
  H  H23  1  0.84440379  0.34704785  0.27162143  1.0
  H  H24  1  0.23763445  0.01547476  0.72261766  1.0
  H  H25  1  0.30442840  0.01599923  0.78146369  1.0
  H  H26  1  0.22466813  0.29919262  0.54089625  1.0
  H  H27  1  0.32448382  0.18151379  0.75695595  1.0
  H  H28  1  0.68515432  0.32965410  0.94063841  1.0
  H  H29  1  0.62585660  0.25249303  0.95191590  1.0
  H  H30  1  0.81840952  0.38303511  0.65131342  1.0
  H  H31  1  0.57574557  0.29165738  0.83034238  1.0
  C  C32  1  0.17807200  0.91003785  0.10466796  1.0
  C  C33  1  0.27011636  0.85837912  0.13228807  1.0
  C  C34  1  0.19990177  0.83669426  0.34474180  1.0
  C  C35  1  0.26045832  0.74090593  0.34357253  1.0
  C  C36  1  0.28990143  0.73552424  0.26181498  1.0
  C  C37  1  0.29878769  0.66633267  0.40834704  1.0
  C  C38  1  0.82754208  0.93856976  0.23126467  1.0
  C  C39  1  0.77485897  0.90340888  0.32170641  1.0
  C  C40  1  0.57102012  0.86174575  0.33217930  1.0
  C  C41  1  0.61742922  0.76921989  0.37325372  1.0
  C  C42  1  0.70518155  0.77185846  0.37025440  1.0
  C  C43  1  0.57688282  0.69179322  0.41693293  1.0
  C  C44  1  0.00447217  0.82745628  0.96718674  1.0
  C  C45  1  0.02738580  0.74509731  0.93053877  1.0
  C  C46  1  0.21023138  0.79078948  0.74612346  1.0
  C  C47  1  0.23816723  0.69219624  0.75260349  1.0
  C  C48  1  0.17469176  0.66118540  0.82724883  1.0
  C  C49  1  0.31098961  0.63692672  0.69093244  1.0
  C  C50  1  0.93380299  0.23671816  0.08892118  1.0
  C  C51  1  0.90953844  0.33300063  0.10543764  1.0
  C  C52  1  0.65746563  0.41004329  0.20468701  1.0
  C  C53  1  0.68813089  0.39518312  0.27258679  1.0
  C  C54  1  0.78976814  0.36653110  0.24192595  1.0
  C  C55  1  0.62620709  0.41257509  0.35503881  1.0
  C  C56  1  0.14848825  0.06826506  0.83365185  1.0
  C  C57  1  0.24053200  0.05525515  0.75871265  1.0
  C  C58  1  0.24200719  0.25679757  0.59766350  1.0
  C  C59  1  0.29053535  0.27307239  0.63866464  1.0
  C  C60  1  0.29394593  0.19868445  0.70794859  1.0
  C  C61  1  0.33465204  0.34707895  0.61035260  1.0
  C  C62  1  0.77464195  0.18477021  0.95091114  1.0
  C  C63  1  0.69419497  0.26890059  0.92002352  1.0
  C  C64  1  0.76752684  0.35544406  0.70620706  1.0
  C  C65  1  0.67801313  0.34881561  0.71357483  1.0
  C  C66  1  0.64254724  0.30873230  0.79650031  1.0
  C  C67  1  0.62394832  0.38550795  0.65372522  1.0
  N  N68  1  0.24857489  0.82333811  0.22046881  1.0
  N  N69  1  0.19252088  0.88669626  0.27009697  1.0
  N  N70  1  0.70610469  0.86105971  0.33059939  1.0
  N  N71  1  0.62489092  0.91734541  0.30607123  1.0
  N  N72  1  0.11519668  0.73854308  0.85953973  1.0
  N  N73  1  0.13570411  0.81887971  0.81094907  1.0
  N  N74  1  0.81334270  0.36602620  0.16179516  1.0
  N  N75  1  0.73330290  0.39312540  0.13734221  1.0
  N  N76  1  0.25088891  0.14418758  0.70428213  1.0
  N  N77  1  0.21743441  0.17902456  0.63763138  1.0
  N  N78  1  0.70829311  0.29438246  0.83259582  1.0
  N  N79  1  0.78520042  0.32363816  0.77855006  1.0
  O  O80  1  0.97347291  0.02865402  0.02839534  1.0
  O  O81  1  0.17155958  0.99228543  0.05870782  1.0
  O  O82  1  0.11978672  0.86443713  0.12798009  1.0
  O  O83  1  0.34641423  0.58318377  0.39377421  1.0
  O  O84  1  0.28525517  0.69045203  0.47324251  1.0
  O  O85  1  0.79561435  0.02726215  0.20280649  1.0
  O  O86  1  0.89885172  0.87639064  0.19388010  1.0
  O  O87  1  0.63389137  0.60978845  0.44191347  1.0
  O  O88  1  0.48539863  0.71448242  0.42762875  1.0
  O  O89  1  0.95020035  0.90780446  0.93812702  1.0
  O  O90  1  0.04100321  0.80733764  0.02432860  1.0
  O  O91  1  0.32866823  0.54723105  0.71067577  1.0
  O  O92  1  0.34947978  0.68462751  0.62121860  1.0
  O  O93  1  0.87081499  0.19545376  0.12682380  1.0
  O  O94  1  0.01732911  0.20796751  0.03675870  1.0
  O  O95  1  0.66683299  0.41928632  0.39954765  1.0
  O  O96  1  0.53654002  0.42044956  0.37459460  1.0
  O  O97  1  0.08203532  0.04279060  0.83601209  1.0
  O  O98  1  0.14903863  0.10151270  0.88711541  1.0
  O  O99  1  0.36234478  0.35843143  0.66178522  1.0
  O  O100  1  0.34256225  0.39343300  0.53560038  1.0
  O  O101  1  0.84297599  0.13401505  0.90189549  1.0
  O  O102  1  0.76170776  0.17496501  0.02678161  1.0
  O  O103  1  0.53799973  0.37939625  0.68224335  1.0
  O  O104  1  0.66515209  0.42205441  0.57952414  1.0
  O  O105  1  0.46443953  0.51331319  0.52765496  1.0
