# generated using pymatgen
data_ZnH14C29SN2O9
_symmetry_space_group_name_H-M   'P 1'
_cell_length_a   11.75658082
_cell_length_b   13.19362243
_cell_length_c   28.11012071
_cell_angle_alpha   89.52490544
_cell_angle_beta   84.97434100
_cell_angle_gamma   86.58110128
_symmetry_Int_Tables_number   1
_chemical_formula_structural   ZnH14C29SN2O9
_chemical_formula_sum   'Zn2 H28 C58 S2 N4 O18'
_cell_volume   4335.70029998
_cell_formula_units_Z   2
loop_
 _symmetry_equiv_pos_site_id
 _symmetry_equiv_pos_as_xyz
  1  'x, y, z'
loop_
 _atom_site_type_symbol
 _atom_site_label
 _atom_site_symmetry_multiplicity
 _atom_site_fract_x
 _atom_site_fract_y
 _atom_site_fract_z
 _atom_site_occupancy
  Zn  Zn0  1  0.61556681  0.50220623  0.49522193  1.0
  Zn  Zn1  1  0.38181574  0.49571567  0.50512034  1.0
  H  H2  1  0.67690644  0.50796047  0.34149333  1.0
  H  H3  1  0.32293950  0.46305064  0.66039460  1.0
  H  H4  1  0.44912696  0.75700913  0.12291987  1.0
  H  H5  1  0.58280384  0.25292414  0.87665078  1.0
  H  H6  1  0.67669717  0.52946341  0.64478322  1.0
  H  H7  1  0.31224558  0.49300711  0.35424250  1.0
  H  H8  1  0.67931193  0.53204761  0.73421067  1.0
  H  H9  1  0.31323618  0.49358680  0.26475434  1.0
  H  H10  1  0.43196163  0.75229603  0.87855846  1.0
  H  H11  1  0.53570870  0.24905432  0.12215509  1.0
  H  H12  1  0.42945103  0.75591475  0.96661719  1.0
  H  H13  1  0.54570354  0.24683168  0.03388111  1.0
  H  H14  1  0.45033554  0.75955273  0.03486907  1.0
  H  H15  1  0.57313227  0.24975829  0.96489981  1.0
  H  H16  1  0.35554352  0.17401972  0.51077607  1.0
  H  H17  1  0.64602669  0.82423439  0.48930923  1.0
  H  H18  1  0.72050045  0.17932171  0.48558757  1.0
  H  H19  1  0.28138372  0.81896012  0.51580758  1.0
  H  H20  1  0.26352215  0.00837753  0.51778100  1.0
  H  H21  1  0.73844837  0.98996435  0.48325905  1.0
  H  H22  1  0.77949506  0.62690503  0.43831199  1.0
  H  H23  1  0.21786700  0.37183676  0.56275471  1.0
  H  H24  1  0.00580438  0.34800886  0.57040146  1.0
  H  H25  1  0.99182010  0.64979908  0.43023865  1.0
  H  H26  1  0.80790361  0.40346117  0.54134509  1.0
  H  H27  1  0.18972217  0.59339289  0.45879460  1.0
  H  H28  1  0.82296437  0.61405515  0.27476172  1.0
  H  H29  1  0.13532644  0.48304305  0.72473711  1.0
  C  C30  1  0.47597450  0.69769709  0.50073856  1.0
  C  C31  1  0.52615341  0.30056842  0.49957233  1.0
  C  C32  1  0.49508561  0.50082207  0.40643343  1.0
  C  C33  1  0.49720695  0.49658840  0.59416327  1.0
  C  C34  1  0.47361883  0.59805586  0.17996339  1.0
  C  C35  1  0.54182264  0.40924452  0.82001029  1.0
  C  C36  1  0.50405519  0.40750816  0.17960093  1.0
  C  C37  1  0.48163191  0.59570055  0.82066009  1.0
  C  C38  1  0.39228726  0.49754185  0.28201375  1.0
  C  C39  1  0.60181484  0.51688548  0.71756840  1.0
  C  C40  1  0.39179946  0.49709729  0.33153737  1.0
  C  C41  1  0.60033529  0.51546548  0.66814598  1.0
  C  C42  1  0.59759377  0.50598050  0.32443063  1.0
  C  C43  1  0.40043088  0.47831255  0.67683402  1.0
  C  C44  1  0.59770937  0.50781350  0.27485356  1.0
  C  C45  1  0.40243768  0.47881507  0.72629848  1.0
  C  C46  1  0.49465290  0.50307352  0.25344503  1.0
  C  C47  1  0.50335716  0.49891321  0.74685321  1.0
  C  C48  1  0.49449745  0.50316816  0.10203018  1.0
  C  C49  1  0.50581918  0.50268428  0.89808327  1.0
  C  C50  1  0.47656476  0.59596463  0.12738362  1.0
  C  C51  1  0.53548552  0.41130738  0.87260255  1.0
  C  C52  1  0.46162901  0.68660884  0.10262095  1.0
  C  C53  1  0.55983856  0.32200351  0.89715271  1.0
  C  C54  1  0.50849274  0.41017332  0.12701451  1.0
  C  C55  1  0.48020298  0.59397377  0.87322085  1.0
  C  C56  1  0.49439472  0.50126170  0.35297512  1.0
  C  C57  1  0.49962150  0.49666733  0.64753958  1.0
  C  C58  1  0.47728519  0.59636584  0.97429778  1.0
  C  C59  1  0.51829006  0.40923979  0.02591429  1.0
  C  C60  1  0.52562319  0.40966838  0.97371321  1.0
  C  C61  1  0.47877702  0.59713595  0.02630979  1.0
  C  C62  1  0.50289845  0.50293598  0.94909670  1.0
  C  C63  1  0.49728295  0.50322514  0.05101141  1.0
  C  C64  1  0.45156500  0.68430401  0.94816175  1.0
  C  C65  1  0.53133148  0.31938389  0.05222415  1.0
  C  C66  1  0.45263488  0.68338116  0.89846072  1.0
  C  C67  1  0.52590019  0.31947882  0.10200245  1.0
  C  C68  1  0.46243891  0.68690677  0.05292060  1.0
  C  C69  1  0.55409348  0.32136083  0.94693318  1.0
  C  C70  1  0.53617807  0.18699884  0.49858660  1.0
  C  C71  1  0.46555319  0.81127865  0.50200192  1.0
  C  C72  1  0.34715200  0.96790419  0.51142179  1.0
  C  C73  1  0.65475969  0.03035776  0.48955238  1.0
  C  C74  1  0.35653051  0.86349955  0.51027354  1.0
  C  C75  1  0.64533780  0.13475808  0.49082760  1.0
  C  C76  1  0.56294505  0.86554373  0.49531400  1.0
  C  C77  1  0.43875063  0.13276515  0.50510373  1.0
  C  C78  1  0.55614918  0.97282828  0.49633334  1.0
  C  C79  1  0.44573518  0.02543567  0.50442396  1.0
  C  C80  1  0.04302349  0.40304253  0.54540337  1.0
  C  C81  1  0.95455451  0.59470884  0.45519566  1.0
  C  C82  1  0.15881311  0.41534404  0.54152849  1.0
  C  C83  1  0.83871396  0.58270292  0.45919205  1.0
  C  C84  1  0.14467280  0.54082732  0.48289529  1.0
  C  C85  1  0.85288867  0.45658646  0.51752650  1.0
  C  C86  1  0.02467679  0.53445671  0.48411303  1.0
  C  C87  1  0.97289531  0.46310310  0.51639452  1.0
  S  S88  1  0.72878355  0.51241295  0.23773537  1.0
  S  S89  1  0.27831989  0.45486823  0.76514736  1.0
  N  N90  1  0.49347744  0.50314305  0.20237528  1.0
  N  N91  1  0.50577443  0.50078196  0.79782542  1.0
  N  N92  1  0.78968226  0.51416692  0.49004938  1.0
  N  N93  1  0.20785705  0.48360296  0.51051917  1.0
  O  O94  1  0.57639798  0.65557574  0.49350337  1.0
  O  O95  1  0.42560483  0.34316394  0.50133755  1.0
  O  O96  1  0.38384287  0.65094734  0.50703581  1.0
  O  O97  1  0.61862643  0.34678156  0.49850246  1.0
  O  O98  1  0.59248989  0.49739563  0.42311542  1.0
  O  O99  1  0.40051528  0.48819073  0.57787512  1.0
  O  O100  1  0.39841303  0.50401543  0.43081651  1.0
  O  O101  1  0.59214867  0.50541435  0.56942606  1.0
  O  O102  1  0.45467138  0.67566203  0.20395184  1.0
  O  O103  1  0.57581556  0.33458466  0.79581798  1.0
  O  O104  1  0.46390726  0.67291873  0.79706673  1.0
  O  O105  1  0.50890297  0.32896310  0.20330076  1.0
  O  O106  1  0.76421870  0.41199589  0.22138381  1.0
  O  O107  1  0.72132422  0.59674872  0.20502169  1.0
  O  O108  1  0.81791562  0.54026618  0.27601415  1.0
  O  O109  1  0.30152303  0.36539651  0.79272862  1.0
  O  O110  1  0.23299529  0.54824502  0.78767947  1.0
  O  O111  1  0.18904979  0.42415331  0.72748436  1.0
