# generated using pymatgen
data_Al2H33C34I(N4O5)2
_symmetry_space_group_name_H-M   'P 1'
_cell_length_a   6.76955385
_cell_length_b   22.23634316
_cell_length_c   26.56578998
_cell_angle_alpha   78.92264260
_cell_angle_beta   89.99990809
_cell_angle_gamma   89.99893319
_symmetry_Int_Tables_number   1
_chemical_formula_structural   Al2H33C34I(N4O5)2
_chemical_formula_sum   'Al4 H66 C68 I2 N16 O20'
_cell_volume   3924.44582957
_cell_formula_units_Z   2
loop_
 _symmetry_equiv_pos_site_id
 _symmetry_equiv_pos_as_xyz
  1  'x, y, z'
loop_
 _atom_site_type_symbol
 _atom_site_label
 _atom_site_symmetry_multiplicity
 _atom_site_fract_x
 _atom_site_fract_y
 _atom_site_fract_z
 _atom_site_occupancy
  Al  Al0  1  0.09612431  0.50095115  0.49798994  1.0
  Al  Al1  1  0.59612338  0.49904957  0.50201328  1.0
  Al  Al2  1  0.69946942  0.00058932  0.00117294  1.0
  Al  Al3  1  0.19945954  0.99941198  0.99883071  1.0
  H  H4  1  0.14400325  0.73794488  0.18590713  1.0
  H  H5  1  0.64397748  0.26206166  0.81409264  1.0
  H  H6  1  0.00570250  0.65640566  0.24085384  1.0
  H  H7  1  0.50568245  0.34359875  0.75914205  1.0
  H  H8  1  0.54382785  0.71574625  0.26836643  1.0
  H  H9  1  0.04381176  0.28425511  0.73163140  1.0
  H  H10  1  0.67063538  0.65813770  0.24347778  1.0
  H  H11  1  0.17060292  0.34185949  0.75651974  1.0
  H  H12  1  0.00393950  0.77393805  0.32425546  1.0
  H  H13  1  0.50390460  0.22605771  0.67574085  1.0
  H  H14  1  0.96835239  0.85650311  0.25642993  1.0
  H  H15  1  0.46838454  0.14349980  0.74357306  1.0
  H  H16  1  0.19725124  0.78017185  0.23556871  1.0
  H  H17  1  0.69724611  0.21983097  0.76443416  1.0
  H  H18  1  0.71188011  0.84300847  0.25033462  1.0
  H  H19  1  0.21189834  0.15698314  0.74967023  1.0
  H  H20  1  0.62739310  0.91883236  0.88223487  1.0
  H  H21  1  0.12736831  0.08116289  0.11777300  1.0
  H  H22  1  0.21225016  0.81032718  0.83224481  1.0
  H  H23  1  0.71222553  0.18966928  0.16775848  1.0
  H  H24  1  0.24292033  0.87336268  0.90043749  1.0
  H  H25  1  0.74288733  0.12662443  0.09956970  1.0
  H  H26  1  0.58561177  0.64719718  0.69615716  1.0
  H  H27  1  0.08560204  0.35280873  0.30384488  1.0
  H  H28  1  0.56187541  0.58693756  0.62558507  1.0
  H  H29  1  0.06188475  0.41307176  0.37441350  1.0
  H  H30  1  0.16221252  0.63368469  0.58259001  1.0
  H  H31  1  0.66222408  0.36630832  0.41740600  1.0
  H  H32  1  0.18413913  0.69669304  0.65118624  1.0
  H  H33  1  0.68413345  0.30330343  0.34880862  1.0
  H  H34  1  0.30904027  0.64750930  0.27740585  1.0
  H  H35  1  0.42098830  0.67979388  0.34864442  1.0
  H  H36  1  0.17898259  0.69883249  0.36524644  1.0
  H  H37  1  0.31292175  0.75070154  0.31783479  1.0
  H  H38  1  0.80902278  0.35248646  0.72259136  1.0
  H  H39  1  0.92096394  0.32019397  0.65135710  1.0
  H  H40  1  0.67895697  0.30116030  0.63475073  1.0
  H  H41  1  0.81289513  0.24928864  0.68216936  1.0
  H  H42  1  0.45577148  0.89249995  0.81829126  1.0
  H  H43  1  0.39023872  0.88075211  0.73795108  1.0
  H  H44  1  0.64550044  0.86612272  0.72813397  1.0
  H  H45  1  0.48336239  0.80518743  0.75589072  1.0
  H  H46  1  0.95574222  0.10750321  0.18171249  1.0
  H  H47  1  0.89020135  0.11926393  0.26204875  1.0
  H  H48  1  0.14545537  0.13388609  0.27186770  1.0
  H  H49  1  0.98334402  0.19482820  0.24410378  1.0
  H  H50  1  0.42449899  0.75442299  0.19715032  1.0
  H  H51  1  0.34546691  0.82978119  0.13379574  1.0
  H  H52  1  0.56880419  0.80650506  0.10645768  1.0
  H  H53  1  0.56886122  0.87012975  0.13847971  1.0
  H  H54  1  0.92448474  0.24556811  0.80285080  1.0
  H  H55  1  0.84545322  0.17021343  0.86620494  1.0
  H  H56  1  0.06879588  0.19349301  0.89354707  1.0
  H  H57  1  0.06886589  0.12986787  0.86152505  1.0
  H  H58  1  0.57531185  0.78200707  0.32625580  1.0
  H  H59  1  0.62626056  0.83120055  0.39594250  1.0
  H  H60  1  0.76152692  0.87466914  0.34358787  1.0
  H  H61  1  0.88456204  0.82017493  0.39150939  1.0
  H  H62  1  0.07527578  0.21798348  0.67375858  1.0
  H  H63  1  0.12619641  0.16879801  0.60406266  1.0
  H  H64  1  0.26148407  0.12532827  0.65641162  1.0
  H  H65  1  0.38450948  0.17982360  0.60848822  1.0
  H  H66  1  0.35332810  0.57673656  0.47090254  1.0
  H  H67  1  0.85332424  0.42325788  0.52909700  1.0
  H  H68  1  0.45181755  0.91897286  0.00986273  1.0
  H  H69  1  0.95181823  0.08102894  0.99011880  1.0
  C  C70  1  0.34974507  0.43047113  0.44078565  1.0
  C  C71  1  0.84975170  0.56953012  0.55921155  1.0
  C  C72  1  0.33955108  0.42516700  0.57861495  1.0
  C  C73  1  0.83956178  0.57482860  0.42138534  1.0
  C  C74  1  0.04447467  0.69296750  0.26171134  1.0
  C  C75  1  0.54445602  0.30703351  0.73828802  1.0
  C  C76  1  0.68355595  0.70452921  0.25150484  1.0
  C  C77  1  0.18353782  0.29546806  0.74849653  1.0
  C  C78  1  0.71644155  0.75183223  0.20163512  1.0
  C  C79  1  0.21643352  0.24816699  0.79836586  1.0
  C  C80  1  0.95443124  0.87845870  0.12456210  1.0
  C  C81  1  0.45440281  0.12153778  0.87543939  1.0
  C  C82  1  0.85221642  0.70594532  0.29039286  1.0
  C  C83  1  0.35219944  0.29405238  0.70960819  1.0
  C  C84  1  0.08748262  0.75127321  0.22098253  1.0
  C  C85  1  0.58746555  0.24872747  0.77901878  1.0
  C  C86  1  0.90081263  0.79151855  0.20747386  1.0
  C  C87  1  0.40081494  0.20848051  0.79252759  1.0
  C  C88  1  0.85749097  0.82078978  0.25506871  1.0
  C  C89  1  0.35750017  0.17920804  0.74493388  1.0
  C  C90  1  0.86198172  0.77107302  0.30497130  1.0
  C  C91  1  0.36196275  0.22892489  0.69503091  1.0
  C  C92  1  0.93371148  0.83867643  0.16249030  1.0
  C  C93  1  0.43372694  0.16132287  0.83751040  1.0
  C  C94  1  0.82743918  0.65931543  0.33619421  1.0
  C  C95  1  0.32737961  0.34068211  0.66380530  1.0
  C  C96  1  0.83043885  0.61958090  0.37455545  1.0
  C  C97  1  0.33042023  0.38041146  0.62544715  1.0
  C  C98  1  0.75574906  0.89521484  0.87043318  1.0
  C  C99  1  0.25571760  0.10478265  0.12957397  1.0
  C  C100  1  0.73676985  0.86300323  0.82952473  1.0
  C  C101  1  0.23674452  0.13699289  0.17048433  1.0
  C  C102  1  0.90547036  0.83012302  0.81715324  1.0
  C  C103  1  0.40545177  0.16987580  0.18284937  1.0
  C  C104  1  0.08662392  0.83633136  0.84221664  1.0
  C  C105  1  0.58660184  0.16366216  0.15778854  1.0
  C  C106  1  0.10432375  0.87068242  0.88016906  1.0
  C  C107  1  0.60428838  0.12931229  0.11983496  1.0
  C  C108  1  0.93431562  0.89929113  0.89517914  1.0
  C  C109  1  0.43427944  0.10070383  0.10482694  1.0
  C  C110  1  0.89906617  0.71159572  0.71871353  1.0
  C  C111  1  0.39905897  0.28841501  0.28127789  1.0
  C  C112  1  0.90321095  0.78548314  0.78319509  1.0
  C  C113  1  0.40319538  0.21451771  0.21680444  1.0
  C  C114  1  0.70998972  0.64481015  0.67059231  1.0
  C  C115  1  0.20999675  0.35520016  0.32940325  1.0
  C  C116  1  0.69704349  0.61120021  0.63166435  1.0
  C  C117  1  0.19704911  0.38881025  0.36833043  1.0
  C  C118  1  0.86031933  0.60717065  0.60000315  1.0
  C  C119  1  0.36033098  0.39283508  0.39999020  1.0
  C  C120  1  0.03626123  0.63780252  0.60726903  1.0
  C  C121  1  0.53626956  0.36219813  0.39272383  1.0
  C  C122  1  0.04861504  0.67247049  0.64542854  1.0
  C  C123  1  0.54861752  0.32753072  0.35456393  1.0
  C  C124  1  0.88581580  0.67588750  0.67773840  1.0
  C  C125  1  0.38582014  0.32412330  0.32225263  1.0
  C  C126  1  0.45347185  0.07740831  0.92284021  1.0
  C  C127  1  0.95352456  0.92259468  0.07716430  1.0
  C  C128  1  0.44405273  0.06556722  0.06233970  1.0
  C  C129  1  0.94406208  0.93442793  0.93766563  1.0
  C  C130  1  0.28245491  0.70122083  0.33297001  1.0
  C  C131  1  0.78242442  0.29877096  0.66703066  1.0
  C  C132  1  0.51869798  0.85378513  0.75408848  1.0
  C  C133  1  0.01866209  0.14622737  0.24591158  1.0
  C  C134  1  0.50581752  0.82480184  0.13878447  1.0
  C  C135  1  0.00580970  0.17519475  0.86122027  1.0
  C  C136  1  0.74772105  0.82900590  0.36893883  1.0
  C  C137  1  0.24767365  0.17099339  0.63106217  1.0
  I  I138  1  0.80654700  0.69439059  0.13621336  1.0
  I  I139  1  0.30654526  0.30562477  0.86377455  1.0
  N  N140  1  0.07000754  0.78061368  0.75566192  1.0
  N  N141  1  0.56999741  0.21939060  0.24433514  1.0
  N  N142  1  0.06778303  0.74330461  0.72292296  1.0
  N  N143  1  0.56777702  0.25670581  0.27706871  1.0
  N  N144  1  0.74955692  0.70769809  0.75292506  1.0
  N  N145  1  0.24954408  0.29231082  0.24706707  1.0
  N  N146  1  0.75109304  0.74508157  0.78593027  1.0
  N  N147  1  0.25107610  0.25492145  0.21406612  1.0
  N  N148  1  0.20496963  0.66847494  0.29535491  1.0
  N  N149  1  0.70494085  0.33152314  0.70464301  1.0
  N  N150  1  0.56023972  0.86773400  0.80404538  1.0
  N  N151  1  0.06021742  0.13226399  0.19596167  1.0
  N  N152  1  0.54184009  0.78263452  0.18717736  1.0
  N  N153  1  0.04183914  0.21736187  0.81282662  1.0
  N  N154  1  0.71228697  0.77828891  0.34256964  1.0
  N  N155  1  0.21223895  0.22170866  0.65743671  1.0
  O  O156  1  0.51121573  0.44209729  0.56187671  1.0
  O  O157  1  0.01123052  0.55790235  0.43812648  1.0
  O  O158  1  0.17903381  0.44682928  0.45337639  1.0
  O  O159  1  0.67904165  0.55316821  0.54662191  1.0
  O  O160  1  0.17485971  0.44312418  0.55780753  1.0
  O  O161  1  0.67486217  0.55687601  0.44219075  1.0
  O  O162  1  0.01430043  0.55719919  0.54023561  1.0
  O  O163  1  0.51428802  0.44279813  0.45976798  1.0
  O  O164  1  0.34718109  0.53738355  0.49413135  1.0
  O  O165  1  0.84718240  0.46261501  0.50587391  1.0
  O  O166  1  0.27956897  0.05163653  0.04428849  1.0
  O  O167  1  0.77957882  0.94836150  0.95571445  1.0
  O  O168  1  0.62054139  0.06135841  0.94296544  1.0
  O  O169  1  0.12059283  0.93864283  0.05703970  1.0
  O  O170  1  0.61493662  0.05249855  0.04715493  1.0
  O  O171  1  0.11493836  0.94749956  0.95285214  1.0
  O  O172  1  0.78341920  0.94056754  0.05984497  1.0
  O  O173  1  0.28335686  0.05944206  0.94015445  1.0
  O  O174  1  0.45024413  0.96332304  0.00381891  1.0
  O  O175  1  0.95022896  0.03667904  0.99617756  1.0
