# generated using pymatgen
data_Zn4H4C58Cl24O13F4
_symmetry_space_group_name_H-M   'P 1'
_cell_length_a   21.54910618
_cell_length_b   21.54920205
_cell_length_c   34.44200205
_cell_angle_alpha   90.00072907
_cell_angle_beta   90.00020611
_cell_angle_gamma   89.99977452
_symmetry_Int_Tables_number   1
_chemical_formula_structural   Zn4H4C58Cl24O13F4
_chemical_formula_sum   'Zn8 H8 C116 Cl48 O26 F8'
_cell_volume   15993.69620584
_cell_formula_units_Z   2
loop_
 _symmetry_equiv_pos_site_id
 _symmetry_equiv_pos_as_xyz
  1  'x, y, z'
loop_
 _atom_site_type_symbol
 _atom_site_label
 _atom_site_symmetry_multiplicity
 _atom_site_fract_x
 _atom_site_fract_y
 _atom_site_fract_z
 _atom_site_occupancy
  Zn  Zn0  1  0.44784618  0.55265344  0.03304815  1.0
  Zn  Zn1  1  0.44784906  0.44734301  0.96695308  1.0
  Zn  Zn2  1  0.55215187  0.44734400  0.03304582  1.0
  Zn  Zn3  1  0.55214970  0.55264880  0.96695565  1.0
  Zn  Zn4  1  0.55264965  0.44784680  0.46695497  1.0
  Zn  Zn5  1  0.44734524  0.44784536  0.53304683  1.0
  Zn  Zn6  1  0.44734531  0.55215203  0.46695295  1.0
  Zn  Zn7  1  0.55265149  0.55215435  0.53304562  1.0
  H  H8  1  0.42817699  0.56940983  0.15141965  1.0
  H  H9  1  0.57182081  0.43059605  0.15141723  1.0
  H  H10  1  0.56940318  0.42817430  0.34858084  1.0
  H  H11  1  0.43058740  0.57181423  0.34858300  1.0
  H  H12  1  0.42818019  0.43059274  0.84857776  1.0
  H  H13  1  0.57182254  0.56940734  0.84858312  1.0
  H  H14  1  0.56940794  0.57182632  0.65141689  1.0
  H  H15  1  0.43059272  0.42818461  0.65141703  1.0
  C  C16  1  0.33516262  0.50000683  0.00000037  1.0
  C  C17  1  0.50000282  0.33445554  0.99999955  1.0
  C  C18  1  0.49999621  0.50000246  0.10431128  1.0
  C  C19  1  0.66483848  0.50000293  0.00000103  1.0
  C  C20  1  0.50000023  0.66553653  0.00000703  1.0
  C  C21  1  0.49999848  0.49999611  0.89568949  1.0
  C  C22  1  0.50000046  0.33516186  0.50000278  1.0
  C  C23  1  0.33445730  0.49999659  0.50000092  1.0
  C  C24  1  0.49999287  0.49999475  0.39568807  1.0
  C  C25  1  0.50000723  0.66483857  0.49999596  1.0
  C  C26  1  0.66553878  0.49999919  0.50000101  1.0
  C  C27  1  0.49999997  0.50000382  0.60431241  1.0
  C  C28  1  0.50000194  0.26466554  0.00000020  1.0
  C  C29  1  0.55560206  0.23235507  0.99420686  1.0
  C  C30  1  0.55560173  0.16719999  0.99443365  1.0
  C  C31  1  0.44440529  0.23235500  0.00579497  1.0
  C  C32  1  0.44440727  0.16719992  0.00556969  1.0
  C  C33  1  0.50000406  0.13436188  0.00000171  1.0
  C  C34  1  0.50000103  0.06546832  0.99999993  1.0
  C  C35  1  0.49955689  0.03258136  0.96481020  1.0
  C  C36  1  0.50044335  0.03258074  0.03519003  1.0
  C  C37  1  0.50000148  0.73532752  0.00000411  1.0
  C  C38  1  0.44440429  0.76763915  0.99420364  1.0
  C  C39  1  0.44440648  0.83279330  0.99442659  1.0
  C  C40  1  0.55560003  0.76763817  0.00579926  1.0
  C  C41  1  0.55559897  0.83279557  0.00557131  1.0
  C  C42  1  0.50000317  0.86563066  0.99999789  1.0
  C  C43  1  0.50000396  0.93452788  0.99999817  1.0
  C  C44  1  0.49955934  0.96741535  0.03518998  1.0
  C  C45  1  0.50044418  0.96741551  0.96480929  1.0
  C  C46  1  0.45936540  0.53936102  0.16765817  1.0
  C  C47  1  0.45931539  0.54016657  0.20830564  1.0
  C  C48  1  0.41949934  0.58014422  0.23016569  1.0
  C  C49  1  0.54063435  0.46064472  0.16765650  1.0
  C  C50  1  0.54068505  0.45983722  0.20830396  1.0
  C  C51  1  0.58050308  0.41985954  0.23016262  1.0
  C  C52  1  0.53935496  0.45936097  0.33234349  1.0
  C  C53  1  0.54016091  0.45931183  0.29169632  1.0
  C  C54  1  0.58014077  0.41949799  0.26983482  1.0
  C  C55  1  0.46063645  0.54062817  0.33234460  1.0
  C  C56  1  0.45983259  0.54068066  0.29169655  1.0
  C  C57  1  0.41985678  0.58050148  0.26983731  1.0
  C  C58  1  0.50000005  0.50000197  0.14769116  1.0
  C  C59  1  0.49999935  0.50000095  0.22939489  1.0
  C  C60  1  0.49999275  0.49999245  0.35231022  1.0
  C  C61  1  0.49999808  0.49999672  0.27060591  1.0
  C  C62  1  0.45936607  0.46064189  0.83234076  1.0
  C  C63  1  0.45931676  0.45983680  0.79169301  1.0
  C  C64  1  0.41950213  0.41986070  0.76983228  1.0
  C  C65  1  0.54063518  0.53935926  0.83234378  1.0
  C  C66  1  0.54068657  0.54016862  0.79169487  1.0
  C  C67  1  0.58050153  0.58014381  0.76983659  1.0
  C  C68  1  0.53936040  0.54063745  0.66765475  1.0
  C  C69  1  0.54016566  0.54068798  0.70830280  1.0
  C  C70  1  0.58014317  0.58050213  0.73016497  1.0
  C  C71  1  0.46064361  0.45937195  0.66765463  1.0
  C  C72  1  0.45983998  0.45931993  0.70830151  1.0
  C  C73  1  0.41986352  0.41950066  0.73016008  1.0
  C  C74  1  0.50000068  0.49999985  0.85230874  1.0
  C  C75  1  0.50000276  0.50000366  0.77060472  1.0
  C  C76  1  0.49999916  0.50000566  0.64768852  1.0
  C  C77  1  0.50000311  0.50000324  0.72939283  1.0
  C  C78  1  0.73479637  0.50000279  0.00000053  1.0
  C  C79  1  0.76737044  0.50225561  0.03523256  1.0
  C  C80  1  0.83258289  0.50220583  0.03516585  1.0
  C  C81  1  0.76736848  0.49775444  0.96476852  1.0
  C  C82  1  0.83258185  0.49779886  0.96483450  1.0
  C  C83  1  0.86548485  0.50000068  0.00000010  1.0
  C  C84  1  0.93449894  0.50000003  0.99999954  1.0
  C  C85  1  0.96739810  0.55623406  0.99992721  1.0
  C  C86  1  0.96739870  0.44376592  0.00007229  1.0
  C  C87  1  0.26520575  0.50000227  0.99999965  1.0
  C  C88  1  0.23263074  0.50225543  0.96476735  1.0
  C  C89  1  0.16741922  0.50220683  0.96483551  1.0
  C  C90  1  0.23263180  0.49775487  0.03523252  1.0
  C  C91  1  0.16742120  0.49780001  0.03516596  1.0
  C  C92  1  0.13451811  0.50000166  0.00000102  1.0
  C  C93  1  0.06550086  0.49999901  0.00000123  1.0
  C  C94  1  0.03260132  0.44376584  0.99992832  1.0
  C  C95  1  0.03260008  0.55623317  0.00007255  1.0
  C  C96  1  0.26466647  0.49999812  0.50000113  1.0
  C  C97  1  0.23235506  0.55559566  0.50579599  1.0
  C  C98  1  0.16719969  0.55559393  0.50557090  1.0
  C  C99  1  0.23235525  0.44439793  0.49420737  1.0
  C  C100  1  0.16719849  0.44439713  0.49443318  1.0
  C  C101  1  0.13436269  0.49999513  0.50000244  1.0
  C  C102  1  0.06546749  0.49999712  0.50000004  1.0
  C  C103  1  0.03258038  0.49955623  0.53519046  1.0
  C  C104  1  0.03258064  0.50044047  0.46481041  1.0
  C  C105  1  0.73532544  0.49999952  0.50000021  1.0
  C  C106  1  0.76763642  0.44440395  0.50579905  1.0
  C  C107  1  0.83279318  0.44440336  0.50557382  1.0
  C  C108  1  0.76763477  0.55559589  0.49420000  1.0
  C  C109  1  0.83279246  0.55559344  0.49442567  1.0
  C  C110  1  0.86563015  0.49999787  0.49999891  1.0
  C  C111  1  0.93452627  0.49999773  0.49999986  1.0
  C  C112  1  0.96741478  0.49955507  0.46480972  1.0
  C  C113  1  0.96741219  0.50044073  0.53519065  1.0
  C  C114  1  0.50000385  0.73479754  0.49999508  1.0
  C  C115  1  0.50225807  0.76737147  0.46476468  1.0
  C  C116  1  0.50220828  0.83258456  0.46483172  1.0
  C  C117  1  0.49775414  0.76736894  0.53522951  1.0
  C  C118  1  0.49779949  0.83258203  0.53516299  1.0
  C  C119  1  0.50000312  0.86548358  0.49999850  1.0
  C  C120  1  0.50000345  0.93449913  0.49999994  1.0
  C  C121  1  0.55623774  0.96739862  0.50007243  1.0
  C  C122  1  0.44376996  0.96739930  0.49992771  1.0
  C  C123  1  0.50000059  0.26520335  0.50000104  1.0
  C  C124  1  0.50225700  0.23262988  0.53523145  1.0
  C  C125  1  0.50220979  0.16741725  0.53516383  1.0
  C  C126  1  0.49775127  0.23263103  0.46476777  1.0
  C  C127  1  0.49779827  0.16741887  0.46483313  1.0
  C  C128  1  0.50000317  0.13451452  0.49999791  1.0
  C  C129  1  0.50000331  0.06550222  0.49999822  1.0
  C  C130  1  0.44377088  0.03260135  0.50007206  1.0
  C  C131  1  0.55623772  0.03260205  0.49992643  1.0
  Cl  Cl132  1  0.37693050  0.27284952  0.01389940  1.0
  Cl  Cl133  1  0.37635953  0.12710211  0.01201537  1.0
  Cl  Cl134  1  0.62307576  0.27285241  0.98610246  1.0
  Cl  Cl135  1  0.62364823  0.12709761  0.98798766  1.0
  Cl  Cl136  1  0.49785731  0.07274436  0.92176350  1.0
  Cl  Cl137  1  0.50214583  0.92725256  0.92176169  1.0
  Cl  Cl138  1  0.50214463  0.07274461  0.07823734  1.0
  Cl  Cl139  1  0.49785785  0.92724957  0.07823581  1.0
  Cl  Cl140  1  0.62364396  0.87289119  0.01201804  1.0
  Cl  Cl141  1  0.62307346  0.72714057  0.01390672  1.0
  Cl  Cl142  1  0.37636180  0.87288859  0.98797438  1.0
  Cl  Cl143  1  0.37693101  0.72714257  0.98609789  1.0
  Cl  Cl144  1  0.72750267  0.49330334  0.92164930  1.0
  Cl  Cl145  1  0.87291334  0.49529292  0.92189133  1.0
  Cl  Cl146  1  0.72750579  0.50670362  0.07835227  1.0
  Cl  Cl147  1  0.87291507  0.50470743  0.07810737  1.0
  Cl  Cl148  1  0.92711927  0.62497172  0.99967223  1.0
  Cl  Cl149  1  0.07288468  0.62496882  0.00032750  1.0
  Cl  Cl150  1  0.92711643  0.37502935  0.00032544  1.0
  Cl  Cl151  1  0.07288294  0.37502911  0.99967492  1.0
  Cl  Cl152  1  0.12709112  0.49529370  0.07810969  1.0
  Cl  Cl153  1  0.27250040  0.49330680  0.07835141  1.0
  Cl  Cl154  1  0.12708563  0.50470912  0.92189227  1.0
  Cl  Cl155  1  0.27249816  0.50670380  0.92164884  1.0
  Cl  Cl156  1  0.27285681  0.37692752  0.48610280  1.0
  Cl  Cl157  1  0.12710088  0.37635332  0.48798725  1.0
  Cl  Cl158  1  0.27284944  0.62306870  0.51390007  1.0
  Cl  Cl159  1  0.12710093  0.62363883  0.51201558  1.0
  Cl  Cl160  1  0.07274366  0.49785444  0.57823823  1.0
  Cl  Cl161  1  0.92724638  0.50214433  0.57823660  1.0
  Cl  Cl162  1  0.07274599  0.50214210  0.42176448  1.0
  Cl  Cl163  1  0.92725011  0.49785442  0.42176310  1.0
  Cl  Cl164  1  0.87288910  0.62363711  0.48797427  1.0
  Cl  Cl165  1  0.72713920  0.62306752  0.48609181  1.0
  Cl  Cl166  1  0.87288780  0.37635906  0.51202502  1.0
  Cl  Cl167  1  0.72713605  0.37693294  0.51390744  1.0
  Cl  Cl168  1  0.49330125  0.72750063  0.57834705  1.0
  Cl  Cl169  1  0.49529455  0.87291482  0.57810635  1.0
  Cl  Cl170  1  0.50670832  0.72750412  0.42164450  1.0
  Cl  Cl171  1  0.50470981  0.87291647  0.42189042  1.0
  Cl  Cl172  1  0.62497385  0.92711950  0.50032436  1.0
  Cl  Cl173  1  0.62497367  0.07287997  0.49967175  1.0
  Cl  Cl174  1  0.37503216  0.92711998  0.49967516  1.0
  Cl  Cl175  1  0.37503338  0.07288047  0.50032503  1.0
  Cl  Cl176  1  0.49529325  0.12708562  0.42189005  1.0
  Cl  Cl177  1  0.49329938  0.27250122  0.42164935  1.0
  Cl  Cl178  1  0.50471451  0.12708255  0.57810542  1.0
  Cl  Cl179  1  0.50670920  0.27249628  0.57835135  1.0
  O  O180  1  0.49999730  0.49999630  0.00000143  1.0
  O  O181  1  0.36119521  0.54745926  0.01463214  1.0
  O  O182  1  0.47525085  0.36032122  0.97073042  1.0
  O  O183  1  0.54452382  0.47140068  0.08760719  1.0
  O  O184  1  0.36119725  0.45255053  0.98536976  1.0
  O  O185  1  0.45547407  0.52860065  0.08761022  1.0
  O  O186  1  0.52475229  0.36032269  0.02926749  1.0
  O  O187  1  0.63880459  0.45255172  0.01463266  1.0
  O  O188  1  0.52473912  0.63966510  0.97073652  1.0
  O  O189  1  0.63880255  0.54745419  0.98536755  1.0
  O  O190  1  0.47525455  0.63967560  0.02928278  1.0
  O  O191  1  0.45547748  0.47139716  0.91239103  1.0
  O  O192  1  0.54452515  0.52859818  0.91239368  1.0
  O  O193  1  0.49999688  0.50000091  0.50000024  1.0
  O  O194  1  0.54745430  0.36119506  0.48537196  1.0
  O  O195  1  0.36032254  0.47524975  0.52927296  1.0
  O  O196  1  0.47139443  0.54451773  0.41239195  1.0
  O  O197  1  0.45254790  0.36119276  0.51463409  1.0
  O  O198  1  0.52859558  0.45546978  0.41239340  1.0
  O  O199  1  0.36032414  0.52474612  0.47073185  1.0
  O  O200  1  0.45255144  0.63880460  0.48536251  1.0
  O  O201  1  0.63967185  0.52474338  0.52927522  1.0
  O  O202  1  0.54745894  0.63880703  0.51462833  1.0
  O  O203  1  0.63966714  0.47525882  0.47073080  1.0
  O  O204  1  0.47140578  0.45547631  0.58760731  1.0
  O  O205  1  0.52859638  0.54453007  0.58760627  1.0
  F  F206  1  0.38153498  0.61923451  0.28939552  1.0
  F  F207  1  0.38076582  0.61846848  0.21060683  1.0
  F  F208  1  0.61846454  0.38076442  0.28939367  1.0
  F  F209  1  0.61924021  0.38154091  0.21060383  1.0
  F  F210  1  0.38154130  0.38076731  0.71060063  1.0
  F  F211  1  0.38076377  0.38153844  0.78938902  1.0
  F  F212  1  0.61846620  0.61923554  0.71060591  1.0
  F  F213  1  0.61923769  0.61846600  0.78939488  1.0
