# generated using pymatgen
data_CuSiH16C24N4(O4F3)2
_symmetry_space_group_name_H-M   'P 1'
_cell_length_a   8.14865810
_cell_length_b   13.71122773
_cell_length_c   13.71126637
_cell_angle_alpha   90.00109925
_cell_angle_beta   89.99887922
_cell_angle_gamma   89.99902547
_symmetry_Int_Tables_number   1
_chemical_formula_structural   CuSiH16C24N4(O4F3)2
_chemical_formula_sum   'Cu1 Si1 H16 C24 N4 O8 F6'
_cell_volume   1531.93383397
_cell_formula_units_Z   1
loop_
 _symmetry_equiv_pos_site_id
 _symmetry_equiv_pos_as_xyz
  1  'x, y, z'
loop_
 _atom_site_type_symbol
 _atom_site_label
 _atom_site_symmetry_multiplicity
 _atom_site_fract_x
 _atom_site_fract_y
 _atom_site_fract_z
 _atom_site_occupancy
  Cu  Cu0  1  0.50002123  0.49998605  0.50000021  1.0
  Si  Si1  1  0.00002603  0.49999285  0.50000311  1.0
  H  H2  1  0.24260108  0.65479619  0.49999151  1.0
  H  H3  1  0.75742082  0.65480390  0.49998634  1.0
  H  H4  1  0.24261429  0.34518278  0.49995937  1.0
  H  H5  1  0.75743402  0.34516278  0.50009788  1.0
  H  H6  1  0.24260329  0.50001431  0.65481380  1.0
  H  H7  1  0.75742548  0.50001692  0.65481374  1.0
  H  H8  1  0.24260840  0.50003176  0.34519251  1.0
  H  H9  1  0.75742813  0.49990819  0.34517567  1.0
  H  H10  1  0.77797617  0.91386959  0.49998652  1.0
  H  H11  1  0.22199383  0.91385697  0.50005319  1.0
  H  H12  1  0.77799218  0.08609908  0.50013684  1.0
  H  H13  1  0.22202580  0.08611782  0.49992783  1.0
  H  H14  1  0.77799269  0.50002878  0.91387649  1.0
  H  H15  1  0.22201649  0.49996730  0.91388044  1.0
  H  H16  1  0.77798671  0.49988300  0.08610976  1.0
  H  H17  1  0.22201910  0.50007240  0.08613195  1.0
  C  C18  1  0.35582400  0.69701359  0.49999564  1.0
  C  C19  1  0.35151380  0.79869233  0.50000904  1.0
  C  C20  1  0.49999512  0.85226814  0.50001088  1.0
  C  C21  1  0.64848540  0.79869672  0.50000440  1.0
  C  C22  1  0.64419418  0.69702022  0.49999397  1.0
  C  C23  1  0.49999114  0.95514004  0.50002208  1.0
  C  C24  1  0.50000224  0.04483425  0.50003304  1.0
  C  C25  1  0.50001544  0.14770177  0.50003111  1.0
  C  C26  1  0.35153252  0.20127974  0.49999091  1.0
  C  C27  1  0.35583847  0.30295844  0.49999113  1.0
  C  C28  1  0.64420619  0.30294902  0.50006020  1.0
  C  C29  1  0.64849553  0.20127028  0.50006431  1.0
  C  C30  1  0.35582860  0.50001489  0.69703536  1.0
  C  C31  1  0.35152805  0.50000714  0.79871089  1.0
  C  C32  1  0.50001051  0.50000255  0.85228277  1.0
  C  C33  1  0.64849228  0.50000715  0.79870844  1.0
  C  C34  1  0.64419878  0.50001276  0.69703296  1.0
  C  C35  1  0.50000759  0.49999625  0.95514708  1.0
  C  C36  1  0.50000052  0.49998970  0.04485042  1.0
  C  C37  1  0.50000741  0.49998413  0.14771327  1.0
  C  C38  1  0.35152809  0.50001307  0.20129708  1.0
  C  C39  1  0.35583387  0.50000673  0.30297256  1.0
  C  C40  1  0.64420037  0.49994553  0.30296068  1.0
  C  C41  1  0.64848987  0.49994745  0.20128368  1.0
  N  N42  1  0.50001165  0.64927975  0.49998997  1.0
  N  N43  1  0.50002346  0.35069672  0.50002576  1.0
  N  N44  1  0.50001141  0.50001519  0.64929276  1.0
  N  N45  1  0.50001633  0.49997367  0.35070765  1.0
  O  O46  1  0.79682817  0.84355997  0.50000762  1.0
  O  O47  1  0.20316110  0.84354607  0.50002054  1.0
  O  O48  1  0.79684209  0.15640925  0.50010896  1.0
  O  O49  1  0.20317748  0.15642817  0.49994612  1.0
  O  O50  1  0.79684235  0.50000832  0.84356631  1.0
  O  O51  1  0.20317282  0.50000099  0.84357048  1.0
  O  O52  1  0.79683651  0.49990036  0.15642045  1.0
  O  O53  1  0.20317066  0.50005202  0.15644139  1.0
  F  F54  1  0.21533632  0.49997284  0.50001134  1.0
  F  F55  1  0.78472332  0.49999269  0.49998397  1.0
  F  F56  1  0.00005807  0.58790098  0.41211272  1.0
  F  F57  1  0.00000011  0.41210586  0.58790953  1.0
  F  F58  1  0.00002695  0.58789902  0.58789663  1.0
  F  F59  1  0.00004228  0.41209907  0.41209572  1.0
