# generated using pymatgen
data_ZnH16C22NO4
_symmetry_space_group_name_H-M   'P 1'
_cell_length_a   13.94133655
_cell_length_b   15.26618475
_cell_length_c   17.81282738
_cell_angle_alpha   89.99603994
_cell_angle_beta   90.21679492
_cell_angle_gamma   89.99911498
_symmetry_Int_Tables_number   1
_chemical_formula_structural   ZnH16C22NO4
_chemical_formula_sum   'Zn2 H32 C44 N2 O8'
_cell_volume   3791.09506200
_cell_formula_units_Z   2
loop_
 _symmetry_equiv_pos_site_id
 _symmetry_equiv_pos_as_xyz
  1  'x, y, z'
loop_
 _atom_site_type_symbol
 _atom_site_label
 _atom_site_symmetry_multiplicity
 _atom_site_fract_x
 _atom_site_fract_y
 _atom_site_fract_z
 _atom_site_occupancy
  Zn  Zn0  1  0.40055523  0.49480672  0.50128745  1.0
  Zn  Zn1  1  0.59944617  0.49480322  0.49871546  1.0
  H  H2  1  0.34546269  0.54393640  0.87760143  1.0
  H  H3  1  0.65452782  0.54391550  0.12239286  1.0
  H  H4  1  0.34567380  0.55903222  0.12291878  1.0
  H  H5  1  0.65431861  0.55902500  0.87707641  1.0
  H  H6  1  0.34692277  0.51601029  0.73918674  1.0
  H  H7  1  0.65306750  0.51599662  0.26081268  1.0
  H  H8  1  0.34605216  0.53248368  0.26147362  1.0
  H  H9  1  0.65394070  0.53247580  0.73852367  1.0
  H  H10  1  0.43783699  0.05463237  0.61037859  1.0
  H  H11  1  0.55416741  0.93546728  0.61328650  1.0
  H  H12  1  0.44582439  0.93549450  0.38669423  1.0
  H  H13  1  0.56215601  0.05465873  0.38962000  1.0
  H  H14  1  0.93302180  0.45152060  0.38523534  1.0
  H  H15  1  0.06697964  0.45155953  0.61478588  1.0
  H  H16  1  0.93072518  0.54766430  0.61365183  1.0
  H  H17  1  0.06927458  0.54762168  0.38633345  1.0
  H  H18  1  0.75276950  0.45241420  0.38914555  1.0
  H  H19  1  0.24723121  0.45245747  0.61087720  1.0
  H  H20  1  0.75054592  0.54220042  0.60773549  1.0
  H  H21  1  0.24945179  0.54216666  0.39225629  1.0
  H  H22  1  0.35882106  0.26709018  0.61326454  1.0
  H  H23  1  0.40685791  0.18633023  0.67518007  1.0
  H  H24  1  0.47534269  0.28032625  0.65022159  1.0
  H  H25  1  0.62816802  0.71811334  0.61939697  1.0
  H  H26  1  0.58465036  0.80350419  0.67844181  1.0
  H  H27  1  0.50984487  0.71356074  0.65368425  1.0
  H  H28  1  0.49014204  0.71358550  0.34629406  1.0
  H  H29  1  0.37182961  0.71813996  0.38059577  1.0
  H  H30  1  0.41533146  0.80353506  0.32153973  1.0
  H  H31  1  0.64119208  0.26711390  0.38675657  1.0
  H  H32  1  0.59315011  0.18637312  0.32483124  1.0
  H  H33  1  0.52467167  0.28036578  0.34980017  1.0
  C  C34  1  0.50001613  0.32529601  0.50001058  1.0
  C  C35  1  0.50000892  0.66498403  0.49998558  1.0
  C  C36  1  0.50000618  0.22701409  0.50000682  1.0
  C  C37  1  0.50000451  0.76326399  0.49998763  1.0
  C  C38  1  0.49999480  0.04348690  0.49999936  1.0
  C  C39  1  0.49999581  0.94667262  0.49999113  1.0
  C  C40  1  0.89573776  0.47331568  0.43552896  1.0
  C  C41  1  0.10425684  0.47333919  0.56448082  1.0
  C  C42  1  0.89450522  0.52498478  0.56294215  1.0
  C  C43  1  0.10548992  0.52495719  0.43705300  1.0
  C  C44  1  0.79608049  0.47266928  0.43725337  1.0
  C  C45  1  0.20392131  0.47269515  0.56276383  1.0
  C  C46  1  0.79492222  0.52302357  0.56016779  1.0
  C  C47  1  0.20508228  0.52300387  0.43982882  1.0
  C  C48  1  0.94708613  0.49954715  0.49959165  1.0
  C  C49  1  0.05291518  0.49954715  0.50041105  1.0
  C  C50  1  0.49908570  0.50455368  0.35212764  1.0
  C  C51  1  0.50089975  0.50455622  0.64787533  1.0
  C  C52  1  0.41288456  0.54125584  0.84688630  1.0
  C  C53  1  0.58710456  0.54124633  0.15310787  1.0
  C  C54  1  0.41287819  0.54996885  0.15341874  1.0
  C  C55  1  0.58711294  0.54996728  0.84657512  1.0
  C  C56  1  0.41367091  0.52563988  0.77009700  1.0
  C  C57  1  0.58631920  0.52563248  0.22990140  1.0
  C  C58  1  0.41306132  0.53500939  0.23028577  1.0
  C  C59  1  0.58693078  0.53500899  0.76971223  1.0
  C  C60  1  0.50053001  0.52172285  0.73072941  1.0
  C  C61  1  0.49946376  0.52172111  0.26926965  1.0
  C  C62  1  0.49990959  0.55231879  0.88668160  1.0
  C  C63  1  0.50008366  0.55231269  0.11331357  1.0
  C  C64  1  0.49994762  0.56082563  0.96571063  1.0
  C  C65  1  0.50004403  0.56082319  0.03428033  1.0
  C  C66  1  0.46592029  0.09045364  0.56212172  1.0
  C  C67  1  0.52948108  0.89970782  0.56374044  1.0
  C  C68  1  0.47051348  0.89972529  0.43624110  1.0
  C  C69  1  0.53407569  0.09046832  0.43787775  1.0
  C  C70  1  0.46412693  0.18195591  0.56280555  1.0
  C  C71  1  0.53093963  0.80818988  0.56458133  1.0
  C  C72  1  0.46906435  0.80820601  0.43539443  1.0
  C  C73  1  0.53587758  0.18197117  0.43720590  1.0
  C  C74  1  0.42425270  0.23117289  0.62906126  1.0
  C  C75  1  0.56523167  0.75862400  0.63274449  1.0
  C  C76  1  0.43476167  0.75865150  0.36723880  1.0
  C  C77  1  0.57576031  0.23120053  0.37095281  1.0
  N  N78  1  0.74681511  0.49698016  0.49853933  1.0
  N  N79  1  0.25318411  0.49698254  0.50146883  1.0
  O  O80  1  0.41956426  0.36318200  0.49029660  1.0
  O  O81  1  0.57942479  0.62715433  0.48650320  1.0
  O  O82  1  0.42058150  0.62715305  0.51347244  1.0
  O  O83  1  0.58045229  0.36317421  0.50972227  1.0
  O  O84  1  0.41908932  0.51265098  0.38593277  1.0
  O  O85  1  0.58090674  0.51265026  0.61406553  1.0
  O  O86  1  0.42131120  0.48385651  0.61720408  1.0
  O  O87  1  0.57868250  0.48384881  0.38280285  1.0
