# generated using pymatgen
data_ZnH7C16N3O4F3
_symmetry_space_group_name_H-M   'P 1'
_cell_length_a   9.75121406
_cell_length_b   11.04052881
_cell_length_c   19.17242345
_cell_angle_alpha   89.65082449
_cell_angle_beta   89.45316520
_cell_angle_gamma   89.89531606
_symmetry_Int_Tables_number   1
_chemical_formula_structural   ZnH7C16N3O4F3
_chemical_formula_sum   'Zn2 H14 C32 N6 O8 F6'
_cell_volume   2063.93993139
_cell_formula_units_Z   2
loop_
 _symmetry_equiv_pos_site_id
 _symmetry_equiv_pos_as_xyz
  1  'x, y, z'
loop_
 _atom_site_type_symbol
 _atom_site_label
 _atom_site_symmetry_multiplicity
 _atom_site_fract_x
 _atom_site_fract_y
 _atom_site_fract_z
 _atom_site_occupancy
  Zn  Zn0  1  0.63451246  0.49155979  0.49132966  1.0
  Zn  Zn1  1  0.35345639  0.48971904  0.50283864  1.0
  H  H2  1  0.29175641  0.88245644  0.53810315  1.0
  H  H3  1  0.84566698  0.09183729  0.49862143  1.0
  H  H4  1  0.78644365  0.10629520  0.41045325  1.0
  H  H5  1  0.13844247  0.59718449  0.41076240  1.0
  H  H6  1  0.83949485  0.40425098  0.64943487  1.0
  H  H7  1  0.84646040  0.27054146  0.59653504  1.0
  H  H8  1  0.10049812  0.39558428  0.65815639  1.0
  H  H9  1  0.29847184  0.53315152  0.85655192  1.0
  H  H10  1  0.29424090  0.48894934  0.72897578  1.0
  H  H11  1  0.70739984  0.55820397  0.14984527  1.0
  H  H12  1  0.69860123  0.50855882  0.27762741  1.0
  H  H13  1  0.25920162  0.52942252  0.27512421  1.0
  H  H14  1  0.26640299  0.57808385  0.14734029  1.0
  H  H15  1  0.29993269  0.10772125  0.54087446  1.0
  C  C16  1  0.51183628  0.25612645  0.50449940  1.0
  C  C17  1  0.50605700  0.52895291  0.71146410  1.0
  C  C18  1  0.49364957  0.60153316  0.06659666  1.0
  C  C19  1  0.50809750  0.60592774  0.93237191  1.0
  C  C20  1  0.60972392  0.55102027  0.17758359  1.0
  C  C21  1  0.60497782  0.52361687  0.24830300  1.0
  C  C22  1  0.47880237  0.51680996  0.28388168  1.0
  C  C23  1  0.35672607  0.53544182  0.24714516  1.0
  C  C24  1  0.36051458  0.56232017  0.17621692  1.0
  C  C25  1  0.48742225  0.57163356  0.14102441  1.0
  C  C26  1  0.62315849  0.05159153  0.48677262  1.0
  C  C27  1  0.49573245  0.50602904  0.63439179  1.0
  C  C28  1  0.50970151  0.12111591  0.50613308  1.0
  C  C29  1  0.39041020  0.05636068  0.52485346  1.0
  C  C30  1  0.38546677  0.92988743  0.52299545  1.0
  C  C31  1  0.49886185  0.86036118  0.50109707  1.0
  C  C32  1  0.61672748  0.92562737  0.48366208  1.0
  C  C33  1  0.76246825  0.91840951  0.45541382  1.0
  C  C34  1  0.77059806  0.05985442  0.46064529  1.0
  C  C35  1  0.05841434  0.43147280  0.54567283  1.0
  C  C36  1  0.07598256  0.55033325  0.44979028  1.0
  C  C37  1  0.93195563  0.55271003  0.44720738  1.0
  C  C38  1  0.49319802  0.72557241  0.49688976  1.0
  C  C39  1  0.91664102  0.43600467  0.54231266  1.0
  C  C40  1  0.89361983  0.35881667  0.60653761  1.0
  C  C41  1  0.05560696  0.35415558  0.61178363  1.0
  C  C42  1  0.47786916  0.49470869  0.36111812  1.0
  C  C43  1  0.62678719  0.56547415  0.74407585  1.0
  C  C44  1  0.63028247  0.59061928  0.81551773  1.0
  C  C45  1  0.51208346  0.58015113  0.85744687  1.0
  C  C46  1  0.39089944  0.54176568  0.82462974  1.0
  C  C47  1  0.38847728  0.51731015  0.75398333  1.0
  N  N48  1  0.38267469  0.62154743  0.96247773  1.0
  N  N49  1  0.37571998  0.61718543  0.03094542  1.0
  N  N50  1  0.61738762  0.62533677  0.03666100  1.0
  N  N51  1  0.62482909  0.62499333  0.96806009  1.0
  N  N52  1  0.14102260  0.48822493  0.50045759  1.0
  N  N53  1  0.84877454  0.49719404  0.49310965  1.0
  O  O54  1  0.62923777  0.30673360  0.50582260  1.0
  O  O55  1  0.39638079  0.30984445  0.50076989  1.0
  O  O56  1  0.60601159  0.50956592  0.59850564  1.0
  O  O57  1  0.37605871  0.48625254  0.61111005  1.0
  O  O58  1  0.60571089  0.67299151  0.48165870  1.0
  O  O59  1  0.37841893  0.67413315  0.50882135  1.0
  O  O60  1  0.59264503  0.46807042  0.38857634  1.0
  O  O61  1  0.36444063  0.50620661  0.39416717  1.0
  F  F62  1  0.74676267  0.58024656  0.70887889  1.0
  F  F63  1  0.85691247  0.85591529  0.49545511  1.0
  F  F64  1  0.77668248  0.87411865  0.38857466  1.0
  F  F65  1  0.87263303  0.61231974  0.39506124  1.0
  F  F66  1  0.75143461  0.62735515  0.84113452  1.0
  F  F67  1  0.11043476  0.23807726  0.60450809  1.0
