# generated using pymatgen
data_Al2H18(C11O6)3
_symmetry_space_group_name_H-M   'P 1'
_cell_length_a   3.98861280
_cell_length_b   17.22082883
_cell_length_c   17.22031014
_cell_angle_alpha   60.00210663
_cell_angle_beta   89.99790534
_cell_angle_gamma   89.99948296
_symmetry_Int_Tables_number   1
_chemical_formula_structural   Al2H18(C11O6)3
_chemical_formula_sum   'Al2 H18 C33 O18'
_cell_volume   1024.36975583
_cell_formula_units_Z   1
loop_
 _symmetry_equiv_pos_site_id
 _symmetry_equiv_pos_as_xyz
  1  'x, y, z'
loop_
 _atom_site_type_symbol
 _atom_site_label
 _atom_site_symmetry_multiplicity
 _atom_site_fract_x
 _atom_site_fract_y
 _atom_site_fract_z
 _atom_site_occupancy
  Al  Al0  1  0.95922180  0.00000067  0.50000652  1.0
  Al  Al1  1  0.04456525  0.66665957  0.16666562  1.0
  H  H2  1  0.63386247  0.41840587  0.16824597  1.0
  H  H3  1  0.15488747  0.41659886  0.46046348  1.0
  H  H4  1  0.59158780  0.41062210  0.48365112  1.0
  H  H5  1  0.56415633  0.24195770  0.56427511  1.0
  H  H6  1  0.12924854  0.24771938  0.54056603  1.0
  H  H7  1  0.63392986  0.66825457  0.41332423  1.0
  H  H8  1  0.15480652  0.96043351  0.12295536  1.0
  H  H9  1  0.59149351  0.98364595  0.10572099  1.0
  H  H10  1  0.56398813  0.06428658  0.19375586  1.0
  H  H11  1  0.12908377  0.04053294  0.21173457  1.0
  H  H12  1  0.63388964  0.91332754  0.91842913  1.0
  H  H13  1  0.15484171  0.62294608  0.91659976  1.0
  H  H14  1  0.59155397  0.60573812  0.91059200  1.0
  H  H15  1  0.56395337  0.69378160  0.74192268  1.0
  H  H16  1  0.12905627  0.71173918  0.74772763  1.0
  H  H17  1  0.92993853  0.16125097  0.31071585  1.0
  H  H18  1  0.92996953  0.81073634  0.52801895  1.0
  H  H19  1  0.92992981  0.02803373  0.66125961  1.0
  C  C20  1  0.46596465  0.93370380  0.63837915  1.0
  C  C21  1  0.46600375  0.13837038  0.42793218  1.0
  C  C22  1  0.46599208  0.92793018  0.43370125  1.0
  C  C23  1  0.54275729  0.52936504  0.23671414  1.0
  C  C24  1  0.54274161  0.73671119  0.23391542  1.0
  C  C25  1  0.54277162  0.73391026  0.02937133  1.0
  C  C26  1  0.53004364  0.42985396  0.28545359  1.0
  C  C27  1  0.49369479  0.23769438  0.37673091  1.0
  C  C28  1  0.46173449  0.37905547  0.37689245  1.0
  C  C29  1  0.55814527  0.28839810  0.28332383  1.0
  C  C30  1  0.45162047  0.28553296  0.42159168  1.0
  C  C31  1  0.58042655  0.38216239  0.23993271  1.0
  C  C32  1  0.38962255  0.38288491  0.46143955  1.0
  C  C33  1  0.37449205  0.27692383  0.51194467  1.0
  C  C34  1  0.53002911  0.78545456  0.28468554  1.0
  C  C35  1  0.49367002  0.87673607  0.38556494  1.0
  C  C36  1  0.46170016  0.87688937  0.24405170  1.0
  C  C37  1  0.55816070  0.78333171  0.42826336  1.0
  C  C38  1  0.45157712  0.92159628  0.29287155  1.0
  C  C39  1  0.58045075  0.73993725  0.37789191  1.0
  C  C40  1  0.38953046  0.96142548  0.15568280  1.0
  C  C41  1  0.37436885  0.01193952  0.21113259  1.0
  C  C42  1  0.53002721  0.78468401  0.92985872  1.0
  C  C43  1  0.49362453  0.88557497  0.73770635  1.0
  C  C44  1  0.46169931  0.74405343  0.87905481  1.0
  C  C45  1  0.55811654  0.92826715  0.78841426  1.0
  C  C46  1  0.45154234  0.79288229  0.78553068  1.0
  C  C47  1  0.58042560  0.87789094  0.88218142  1.0
  C  C48  1  0.38955733  0.65568819  0.88286955  1.0
  C  C49  1  0.37435493  0.71114978  0.77690974  1.0
  C  C50  1  0.59861392  0.24584804  0.22603427  1.0
  C  C51  1  0.59865446  0.72604537  0.52810072  1.0
  C  C52  1  0.59859234  0.02810481  0.74587171  1.0
  O  O53  1  0.68846504  0.98722109  0.41637777  1.0
  O  O54  1  0.68843348  0.91637222  0.59641528  1.0
  O  O55  1  0.68844937  0.09640752  0.48723071  1.0
  O  O56  1  0.21795585  0.91241506  0.48719136  1.0
  O  O57  1  0.21796276  0.10040196  0.41241680  1.0
  O  O58  1  0.21793855  0.98718917  0.60040849  1.0
  O  O59  1  0.78072816  0.75164649  0.06745480  1.0
  O  O60  1  0.78072262  0.56744615  0.18089297  1.0
  O  O61  1  0.78068698  0.68088853  0.25164772  1.0
  O  O62  1  0.31145325  0.67620638  0.06963357  1.0
  O  O63  1  0.31142283  0.75414980  0.17621679  1.0
  O  O64  1  0.31142634  0.56962431  0.25415551  1.0
  O  O65  1  0.78997026  0.17063529  0.25946317  1.0
  O  O66  1  0.46163003  0.27533280  0.15360287  1.0
  O  O67  1  0.78998899  0.75948213  0.56987562  1.0
  O  O68  1  0.46168211  0.65361253  0.57105100  1.0
  O  O69  1  0.78995569  0.06989157  0.67065871  1.0
  O  O70  1  0.46155607  0.07104420  0.77536107  1.0
