# generated using pymatgen
data_MgH15C19O3
_symmetry_space_group_name_H-M   'P 1'
_cell_length_a   6.85630974
_cell_length_b   40.12017677
_cell_length_c   40.11892705
_cell_angle_alpha   119.67783216
_cell_angle_beta   93.26540484
_cell_angle_gamma   93.26457957
_symmetry_Int_Tables_number   1
_chemical_formula_structural   MgH15C19O3
_chemical_formula_sum   'Mg6 H90 C114 O18'
_cell_volume   9526.32949577
_cell_formula_units_Z   6
loop_
 _symmetry_equiv_pos_site_id
 _symmetry_equiv_pos_as_xyz
  1  'x, y, z'
loop_
 _atom_site_type_symbol
 _atom_site_label
 _atom_site_symmetry_multiplicity
 _atom_site_fract_x
 _atom_site_fract_y
 _atom_site_fract_z
 _atom_site_occupancy
  Mg  Mg0  1  0.63745895  0.67088741  0.30962828  1.0
  Mg  Mg1  1  0.32800336  0.69036425  0.36122671  1.0
  Mg  Mg2  1  0.96663453  0.63879177  0.32916209  1.0
  Mg  Mg3  1  0.69375003  0.32731218  0.68921514  1.0
  Mg  Mg4  1  0.00459821  0.31072975  0.63804659  1.0
  Mg  Mg5  1  0.36637020  0.36189737  0.67264592  1.0
  H  H6  1  0.95176098  0.21577304  0.61099786  1.0
  H  H7  1  0.34035088  0.38902079  0.60474997  1.0
  H  H8  1  0.73530269  0.39519386  0.78421747  1.0
  H  H9  1  0.86849366  0.05916032  0.47784086  1.0
  H  H10  1  0.39042228  0.52216194  0.58130408  1.0
  H  H11  1  0.80926630  0.41870512  0.94084807  1.0
  H  H12  1  0.02941618  0.94992011  0.51007421  1.0
  H  H13  1  0.51945206  0.48987455  0.43977792  1.0
  H  H14  1  0.07967475  0.56019776  0.05006678  1.0
  H  H15  1  0.62093626  0.87362899  0.48971074  1.0
  H  H16  1  0.13064948  0.51025871  0.38386914  1.0
  H  H17  1  0.74675049  0.61609452  0.12646746  1.0
  H  H18  1  0.23061931  0.91246101  0.40980138  1.0
  H  H19  1  0.82100108  0.59019373  0.50268657  1.0
  H  H20  1  0.31770959  0.49730965  0.08752024  1.0
  H  H21  1  0.49686887  0.82966101  0.35313263  1.0
  H  H22  1  0.14351808  0.64682218  0.47646664  1.0
  H  H23  1  0.66655275  0.52348596  0.17035353  1.0
  H  H24  1  0.32814778  0.86170443  0.35269172  1.0
  H  H25  1  0.97529960  0.64730139  0.50897160  1.0
  H  H26  1  0.46578464  0.49098122  0.13833353  1.0
  H  H27  1  0.24502949  0.82118805  0.35639488  1.0
  H  H28  1  0.88843585  0.64359481  0.46475068  1.0
  H  H29  1  0.42317096  0.53519202  0.17888389  1.0
  H  H30  1  0.37735867  0.78319508  0.38209300  1.0
  H  H31  1  0.99491268  0.61790867  0.40100828  1.0
  H  H32  1  0.59350059  0.59894769  0.21695525  1.0
  H  H33  1  0.09240595  0.79958928  0.41958379  1.0
  H  H34  1  0.67242805  0.58040556  0.38001571  1.0
  H  H35  1  0.29204578  0.61993196  0.20036015  1.0
  H  H36  1  0.90574325  0.85729617  0.44525172  1.0
  H  H37  1  0.45980581  0.55468333  0.41195326  1.0
  H  H38  1  0.04720000  0.58798881  0.14273202  1.0
  H  H39  1  0.46522263  0.97068598  0.54468696  1.0
  H  H40  1  0.92024878  0.45528417  0.42595527  1.0
  H  H41  1  0.49441733  0.57403969  0.02939654  1.0
  H  H42  1  0.59003778  0.93373823  0.54665080  1.0
  H  H43  1  0.04311530  0.45333628  0.38705511  1.0
  H  H44  1  0.65611871  0.61293388  0.06635858  1.0
  H  H45  1  0.33116317  0.93234187  0.54555738  1.0
  H  H46  1  0.78531005  0.45440138  0.38673403  1.0
  H  H47  1  0.39861485  0.61326113  0.06771725  1.0
  H  H48  1  0.32969710  0.05371557  0.49138738  1.0
  H  H49  1  0.83773456  0.50856397  0.56230717  1.0
  H  H50  1  0.27600365  0.43769949  0.94629715  1.0
  H  H51  1  0.62744262  0.97417633  0.46265702  1.0
  H  H52  1  0.16429858  0.53735930  0.51157348  1.0
  H  H53  1  0.65315164  0.48843174  0.02583021  1.0
  H  H54  1  0.58795666  0.01701761  0.46140203  1.0
  H  H55  1  0.12609706  0.53860345  0.55566211  1.0
  H  H56  1  0.57072224  0.44435634  0.98298562  1.0
  H  H57  1  0.47461900  0.97161841  0.42446505  1.0
  H  H58  1  0.04961230  0.57553606  0.54719030  1.0
  H  H59  1  0.50269373  0.45281910  0.02838427  1.0
  H  H60  1  0.71832639  0.02268129  0.53389075  1.0
  H  H61  1  0.18409828  0.46615043  0.48877227  1.0
  H  H62  1  0.69586889  0.51124292  0.97733098  1.0
  H  H63  1  0.87771672  0.03828282  0.57595688  1.0
  H  H64  1  0.30129759  0.42406668  0.46229613  1.0
  H  H65  1  0.83956598  0.53770797  0.96171708  1.0
  H  H66  1  0.79559431  0.98851072  0.54657612  1.0
  H  H67  1  0.24861151  0.45345185  0.44190463  1.0
  H  H68  1  0.80723492  0.55810615  0.01150122  1.0
  H  H69  1  0.97044397  0.15850327  0.61541827  1.0
  H  H70  1  0.35500435  0.38462002  0.54316958  1.0
  H  H71  1  0.81165068  0.45693851  0.84149310  1.0
  H  H72  1  0.19486688  0.07161154  0.59487870  1.0
  H  H73  1  0.59982687  0.40511446  0.47674517  1.0
  H  H74  1  0.12306923  0.52328861  0.92837978  1.0
  H  H75  1  0.18465468  0.12133148  0.62909690  1.0
  H  H76  1  0.55533755  0.37089974  0.49224953  1.0
  H  H77  1  0.06310576  0.50778800  0.87866034  1.0
  H  H78  1  0.35283763  0.10708869  0.59354783  1.0
  H  H79  1  0.75900864  0.40646246  0.51357538  1.0
  H  H80  1  0.24545242  0.48645807  0.89289923  1.0
  H  H81  1  0.64252472  0.14761233  0.49996999  1.0
  H  H82  1  0.14256866  0.50008776  0.64767862  1.0
  H  H83  1  0.49495424  0.35242146  0.85240549  1.0
  H  H84  1  0.50098611  0.10463359  0.48885158  1.0
  H  H85  1  0.01211923  0.51123300  0.61584112  1.0
  H  H86  1  0.39618792  0.38423712  0.89537696  1.0
  H  H87  1  0.70716850  0.10226223  0.46350333  1.0
  H  H88  1  0.24378172  0.53653304  0.63877324  1.0
  H  H89  1  0.60487029  0.36129447  0.89775671  1.0
  H  H90  1  0.41405048  0.14346160  0.55063384  1.0
  H  H91  1  0.86297991  0.44941356  0.59286652  1.0
  H  H92  1  0.26975113  0.40714686  0.85651748  1.0
  H  H93  1  0.23293694  0.20141566  0.57846681  1.0
  H  H94  1  0.65415753  0.42153415  0.62296670  1.0
  H  H95  1  0.03093244  0.37700830  0.79854599  1.0
  C  C96  1  0.69215507  0.24523579  0.62154770  1.0
  C  C97  1  0.07031747  0.37842622  0.62365256  1.0
  C  C98  1  0.44637326  0.37626426  0.75473691  1.0
  C  C99  1  0.79322034  0.21198114  0.60397500  1.0
  C  C100  1  0.18881046  0.39603348  0.60798372  1.0
  C  C101  1  0.58054115  0.39195345  0.78801246  1.0
  C  C102  1  0.69829298  0.17555503  0.57799692  1.0
  C  C103  1  0.11985018  0.42202889  0.59755258  1.0
  C  C104  1  0.52200218  0.40246166  0.82446188  1.0
  C  C105  1  0.81078770  0.14139402  0.56080963  1.0
  C  C106  1  0.24961979  0.43921869  0.58059640  1.0
  C  C107  1  0.66879873  0.41947084  0.85862618  1.0
  C  C108  1  0.78370802  0.11357648  0.52111719  1.0
  C  C109  1  0.26228994  0.47890737  0.59245829  1.0
  C  C110  1  0.66980511  0.40761876  0.88646812  1.0
  C  C111  1  0.88855519  0.08118897  0.50835298  1.0
  C  C112  1  0.37982344  0.49165140  0.57281265  1.0
  C  C113  1  0.80718702  0.42721610  0.91883989  1.0
  C  C114  1  0.01690834  0.07527172  0.53289333  1.0
  C  C115  1  0.48347339  0.46708591  0.54233678  1.0
  C  C116  1  0.94150526  0.45766263  0.92474165  1.0
  C  C117  1  0.10314044  0.03779156  0.51713986  1.0
  C  C118  1  0.58549828  0.48282977  0.52060997  1.0
  C  C119  1  0.06542813  0.47938330  0.96220129  1.0
  C  C120  1  0.01695578  0.00850931  0.52296114  1.0
  C  C121  1  0.49365444  0.47702343  0.48550256  1.0
  C  C122  1  0.00857135  0.51449092  0.99148072  1.0
  C  C123  1  0.09613557  0.97304571  0.50624215  1.0
  C  C124  1  0.58979771  0.49372295  0.46675986  1.0
  C  C125  1  0.12321249  0.53322966  0.02694246  1.0
  C  C126  1  0.25628273  0.96578300  0.48426610  1.0
  C  C127  1  0.77183926  0.51572060  0.48151503  1.0
  C  C128  1  0.29047638  0.51849608  0.03422356  1.0
  C  C129  1  0.33628351  0.92769027  0.46741219  1.0
  C  C130  1  0.86871623  0.53257232  0.46026906  1.0
  C  C131  1  0.40824441  0.53972743  0.07234255  1.0
  C  C132  1  0.44182671  0.91634672  0.49074588  1.0
  C  C133  1  0.95061794  0.50922685  0.42556003  1.0
  C  C134  1  0.52493453  0.57443128  0.08373424  1.0
  C  C135  1  0.53280700  0.88229126  0.47223665  1.0
  C  C136  1  0.05999928  0.52773829  0.41000544  1.0
  C  C137  1  0.64980544  0.58997319  0.11780638  1.0
  C  C138  1  0.51529157  0.85838878  0.43203188  1.0
  C  C139  1  0.08265804  0.56793807  0.42628272  1.0
  C  C140  1  0.65592307  0.57367039  0.14171093  1.0
  C  C141  1  0.39814991  0.86838841  0.40881421  1.0
  C  C142  1  0.98898729  0.59116639  0.45953601  1.0
  C  C143  1  0.52882561  0.54043390  0.13167104  1.0
  C  C144  1  0.31483417  0.90336057  0.42734819  1.0
  C  C145  1  0.88742350  0.57263604  0.47600902  1.0
  C  C146  1  0.41084265  0.52398332  0.09666393  1.0
  C  C147  1  0.36644936  0.84402039  0.36552622  1.0
  C  C148  1  0.00067511  0.63445204  0.47844787  1.0
  C  C149  1  0.52163338  0.52150466  0.15602317  1.0
  C  C150  1  0.62735402  0.82416146  0.41555655  1.0
  C  C151  1  0.21114848  0.58438758  0.40849656  1.0
  C  C152  1  0.80222748  0.59142362  0.17593169  1.0
  C  C153  1  0.53509370  0.78745947  0.39006201  1.0
  C  C154  1  0.14465642  0.60991741  0.39732097  1.0
  C  C155  1  0.74692740  0.60261532  0.21264283  1.0
  C  C156  1  0.63788504  0.75439307  0.37440033  1.0
  C  C157  1  0.26332318  0.62558659  0.37994401  1.0
  C  C158  1  0.88313098  0.62000130  0.24566174  1.0
  C  C159  1  0.84408510  0.75919095  0.38584393  1.0
  C  C160  1  0.45804794  0.61414644  0.37331390  1.0
  C  C161  1  0.08450844  0.62661455  0.24083020  1.0
  C  C162  1  0.93535904  0.79657789  0.41141766  1.0
  C  C163  1  0.52346027  0.58853763  0.38510583  1.0
  C  C164  1  0.13804254  0.61481372  0.20341806  1.0
  C  C165  1  0.83120637  0.82861400  0.42609925  1.0
  C  C166  1  0.40446346  0.57383043  0.40241368  1.0
  C  C167  1  0.00157016  0.59751422  0.17143362  1.0
  C  C168  1  0.96495062  0.72668925  0.37322682  1.0
  C  C169  1  0.59172415  0.62678377  0.35346958  1.0
  C  C170  1  0.23807146  0.64649811  0.27330614  1.0
  C  C171  1  0.45897456  0.93963260  0.53413088  1.0
  C  C172  1  0.92450832  0.46584277  0.40545671  1.0
  C  C173  1  0.51908011  0.59453614  0.06045344  1.0
  C  C174  1  0.34311776  0.99511022  0.47860058  1.0
  C  C175  1  0.86406665  0.52139981  0.51652986  1.0
  C  C176  1  0.34794373  0.48349598  0.00491012  1.0
  C  C177  1  0.26351648  0.03062485  0.49532375  1.0
  C  C178  1  0.76769056  0.50463802  0.53527908  1.0
  C  C179  1  0.23293722  0.46473043  0.96938292  1.0
  C  C180  1  0.51740197  0.98920987  0.45566812  1.0
  C  C181  1  0.06121186  0.54433647  0.53359314  1.0
  C  C182  1  0.52799541  0.46642733  0.01079631  1.0
  C  C183  1  0.84336307  0.01473500  0.54599771  1.0
  C  C184  1  0.29694788  0.45402434  0.46870548  1.0
  C  C185  1  0.82881106  0.53130605  0.98527079  1.0
  C  C186  1  0.05342694  0.10411549  0.57199218  1.0
  C  C187  1  0.48104953  0.42800433  0.53211646  1.0
  C  C188  1  0.94890529  0.46791591  0.89589493  1.0
  C  C189  1  0.94848045  0.13643715  0.58494348  1.0
  C  C190  1  0.36335101  0.41508444  0.55153808  1.0
  C  C191  1  0.81158307  0.44854284  0.86357147  1.0
  C  C192  1  0.20302685  0.10080840  0.59888240  1.0
  C  C193  1  0.60388117  0.40111356  0.50194212  1.0
  C  C194  1  0.10194119  0.49809124  0.89918002  1.0
  C  C195  1  0.65209643  0.11740386  0.49199758  1.0
  C  C196  1  0.16008576  0.50805472  0.62543691  1.0
  C  C197  1  0.53460823  0.37465012  0.88262369  1.0
  C  C198  1  0.49283434  0.17175459  0.56944083  1.0
  C  C199  1  0.92297177  0.43058557  0.60232078  1.0
  C  C200  1  0.32034385  0.39768197  0.82823000  1.0
  C  C201  1  0.39091546  0.20403919  0.58549395  1.0
  C  C202  1  0.80509137  0.41450070  0.61853998  1.0
  C  C203  1  0.18629214  0.38142747  0.79592972  1.0
  C  C204  1  0.48524698  0.24113150  0.61107517  1.0
  C  C205  1  0.87387191  0.38890369  0.63002280  1.0
  C  C206  1  0.24357016  0.36990136  0.75883760  1.0
  C  C207  1  0.36633660  0.27398576  0.62471279  1.0
  C  C208  1  0.74137101  0.37523865  0.64922974  1.0
  C  C209  1  0.09191421  0.35069640  0.72597080  1.0
  O  O210  1  0.14456722  0.73175543  0.38626597  1.0
  O  O211  1  0.75837495  0.61375846  0.34556408  1.0
  O  O212  1  0.41256096  0.65445177  0.26819675  1.0
  O  O213  1  0.88437624  0.69249466  0.34837188  1.0
  O  O214  1  0.53611587  0.65162518  0.34409304  1.0
  O  O215  1  0.19184194  0.65587883  0.30752110  1.0
  O  O216  1  0.53642675  0.72024379  0.34993066  1.0
  O  O217  1  0.18645770  0.65008096  0.37029222  1.0
  O  O218  1  0.81596597  0.62971302  0.27982762  1.0
  O  O219  1  0.18744687  0.26963752  0.61156131  1.0
  O  O220  1  0.57566282  0.38839426  0.65805598  1.0
  O  O221  1  0.91741098  0.34186653  0.73030433  1.0
  O  O222  1  0.44770909  0.30773699  0.65057392  1.0
  O  O223  1  0.79698758  0.34937472  0.65710706  1.0
  O  O224  1  0.13965820  0.34283287  0.69222947  1.0
  O  O225  1  0.79501591  0.27896015  0.64676592  1.0
  O  O226  1  0.14805226  0.35320942  0.63215458  1.0
  O  O227  1  0.51559024  0.36774283  0.72101121  1.0
