# generated using pymatgen
data_Zn3H9C34I10Cl11O12
_symmetry_space_group_name_H-M   'P 1'
_cell_length_a   21.61478653
_cell_length_b   21.77324434
_cell_length_c   21.89716944
_cell_angle_alpha   119.70019225
_cell_angle_beta   118.98950125
_cell_angle_gamma   90.23303003
_symmetry_Int_Tables_number   1
_chemical_formula_structural   Zn3H9C34I10Cl11O12
_chemical_formula_sum   'Zn6 H18 C68 I20 Cl22 O24'
_cell_volume   7414.56467772
_cell_formula_units_Z   2
loop_
 _symmetry_equiv_pos_site_id
 _symmetry_equiv_pos_as_xyz
  1  'x, y, z'
loop_
 _atom_site_type_symbol
 _atom_site_label
 _atom_site_symmetry_multiplicity
 _atom_site_fract_x
 _atom_site_fract_y
 _atom_site_fract_z
 _atom_site_occupancy
  Zn  Zn0  1  0.03531073  0.49428799  0.49361787  1.0
  Zn  Zn1  1  0.91299324  0.49817828  0.50043892  1.0
  Zn  Zn2  1  0.51459543  0.93786362  0.50116168  1.0
  Zn  Zn3  1  0.51694503  0.06782949  0.51025608  1.0
  Zn  Zn4  1  0.96810122  0.95202374  0.41063479  1.0
  Zn  Zn5  1  0.05335266  0.04037271  0.58577778  1.0
  H  H6  1  0.91334483  0.27487047  0.48715891  1.0
  H  H7  1  0.89427726  0.12819339  0.34036358  1.0
  H  H8  1  0.01828801  0.34639851  0.59089969  1.0
  H  H9  1  0.98983012  0.23368707  0.56471466  1.0
  H  H10  1  0.32497218  0.67617634  0.03842212  1.0
  H  H11  1  0.82992020  0.20763351  0.98350797  1.0
  H  H12  1  0.91319426  0.71071860  0.33945644  1.0
  H  H13  1  0.96440703  0.84048670  0.56424075  1.0
  H  H14  1  0.87757770  0.64980424  0.41720466  1.0
  H  H15  1  0.71941705  0.95712748  0.54889038  1.0
  H  H16  1  0.76914867  0.14897981  0.61700900  1.0
  H  H17  1  0.83419011  0.12345418  0.51989353  1.0
  H  H18  1  0.76446422  0.02595724  0.41346253  1.0
  H  H19  1  0.30012758  0.86278928  0.04848650  1.0
  H  H20  1  0.25684389  0.01507600  0.41598264  1.0
  H  H21  1  0.20838625  0.10272996  0.50378534  1.0
  H  H22  1  0.30022552  0.72347060  0.93093166  1.0
  H  H23  1  0.31503493  0.08377114  0.66613957  1.0
  C  C24  1  0.99601200  0.36999853  0.47899504  1.0
  C  C25  1  0.18403118  0.69759562  0.91337102  1.0
  C  C26  1  0.27135875  0.80774236  0.02678017  1.0
  C  C27  1  0.28643419  0.78240595  0.08779743  1.0
  C  C28  1  0.18531280  0.77553463  0.98041490  1.0
  C  C29  1  0.19828386  0.74895839  0.03938571  1.0
  C  C30  1  0.13076515  0.65421471  0.82480449  1.0
  C  C31  1  0.33729739  0.82519298  0.17699753  1.0
  C  C32  1  0.02792942  0.24601702  0.41282864  1.0
  C  C33  1  0.03616153  0.17416562  0.41778363  1.0
  C  C34  1  0.04340939  0.31218019  0.55863513  1.0
  C  C35  1  0.03667833  0.57176332  0.65728194  1.0
  C  C36  1  0.91894956  0.24663121  0.43343645  1.0
  C  C37  1  0.99697611  0.29357964  0.46674226  1.0
  C  C38  1  0.99807406  0.16643246  0.46003138  1.0
  C  C39  1  0.03364911  0.23840301  0.55384224  1.0
  C  C40  1  0.91735786  0.16699024  0.40825805  1.0
  C  C41  1  0.68661779  0.25866827  0.95898353  1.0
  C  C42  1  0.66781859  0.23815519  0.00894822  1.0
  C  C43  1  0.81513913  0.36462746  0.24932171  1.0
  C  C44  1  0.64312447  0.09023073  0.75278845  1.0
  C  C45  1  0.77170752  0.29349782  0.03361096  1.0
  C  C46  1  0.99485804  0.60908108  0.49006911  1.0
  C  C47  1  0.75307425  0.27439011  0.08545567  1.0
  C  C48  1  0.78381265  0.21667592  0.99116830  1.0
  C  C49  1  0.69902394  0.18049729  0.91515966  1.0
  C  C50  1  0.76473784  0.19594858  0.04004626  1.0
  C  C51  1  0.67976941  0.16064075  0.96584425  1.0
  C  C52  1  0.78368868  0.32221662  0.17282121  1.0
  C  C53  1  0.67112818  0.13223640  0.82863385  1.0
  C  C54  1  0.06182105  0.69885089  0.47724535  1.0
  C  C55  1  0.05081823  0.76164068  0.45653764  1.0
  C  C56  1  0.91897748  0.66023195  0.40557639  1.0
  C  C57  1  0.86259570  0.41434555  0.34021818  1.0
  C  C58  1  0.99909932  0.74592251  0.56176696  1.0
  C  C59  1  0.99535279  0.67667681  0.48308448  1.0
  C  C60  1  0.99059997  0.79349452  0.47119523  1.0
  C  C61  1  0.91721730  0.72582162  0.39723338  1.0
  C  C62  1  0.00710981  0.81579768  0.55936415  1.0
  C  C63  1  0.63312221  0.03514202  0.50939526  1.0
  C  C64  1  0.42998646  0.90601618  0.34497904  1.0
  C  C65  1  0.40904236  0.03346164  0.52485990  1.0
  C  C66  1  0.60032209  0.04846932  0.66189375  1.0
  C  C67  1  0.14813985  0.01730380  0.54048372  1.0
  C  C68  1  0.28499385  0.70458838  0.02113097  1.0
  C  C69  1  0.99654707  0.09344450  0.45873100  1.0
  C  C70  1  0.90844513  0.02323159  0.52745852  1.0
  C  C71  1  0.98648119  0.86317492  0.46588791  1.0
  C  C72  1  0.75411823  0.01067005  0.57333761  1.0
  C  C73  1  0.82667986  0.99965727  0.57500929  1.0
  C  C74  1  0.68918559  0.97573593  0.42373427  1.0
  C  C75  1  0.75711704  0.11325580  0.55310577  1.0
  C  C76  1  0.70676878  0.03549094  0.51344587  1.0
  C  C77  1  0.83565497  0.02764531  0.52559211  1.0
  C  C78  1  0.76328826  0.98613327  0.42987811  1.0
  C  C79  1  0.19900446  0.67219325  0.97482037  1.0
  C  C80  1  0.83192907  0.10926810  0.56032309  1.0
  C  C81  1  0.26732973  0.98100281  0.44130258  1.0
  C  C82  1  0.19989649  0.96525856  0.44616866  1.0
  C  C83  1  0.34865493  0.00592141  0.58981903  1.0
  C  C84  1  0.32605434  0.11142313  0.56532829  1.0
  C  C85  1  0.34133845  0.03343225  0.53257258  1.0
  C  C86  1  0.21940616  0.02398340  0.53820663  1.0
  C  C87  1  0.29047314  0.02536277  0.61142210  1.0
  C  C88  1  0.24904537  0.10196086  0.55824180  1.0
  C  C89  1  0.08419218  0.61656164  0.74844546  1.0
  C  C90  1  0.38009387  0.86165358  0.25397868  1.0
  C  C91  1  0.27152567  0.73112039  0.96251269  1.0
  I  I92  1  0.14269515  0.56691143  0.93397944  1.0
  I  I93  1  0.81284422  0.24386970  0.34044093  1.0
  I  I94  1  0.57973625  0.25529381  0.02431267  1.0
  I  I95  1  0.62578127  0.30463565  0.89385906  1.0
  I  I96  1  0.60963088  0.05724762  0.91195873  1.0
  I  I97  1  0.84397101  0.39604116  0.08700911  1.0
  I  I98  1  0.01900059  0.71701606  0.32401852  1.0
  I  I99  1  0.87258876  0.55392752  0.28264063  1.0
  I  I100  1  0.89413239  0.73165270  0.55852722  1.0
  I  I101  1  0.07585466  0.75480343  0.68164162  1.0
  I  I102  1  0.10504658  0.91219556  0.67889532  1.0
  I  I103  1  0.81124524  0.74631608  0.36509315  1.0
  I  I104  1  0.92338721  0.04370802  0.70497410  1.0
  I  I105  1  0.10736918  0.82933372  0.94661110  1.0
  I  I106  1  0.74925431  0.88860829  0.31711683  1.0
  I  I107  1  0.10996420  0.98191474  0.35023140  1.0
  I  I108  1  0.27942894  0.97456967  0.67049360  1.0
  I  I109  1  0.46001852  0.05636052  0.71147891  1.0
  I  I110  1  0.94917305  0.22404250  0.28587684  1.0
  I  I111  1  0.99148106  0.07292026  0.28662687  1.0
  Cl  Cl112  1  0.13022448  0.18289139  0.48144000  1.0
  Cl  Cl113  1  0.13680409  0.37178498  0.62155560  1.0
  Cl  Cl114  1  0.11387629  0.24898103  0.64315331  1.0
  Cl  Cl115  1  0.85495901  0.13232757  0.42416247  1.0
  Cl  Cl116  1  0.81279810  0.15386185  0.08912816  1.0
  Cl  Cl117  1  0.06654742  0.61926839  0.39900112  1.0
  Cl  Cl118  1  0.15006774  0.73375851  0.57413496  1.0
  Cl  Cl119  1  0.13444564  0.83453349  0.52040951  1.0
  Cl  Cl120  1  0.15264846  0.76057953  0.08840785  1.0
  Cl  Cl121  1  0.76728383  0.07411078  0.67391683  1.0
  Cl  Cl122  1  0.81710341  0.90207309  0.51973684  1.0
  Cl  Cl123  1  0.64655500  0.88344319  0.38814549  1.0
  Cl  Cl124  1  0.71838688  0.16205308  0.50502515  1.0
  Cl  Cl125  1  0.90822329  0.18263777  0.66432891  1.0
  Cl  Cl126  1  0.62171895  0.98946157  0.34576081  1.0
  Cl  Cl127  1  0.27121430  0.90072829  0.36396956  1.0
  Cl  Cl128  1  0.16490848  0.87342388  0.41139166  1.0
  Cl  Cl129  1  0.33726251  0.90891843  0.53773547  1.0
  Cl  Cl130  1  0.40337512  0.18160616  0.66821107  1.0
  Cl  Cl131  1  0.31183290  0.14424324  0.49924709  1.0
  Cl  Cl132  1  0.25503671  0.17862941  0.64673705  1.0
  Cl  Cl133  1  0.11428322  0.29192025  0.44023677  1.0
  O  O134  1  0.04388123  0.40021600  0.47526587  1.0
  O  O135  1  0.60793568  0.08941023  0.51475730  1.0
  O  O136  1  0.45019365  0.86964180  0.37960114  1.0
  O  O137  1  0.44991133  0.97661227  0.38386760  1.0
  O  O138  1  0.43291261  0.97921254  0.51712588  1.0
  O  O139  1  0.43450148  0.08596230  0.52395709  1.0
  O  O140  1  0.58165129  0.97665736  0.61987446  1.0
  O  O141  1  0.58294416  0.08675185  0.63110540  1.0
  O  O142  1  0.08579047  0.97565441  0.47094636  1.0
  O  O143  1  0.15578349  0.05497015  0.61243479  1.0
  O  O144  1  0.96163766  0.02989784  0.38671319  1.0
  O  O145  1  0.95161955  0.39875101  0.49665778  1.0
  O  O146  1  0.02836654  0.10145567  0.52897019  1.0
  O  O147  1  0.90166753  0.98779888  0.45727965  1.0
  O  O148  1  0.97061052  0.05706893  0.59999467  1.0
  O  O149  1  0.95666010  0.85272489  0.39323750  1.0
  O  O150  1  0.01336388  0.92640323  0.53448200  1.0
  O  O151  1  0.06910351  0.55122046  0.61868847  1.0
  O  O152  1  0.96530638  0.55585580  0.62174017  1.0
  O  O153  1  0.04904435  0.58317970  0.49708280  1.0
  O  O154  1  0.94037115  0.58453053  0.48797115  1.0
  O  O155  1  0.93196882  0.43416960  0.37221597  1.0
  O  O156  1  0.83212803  0.43454438  0.38234784  1.0
  O  O157  1  0.60234546  0.97895671  0.49989935  1.0
