# generated using pymatgen
data_AlH12C24(SO5)3
_symmetry_space_group_name_H-M   'P 1'
_cell_length_a   4.31254813
_cell_length_b   28.77246625
_cell_length_c   28.77110833
_cell_angle_alpha   59.99868124
_cell_angle_beta   90.00074580
_cell_angle_gamma   89.99814592
_symmetry_Int_Tables_number   1
_chemical_formula_structural   AlH12C24(SO5)3
_chemical_formula_sum   'Al2 H24 C48 S6 O30'
_cell_volume   3091.66547667
_cell_formula_units_Z   2
loop_
 _symmetry_equiv_pos_site_id
 _symmetry_equiv_pos_as_xyz
  1  'x, y, z'
loop_
 _atom_site_type_symbol
 _atom_site_label
 _atom_site_symmetry_multiplicity
 _atom_site_fract_x
 _atom_site_fract_y
 _atom_site_fract_z
 _atom_site_occupancy
  Al  Al0  1  0.03579349  0.50000167  0.99999877  1.0
  Al  Al1  1  0.03612978  0.16665433  0.66668686  1.0
  H  H2  1  0.49627517  0.30460308  0.52490580  1.0
  H  H3  1  0.43294515  0.35865850  0.42571385  1.0
  H  H4  1  0.46686383  0.21346405  0.41659260  1.0
  H  H5  1  0.46693968  0.45319782  0.25009796  1.0
  H  H6  1  0.49574450  0.36205871  0.14178533  1.0
  H  H7  1  0.43264347  0.30799880  0.24098132  1.0
  H  H8  1  0.49629949  0.17050549  0.80461161  1.0
  H  H9  1  0.43294757  0.21564001  0.85866720  1.0
  H  H10  1  0.46692768  0.36995202  0.71345704  1.0
  H  H11  1  0.46697152  0.29671866  0.95319576  1.0
  H  H12  1  0.49575959  0.49617366  0.86204340  1.0
  H  H13  1  0.43259761  0.45103645  0.80798619  1.0
  H  H14  1  0.49625607  0.02491615  0.67049502  1.0
  H  H15  1  0.43288780  0.92572442  0.71560631  1.0
  H  H16  1  0.46700062  0.91655998  0.86994966  1.0
  H  H17  1  0.46688094  0.75008930  0.79669756  1.0
  H  H18  1  0.49579606  0.64178472  0.99615758  1.0
  H  H19  1  0.43270234  0.74098201  0.95101382  1.0
  H  H20  1  0.01964628  0.11571186  0.56192532  1.0
  H  H21  1  0.01957707  0.55093204  0.10476103  1.0
  H  H22  1  0.01969585  0.32236038  0.61571182  1.0
  H  H23  1  0.01957155  0.34431074  0.05093398  1.0
  H  H24  1  0.01976776  0.06188654  0.82238759  1.0
  H  H25  1  0.01950660  0.60475535  0.84430278  1.0
  C  C26  1  0.53278592  0.57992155  0.95190631  1.0
  C  C27  1  0.53278268  0.46817260  0.07992382  1.0
  C  C28  1  0.53278422  0.45190879  0.96816934  1.0
  C  C29  1  0.53312834  0.19848100  0.58676874  1.0
  C  C30  1  0.53314071  0.21475468  0.69849792  1.0
  C  C31  1  0.53314365  0.08674353  0.71477580  1.0
  C  C32  1  0.50263700  0.22877509  0.52688185  1.0
  C  C33  1  0.48174889  0.28487697  0.50097866  1.0
  C  C34  1  0.44687057  0.31505826  0.44563821  1.0
  C  C35  1  0.43605235  0.28978484  0.41441098  1.0
  C  C36  1  0.46112363  0.23347147  0.44022831  1.0
  C  C37  1  0.49330282  0.20362150  0.49576459  1.0
  C  C38  1  0.41845607  0.32029587  0.35780274  1.0
  C  C39  1  0.41851142  0.34636064  0.30889276  1.0
  C  C40  1  0.43594083  0.37687048  0.25228742  1.0
  C  C41  1  0.46112754  0.43318700  0.22646703  1.0
  C  C42  1  0.49321198  0.46302672  0.17093494  1.0
  C  C43  1  0.50243064  0.43787655  0.13981492  1.0
  C  C44  1  0.48140618  0.38177679  0.16572242  1.0
  C  C45  1  0.44657861  0.35159586  0.22106387  1.0
  C  C46  1  0.50269974  0.24435301  0.72878428  1.0
  C  C47  1  0.48184538  0.21415866  0.78489073  1.0
  C  C48  1  0.44692093  0.23931780  0.81506707  1.0
  C  C49  1  0.43610109  0.29581120  0.78978839  1.0
  C  C50  1  0.46116637  0.32631148  0.73347045  1.0
  C  C51  1  0.49337155  0.30062807  0.70362116  1.0
  C  C52  1  0.41853458  0.32190871  0.82029833  1.0
  C  C53  1  0.41850541  0.34476011  0.84635659  1.0
  C  C54  1  0.43592517  0.37085417  0.87686422  1.0
  C  C55  1  0.46110165  0.34036230  0.93317830  1.0
  C  C56  1  0.49320879  0.36605269  0.96302096  1.0
  C  C57  1  0.50239108  0.42232145  0.93786755  1.0
  C  C58  1  0.48136997  0.45251677  0.88176701  1.0
  C  C59  1  0.44654046  0.42735268  0.85158842  1.0
  C  C60  1  0.50264508  0.02686052  0.74436280  1.0
  C  C61  1  0.48177492  0.00097330  0.71414774  1.0
  C  C62  1  0.44688072  0.94563325  0.73930147  1.0
  C  C63  1  0.43615972  0.91439889  0.79580086  1.0
  C  C64  1  0.46125015  0.94019525  0.82631093  1.0
  C  C65  1  0.49337948  0.99573426  0.80063584  1.0
  C  C66  1  0.41856484  0.85779560  0.82188336  1.0
  C  C67  1  0.41853866  0.80888715  0.84473909  1.0
  C  C68  1  0.43593470  0.75227971  0.87084015  1.0
  C  C69  1  0.46107444  0.72646098  0.84034468  1.0
  C  C70  1  0.49316004  0.67092685  0.86603681  1.0
  C  C71  1  0.50237850  0.63980985  0.92231111  1.0
  C  C72  1  0.48139637  0.66571875  0.95250317  1.0
  C  C73  1  0.44659548  0.72106405  0.92733399  1.0
  S  S74  1  0.57374198  0.13370059  0.52317781  1.0
  S  S75  1  0.57369161  0.53294775  0.14352140  1.0
  S  S76  1  0.57381458  0.34312900  0.63369901  1.0
  S  S77  1  0.57369089  0.32353635  0.03294601  1.0
  S  S78  1  0.57389304  0.02312856  0.84315154  1.0
  S  S79  1  0.57357533  0.64350626  0.82353161  1.0
  O  O80  1  0.30706570  0.44712476  0.99891580  1.0
  O  O81  1  0.30706118  0.55396651  0.94711673  1.0
  O  O82  1  0.30706017  0.49892121  0.05396296  1.0
  O  O83  1  0.77526848  0.48024486  0.95868069  1.0
  O  O84  1  0.77526598  0.45868676  0.06107407  1.0
  O  O85  1  0.77528851  0.56107698  0.98023960  1.0
  O  O86  1  0.30741604  0.11269309  0.71957852  1.0
  O  O87  1  0.30740545  0.16772487  0.61271624  1.0
  O  O88  1  0.30739992  0.21955288  0.66774894  1.0
  O  O89  1  0.77557246  0.10560329  0.68642506  1.0
  O  O90  1  0.77558785  0.18640829  0.70799721  1.0
  O  O91  1  0.77558107  0.20797574  0.60561989  1.0
  O  O92  1  0.29811139  0.10104970  0.54779349  1.0
  O  O93  1  0.72245112  0.12723320  0.48218794  1.0
  O  O94  1  0.79101831  0.12143179  0.57089084  1.0
  O  O95  1  0.29803328  0.56560809  0.11889087  1.0
  O  O96  1  0.72237509  0.53942482  0.18450089  1.0
  O  O97  1  0.79094724  0.54520085  0.09581124  1.0
  O  O98  1  0.29817247  0.35116204  0.60104190  1.0
  O  O99  1  0.72254552  0.39058427  0.62722300  1.0
  O  O100  1  0.79108154  0.30767208  0.62144405  1.0
  O  O101  1  0.29803712  0.31550101  0.06560553  1.0
  O  O102  1  0.72240421  0.27608325  0.03942045  1.0
  O  O103  1  0.79093502  0.35899161  0.04520706  1.0
  O  O104  1  0.29825555  0.04773970  0.85120622  1.0
  O  O105  1  0.72262288  0.98213729  0.89059942  1.0
  O  O106  1  0.79115928  0.07084413  0.80770018  1.0
  O  O107  1  0.29793086  0.61888179  0.81550904  1.0
  O  O108  1  0.72227907  0.68448259  0.77606936  1.0
  O  O109  1  0.79086192  0.59579356  0.85898625  1.0
