# generated using pymatgen
data_CuSiH16C24N4(Cl2F3)2
_symmetry_space_group_name_H-M   'P 1'
_cell_length_a   8.00663250
_cell_length_b   13.75267214
_cell_length_c   13.75267240
_cell_angle_alpha   89.73987171
_cell_angle_beta   86.00067572
_cell_angle_gamma   86.00081317
_symmetry_Int_Tables_number   1
_chemical_formula_structural   CuSiH16C24N4(Cl2F3)2
_chemical_formula_sum   'Cu1 Si1 H16 C24 N4 Cl4 F6'
_cell_volume   1506.97632112
_cell_formula_units_Z   1
loop_
 _symmetry_equiv_pos_site_id
 _symmetry_equiv_pos_as_xyz
  1  'x, y, z'
loop_
 _atom_site_type_symbol
 _atom_site_label
 _atom_site_symmetry_multiplicity
 _atom_site_fract_x
 _atom_site_fract_y
 _atom_site_fract_z
 _atom_site_occupancy
  Cu  Cu0  1  0.49999633  0.49999485  0.49999879  1.0
  Si  Si1  1  0.99999152  0.49999901  0.49999704  1.0
  H  H2  1  0.26022201  0.49992062  0.34407570  1.0
  H  H3  1  0.26446826  0.49984592  0.16877020  1.0
  H  H4  1  0.80620215  0.50007028  0.16209995  1.0
  H  H5  1  0.78005098  0.50005299  0.33950248  1.0
  H  H6  1  0.19378352  0.49993618  0.83788983  1.0
  H  H7  1  0.73552296  0.50016637  0.83122879  1.0
  H  H8  1  0.73977676  0.50008074  0.65592594  1.0
  H  H9  1  0.21994816  0.49994546  0.66048680  1.0
  H  H10  1  0.26021197  0.34407306  0.49991605  1.0
  H  H11  1  0.26445740  0.16876796  0.49984638  1.0
  H  H12  1  0.80619455  0.16209871  0.50007080  1.0
  H  H13  1  0.78004378  0.33950328  0.50005123  1.0
  H  H14  1  0.19378574  0.83788953  0.49993382  1.0
  H  H15  1  0.73552396  0.83122175  0.50015965  1.0
  H  H16  1  0.73977158  0.65591956  0.50007751  1.0
  H  H17  1  0.21994387  0.66048642  0.49994363  1.0
  C  C18  1  0.37998368  0.49994798  0.30140559  1.0
  C  C19  1  0.38409226  0.49993088  0.20025533  1.0
  C  C20  1  0.53763267  0.49997866  0.14318613  1.0
  C  C21  1  0.68093636  0.50001139  0.19770239  1.0
  C  C22  1  0.66810459  0.50001796  0.29886784  1.0
  C  C23  1  0.55821808  0.49993329  0.03468347  1.0
  C  C24  1  0.44177017  0.50007245  0.96530912  1.0
  C  C25  1  0.31904572  0.49999362  0.80229118  1.0
  C  C26  1  0.46235066  0.50002634  0.85680811  1.0
  C  C27  1  0.61589857  0.50007412  0.79974079  1.0
  C  C28  1  0.62001251  0.50005411  0.69859034  1.0
  C  C29  1  0.33189178  0.49998267  0.70112663  1.0
  C  C30  1  0.37997687  0.30140294  0.49994556  1.0
  C  C31  1  0.38407987  0.20025127  0.49993058  1.0
  C  C32  1  0.53762673  0.14318543  0.49997867  1.0
  C  C33  1  0.68093510  0.19770304  0.50001121  1.0
  C  C34  1  0.66809602  0.29886897  0.50001706  1.0
  C  C35  1  0.55821444  0.03468408  0.49993602  1.0
  C  C36  1  0.44177184  0.96530635  0.50007199  1.0
  C  C37  1  0.31904869  0.80228739  0.49999108  1.0
  C  C38  1  0.46235571  0.85680573  0.50002440  1.0
  C  C39  1  0.61589900  0.79973844  0.50006972  1.0
  C  C40  1  0.62000576  0.69858676  0.50005169  1.0
  C  C41  1  0.33188376  0.70112365  0.49998102  1.0
  N  N42  1  0.51914078  0.49998752  0.35080693  1.0
  N  N43  1  0.48086085  0.50001093  0.64918953  1.0
  N  N44  1  0.51913169  0.35080325  0.49998472  1.0
  N  N45  1  0.48085730  0.64918572  0.50000937  1.0
  Cl  Cl46  1  0.76881324  0.49977545  0.99281552  1.0
  Cl  Cl47  1  0.23117161  0.50022737  0.00717504  1.0
  Cl  Cl48  1  0.76880978  0.99281697  0.49978454  1.0
  Cl  Cl49  1  0.23117283  0.00717273  0.50022652  1.0
  F  F50  1  0.21624316  0.50086835  0.50086728  1.0
  F  F51  1  0.78374147  0.49912572  0.49912478  1.0
  F  F52  1  0.99999073  0.58823331  0.41176629  1.0
  F  F53  1  0.99999731  0.41176470  0.58822904  1.0
  F  F54  1  0.02292294  0.41173566  0.41173099  1.0
  F  F55  1  0.97706368  0.58826279  0.58826169  1.0
