# generated using pymatgen
data_Zn4H6C24S6O19F2
_symmetry_space_group_name_H-M   'P 1'
_cell_length_a   19.63730753
_cell_length_b   19.64913650
_cell_length_c   33.40392052
_cell_angle_alpha   78.97331951
_cell_angle_beta   78.94761153
_cell_angle_gamma   63.93459979
_symmetry_Int_Tables_number   1
_chemical_formula_structural   Zn4H6C24S6O19F2
_chemical_formula_sum   'Zn16 H24 C96 S24 O76 F8'
_cell_volume   11279.39839929
_cell_formula_units_Z   4
loop_
 _symmetry_equiv_pos_site_id
 _symmetry_equiv_pos_as_xyz
  1  'x, y, z'
loop_
 _atom_site_type_symbol
 _atom_site_label
 _atom_site_symmetry_multiplicity
 _atom_site_fract_x
 _atom_site_fract_y
 _atom_site_fract_z
 _atom_site_occupancy
  Zn  Zn0  1  0.59817064  0.94357277  0.52290249  1.0
  Zn  Zn1  1  0.51594319  0.01512250  0.43956157  1.0
  Zn  Zn2  1  0.43718542  0.94216581  0.51805311  1.0
  Zn  Zn3  1  0.44695744  0.10127878  0.51918630  1.0
  Zn  Zn4  1  0.65078601  0.30242278  0.72854942  1.0
  Zn  Zn5  1  0.80875641  0.31081781  0.73433592  1.0
  Zn  Zn6  1  0.73474585  0.22899895  0.81057743  1.0
  Zn  Zn7  1  0.80748570  0.15142231  0.72680600  1.0
  Zn  Zn8  1  0.23414047  0.73363525  0.31090161  1.0
  Zn  Zn9  1  0.30219956  0.65142701  0.22889273  1.0
  Zn  Zn10  1  0.15158420  0.80781881  0.22911062  1.0
  Zn  Zn11  1  0.31486832  0.80737231  0.23351532  1.0
  Zn  Zn12  1  0.94108576  0.43769890  0.01660337  1.0
  Zn  Zn13  1  0.94549954  0.59799466  0.02271988  1.0
  Zn  Zn14  1  0.09957576  0.44429375  0.02242708  1.0
  Zn  Zn15  1  0.01810509  0.51611437  0.94051510  1.0
  H  H16  1  0.54861573  0.25000526  0.64995911  1.0
  H  H17  1  0.70223002  0.99790951  0.59966362  1.0
  H  H18  1  0.30163248  0.79638624  0.40103977  1.0
  H  H19  1  0.44471546  0.95670756  0.35103815  1.0
  H  H20  1  0.75707676  0.53604771  0.66005978  1.0
  H  H21  1  0.29830004  0.51722343  0.39951472  1.0
  H  H22  1  0.02039049  0.79360879  0.39903894  1.0
  H  H23  1  0.03713123  0.05070840  0.65815061  1.0
  H  H24  1  0.84923165  0.34905325  0.95116784  1.0
  H  H25  1  0.89708077  0.40207289  0.79985167  1.0
  H  H26  1  0.23006507  0.44978319  0.85250719  1.0
  H  H27  1  0.85520726  0.83860516  0.95869165  1.0
  H  H28  1  0.99669627  0.70159317  0.10091666  1.0
  H  H29  1  0.25247675  0.55533805  0.14801735  1.0
  H  H30  1  0.71883975  0.69700655  0.09762416  1.0
  H  H31  1  0.99021936  0.21341725  0.09501899  1.0
  H  H32  1  0.37397878  0.75745428  0.63235799  1.0
  H  H33  1  0.57185833  0.13377909  0.33983182  1.0
  H  H34  1  0.68205025  0.90224152  0.31213798  1.0
  H  H35  1  0.27169671  0.24294995  0.63965762  1.0
  H  H36  1  0.55702598  0.17699231  0.93480068  1.0
  H  H37  1  0.84492285  0.87166140  0.74677139  1.0
  H  H38  1  0.56448942  0.43497414  0.19409224  1.0
  H  H39  1  0.30725573  0.07591013  0.20503817  1.0
  C  C40  1  0.68326926  0.93180406  0.44069286  1.0
  C  C41  1  0.42596618  0.93295443  0.43295607  1.0
  C  C42  1  0.55915813  0.81735755  0.56291218  1.0
  C  C43  1  0.31805876  0.06618473  0.56177978  1.0
  C  C44  1  0.57045970  0.07063091  0.56731797  1.0
  C  C45  1  0.44271271  0.18030603  0.43504752  1.0
  C  C46  1  0.68813792  0.43104685  0.68745460  1.0
  C  C47  1  0.81575838  0.31908770  0.82062861  1.0
  C  C48  1  0.56703765  0.30717537  0.81098843  1.0
  C  C49  1  0.81435663  0.06335176  0.80898751  1.0
  C  C50  1  0.68266238  0.17936908  0.68020290  1.0
  C  C51  1  0.93565570  0.19104734  0.68995000  1.0
  C  C52  1  0.30381425  0.56716595  0.31252796  1.0
  C  C53  1  0.17751846  0.68641089  0.18072354  1.0
  C  C54  1  0.06633832  0.81516347  0.31243603  1.0
  C  C55  1  0.19235402  0.93424296  0.19088057  1.0
  C  C56  1  0.32440993  0.81590364  0.31908517  1.0
  C  C57  1  0.43243563  0.68597771  0.18811096  1.0
  C  C58  1  0.81542063  0.56065680  0.06033165  1.0
  C  C59  1  0.06962075  0.56805521  0.07042587  1.0
  C  C60  1  0.06328122  0.31346939  0.06009287  1.0
  C  C61  1  0.18494627  0.44085720  0.93940655  1.0
  C  C62  1  0.93123508  0.43166481  0.93029317  1.0
  C  C63  1  0.94141188  0.68401537  0.94000314  1.0
  C  C64  1  0.59724704  0.09946710  0.59676398  1.0
  C  C65  1  0.65477196  0.14954421  0.65176610  1.0
  C  C66  1  0.55487797  0.17043231  0.61184363  1.0
  C  C67  1  0.69671381  0.07813876  0.63711331  1.0
  C  C68  1  0.58272905  0.19487243  0.63873398  1.0
  C  C69  1  0.66866833  0.05355941  0.61039685  1.0
  C  C70  1  0.39795876  0.90332976  0.40453863  1.0
  C  C71  1  0.35069978  0.84732370  0.34748678  1.0
  C  C72  1  0.35680608  0.85816215  0.41773743  1.0
  C  C73  1  0.39130037  0.89305255  0.33433045  1.0
  C  C74  1  0.33361944  0.83098128  0.38993493  1.0
  C  C75  1  0.41412096  0.92071289  0.36206819  1.0
  C  C76  1  0.54432203  0.69311570  0.59709305  1.0
  C  C77  1  0.70137679  0.55185042  0.65088054  1.0
  C  C78  1  0.58281578  0.74031278  0.58610832  1.0
  C  C79  1  0.66258284  0.50567120  0.66190362  1.0
  C  C80  1  0.65831503  0.61973087  0.62700623  1.0
  C  C81  1  0.58749359  0.62386515  0.62047254  1.0
  C  C82  1  0.41725058  0.27230667  0.36665624  1.0
  C  C83  1  0.32312510  0.47386854  0.37865337  1.0
  C  C84  1  0.41336891  0.25432361  0.40924327  1.0
  C  C85  1  0.32836594  0.49105786  0.33634988  1.0
  C  C86  1  0.35472481  0.39404717  0.38962508  1.0
  C  C87  1  0.38348056  0.35239239  0.35539042  1.0
  C  C88  1  0.77263736  0.92508079  0.37179864  1.0
  C  C89  1  0.97566070  0.82513015  0.37923687  1.0
  C  C90  1  0.75728128  0.91099510  0.41435516  1.0
  C  C91  1  0.99065523  0.83951124  0.33712350  1.0
  C  C92  1  0.89619804  0.85679766  0.39157718  1.0
  C  C93  1  0.85233680  0.89438343  0.35852168  1.0
  C  C94  1  0.19821366  0.16485249  0.60082728  1.0
  C  C95  1  0.05463045  0.09748039  0.65114936  1.0
  C  C96  1  0.24257307  0.09420752  0.58656574  1.0
  C  C97  1  0.01070601  0.16785856  0.66492935  1.0
  C  C98  1  0.12275057  0.09685681  0.62773600  1.0
  C  C99  1  0.12928729  0.16667235  0.62436154  1.0
  C  C100  1  0.84401621  0.34755792  0.84959300  1.0
  C  C101  1  0.90187626  0.40402627  0.90142838  1.0
  C  C102  1  0.83152756  0.33353407  0.89270712  1.0
  C  C103  1  0.91423122  0.41806346  0.85832473  1.0
  C  C104  1  0.85971348  0.36101911  0.91794731  1.0
  C  C105  1  0.88618719  0.39056387  0.83308258  1.0
  C  C106  1  0.47812341  0.32832056  0.88030166  1.0
  C  C107  1  0.27504411  0.42339468  0.87238560  1.0
  C  C108  1  0.49348224  0.33477860  0.83754872  1.0
  C  C109  1  0.26044978  0.41622425  0.91478310  1.0
  C  C110  1  0.35445766  0.39184959  0.85999627  1.0
  C  C111  1  0.39845636  0.36117893  0.89329307  1.0
  C  C112  1  0.88476353  0.91496720  0.82060900  1.0
  C  C113  1  0.87553155  0.82967476  0.92666851  1.0
  C  C114  1  0.84226437  0.98730940  0.83317805  1.0
  C  C115  1  0.91761873  0.75814271  0.91403891  1.0
  C  C116  1  0.86396236  0.88654374  0.89250811  1.0
  C  C117  1  0.89744439  0.85696492  0.85459443  1.0
  C  C118  1  0.14880089  0.65843074  0.15175947  1.0
  C  C119  1  0.09929432  0.59742297  0.09818258  1.0
  C  C120  1  0.07681840  0.69859991  0.13757851  1.0
  C  C121  1  0.17164608  0.55756979  0.11203893  1.0
  C  C122  1  0.05266728  0.66908120  0.11142018  1.0
  C  C123  1  0.19597953  0.58730460  0.13804173  1.0
  C  C124  1  0.54698087  0.59192428  0.14383401  1.0
  C  C125  1  0.69808048  0.65300147  0.10104703  1.0
  C  C126  1  0.50583571  0.65988986  0.16129785  1.0
  C  C127  1  0.73923032  0.58510771  0.08426787  1.0
  C  C128  1  0.62795785  0.65536331  0.12249774  1.0
  C  C129  1  0.61718770  0.58909522  0.12155458  1.0
  C  C130  1  0.21174237  0.05195535  0.14915003  1.0
  C  C131  1  0.04873489  0.19551075  0.10061388  1.0
  C  C132  1  0.17053701  0.00819339  0.16468275  1.0
  C  C133  1  0.08988289  0.23863337  0.08524025  1.0
  C  C134  1  0.09351194  0.12752316  0.12374704  1.0
  C  C135  1  0.16775300  0.12048004  0.12556095  1.0
  S  S136  1  0.67121992  0.70002044  0.60389765  1.0
  S  S137  1  0.57460107  0.54338979  0.64331507  1.0
  S  S138  1  0.36746845  0.33443361  0.43516610  1.0
  S  S139  1  0.37043276  0.41155273  0.30970139  1.0
  S  S140  1  0.83936793  0.86112180  0.43796717  1.0
  S  S141  1  0.90940732  0.89137191  0.31223972  1.0
  S  S142  1  0.20040202  0.03080348  0.60159710  1.0
  S  S143  1  0.05095945  0.23335799  0.64983742  1.0
  S  S144  1  0.41136335  0.38118857  0.81351407  1.0
  S  S145  1  0.34183350  0.37233173  0.93987439  1.0
  S  S146  1  0.81853510  0.98454928  0.88594879  1.0
  S  S147  1  0.94369472  0.75895629  0.86117632  1.0
  S  S148  1  0.55174136  0.72022284  0.15008365  1.0
  S  S149  1  0.69334053  0.52427832  0.09383565  1.0
  S  S150  1  0.07925969  0.04996932  0.15043747  1.0
  S  S151  1  0.18242997  0.19761391  0.09845503  1.0
  S  S152  1  0.45570445  0.70852392  0.58263076  1.0
  S  S153  1  0.45495245  0.20941961  0.32803096  1.0
  S  S154  1  0.70607570  0.98015110  0.33658334  1.0
  S  S155  1  0.21629040  0.24788975  0.58988817  1.0
  S  S156  1  0.54453960  0.29088101  0.91686655  1.0
  S  S157  1  0.92657219  0.89185614  0.77017011  1.0
  S  S158  1  0.51821433  0.51776398  0.14417510  1.0
  S  S159  1  0.30895130  0.02774989  0.15292695  1.0
  O  O160  1  0.50075198  0.99962677  0.50011826  1.0
  O  O161  1  0.68588982  0.92604254  0.47923709  1.0
  O  O162  1  0.45702795  0.97807723  0.41592466  1.0
  O  O163  1  0.48971860  0.85237709  0.55651160  1.0
  O  O164  1  0.62469709  0.95224039  0.42274793  1.0
  O  O165  1  0.61144659  0.84187715  0.55198516  1.0
  O  O166  1  0.41743976  0.91064611  0.47115654  1.0
  O  O167  1  0.33832950  0.00296979  0.54773283  1.0
  O  O168  1  0.51316142  0.11820893  0.54950922  1.0
  O  O169  1  0.35589100  0.10608369  0.55724812  1.0
  O  O170  1  0.60852236  0.00012097  0.56244407  1.0
  O  O171  1  0.49232235  0.12229526  0.41810588  1.0
  O  O172  1  0.41602064  0.18175721  0.47314812  1.0
  O  O173  1  0.74983515  0.24888238  0.75012672  1.0
  O  O174  1  0.64452257  0.39637789  0.69257565  1.0
  O  O175  1  0.83478573  0.33464168  0.78236610  1.0
  O  O176  1  0.62524078  0.25993019  0.82816186  1.0
  O  O177  1  0.75094505  0.40820317  0.70223108  1.0
  O  O178  1  0.56466641  0.33276476  0.77275813  1.0
  O  O179  1  0.77567587  0.28221300  0.83615177  1.0
  O  O180  1  0.78714115  0.11981821  0.82990526  1.0
  O  O181  1  0.75260828  0.14394347  0.68578267  1.0
  O  O182  1  0.81877935  0.06583015  0.77033727  1.0
  O  O183  1  0.63330084  0.23879878  0.69617675  1.0
  O  O184  1  0.90513587  0.25900071  0.69982315  1.0
  O  O185  1  0.90801860  0.14142270  0.69940045  1.0
  O  O186  1  0.25035538  0.75073592  0.25067922  1.0
  O  O187  1  0.27660650  0.62484297  0.33251742  1.0
  O  O188  1  0.24558494  0.64419182  0.18883335  1.0
  O  O189  1  0.06625604  0.83544320  0.27371570  1.0
  O  O190  1  0.31247660  0.56829645  0.27348311  1.0
  O  O191  1  0.12420508  0.77631345  0.33184901  1.0
  O  O192  1  0.13236409  0.74871077  0.19502021  1.0
  O  O193  1  0.14609089  0.90280475  0.19481999  1.0
  O  O194  1  0.35001615  0.82114008  0.28120823  1.0
  O  O195  1  0.25337190  0.90940295  0.20730261  1.0
  O  O196  1  0.27830140  0.78574851  0.33577191  1.0
  O  O197  1  0.40478977  0.63742006  0.20221236  1.0
  O  O198  1  0.40451083  0.75554207  0.19512916  1.0
  O  O199  1  0.00039436  0.49938604  0.00075779  1.0
  O  O200  1  0.84206263  0.49558109  0.04723018  1.0
  O  O201  1  0.00607662  0.61451619  0.05739967  1.0
  O  O202  1  0.11177606  0.34275022  0.04956160  1.0
  O  O203  1  0.84788726  0.60612884  0.05497192  1.0
  O  O204  1  0.99492425  0.34229634  0.05117350  1.0
  O  O205  1  0.10915132  0.49988323  0.06226306  1.0
  O  O206  1  0.18475316  0.43096012  0.97838999  1.0
  O  O207  1  0.96488485  0.47483517  0.91475327  1.0
  O  O208  1  0.12696617  0.46933944  0.91967947  1.0
  O  O209  1  0.91973664  0.40919584  0.96843068  1.0
  O  O210  1  0.92133184  0.68471263  0.97864293  1.0
  O  O211  1  0.98036064  0.62550906  0.92085473  1.0
  O  O212  1  0.39404886  0.77934156  0.60655497  1.0
  O  O213  1  0.45341063  0.73389625  0.53971885  1.0
  O  O214  1  0.44250935  0.64207799  0.60138216  1.0
  O  O215  1  0.54414576  0.18493538  0.32475312  1.0
  O  O216  1  0.43778761  0.14398021  0.34054946  1.0
  O  O217  1  0.43160425  0.25820449  0.29058371  1.0
  O  O218  1  0.65875100  0.93135106  0.33572347  1.0
  O  O219  1  0.65201175  0.04902587  0.35319401  1.0
  O  O220  1  0.74969939  0.98260391  0.29684499  1.0
  O  O221  1  0.29036402  0.22479487  0.61260332  1.0
  O  O222  1  0.23849443  0.26177961  0.54692543  1.0
  O  O223  1  0.15259982  0.30515818  0.61167472  1.0
  O  O224  1  0.58465654  0.20022907  0.91333303  1.0
  O  O225  1  0.60293160  0.31792250  0.90467255  1.0
  O  O226  1  0.49896408  0.30101713  0.95650788  1.0
  O  O227  1  0.85432337  0.91706923  0.74555508  1.0
  O  O228  1  0.96551001  0.93854146  0.75094921  1.0
  O  O229  1  0.96496715  0.80955161  0.77395223  1.0
  O  O230  1  0.51645215  0.48070098  0.19166637  1.0
  O  O231  1  0.44178129  0.54916810  0.13430766  1.0
  O  O232  1  0.58065818  0.46175416  0.12107552  1.0
  O  O233  1  0.31063266  0.02626435  0.20117445  1.0
  O  O234  1  0.35573596  0.95192299  0.14306422  1.0
  O  O235  1  0.32340995  0.09207640  0.13137464  1.0
  F  F236  1  0.48444425  0.21727076  0.60115726  1.0
  F  F237  1  0.76586916  0.02989541  0.64905557  1.0
  F  F238  1  0.33754862  0.84005364  0.45810295  1.0
  F  F239  1  0.40887556  0.91266463  0.29384960  1.0
  F  F240  1  0.79206380  0.29213024  0.91126907  1.0
  F  F241  1  0.95467767  0.45872728  0.83963108  1.0
  F  F242  1  0.02807428  0.76820044  0.14884860  1.0
  F  F243  1  0.22066890  0.48871110  0.10020820  1.0
