# generated using pymatgen
data_ZnH6(C3N2)2
_symmetry_space_group_name_H-M   'P 1'
_cell_length_a   16.95380627
_cell_length_b   19.25129718
_cell_length_c   19.25151697
_cell_angle_alpha   90.00040624
_cell_angle_beta   90.00017099
_cell_angle_gamma   89.99993844
_symmetry_Int_Tables_number   1
_chemical_formula_structural   ZnH6(C3N2)2
_chemical_formula_sum   'Zn16 H96 C96 N64'
_cell_volume   6283.36329726
_cell_formula_units_Z   16
loop_
 _symmetry_equiv_pos_site_id
 _symmetry_equiv_pos_as_xyz
  1  'x, y, z'
loop_
 _atom_site_type_symbol
 _atom_site_label
 _atom_site_symmetry_multiplicity
 _atom_site_fract_x
 _atom_site_fract_y
 _atom_site_fract_z
 _atom_site_occupancy
  Zn  Zn0  1  0.17837455  0.88521955  0.66604396  1.0
  Zn  Zn1  1  0.17837151  0.11478146  0.33395779  1.0
  Zn  Zn2  1  0.67837531  0.16604110  0.61477909  1.0
  Zn  Zn3  1  0.67837392  0.83395788  0.38522033  1.0
  Zn  Zn4  1  0.32162548  0.61478243  0.16604259  1.0
  Zn  Zn5  1  0.32162734  0.38522001  0.83395745  1.0
  Zn  Zn6  1  0.82162715  0.33395574  0.11478032  1.0
  Zn  Zn7  1  0.82162825  0.66604311  0.88522156  1.0
  Zn  Zn8  1  0.82162706  0.11478220  0.33395552  1.0
  Zn  Zn9  1  0.82162597  0.88521769  0.66604273  1.0
  Zn  Zn10  1  0.32162689  0.83395909  0.38521882  1.0
  Zn  Zn11  1  0.32162651  0.16604387  0.61478018  1.0
  Zn  Zn12  1  0.67837495  0.38522036  0.83395740  1.0
  Zn  Zn13  1  0.67837722  0.61477966  0.16604462  1.0
  Zn  Zn14  1  0.17837682  0.66604341  0.88522123  1.0
  Zn  Zn15  1  0.17837631  0.33395760  0.11477999  1.0
  H  H16  1  0.08209345  0.76805215  0.58696445  1.0
  H  H17  1  0.31391540  0.88715692  0.78483115  1.0
  H  H18  1  0.13553119  0.01474716  0.76732270  1.0
  H  H19  1  0.29871512  0.75893079  0.64448173  1.0
  H  H20  1  0.28335375  0.00157022  0.59206913  1.0
  H  H21  1  0.08208995  0.23195000  0.41303236  1.0
  H  H22  1  0.31391373  0.11283981  0.21516732  1.0
  H  H23  1  0.13552851  0.98525701  0.23267841  1.0
  H  H24  1  0.29871613  0.24106804  0.35551721  1.0
  H  H25  1  0.28335224  0.99843278  0.40793237  1.0
  H  H26  1  0.58209275  0.08696949  0.73194919  1.0
  H  H27  1  0.81391589  0.28483459  0.61284270  1.0
  H  H28  1  0.63552978  0.26732683  0.48525662  1.0
  H  H29  1  0.79871606  0.14448295  0.74106896  1.0
  H  H30  1  0.78335512  0.09207316  0.49842606  1.0
  H  H31  1  0.58209264  0.91303062  0.26805413  1.0
  H  H32  1  0.81391760  0.71516687  0.38715864  1.0
  H  H33  1  0.63552778  0.73267376  0.51474425  1.0
  H  H34  1  0.79871068  0.85551904  0.25893026  1.0
  H  H35  1  0.78335286  0.90792780  0.50157208  1.0
  H  H36  1  0.41790926  0.73194512  0.08696625  1.0
  H  H37  1  0.18608267  0.61284227  0.28483512  1.0
  H  H38  1  0.36447156  0.48525539  0.26732356  1.0
  H  H39  1  0.20128366  0.74107001  0.14448094  1.0
  H  H40  1  0.21665195  0.49843162  0.09206969  1.0
  H  H41  1  0.41791152  0.26805411  0.91303197  1.0
  H  H42  1  0.18608412  0.38716030  0.71516924  1.0
  H  H43  1  0.36446879  0.51474025  0.73267400  1.0
  H  H44  1  0.20128515  0.25893151  0.85551619  1.0
  H  H45  1  0.21664624  0.50156936  0.90792644  1.0
  H  H46  1  0.91790951  0.41303078  0.23194448  1.0
  H  H47  1  0.68608243  0.21516588  0.11284273  1.0
  H  H48  1  0.86446862  0.23267472  0.98525687  1.0
  H  H49  1  0.70128446  0.35551687  0.24106899  1.0
  H  H50  1  0.71664863  0.40793056  0.99843081  1.0
  H  H51  1  0.91790854  0.58696694  0.76805765  1.0
  H  H52  1  0.68608457  0.78483310  0.88715879  1.0
  H  H53  1  0.86446724  0.76732772  0.01474512  1.0
  H  H54  1  0.70128870  0.64448261  0.75893154  1.0
  H  H55  1  0.71664978  0.59207358  0.00156612  1.0
  H  H56  1  0.91790639  0.23195012  0.41303398  1.0
  H  H57  1  0.68608503  0.11284171  0.21516729  1.0
  H  H58  1  0.86446866  0.98525822  0.23267625  1.0
  H  H59  1  0.70128295  0.24106992  0.35551774  1.0
  H  H60  1  0.71664727  0.99843153  0.40792930  1.0
  H  H61  1  0.91790812  0.76805020  0.58696555  1.0
  H  H62  1  0.68608493  0.88715882  0.78483423  1.0
  H  H63  1  0.86447369  0.01474318  0.76732470  1.0
  H  H64  1  0.70128313  0.75893060  0.64448226  1.0
  H  H65  1  0.71665291  0.00156949  0.59206970  1.0
  H  H66  1  0.41790709  0.91302966  0.26805288  1.0
  H  H67  1  0.18608514  0.71516561  0.38715989  1.0
  H  H68  1  0.36447124  0.73267544  0.51474390  1.0
  H  H69  1  0.20128437  0.85551880  0.25893207  1.0
  H  H70  1  0.21664649  0.90792911  0.50157030  1.0
  H  H71  1  0.41790779  0.08696905  0.73194742  1.0
  H  H72  1  0.18607811  0.28483540  0.61284447  1.0
  H  H73  1  0.36446853  0.26732436  0.48525626  1.0
  H  H74  1  0.20128621  0.14448479  0.74106870  1.0
  H  H75  1  0.21664580  0.09207031  0.49842895  1.0
  H  H76  1  0.58209294  0.26805611  0.91303011  1.0
  H  H77  1  0.81391718  0.38715844  0.71516747  1.0
  H  H78  1  0.63553182  0.51474324  0.73267540  1.0
  H  H79  1  0.79871442  0.25893123  0.85551905  1.0
  H  H80  1  0.78335438  0.50156961  0.90792927  1.0
  H  H81  1  0.58209186  0.73194296  0.08696698  1.0
  H  H82  1  0.81391690  0.61284041  0.28483439  1.0
  H  H83  1  0.63552869  0.48525527  0.26732547  1.0
  H  H84  1  0.79870938  0.74107076  0.14448069  1.0
  H  H85  1  0.78335006  0.49842719  0.09207199  1.0
  H  H86  1  0.08209269  0.58696681  0.76805967  1.0
  H  H87  1  0.31391564  0.78483379  0.88715571  1.0
  H  H88  1  0.13553004  0.76732391  0.01474364  1.0
  H  H89  1  0.29871243  0.64447969  0.75892893  1.0
  H  H90  1  0.28335121  0.59207015  0.00156867  1.0
  H  H91  1  0.08209248  0.41303066  0.23194286  1.0
  H  H92  1  0.31391763  0.21516398  0.11284380  1.0
  H  H93  1  0.13553024  0.23267611  0.98525332  1.0
  H  H94  1  0.29871527  0.35551706  0.24106845  1.0
  H  H95  1  0.28335124  0.40793129  0.99842972  1.0
  H  H96  1  0.99999890  0.94584478  0.69187595  1.0
  H  H97  1  0.99999880  0.05415494  0.30812381  1.0
  H  H98  1  0.50000049  0.19187871  0.55415516  1.0
  H  H99  1  0.50000112  0.80811992  0.44584432  1.0
  H  H100  1  0.50000025  0.55415795  0.19188057  1.0
  H  H101  1  0.50000018  0.44584484  0.80811942  1.0
  H  H102  1  0.00000035  0.30811973  0.05415327  1.0
  H  H103  1  0.00000045  0.69188197  0.94585371  1.0
  H  H104  1  0.11423108  0.75936190  0.75936490  1.0
  H  H105  1  0.11423229  0.24063762  0.24063511  1.0
  H  H106  1  0.61422939  0.25936153  0.74064007  1.0
  H  H107  1  0.61423478  0.74063908  0.25936178  1.0
  H  H108  1  0.38577163  0.74063659  0.25936512  1.0
  H  H109  1  0.38576624  0.25936371  0.74063458  1.0
  H  H110  1  0.88576935  0.24063673  0.24063457  1.0
  H  H111  1  0.88577227  0.75936310  0.75936488  1.0
  C  C112  1  0.04061842  0.80476042  0.60914096  1.0
  C  C113  1  0.27254480  0.84527357  0.79463485  1.0
  C  C114  1  0.17529799  0.03134017  0.72641019  1.0
  C  C115  1  0.29170302  0.78621865  0.59552775  1.0
  C  C116  1  0.25112860  0.02317464  0.63574988  1.0
  C  C117  1  0.04061783  0.19524072  0.39085782  1.0
  C  C118  1  0.27254717  0.15472580  0.20536455  1.0
  C  C119  1  0.17529429  0.96866293  0.27359362  1.0
  C  C120  1  0.29170364  0.21378174  0.40447169  1.0
  C  C121  1  0.25112638  0.97682422  0.36425517  1.0
  C  C122  1  0.54061939  0.10914399  0.69523679  1.0
  C  C123  1  0.77254235  0.29463617  0.65472510  1.0
  C  C124  1  0.67529784  0.22641314  0.46866354  1.0
  C  C125  1  0.79170582  0.09553031  0.71378262  1.0
  C  C126  1  0.75113044  0.13575327  0.47682164  1.0
  C  C127  1  0.54062061  0.89085357  0.30476383  1.0
  C  C128  1  0.77254748  0.70536428  0.34527354  1.0
  C  C129  1  0.67529702  0.77358740  0.53133743  1.0
  C  C130  1  0.79169871  0.90447272  0.28621658  1.0
  C  C131  1  0.75113066  0.86424461  0.52317693  1.0
  C  C132  1  0.45938083  0.69523492  0.10914520  1.0
  C  C133  1  0.22745390  0.65472569  0.29463559  1.0
  C  C134  1  0.32470639  0.46866106  0.22640875  1.0
  C  C135  1  0.20829382  0.71378232  0.09552835  1.0
  C  C136  1  0.24887665  0.47682490  0.13575037  1.0
  C  C137  1  0.45938298  0.30476375  0.89085001  1.0
  C  C138  1  0.22745065  0.34527424  0.70536680  1.0
  C  C139  1  0.32469784  0.53133410  0.77358611  1.0
  C  C140  1  0.20829308  0.28622023  0.90447036  1.0
  C  C141  1  0.24887019  0.52317501  0.86424533  1.0
  C  C142  1  0.95938097  0.39085031  0.19523462  1.0
  C  C143  1  0.72745198  0.20536511  0.15472724  1.0
  C  C144  1  0.82470345  0.27359037  0.96866347  1.0
  C  C145  1  0.70829461  0.40446932  0.21378301  1.0
  C  C146  1  0.74887147  0.36424770  0.97682512  1.0
  C  C147  1  0.95938069  0.60914477  0.80477178  1.0
  C  C148  1  0.72745397  0.79463486  0.84527387  1.0
  C  C149  1  0.82470100  0.72641471  0.03133634  1.0
  C  C150  1  0.70830077  0.59552808  0.78621857  1.0
  C  C151  1  0.74887087  0.63575381  0.02317552  1.0
  C  C152  1  0.95938142  0.19524029  0.39085695  1.0
  C  C153  1  0.72745269  0.15472663  0.20536463  1.0
  C  C154  1  0.82469890  0.96866522  0.27358824  1.0
  C  C155  1  0.70829505  0.21378362  0.40447016  1.0
  C  C156  1  0.74886829  0.97682607  0.36424804  1.0
  C  C157  1  0.95938024  0.80476103  0.60913854  1.0
  C  C158  1  0.72745385  0.84527387  0.79463648  1.0
  C  C159  1  0.82470673  0.03133830  0.72641105  1.0
  C  C160  1  0.70829443  0.78621585  0.59552882  1.0
  C  C161  1  0.74887523  0.02317753  0.63575053  1.0
  C  C162  1  0.45937927  0.89085257  0.30476321  1.0
  C  C163  1  0.22745159  0.70536402  0.34527542  1.0
  C  C164  1  0.32470259  0.77358965  0.53133645  1.0
  C  C165  1  0.20829461  0.90446988  0.28622101  1.0
  C  C166  1  0.24887236  0.86424900  0.52317471  1.0
  C  C167  1  0.45938100  0.10914455  0.69523616  1.0
  C  C168  1  0.22744824  0.29463539  0.65472905  1.0
  C  C169  1  0.32470046  0.22641123  0.46866360  1.0
  C  C170  1  0.20829701  0.09553110  0.71378237  1.0
  C  C171  1  0.24886800  0.13575195  0.47682306  1.0
  C  C172  1  0.54062137  0.30476319  0.89084908  1.0
  C  C173  1  0.77254594  0.34527346  0.70536440  1.0
  C  C174  1  0.67530171  0.53133601  0.77358865  1.0
  C  C175  1  0.79170603  0.28621891  0.90447268  1.0
  C  C176  1  0.75113085  0.52317529  0.86424859  1.0
  C  C177  1  0.54062040  0.69523437  0.10914635  1.0
  C  C178  1  0.77254978  0.65472751  0.29463423  1.0
  C  C179  1  0.67529551  0.46866193  0.22641233  1.0
  C  C180  1  0.79169968  0.71378516  0.09552912  1.0
  C  C181  1  0.75112493  0.47682207  0.13575207  1.0
  C  C182  1  0.04062005  0.60914625  0.80477057  1.0
  C  C183  1  0.27254786  0.79463404  0.84527119  1.0
  C  C184  1  0.17529521  0.72641034  0.03133808  1.0
  C  C185  1  0.29169933  0.59552620  0.78621491  1.0
  C  C186  1  0.25112896  0.63575145  0.02317643  1.0
  C  C187  1  0.04062269  0.39085022  0.19523497  1.0
  C  C188  1  0.27254882  0.20536377  0.15472768  1.0
  C  C189  1  0.17529589  0.27359067  0.96865950  1.0
  C  C190  1  0.29170792  0.40447211  0.21378038  1.0
  C  C191  1  0.25112661  0.36425053  0.97682447  1.0
  C  C192  1  0.99999948  0.89697681  0.66369306  1.0
  C  C193  1  0.99999941  0.10302447  0.33630513  1.0
  C  C194  1  0.50000059  0.16369429  0.60302549  1.0
  C  C195  1  0.50000043  0.83630434  0.39697502  1.0
  C  C196  1  0.50000017  0.60302053  0.16369543  1.0
  C  C197  1  0.50000085  0.39697914  0.83629936  1.0
  C  C198  1  0.00000042  0.33629983  0.10301913  1.0
  C  C199  1  0.00000097  0.66369668  0.89698578  1.0
  C  C200  1  0.16885482  0.78024678  0.78024704  1.0
  C  C201  1  0.16885421  0.21974957  0.21974844  1.0
  C  C202  1  0.66885366  0.28024833  0.71975147  1.0
  C  C203  1  0.66885560  0.71975066  0.28025000  1.0
  C  C204  1  0.33114854  0.71974874  0.28025267  1.0
  C  C205  1  0.33114188  0.28024693  0.71975311  1.0
  C  C206  1  0.83114679  0.21975134  0.21974984  1.0
  C  C207  1  0.83114858  0.78025062  0.78025259  1.0
  N  N208  1  0.06597912  0.86349580  0.64384652  1.0
  N  N209  1  0.20655601  0.83575150  0.75364107  1.0
  N  N210  1  0.20262039  0.98569748  0.67654326  1.0
  N  N211  1  0.24366480  0.84385529  0.58988938  1.0
  N  N212  1  0.06597848  0.13650636  0.35614973  1.0
  N  N213  1  0.20655674  0.16424586  0.24635763  1.0
  N  N214  1  0.20261979  0.01430403  0.32346115  1.0
  N  N215  1  0.24366609  0.15614411  0.41010994  1.0
  N  N216  1  0.56597700  0.14384117  0.63650495  1.0
  N  N217  1  0.70655603  0.25364160  0.66424619  1.0
  N  N218  1  0.70262396  0.17654496  0.51430240  1.0
  N  N219  1  0.74366872  0.08989051  0.65614448  1.0
  N  N220  1  0.56597728  0.85615584  0.36349522  1.0
  N  N221  1  0.70655871  0.74635892  0.33575331  1.0
  N  N222  1  0.70262175  0.82345452  0.48569708  1.0
  N  N223  1  0.74366062  0.91011205  0.34385408  1.0
  N  N224  1  0.43402261  0.63650395  0.14384716  1.0
  N  N225  1  0.29344372  0.66424643  0.25364154  1.0
  N  N226  1  0.29738203  0.51430457  0.17654267  1.0
  N  N227  1  0.25633261  0.65614564  0.08988969  1.0
  N  N228  1  0.43402339  0.36349578  0.85614954  1.0
  N  N229  1  0.29344240  0.33575343  0.74635947  1.0
  N  N230  1  0.29737371  0.48569373  0.82345315  1.0
  N  N231  1  0.25633124  0.34385790  0.91011070  1.0
  N  N232  1  0.93402376  0.35615011  0.13650143  1.0
  N  N233  1  0.79344305  0.24635768  0.16424724  1.0
  N  N234  1  0.79737697  0.32345532  0.01430453  1.0
  N  N235  1  0.75633328  0.41010871  0.15614659  1.0
  N  N236  1  0.93402363  0.64384915  0.86350126  1.0
  N  N237  1  0.79344506  0.75364120  0.83575352  1.0
  N  N238  1  0.79737427  0.67654666  0.98569573  1.0
  N  N239  1  0.75633905  0.58988968  0.84385615  1.0
  N  N240  1  0.93401895  0.13650647  0.35614984  1.0
  N  N241  1  0.79344383  0.16424766  0.24635736  1.0
  N  N242  1  0.79737532  0.01430530  0.32345621  1.0
  N  N243  1  0.75633504  0.15614750  0.41010854  1.0
  N  N244  1  0.93402077  0.86349487  0.64384611  1.0
  N  N245  1  0.79344428  0.83575330  0.75364340  1.0
  N  N246  1  0.79738300  0.98569772  0.67654196  1.0
  N  N247  1  0.75633434  0.84385193  0.58989057  1.0
  N  N248  1  0.43402402  0.85615538  0.36349401  1.0
  N  N249  1  0.29344440  0.74635652  0.33575692  1.0
  N  N250  1  0.29737883  0.82345834  0.48569447  1.0
  N  N251  1  0.25633348  0.91011020  0.34385759  1.0
  N  N252  1  0.43402374  0.14384123  0.63650425  1.0
  N  N253  1  0.29343877  0.25364023  0.66424928  1.0
  N  N254  1  0.29737750  0.17654360  0.51430343  1.0
  N  N255  1  0.25633332  0.08989022  0.65614384  1.0
  N  N256  1  0.56597841  0.36349676  0.85615023  1.0
  N  N257  1  0.70655612  0.33575480  0.74635793  1.0
  N  N258  1  0.70262430  0.48569458  0.82345680  1.0
  N  N259  1  0.74366546  0.34385455  0.91011134  1.0
  N  N260  1  0.56597940  0.63650181  0.14384733  1.0
  N  N261  1  0.70655744  0.66424572  0.25364208  1.0
  N  N262  1  0.70262024  0.51430230  0.17654424  1.0
  N  N263  1  0.74366211  0.65615008  0.08988722  1.0
  N  N264  1  0.06597903  0.64384800  0.86350220  1.0
  N  N265  1  0.20655679  0.75364096  0.83575171  1.0
  N  N266  1  0.20262169  0.67654487  0.98569754  1.0
  N  N267  1  0.24365949  0.58988785  0.84384976  1.0
  N  N268  1  0.06597798  0.35615052  0.13650133  1.0
  N  N269  1  0.20655950  0.24635795  0.16424595  1.0
  N  N270  1  0.20261967  0.32345820  0.01430219  1.0
  N  N271  1  0.24366846  0.41011051  0.15614488  1.0
