# generated using pymatgen
data_AlH13C18N2O7F2
_symmetry_space_group_name_H-M   'P 1'
_cell_length_a   6.66156896
_cell_length_b   23.17908915
_cell_length_c   26.10552889
_cell_angle_alpha   79.26357604
_cell_angle_beta   89.97832481
_cell_angle_gamma   89.85789251
_symmetry_Int_Tables_number   1
_chemical_formula_structural   AlH13C18N2O7F2
_chemical_formula_sum   'Al4 H52 C72 N8 O28 F8'
_cell_volume   3960.35584691
_cell_formula_units_Z   4
loop_
 _symmetry_equiv_pos_site_id
 _symmetry_equiv_pos_as_xyz
  1  'x, y, z'
loop_
 _atom_site_type_symbol
 _atom_site_label
 _atom_site_symmetry_multiplicity
 _atom_site_fract_x
 _atom_site_fract_y
 _atom_site_fract_z
 _atom_site_occupancy
  Al  Al0  1  0.23591674  0.75096705  0.74900150  1.0
  Al  Al1  1  0.75072768  0.24956676  0.24972975  1.0
  Al  Al2  1  0.73547160  0.74884380  0.75021458  1.0
  Al  Al3  1  0.25107372  0.25118439  0.24900118  1.0
  H  H4  1  0.32011782  0.05145290  0.47538458  1.0
  H  H5  1  0.67095587  0.94882618  0.52432393  1.0
  H  H6  1  0.82125412  0.47861000  0.04620799  1.0
  H  H7  1  0.16820287  0.52084023  0.95276041  1.0
  H  H8  1  0.80352432  0.13558608  0.02741798  1.0
  H  H9  1  0.29009647  0.89205691  0.94819653  1.0
  H  H10  1  0.29824567  0.36635274  0.47063672  1.0
  H  H11  1  0.79117860  0.60588939  0.55334696  1.0
  H  H12  1  0.19564766  0.97939987  0.62792649  1.0
  H  H13  1  0.38044257  0.03375870  0.60404917  1.0
  H  H14  1  0.65122295  0.95647008  0.62549502  1.0
  H  H15  1  0.50720543  0.96189874  0.68168068  1.0
  H  H16  1  0.46541573  0.90259460  0.64845284  1.0
  H  H17  1  0.61211494  0.96606759  0.39569098  1.0
  H  H18  1  0.79540409  0.02071837  0.37162366  1.0
  H  H19  1  0.52269882  0.09697861  0.35315508  1.0
  H  H20  1  0.48485386  0.03879724  0.31787382  1.0
  H  H21  1  0.33872234  0.04213134  0.37423300  1.0
  H  H22  1  0.89080085  0.62321487  0.01146930  1.0
  H  H23  1  0.69352260  0.64208408  0.96477696  1.0
  H  H24  1  0.94437027  0.65631023  0.89182864  1.0
  H  H25  1  0.99973199  0.70228137  0.93759880  1.0
  H  H26  1  0.14334112  0.63770624  0.93760838  1.0
  H  H27  1  0.29485296  0.35752837  0.03307648  1.0
  H  H28  1  0.09631106  0.37709328  0.98689803  1.0
  H  H29  1  0.84637795  0.36219254  0.06135818  1.0
  H  H30  1  0.98753592  0.29751102  0.06038211  1.0
  H  H31  1  0.04660764  0.34261954  0.10654909  1.0
  H  H32  1  0.54491952  0.06043505  0.13453953  1.0
  H  H33  1  0.49617197  0.05213513  0.06866378  1.0
  H  H34  1  0.54316941  0.94406870  0.09318838  1.0
  H  H35  1  0.76113484  0.98102799  0.11028078  1.0
  H  H36  1  0.58759731  0.95012729  0.15951862  1.0
  H  H37  1  0.59770667  0.99191096  0.82381932  1.0
  H  H38  1  0.74879112  0.03517949  0.85942647  1.0
  H  H39  1  0.44984139  0.04893497  0.91460168  1.0
  H  H40  1  0.40525955  0.07800480  0.84736982  1.0
  H  H41  1  0.29768501  0.00947387  0.87653589  1.0
  H  H42  1  0.04526991  0.44045707  0.36481366  1.0
  H  H43  1  0.99719708  0.44821696  0.43090550  1.0
  H  H44  1  0.04329756  0.55632663  0.40690710  1.0
  H  H45  1  0.26120343  0.51941052  0.38930759  1.0
  H  H46  1  0.08666524  0.55068070  0.34043533  1.0
  H  H47  1  0.09628390  0.50793082  0.67639045  1.0
  H  H48  1  0.24885014  0.46469855  0.64085548  1.0
  H  H49  1  0.95090916  0.45095539  0.58552196  1.0
  H  H50  1  0.90618670  0.42175972  0.65271744  1.0
  H  H51  1  0.79737233  0.49025998  0.62360977  1.0
  H  H52  1  0.48843611  0.81720262  0.76945916  1.0
  H  H53  1  0.49744163  0.17520933  0.27384431  1.0
  H  H54  1  0.98908293  0.67945567  0.73507501  1.0
  H  H55  1  0.99664036  0.32541267  0.25296648  1.0
  C  C56  1  0.48230602  0.69109263  0.68259988  1.0
  C  C57  1  0.50273960  0.31441343  0.31317561  1.0
  C  C58  1  0.98725351  0.80859542  0.81728770  1.0
  C  C59  1  0.99905765  0.18773917  0.18537627  1.0
  C  C60  1  0.48649095  0.66907563  0.82309699  1.0
  C  C61  1  0.50102262  0.32786010  0.17392523  1.0
  C  C62  1  0.97888306  0.82896712  0.67503523  1.0
  C  C63  1  0.00580165  0.17296120  0.32609776  1.0
  C  C64  1  0.17797144  0.02938765  0.48621846  1.0
  C  C65  1  0.81312939  0.97087421  0.51351656  1.0
  C  C66  1  0.67833033  0.48795929  0.02607590  1.0
  C  C67  1  0.31114327  0.51147129  0.97289562  1.0
  C  C68  1  0.00512958  0.04496335  0.45549114  1.0
  C  C69  1  0.98577725  0.95538772  0.54430826  1.0
  C  C70  1  0.50553327  0.45542344  0.04418968  1.0
  C  C71  1  0.48397206  0.54394837  0.95471865  1.0
  C  C72  1  0.82172209  0.01478472  0.46938985  1.0
  C  C73  1  0.16945706  0.98542066  0.53034279  1.0
  C  C74  1  0.32085938  0.46742986  0.01690878  1.0
  C  C75  1  0.66859448  0.53205078  0.98207094  1.0
  C  C76  1  0.01033752  0.09079924  0.41160873  1.0
  C  C77  1  0.97926784  0.90994405  0.58850639  1.0
  C  C78  1  0.51074808  0.41186359  0.08977069  1.0
  C  C79  1  0.47802981  0.58696550  0.90875896  1.0
  C  C80  1  0.97882624  0.87169181  0.62744878  1.0
  C  C81  1  0.00748329  0.12964631  0.37309272  1.0
  C  C82  1  0.48065059  0.62418975  0.86910673  1.0
  C  C83  1  0.50569006  0.37370306  0.12875386  1.0
  C  C84  1  0.88438958  0.15916568  0.10032212  1.0
  C  C85  1  0.14827367  0.85011881  0.89133070  1.0
  C  C86  1  0.38151589  0.34310007  0.39764810  1.0
  C  C87  1  0.64818808  0.64816824  0.61003739  1.0
  C  C88  1  0.89678636  0.12533370  0.06213013  1.0
  C  C89  1  0.15592317  0.88947260  0.92499265  1.0
  C  C90  1  0.39308469  0.37644775  0.43620889  1.0
  C  C91  1  0.65635082  0.60896460  0.57624444  1.0
  C  C92  1  0.03337104  0.07808850  0.06751146  1.0
  C  C93  1  0.99458364  0.92813535  0.92751529  1.0
  C  C94  1  0.53124484  0.42305260  0.43158300  1.0
  C  C95  1  0.49388932  0.57103454  0.57320143  1.0
  C  C96  1  0.15418830  0.06509139  0.11276250  1.0
  C  C97  1  0.82140603  0.92434990  0.89711351  1.0
  C  C98  1  0.65446555  0.43601369  0.38676408  1.0
  C  C99  1  0.31983851  0.57519668  0.60330310  1.0
  C  C100  1  0.13666005  0.10134973  0.15007545  1.0
  C  C101  1  0.82293510  0.88438136  0.86272304  1.0
  C  C102  1  0.63913772  0.39983421  0.34940537  1.0
  C  C103  1  0.32077743  0.61514266  0.63767805  1.0
  C  C104  1  0.00506374  0.14915849  0.14520858  1.0
  C  C105  1  0.98494367  0.84692701  0.85757908  1.0
  C  C106  1  0.50581869  0.35278996  0.35347685  1.0
  C  C107  1  0.48295975  0.65204920  0.64296784  1.0
  C  C108  1  0.01703560  0.97284560  0.96024302  1.0
  C  C109  1  0.04334997  0.04358268  0.02582948  1.0
  C  C110  1  0.51609984  0.52662497  0.54015843  1.0
  C  C111  1  0.54112239  0.45687512  0.47373094  1.0
  C  C112  1  0.34524982  0.98643318  0.60995599  1.0
  C  C113  1  0.50155830  0.94952632  0.64303549  1.0
  C  C114  1  0.64628230  0.01342084  0.38980574  1.0
  C  C115  1  0.48854797  0.05002104  0.35696613  1.0
  C  C116  1  0.84528515  0.62313878  0.97081207  1.0
  C  C117  1  0.99181971  0.65645048  0.93207867  1.0
  C  C118  1  0.14319531  0.37664067  0.02755415  1.0
  C  C119  1  0.99752138  0.34311364  0.06632419  1.0
  C  C120  1  0.48820814  0.03029544  0.10985959  1.0
  C  C121  1  0.60111674  0.97275431  0.11880701  1.0
  C  C122  1  0.61615337  0.00664498  0.86129274  1.0
  C  C123  1  0.43060618  0.03744554  0.87595535  1.0
  C  C124  1  0.98864547  0.47035264  0.38980466  1.0
  C  C125  1  0.10099919  0.52780458  0.38105173  1.0
  C  C126  1  0.11552353  0.49317804  0.63894584  1.0
  C  C127  1  0.93089432  0.46234358  0.62418255  1.0
  N  N128  1  0.90609617  0.05524572  0.98707003  1.0
  N  N129  1  0.18002076  0.96917147  0.99152578  1.0
  N  N130  1  0.40295426  0.44526497  0.51222546  1.0
  N  N131  1  0.67991831  0.52994691  0.50914794  1.0
  N  N132  1  0.89860623  0.02143837  0.95189067  1.0
  N  N133  1  0.20088807  0.00701555  0.02289169  1.0
  N  N134  1  0.39612332  0.47853455  0.54785057  1.0
  N  N135  1  0.69986637  0.49255154  0.47732506  1.0
  O  O136  1  0.66006947  0.68825112  0.80801175  1.0
  O  O137  1  0.32864347  0.30865304  0.19009270  1.0
  O  O138  1  0.14986693  0.81571603  0.69603701  1.0
  O  O139  1  0.83417772  0.18782060  0.30596332  1.0
  O  O140  1  0.31416687  0.71108862  0.69399071  1.0
  O  O141  1  0.67298200  0.29692043  0.30051574  1.0
  O  O142  1  0.81896201  0.79494060  0.80036033  1.0
  O  O143  1  0.16802284  0.20171161  0.20153381  1.0
  O  O144  1  0.31846034  0.68506799  0.80157265  1.0
  O  O145  1  0.66971978  0.31059355  0.19420763  1.0
  O  O146  1  0.80831224  0.80950273  0.69222513  1.0
  O  O147  1  0.17616817  0.19193502  0.30810374  1.0
  O  O148  1  0.15811042  0.79400354  0.80226873  1.0
  O  O149  1  0.82735263  0.20224563  0.19959117  1.0
  O  O150  1  0.65055782  0.69995988  0.70259010  1.0
  O  O151  1  0.33232647  0.30353735  0.29552920  1.0
  O  O152  1  0.48643352  0.78535083  0.75004380  1.0
  O  O153  1  0.50014054  0.21482818  0.25369458  1.0
  O  O154  1  0.98728449  0.71489967  0.74980522  1.0
  O  O155  1  0.99978268  0.28524337  0.24740263  1.0
  O  O156  1  0.34055643  0.96983962  0.55882600  1.0
  O  O157  1  0.65063677  0.03022770  0.44080405  1.0
  O  O158  1  0.83925824  0.56212372  0.96410367  1.0
  O  O159  1  0.15029769  0.43737628  0.03494389  1.0
  O  O160  1  0.27799483  0.01739958  0.12282595  1.0
  O  O161  1  0.65076705  0.95551173  0.90218957  1.0
  O  O162  1  0.77820591  0.48353492  0.37720517  1.0
  O  O163  1  0.14925869  0.54434341  0.59807354  1.0
  F  F164  1  0.75437070  0.20511862  0.09290680  1.0
  F  F165  1  0.30669572  0.81342534  0.89145161  1.0
  F  F166  1  0.24972542  0.29780193  0.40392720  1.0
  F  F167  1  0.80677185  0.68432817  0.61087774  1.0
  F  F168  1  0.25093799  0.08730881  0.19344294  1.0
  F  F169  1  0.65740231  0.88460113  0.83266932  1.0
  F  F170  1  0.75748690  0.41306163  0.30663145  1.0
  F  F171  1  0.15549730  0.61560667  0.66775175  1.0
