# generated using pymatgen
data_AlH5C14ClO5F2
_symmetry_space_group_name_H-M   'P 1'
_cell_length_a   6.60867817
_cell_length_b   11.04685979
_cell_length_c   17.62404225
_cell_angle_alpha   91.41432520
_cell_angle_beta   98.68421084
_cell_angle_gamma   105.99335824
_symmetry_Int_Tables_number   1
_chemical_formula_structural   AlH5C14ClO5F2
_chemical_formula_sum   'Al2 H10 C28 Cl2 O10 F4'
_cell_volume   1219.68660291
_cell_formula_units_Z   2
loop_
 _symmetry_equiv_pos_site_id
 _symmetry_equiv_pos_as_xyz
  1  'x, y, z'
loop_
 _atom_site_type_symbol
 _atom_site_label
 _atom_site_symmetry_multiplicity
 _atom_site_fract_x
 _atom_site_fract_y
 _atom_site_fract_z
 _atom_site_occupancy
  Al  Al0  1  0.00432556  0.49787027  0.50244815  1.0
  Al  Al1  1  0.50534654  0.50112262  0.50158545  1.0
  H  H2  1  0.34370501  0.64395100  0.56023900  1.0
  H  H3  1  0.65904331  0.34577223  0.46114327  1.0
  H  H4  1  0.81851168  0.42324964  0.27503570  1.0
  H  H5  1  0.73488147  0.42340304  0.13174560  1.0
  H  H6  1  0.48564303  0.58619293  0.26630742  1.0
  H  H7  1  0.51272903  0.40844476  0.73258746  1.0
  H  H8  1  0.18130070  0.58358967  0.73384477  1.0
  H  H9  1  0.24880142  0.58604159  0.87773100  1.0
  H  H10  1  0.55301495  0.76231788  0.39430143  1.0
  H  H11  1  0.81630501  0.23191175  0.39434388  1.0
  C  C12  1  0.86683016  0.72369390  0.49296538  1.0
  C  C13  1  0.80237712  0.50120076  0.64004772  1.0
  C  C14  1  0.14358518  0.27317726  0.50393248  1.0
  C  C15  1  0.20530690  0.49841196  0.36374278  1.0
  C  C16  1  0.15690803  0.50320443  0.27890697  1.0
  C  C17  1  0.94467049  0.45862367  0.24117434  1.0
  C  C18  1  0.89829598  0.45908900  0.16189982  1.0
  C  C19  1  0.06146707  0.50655356  0.11794976  1.0
  C  C20  1  0.27406120  0.55444308  0.15735565  1.0
  C  C21  1  0.32149451  0.55122744  0.23672996  1.0
  C  C22  1  0.01151000  0.50455944  0.03727855  1.0
  C  C23  1  0.96338831  0.49932768  0.96739914  1.0
  C  C24  1  0.92034572  0.49696524  0.88654004  1.0
  C  C25  1  0.71203396  0.44523313  0.84433596  1.0
  C  C26  1  0.67341076  0.44686682  0.76465443  1.0
  C  C27  1  0.84312974  0.49746096  0.72517729  1.0
  C  C28  1  0.05134802  0.54613401  0.76573117  1.0
  C  C29  1  0.08870068  0.54711870  0.84524713  1.0
  C  C30  1  0.93421252  0.86412739  0.49082126  1.0
  C  C31  1  0.80695629  0.93000972  0.44519160  1.0
  C  C32  1  0.12530584  0.93170676  0.53456073  1.0
  C  C33  1  0.61392947  0.86471177  0.39638942  1.0
  C  C34  1  0.50050826  0.93093782  0.35121250  1.0
  C  C35  1  0.07347248  0.13194584  0.49597934  1.0
  C  C36  1  0.19361303  0.06462601  0.53767933  1.0
  C  C37  1  0.87973355  0.06542048  0.44682474  1.0
  C  C38  1  0.76034929  0.13009337  0.39770691  1.0
  C  C39  1  0.57481335  0.06373126  0.35138927  1.0
  Cl  Cl40  1  0.47699799  0.61690142  0.10599760  1.0
  Cl  Cl41  1  0.50349046  0.37980967  0.89266011  1.0
  O  O42  1  0.00158878  0.66654733  0.48025959  1.0
  O  O43  1  0.60947840  0.48180322  0.60730492  1.0
  O  O44  1  0.33036093  0.32776808  0.49162295  1.0
  O  O45  1  0.04540598  0.46652444  0.39900370  1.0
  O  O46  1  0.00779580  0.32697757  0.52085872  1.0
  O  O47  1  0.40040733  0.52392031  0.39563978  1.0
  O  O48  1  0.68146536  0.67303613  0.50838221  1.0
  O  O49  1  0.96524970  0.52616743  0.60608570  1.0
  O  O50  1  0.29566723  0.55953813  0.53527340  1.0
  O  O51  1  0.71185087  0.43710987  0.46849688  1.0
  F  F52  1  0.37633713  0.12364228  0.58556493  1.0
  F  F53  1  0.24984303  0.87360046  0.57944582  1.0
  F  F54  1  0.31582756  0.87022995  0.30462081  1.0
  F  F55  1  0.45977071  0.12449612  0.30426082  1.0
