# generated using pymatgen
data_MnHC4O3
_symmetry_space_group_name_H-M   'P 1'
_cell_length_a   7.05373639
_cell_length_b   15.36357769
_cell_length_c   15.36366374
_cell_angle_alpha   117.70157567
_cell_angle_beta   98.80645190
_cell_angle_gamma   98.80381189
_symmetry_Int_Tables_number   1
_chemical_formula_structural   MnHC4O3
_chemical_formula_sum   'Mn6 H6 C24 O18'
_cell_volume   1408.10632467
_cell_formula_units_Z   6
loop_
 _symmetry_equiv_pos_site_id
 _symmetry_equiv_pos_as_xyz
  1  'x, y, z'
loop_
 _atom_site_type_symbol
 _atom_site_label
 _atom_site_symmetry_multiplicity
 _atom_site_fract_x
 _atom_site_fract_y
 _atom_site_fract_z
 _atom_site_occupancy
  Mn  Mn0  1  0.02056172  0.41091396  0.73860215  1.0
  Mn  Mn1  1  0.60971030  0.32769577  0.58909892  1.0
  Mn  Mn2  1  0.28197420  0.26139762  0.67228690  1.0
  Mn  Mn3  1  0.97943779  0.58908623  0.26139736  1.0
  Mn  Mn4  1  0.39028959  0.67230517  0.41090228  1.0
  Mn  Mn5  1  0.71802493  0.73860180  0.32771288  1.0
  H  H6  1  0.69193073  0.53054690  0.55300699  1.0
  H  H7  1  0.16136845  0.02245120  0.46944658  1.0
  H  H8  1  0.13887902  0.44700872  0.97755512  1.0
  H  H9  1  0.30807021  0.46945329  0.44699262  1.0
  H  H10  1  0.83863143  0.97754974  0.53055331  1.0
  H  H11  1  0.86112011  0.55299071  0.02244467  1.0
  C  C12  1  0.23931272  0.39262643  0.56362868  1.0
  C  C13  1  0.84665117  0.17100066  0.60739252  1.0
  C  C14  1  0.67564096  0.43638998  0.82900031  1.0
  C  C15  1  0.76068641  0.60737300  0.43637110  1.0
  C  C16  1  0.15334833  0.82899952  0.39260699  1.0
  C  C17  1  0.32435997  0.56361021  0.17099995  1.0
  C  C18  1  0.11406407  0.44859099  0.53438573  1.0
  C  C19  1  0.66546185  0.08579894  0.55141814  1.0
  C  C20  1  0.57966982  0.46562597  0.91419898  1.0
  C  C21  1  0.88593687  0.55140920  0.46561454  1.0
  C  C22  1  0.33453947  0.91420200  0.44858251  1.0
  C  C23  1  0.42032968  0.53437421  0.08580118  1.0
  C  C24  1  0.93635282  0.46623068  0.56594863  1.0
  C  C25  1  0.47010208  0.09971596  0.53377312  1.0
  C  C26  1  0.37038248  0.43407062  0.90027334  1.0
  C  C27  1  0.06364811  0.53376950  0.43405098  1.0
  C  C28  1  0.52989743  0.90028423  0.46622704  1.0
  C  C29  1  0.62961808  0.56592881  0.09972654  1.0
  C  C30  1  0.82783376  0.51699406  0.52983236  1.0
  C  C31  1  0.31083128  0.01283601  0.48300085  1.0
  C  C32  1  0.29797933  0.47018223  0.98716090  1.0
  C  C33  1  0.17216718  0.48300613  0.47016790  1.0
  C  C34  1  0.68916823  0.98716418  0.51699931  1.0
  C  C35  1  0.70202161  0.52981795  0.01283872  1.0
  O  O36  1  0.39203505  0.37652061  0.52975228  1.0
  O  O37  1  0.01547427  0.15324772  0.62351791  1.0
  O  O38  1  0.86221733  0.47031417  0.84677812  1.0
  O  O39  1  0.60796550  0.62347882  0.47024695  1.0
  O  O40  1  0.98452629  0.84675171  0.37648197  1.0
  O  O41  1  0.13778255  0.52968678  0.15322177  1.0
  O  O42  1  0.18935778  0.36072270  0.62338224  1.0
  O  O43  1  0.82860551  0.26266599  0.63929395  1.0
  O  O44  1  0.56592977  0.37660338  0.73733825  1.0
  O  O45  1  0.81064173  0.63927749  0.37661792  1.0
  O  O46  1  0.17139400  0.73733420  0.36070556  1.0
  O  O47  1  0.43407117  0.62339681  0.26266202  1.0
  O  O48  1  0.86760390  0.43721376  0.62837870  1.0
  O  O49  1  0.43035354  0.19115741  0.56277185  1.0
  O  O50  1  0.23916998  0.37163325  0.80883116  1.0
  O  O51  1  0.13239704  0.56278643  0.37162156  1.0
  O  O52  1  0.56964740  0.80884278  0.43722841  1.0
  O  O53  1  0.76082952  0.62836694  0.19116900  1.0
