# generated using pymatgen
data_CuSiH16C24(N2F5)2
_symmetry_space_group_name_H-M   'P 1'
_cell_length_a   8.09568280
_cell_length_b   13.55387340
_cell_length_c   13.55383674
_cell_angle_alpha   89.62194300
_cell_angle_beta   85.92375675
_cell_angle_gamma   85.92512887
_symmetry_Int_Tables_number   1
_chemical_formula_structural   CuSiH16C24(N2F5)2
_chemical_formula_sum   'Cu1 Si1 H16 C24 N4 F10'
_cell_volume   1479.71936716
_cell_formula_units_Z   1
loop_
 _symmetry_equiv_pos_site_id
 _symmetry_equiv_pos_as_xyz
  1  'x, y, z'
loop_
 _atom_site_type_symbol
 _atom_site_label
 _atom_site_symmetry_multiplicity
 _atom_site_fract_x
 _atom_site_fract_y
 _atom_site_fract_z
 _atom_site_occupancy
  Cu  Cu0  1  0.49999229  0.49999753  0.49999802  1.0
  Si  Si1  1  0.99998928  0.49999647  0.50000012  1.0
  H  H2  1  0.26191483  0.49999055  0.34343553  1.0
  H  H3  1  0.26833092  0.49986168  0.16214314  1.0
  H  H4  1  0.80486832  0.50003470  0.15752833  1.0
  H  H5  1  0.77623836  0.49997787  0.34044342  1.0
  H  H6  1  0.19512022  0.49997885  0.84247409  1.0
  H  H7  1  0.73165383  0.50013191  0.83785069  1.0
  H  H8  1  0.73806744  0.49999268  0.65655698  1.0
  H  H9  1  0.22374042  0.50001349  0.65956100  1.0
  H  H10  1  0.26191576  0.34343233  0.49999953  1.0
  H  H11  1  0.26833446  0.16213961  0.49986064  1.0
  H  H12  1  0.80486178  0.15752918  0.50003398  1.0
  H  H13  1  0.77624302  0.34044166  0.49997952  1.0
  H  H14  1  0.19512867  0.84246809  0.49997141  1.0
  H  H15  1  0.73166262  0.83785472  0.50012826  1.0
  H  H16  1  0.73807626  0.65656273  0.49999178  1.0
  H  H17  1  0.22374872  0.65955562  0.50001769  1.0
  C  C18  1  0.37988256  0.50000245  0.29947879  1.0
  C  C19  1  0.38480392  0.49993312  0.19694228  1.0
  C  C20  1  0.53882091  0.49998560  0.14165985  1.0
  C  C21  1  0.68174451  0.50001664  0.19518361  1.0
  C  C22  1  0.66701568  0.50000035  0.29786254  1.0
  C  C23  1  0.55796491  0.49998179  0.03407076  1.0
  C  C24  1  0.44202666  0.50002732  0.96592640  1.0
  C  C25  1  0.31824552  0.49998433  0.80481882  1.0
  C  C26  1  0.46116641  0.50001760  0.85833751  1.0
  C  C27  1  0.61518145  0.50006564  0.80305445  1.0
  C  C28  1  0.62009981  0.49999040  0.70051440  1.0
  C  C29  1  0.33296800  0.49999175  0.70213577  1.0
  C  C30  1  0.37988465  0.29947386  0.50000514  1.0
  C  C31  1  0.38480733  0.19694246  0.49993164  1.0
  C  C32  1  0.53882170  0.14165963  0.49998491  1.0
  C  C33  1  0.68173798  0.19518648  0.50002003  1.0
  C  C34  1  0.66701293  0.29786100  0.50000427  1.0
  C  C35  1  0.55796692  0.03407054  0.49997974  1.0
  C  C36  1  0.44202872  0.96592526  0.50001438  1.0
  C  C37  1  0.31825099  0.80481302  0.49998172  1.0
  C  C38  1  0.46117401  0.85833543  0.50001290  1.0
  C  C39  1  0.61518912  0.80305704  0.50006021  1.0
  C  C40  1  0.62011151  0.70051750  0.49998824  1.0
  C  C41  1  0.33297783  0.70213407  0.49999226  1.0
  N  N42  1  0.51821559  0.50004357  0.34930458  1.0
  N  N43  1  0.48176668  0.49995001  0.65069304  1.0
  N  N44  1  0.51821721  0.34930440  0.50004507  1.0
  N  N45  1  0.48177216  0.65069214  0.49994856  1.0
  F  F46  1  0.21451560  0.50070999  0.50071959  1.0
  F  F47  1  0.78546071  0.49928138  0.49928272  1.0
  F  F48  1  0.99999615  0.58956425  0.41044281  1.0
  F  F49  1  0.99997508  0.41042794  0.58955552  1.0
  F  F50  1  0.02234075  0.41057409  0.41056491  1.0
  F  F51  1  0.97763787  0.58941875  0.58943582  1.0
  F  F52  1  0.71953246  0.49988291  0.99703722  1.0
  F  F53  1  0.28045973  0.50013138  0.00296136  1.0
  F  F54  1  0.71953330  0.99703903  0.49989449  1.0
  F  F55  1  0.28046348  0.00295751  0.50010105  1.0
