# generated using pymatgen
data_Al3H28C53O16
_symmetry_space_group_name_H-M   'P 1'
_cell_length_a   12.70617525
_cell_length_b   12.79990157
_cell_length_c   27.69312784
_cell_angle_alpha   89.46419571
_cell_angle_beta   89.80349332
_cell_angle_gamma   61.55715029
_symmetry_Int_Tables_number   1
_chemical_formula_structural   Al3H28C53O16
_chemical_formula_sum   'Al6 H56 C106 O32'
_cell_volume   3960.11343424
_cell_formula_units_Z   2
loop_
 _symmetry_equiv_pos_site_id
 _symmetry_equiv_pos_as_xyz
  1  'x, y, z'
loop_
 _atom_site_type_symbol
 _atom_site_label
 _atom_site_symmetry_multiplicity
 _atom_site_fract_x
 _atom_site_fract_y
 _atom_site_fract_z
 _atom_site_occupancy
  Al  Al0  1  0.38450338  0.42469576  0.50200074  1.0
  Al  Al1  1  0.41268542  0.66016615  0.50070336  1.0
  Al  Al2  1  0.63645855  0.42653056  0.49966297  1.0
  Al  Al3  1  0.92547937  0.92109796  0.01616439  1.0
  Al  Al4  1  0.66980625  0.92719736  0.01492765  1.0
  Al  Al5  1  0.88978753  0.68868649  0.01622367  1.0
  H  H6  1  0.54154505  0.89736532  0.77246092  1.0
  H  H7  1  0.73702657  0.80627192  0.70722044  1.0
  H  H8  1  0.51240384  0.99630603  0.23030448  1.0
  H  H9  1  0.50029191  0.96651670  0.31757606  1.0
  H  H10  1  0.78252406  0.53395954  0.12937783  1.0
  H  H11  1  0.81714322  0.39646998  0.19940939  1.0
  H  H12  1  0.79594013  0.36681541  0.28625775  1.0
  H  H13  1  0.72206014  0.45135850  0.36786546  1.0
  H  H14  1  0.87876509  0.04963860  0.14584871  1.0
  H  H15  1  0.79467764  0.20412272  0.38202177  1.0
  H  H16  1  0.96216772  0.06407850  0.22535942  1.0
  H  H17  1  0.68535892  0.95871131  0.77367167  1.0
  H  H18  1  0.46071794  0.74649111  0.73281873  1.0
  H  H19  1  0.93249302  0.11690307  0.31184071  1.0
  H  H20  1  0.50426349  0.15838250  0.13112269  1.0
  H  H21  1  0.36592970  0.24735122  0.20126243  1.0
  H  H22  1  0.33635721  0.29834988  0.28798608  1.0
  H  H23  1  0.42027093  0.31149400  0.36761821  1.0
  H  H24  1  0.03324989  0.55056224  0.14959045  1.0
  H  H25  1  0.19188115  0.50097000  0.38636139  1.0
  H  H26  1  0.05872745  0.44998913  0.23050483  1.0
  H  H27  1  0.10984930  0.84140580  0.13272887  1.0
  H  H28  1  0.20156668  0.48454895  0.78189406  1.0
  H  H29  1  0.60318390  0.56697370  0.80183956  1.0
  H  H30  1  0.18113327  0.91152823  0.20287532  1.0
  H  H31  1  0.23027120  0.89891689  0.29004321  1.0
  H  H32  1  0.25398539  0.80085510  0.36985815  1.0
  H  H33  1  0.79482320  0.47579913  0.73627793  1.0
  H  H34  1  0.87678025  0.62771763  0.77612607  1.0
  H  H35  1  0.86093935  0.14777329  0.77910341  1.0
  H  H36  1  0.83990722  0.99569197  0.70947960  1.0
  H  H37  1  0.52359585  0.47223190  0.79254751  1.0
  H  H38  1  0.39999383  0.60758590  0.85763261  1.0
  H  H39  1  0.02182111  0.60113735  0.70972087  1.0
  H  H40  1  0.29832110  0.53937806  0.91729437  1.0
  H  H41  1  0.31853262  0.33686525  0.91041708  1.0
  H  H42  1  0.44374945  0.20179321  0.84651672  1.0
  H  H43  1  0.33371294  0.23441491  0.77221431  1.0
  H  H44  1  0.43104634  0.07804804  0.77887194  1.0
  H  H45  1  0.32500662  0.13265506  0.73019816  1.0
  H  H46  1  0.37000682  0.99775820  0.41419953  1.0
  H  H47  1  0.35794698  0.86329868  0.41250171  1.0
  H  H48  1  0.35780694  0.93848082  0.35724941  1.0
  H  H49  1  0.93531208  0.47002637  0.32920847  1.0
  H  H50  1  0.33857180  0.57998035  0.73859529  1.0
  H  H51  1  0.00036735  0.52031855  0.37487852  1.0
  H  H52  1  0.03387264  0.36766167  0.37397489  1.0
  H  H53  1  0.50382779  0.41888946  0.70124886  1.0
  H  H54  1  0.61157931  0.43692503  0.66519643  1.0
  H  H55  1  0.54391826  0.53081106  0.71601745  1.0
  H  H56  1  0.22595685  0.78172791  0.79916388  1.0
  H  H57  1  0.04787152  0.89811662  0.72746012  1.0
  H  H58  1  0.90890664  0.80291829  0.77058265  1.0
  H  H59  1  0.57567470  0.91216650  0.14782472  1.0
  H  H60  1  0.30309188  0.30560250  0.53017754  1.0
  H  H61  1  0.01867050  0.03112155  0.98941619  1.0
  C  C62  1  0.26849701  0.63258702  0.56935234  1.0
  C  C63  1  0.65037879  0.65153811  0.65578958  1.0
  C  C64  1  0.35092267  0.48117434  0.88819640  1.0
  C  C65  1  0.36225106  0.36753559  0.88421896  1.0
  C  C66  1  0.43170667  0.29190626  0.84762610  1.0
  C  C67  1  0.38522717  0.15099619  0.75252716  1.0
  C  C68  1  0.39398784  0.91598635  0.39421116  1.0
  C  C69  1  0.01533033  0.44541954  0.35149650  1.0
  C  C70  1  0.57757504  0.44073009  0.70191263  1.0
  C  C71  1  0.76660788  0.06427408  0.73013112  1.0
  C  C72  1  0.60140940  0.61088291  0.56723076  1.0
  C  C73  1  0.77822648  0.14887419  0.76766703  1.0
  C  C74  1  0.70474429  0.09180389  0.89622583  1.0
  C  C75  1  0.63115693  0.22574325  0.61293607  1.0
  C  C76  1  0.67955301  0.04431835  0.76433300  1.0
  C  C77  1  0.69176816  0.12822468  0.80244227  1.0
  C  C78  1  0.56901535  0.15483630  0.74053467  1.0
  C  C79  1  0.65681194  0.17275219  0.70550333  1.0
  C  C80  1  0.63490165  0.63603693  0.61352957  1.0
  C  C81  1  0.57817909  0.24215394  0.77956776  1.0
  C  C82  1  0.66934560  0.25783903  0.74457779  1.0
  C  C83  1  0.70322508  0.10692075  0.85267947  1.0
  C  C84  1  0.60081930  0.28517476  0.56685974  1.0
  C  C85  1  0.64193710  0.19781835  0.65558048  1.0
  C  C86  1  0.06694765  0.64087722  0.73022922  1.0
  C  C87  1  0.16658833  0.57624264  0.76923381  1.0
  C  C88  1  0.06166631  0.69441215  0.89629029  1.0
  C  C89  1  0.20874576  0.67152407  0.61489058  1.0
  C  C90  1  0.00465533  0.75328281  0.76278713  1.0
  C  C91  1  0.78446070  0.65395460  0.76602268  1.0
  C  C92  1  0.10385809  0.68826241  0.80309815  1.0
  C  C93  1  0.08156664  0.80626720  0.73974581  1.0
  C  C94  1  0.14409072  0.69426914  0.70595108  1.0
  C  C95  1  0.18095931  0.74173898  0.77875957  1.0
  C  C96  1  0.27070295  0.63111217  0.43285044  1.0
  C  C97  1  0.24306183  0.62951720  0.74633747  1.0
  C  C98  1  0.08056941  0.68964552  0.85299724  1.0
  C  C99  1  0.17404011  0.68805934  0.65658547  1.0
  C  C100  1  0.57391664  0.75479105  0.36391070  1.0
  C  C101  1  0.58587221  0.77335475  0.31412523  1.0
  C  C102  1  0.67580709  0.70544084  0.80294841  1.0
  C  C103  1  0.60493600  0.80786022  0.21320236  1.0
  C  C104  1  0.54787029  0.90669820  0.24521866  1.0
  C  C105  1  0.54018654  0.89032296  0.29365267  1.0
  C  C106  1  0.61448473  0.82307028  0.16344960  1.0
  C  C107  1  0.67831058  0.72477760  0.13365663  1.0
  C  C108  1  0.60184610  0.61155046  0.43350935  1.0
  C  C109  1  0.68505156  0.54055270  0.35239000  1.0
  C  C110  1  0.69668922  0.55531690  0.30284095  1.0
  C  C111  1  0.64585583  0.67308059  0.28327006  1.0
  C  C112  1  0.75839099  0.45636377  0.27110905  1.0
  C  C113  1  0.73975718  0.56984014  0.74445061  1.0
  C  C114  1  0.77004702  0.47282029  0.22300296  1.0
  C  C115  1  0.71980415  0.58996557  0.20219713  1.0
  C  C116  1  0.65661512  0.69024669  0.23297998  1.0
  C  C117  1  0.73157424  0.60923505  0.15297469  1.0
  C  C118  1  0.62287144  0.63804739  0.38297946  1.0
  C  C119  1  0.72042468  0.21433337  0.35927816  1.0
  C  C120  1  0.58215193  0.30502689  0.42972203  1.0
  C  C121  1  0.74007464  0.18093478  0.31064270  1.0
  C  C122  1  0.77463910  0.11977836  0.21103921  1.0
  C  C123  1  0.87304614  0.10277548  0.24129272  1.0
  C  C124  1  0.66177706  0.66845497  0.70563569  1.0
  C  C125  1  0.85663707  0.13161805  0.28904659  1.0
  C  C126  1  0.79032685  0.08777635  0.16233078  1.0
  C  C127  1  0.69358782  0.10046775  0.13413863  1.0
  C  C128  1  0.50845223  0.27507957  0.35098530  1.0
  C  C129  1  0.52358245  0.24534521  0.30197574  1.0
  C  C130  1  0.64046160  0.19811420  0.28127315  1.0
  C  C131  1  0.42508923  0.26206703  0.27177440  1.0
  C  C132  1  0.70699499  0.75331977  0.72868577  1.0
  C  C133  1  0.44167101  0.23352143  0.22394237  1.0
  C  C134  1  0.55815359  0.18449168  0.20222640  1.0
  C  C135  1  0.63142956  0.62029845  0.77987035  1.0
  C  C136  1  0.65757426  0.16794802  0.23158110  1.0
  C  C137  1  0.57833381  0.14920340  0.15374428  1.0
  C  C138  1  0.60563401  0.26126598  0.37917250  1.0
  C  C139  1  0.18876950  0.57178862  0.36332327  1.0
  C  C140  1  0.15348132  0.58196907  0.31493318  1.0
  C  C141  1  0.09227889  0.59935894  0.21486221  1.0
  C  C142  1  0.08658056  0.51149453  0.24552529  1.0
  C  C143  1  0.11657438  0.50235743  0.29331378  1.0
  C  C144  1  0.59840693  0.80366665  0.76419960  1.0
  C  C145  1  0.06317285  0.60935081  0.16561862  1.0
  C  C146  1  0.55339509  0.71975836  0.74277740  1.0
  C  C147  1  0.06974464  0.69643632  0.13679968  1.0
  C  C148  1  0.22518979  0.74110314  0.35405033  1.0
  C  C149  1  0.19401193  0.75205078  0.30511691  1.0
  C  C150  1  0.15753832  0.67171535  0.28498260  1.0
  C  C151  1  0.20103683  0.83917788  0.27426901  1.0
  C  C152  1  0.17400044  0.84614550  0.22632017  1.0
  C  C153  1  0.13628830  0.76742430  0.20524834  1.0
  C  C154  1  0.12843314  0.67971831  0.23516148  1.0
  C  C155  1  0.10641085  0.77442344  0.15631295  1.0
  C  C156  1  0.68473586  0.72969002  0.89702037  1.0
  C  C157  1  0.68088296  0.71999580  0.85333648  1.0
  C  C158  1  0.22397712  0.65109374  0.38262949  1.0
  C  C159  1  0.72141011  0.05274584  0.94572441  1.0
  C  C160  1  0.70675502  0.74640461  0.94644757  1.0
  C  C161  1  0.02679210  0.72001314  0.94588172  1.0
  C  C162  1  0.71976099  0.05175233  0.08434152  1.0
  C  C163  1  0.69902228  0.74646214  0.08255373  1.0
  C  C164  1  0.02865169  0.71515745  0.08576759  1.0
  C  C165  1  0.49036649  0.32868142  0.81362094  1.0
  C  C166  1  0.47660336  0.44364421  0.81777566  1.0
  C  C167  1  0.40783630  0.51919186  0.85465169  1.0
  O  O168  1  0.49927180  0.31119326  0.54963518  1.0
  O  O169  1  0.80372075  0.66534406  0.96511814  1.0
  O  O170  1  0.01200143  0.64195571  0.97072818  1.0
  O  O171  1  0.29959061  0.52658899  0.55789838  1.0
  O  O172  1  0.02316546  0.80443156  0.06374838  1.0
  O  O173  1  0.82450943  0.01651973  0.06865575  1.0
  O  O174  1  0.63556070  0.04366372  0.06124047  1.0
  O  O175  1  0.63007364  0.84890845  0.06412957  1.0
  O  O176  1  0.78894225  0.66451057  0.06057157  1.0
  O  O177  1  0.99632706  0.64196205  0.06770804  1.0
  O  O178  1  0.82685184  0.84471392  0.01502165  1.0
  O  O179  1  0.50951858  0.68803871  0.45597516  1.0
  O  O180  1  0.28904254  0.70761678  0.54497971  1.0
  O  O181  1  0.49845936  0.68673921  0.55106348  1.0
  O  O182  1  0.67312232  0.51302003  0.54698845  1.0
  O  O183  1  0.67835556  0.31190586  0.54808537  1.0
  O  O184  1  0.47970002  0.33510606  0.44687762  1.0
  O  O185  1  0.27855642  0.54189597  0.45568457  1.0
  O  O186  1  0.30531986  0.70412228  0.44929227  1.0
  O  O187  1  0.46856289  0.15974021  0.71996647  1.0
  O  O188  1  0.52281093  0.85125836  0.39372317  1.0
  O  O189  1  0.11879254  0.41117414  0.32109239  1.0
  O  O190  1  0.67359106  0.50841093  0.45080709  1.0
  O  O191  1  0.67393235  0.36024673  0.73299064  1.0
  O  O192  1  0.66699295  0.31370132  0.45207174  1.0
  O  O193  1  0.47934770  0.50430751  0.50143185  1.0
  O  O194  1  0.01002129  0.81969431  0.96071988  1.0
  O  O195  1  0.81832322  0.03257219  0.96583842  1.0
  O  O196  1  0.63720978  0.03667579  0.96474540  1.0
  O  O197  1  0.63244471  0.84235281  0.96725281  1.0
  O  O198  1  0.29589328  0.35325677  0.50184218  1.0
  O  O199  1  0.01771375  0.98847123  0.01825308  1.0
