# generated using pymatgen
data_ZnH11C23N3(O2F)2
_symmetry_space_group_name_H-M   'P 1'
_cell_length_a   21.55416428
_cell_length_b   21.56805396
_cell_length_c   21.58210566
_cell_angle_alpha   63.24804187
_cell_angle_beta   63.22809226
_cell_angle_gamma   60.10241308
_symmetry_Int_Tables_number   1
_chemical_formula_structural   ZnH11C23N3(O2F)2
_chemical_formula_sum   'Zn4 H44 C92 N12 O16 F8'
_cell_volume   7428.31839655
_cell_formula_units_Z   4
loop_
 _symmetry_equiv_pos_site_id
 _symmetry_equiv_pos_as_xyz
  1  'x, y, z'
loop_
 _atom_site_type_symbol
 _atom_site_label
 _atom_site_symmetry_multiplicity
 _atom_site_fract_x
 _atom_site_fract_y
 _atom_site_fract_z
 _atom_site_occupancy
  Zn  Zn0  1  0.95640528  0.95311213  0.54136652  1.0
  Zn  Zn1  1  0.04675548  0.04324831  0.45876428  1.0
  Zn  Zn2  1  0.54699249  0.54354233  0.95857717  1.0
  Zn  Zn3  1  0.45669379  0.45328322  0.04117197  1.0
  H  H4  1  0.61070120  0.60863506  0.80845848  1.0
  H  H5  1  0.69084544  0.68595444  0.72789295  1.0
  H  H6  1  0.69580690  0.69371524  0.92172887  1.0
  H  H7  1  0.80687995  0.80361758  0.57832222  1.0
  H  H8  1  0.81372661  0.80956083  0.77212672  1.0
  H  H9  1  0.89097630  0.88976679  0.69153233  1.0
  H  H10  1  0.39179550  0.38916802  0.19124429  1.0
  H  H11  1  0.31444211  0.30887916  0.27209914  1.0
  H  H12  1  0.30583757  0.30441470  0.07845435  1.0
  H  H13  1  0.19561784  0.19396022  0.42175257  1.0
  H  H14  1  0.19111241  0.18565684  0.22797906  1.0
  H  H15  1  0.11085231  0.10826708  0.30873507  1.0
  H  H16  1  0.20556755  0.92558059  0.57770466  1.0
  H  H17  1  0.31738395  0.89509973  0.61250189  1.0
  H  H18  1  0.06848487  0.79364996  0.70329913  1.0
  H  H19  1  0.29551958  0.57013309  0.92184843  1.0
  H  H20  1  0.18251344  0.60183510  0.88864822  1.0
  H  H21  1  0.42887872  0.70607452  0.80034365  1.0
  H  H22  1  0.92751693  0.20736374  0.30150022  1.0
  H  H23  1  0.89523891  0.31863685  0.19411395  1.0
  H  H24  1  0.79645930  0.06920527  0.42136390  1.0
  H  H25  1  0.56919982  0.29305249  0.20310799  1.0
  H  H26  1  0.60282853  0.18037707  0.30922502  1.0
  H  H27  1  0.70414598  0.42716243  0.07884784  1.0
  H  H28  1  0.20716366  0.93061933  0.29678089  1.0
  H  H29  1  0.31964808  0.89712903  0.19041882  1.0
  H  H30  1  0.07326770  0.79547225  0.42172014  1.0
  H  H31  1  0.29271337  0.57226568  0.19885418  1.0
  H  H32  1  0.18168568  0.60434552  0.30657362  1.0
  H  H33  1  0.43049556  0.70370543  0.07820378  1.0
  H  H34  1  0.92910014  0.20520580  0.57708993  1.0
  H  H35  1  0.89713936  0.31852945  0.60988023  1.0
  H  H36  1  0.79283485  0.07218612  0.69873214  1.0
  H  H37  1  0.57379692  0.29511616  0.92174015  1.0
  H  H38  1  0.60359369  0.18392667  0.88645999  1.0
  H  H39  1  0.70604250  0.43187128  0.79605779  1.0
  H  H40  1  0.56255916  0.59809445  0.03875839  1.0
  H  H41  1  0.61896589  0.63649990  0.03538186  1.0
  H  H42  1  0.90240131  0.93690847  0.46116705  1.0
  H  H43  1  0.86424231  0.88025732  0.46461453  1.0
  H  H44  1  0.40137828  0.43798109  0.96135737  1.0
  H  H45  1  0.36305316  0.38142270  0.96459439  1.0
  H  H46  1  0.06199423  0.09843079  0.53872431  1.0
  H  H47  1  0.11858206  0.13666542  0.53557586  1.0
  C  C48  1  0.91710880  0.08497174  0.41306603  1.0
  C  C49  1  0.08794051  0.91660460  0.41225007  1.0
  C  C50  1  0.08360344  0.91270286  0.58740286  1.0
  C  C51  1  0.91473610  0.08382017  0.58609321  1.0
  C  C52  1  0.41477196  0.58301142  0.08676504  1.0
  C  C53  1  0.58319352  0.41234649  0.08789296  1.0
  C  C54  1  0.58735563  0.41647609  0.91244340  1.0
  C  C55  1  0.41664940  0.58471414  0.91337262  1.0
  C  C56  1  0.63067864  0.62923531  0.83090069  1.0
  C  C57  1  0.67488652  0.67114796  0.78662446  1.0
  C  C58  1  0.69887902  0.69429230  0.82078962  1.0
  C  C59  1  0.67743064  0.67519093  0.89582423  1.0
  C  C60  1  0.63068470  0.63322076  0.93763271  1.0
  C  C61  1  0.82518758  0.82223734  0.60420446  1.0
  C  C62  1  0.80583222  0.80105344  0.67923628  1.0
  C  C63  1  0.82871310  0.82534984  0.71338410  1.0
  C  C64  1  0.87059597  0.86957561  0.66909041  1.0
  C  C65  1  0.86709244  0.86903888  0.56237848  1.0
  C  C66  1  0.37092047  0.36929569  0.16896902  1.0
  C  C67  1  0.32904053  0.32502341  0.21336143  1.0
  C  C68  1  0.30568932  0.30113078  0.17927712  1.0
  C  C69  1  0.32455655  0.32273537  0.10424334  1.0
  C  C70  1  0.36644363  0.36957255  0.06238690  1.0
  C  C71  1  0.17730429  0.17529810  0.39590759  1.0
  C  C72  1  0.19889632  0.19423734  0.32086264  1.0
  C  C73  1  0.17501037  0.17097242  0.28671358  1.0
  C  C74  1  0.13076015  0.12906523  0.33106570  1.0
  C  C75  1  0.13046103  0.13341547  0.43772154  1.0
  C  C76  1  0.19459143  0.87854513  0.62358999  1.0
  C  C77  1  0.24148037  0.83389255  0.66866768  1.0
  C  C78  1  0.30455428  0.84827668  0.65720298  1.0
  C  C79  1  0.11688533  0.80384458  0.69439585  1.0
  C  C80  1  0.16312756  0.75741611  0.73986265  1.0
  C  C81  1  0.15076149  0.69445697  0.79952238  1.0
  C  C82  1  0.30614061  0.61777209  0.87675326  1.0
  C  C83  1  0.25843917  0.66304843  0.83248714  1.0
  C  C84  1  0.19518080  0.64884686  0.84413916  1.0
  C  C85  1  0.38166737  0.69463117  0.80810682  1.0
  C  C86  1  0.33598442  0.74036592  0.76207309  1.0
  C  C87  1  0.34847292  0.80322876  0.70229493  1.0
  C  C88  1  0.13291193  0.86381298  0.63643607  1.0
  C  C89  1  0.22621431  0.77192406  0.72773886  1.0
  C  C90  1  0.36693466  0.63342693  0.86485397  1.0
  C  C91  1  0.27333579  0.72540060  0.77375106  1.0
  C  C92  1  0.88057966  0.19566567  0.30876437  1.0
  C  C93  1  0.83496187  0.24208876  0.26255706  1.0
  C  C94  1  0.84837678  0.30533338  0.20396409  1.0
  C  C95  1  0.80672735  0.11717528  0.37683912  1.0
  C  C96  1  0.75937381  0.16285005  0.33239340  1.0
  C  C97  1  0.69638398  0.14967842  0.34178073  1.0
  C  C98  1  0.61727884  0.30362494  0.19471459  1.0
  C  C99  1  0.66326093  0.25682256  0.24056576  1.0
  C  C100  1  0.64989696  0.19350560  0.29910825  1.0
  C  C101  1  0.69339784  0.37992394  0.12432807  1.0
  C  C102  1  0.73972512  0.33519372  0.16979976  1.0
  C  C103  1  0.80249631  0.34856652  0.16067029  1.0
  C  C104  1  0.86694847  0.13372528  0.36497538  1.0
  C  C105  1  0.77297527  0.22605376  0.27423664  1.0
  C  C106  1  0.63243767  0.36408123  0.13702086  1.0
  C  C107  1  0.72561874  0.27248390  0.22844344  1.0
  C  C108  1  0.19664934  0.88246628  0.30535251  1.0
  C  C109  1  0.24337341  0.83651976  0.25946267  1.0
  C  C110  1  0.30652571  0.85003893  0.20065754  1.0
  C  C111  1  0.12047400  0.80622399  0.37611095  1.0
  C  C112  1  0.16513332  0.75990974  0.33061176  1.0
  C  C113  1  0.15182284  0.69706642  0.33991603  1.0
  C  C114  1  0.30435796  0.61927858  0.19144084  1.0
  C  C115  1  0.25808357  0.66479056  0.23775308  1.0
  C  C116  1  0.19498102  0.65123528  0.29656725  1.0
  C  C117  1  0.38266248  0.69332663  0.12293713  1.0
  C  C118  1  0.33711790  0.74056700  0.16748187  1.0
  C  C119  1  0.35025018  0.80360257  0.15792023  1.0
  C  C120  1  0.13626746  0.86724872  0.36323196  1.0
  C  C121  1  0.22773521  0.77411494  0.27175949  1.0
  C  C122  1  0.36611697  0.63307949  0.13496327  1.0
  C  C123  1  0.27407885  0.72681464  0.22591394  1.0
  C  C124  1  0.88132485  0.19474738  0.62216399  1.0
  C  C125  1  0.83595876  0.24254718  0.66632586  1.0
  C  C126  1  0.85016310  0.30581318  0.65453194  1.0
  C  C127  1  0.80427199  0.11938965  0.69091200  1.0
  C  C128  1  0.75843097  0.16519866  0.73680883  1.0
  C  C129  1  0.69547794  0.15283144  0.79655003  1.0
  C  C130  1  0.62076783  0.30614139  0.87571772  1.0
  C  C131  1  0.66509595  0.25952775  0.83036856  1.0
  C  C132  1  0.65048739  0.19667134  0.84172695  1.0
  C  C133  1  0.69565828  0.38365801  0.80485955  1.0
  C  C134  1  0.74178619  0.33769050  0.75910194  1.0
  C  C135  1  0.80462264  0.35015971  0.69923022  1.0
  C  C136  1  0.86566121  0.13394293  0.63422582  1.0
  C  C137  1  0.77349822  0.22774443  0.72508293  1.0
  C  C138  1  0.63579998  0.36753713  0.86302538  1.0
  C  C139  1  0.72708214  0.27477685  0.77118427  1.0
  N  N140  1  0.60884786  0.61011566  0.90441381  1.0
  N  N141  1  0.74391605  0.73822013  0.78418044  1.0
  N  N142  1  0.76195847  0.75597021  0.71586006  1.0
  N  N143  1  0.88993039  0.89116315  0.59557413  1.0
  N  N144  1  0.38975516  0.39125532  0.09552703  1.0
  N  N145  1  0.26180953  0.25606443  0.21593391  1.0
  N  N146  1  0.24394584  0.23813893  0.28425346  1.0
  N  N147  1  0.10878488  0.11016729  0.40450945  1.0
  N  N148  1  0.60744928  0.61455829  0.01102622  1.0
  N  N149  1  0.88595637  0.89203874  0.48897779  1.0
  N  N150  1  0.38475694  0.39313859  0.98902007  1.0
  N  N151  1  0.10688186  0.11502180  0.51109322  1.0
  O  O152  1  0.91103831  0.02212637  0.45459687  1.0
  O  O153  1  0.96186084  0.10922758  0.40955671  1.0
  O  O154  1  0.09620446  0.97831767  0.39115160  1.0
  O  O155  1  0.04260583  0.89300397  0.47085900  1.0
  O  O156  1  0.10747348  0.95807525  0.52892398  1.0
  O  O157  1  0.02166842  0.90497978  0.60833705  1.0
  O  O158  1  0.89077140  0.03904898  0.58936900  1.0
  O  O159  1  0.97772686  0.09000551  0.54466307  1.0
  O  O160  1  0.47763736  0.58912285  0.04512640  1.0
  O  O161  1  0.39049386  0.53827901  0.09030416  1.0
  O  O162  1  0.52143342  0.40411064  0.10890105  1.0
  O  O163  1  0.60691816  0.45757706  0.02930338  1.0
  O  O164  1  0.54210606  0.39252296  0.97104095  1.0
  O  O165  1  0.59529944  0.47821781  0.89167418  1.0
  O  O166  1  0.46131101  0.60878418  0.91015303  1.0
  O  O167  1  0.41021277  0.52194060  0.95509980  1.0
  F  F168  1  0.40836346  0.81749023  0.69100166  1.0
  F  F169  1  0.09056649  0.68045957  0.81126543  1.0
  F  F170  1  0.81590038  0.40859280  0.10491477  1.0
  F  F171  1  0.68356983  0.08906049  0.39711062  1.0
  F  F172  1  0.41072870  0.81653666  0.10231582  1.0
  F  F173  1  0.09190490  0.68356871  0.39591379  1.0
  F  F174  1  0.81859467  0.41036402  0.68737705  1.0
  F  F175  1  0.68106715  0.09309865  0.80778289  1.0
