# generated using pymatgen
data_Al2H3C24S6(NO6)3
_symmetry_space_group_name_H-M   'P 1'
_cell_length_a   4.07500303
_cell_length_b   20.09788808
_cell_length_c   20.09893953
_cell_angle_alpha   119.99480494
_cell_angle_beta   89.99436878
_cell_angle_gamma   89.99299485
_symmetry_Int_Tables_number   1
_chemical_formula_structural   Al2H3C24S6(NO6)3
_chemical_formula_sum   'Al2 H3 C24 S6 N3 O18'
_cell_volume   1425.62353585
_cell_formula_units_Z   1
loop_
 _symmetry_equiv_pos_site_id
 _symmetry_equiv_pos_as_xyz
  1  'x, y, z'
loop_
 _atom_site_type_symbol
 _atom_site_label
 _atom_site_symmetry_multiplicity
 _atom_site_fract_x
 _atom_site_fract_y
 _atom_site_fract_z
 _atom_site_occupancy
  Al  Al0  1  0.06849458  0.00000540  0.50002194  1.0
  Al  Al1  1  0.99507191  0.33333895  0.16665763  1.0
  H  H2  1  0.79619400  0.55997215  0.37000344  1.0
  H  H3  1  0.79636799  0.12993853  0.18994022  1.0
  H  H4  1  0.79638524  0.31002434  0.93997121  1.0
  C  C5  1  0.56765442  0.05465832  0.61693981  1.0
  C  C6  1  0.56783277  0.88308280  0.43775809  1.0
  C  C7  1  0.56772798  0.06225866  0.44534824  1.0
  C  C8  1  0.49858556  0.45032880  0.22757839  1.0
  C  C9  1  0.49867460  0.27239602  0.22271679  1.0
  C  C10  1  0.49873706  0.27727664  0.04966898  1.0
  C  C11  1  0.42919410  0.74813725  0.32447990  1.0
  C  C12  1  0.66636223  0.58183075  0.33760125  1.0
  C  C13  1  0.57089476  0.79692485  0.39509257  1.0
  C  C14  1  0.51475904  0.53462498  0.26790937  1.0
  C  C15  1  0.62384293  0.65973802  0.35871447  1.0
  C  C16  1  0.45307553  0.66958866  0.30351144  1.0
  C  C17  1  0.42906369  0.17552072  0.42362034  1.0
  C  C18  1  0.66646301  0.16234518  0.24419242  1.0
  C  C19  1  0.57079316  0.10490139  0.40182909  1.0
  C  C20  1  0.51476802  0.23204430  0.26666158  1.0
  C  C21  1  0.62386670  0.14124208  0.30099421  1.0
  C  C22  1  0.45301977  0.19646975  0.36603172  1.0
  C  C23  1  0.42905830  0.07636240  0.75192402  1.0
  C  C24  1  0.66648791  0.25577561  0.91813932  1.0
  C  C25  1  0.57071253  0.09815839  0.70309641  1.0
  C  C26  1  0.51487845  0.23331236  0.96537864  1.0
  C  C27  1  0.62386373  0.19897728  0.84024691  1.0
  C  C28  1  0.45304652  0.13394993  0.83045198  1.0
  S  S29  1  0.73853143  0.74751210  0.43631347  1.0
  S  S30  1  0.32793932  0.58414786  0.22752585  1.0
  S  S31  1  0.73856478  0.06364981  0.31121253  1.0
  S  S32  1  0.32790482  0.27245640  0.35655265  1.0
  S  S33  1  0.73848672  0.18876564  0.75244358  1.0
  S  S34  1  0.32802432  0.14343291  0.91591689  1.0
  N  N35  1  0.26796818  0.77418645  0.27798519  1.0
  N  N36  1  0.26770959  0.22203781  0.49614235  1.0
  N  N37  1  0.26771964  0.00384756  0.72592827  1.0
  O  O38  1  0.32964988  0.01626735  0.43045232  1.0
  O  O39  1  0.32953247  0.06957331  0.58586254  1.0
  O  O40  1  0.32970696  0.91416422  0.48375389  1.0
  O  O41  1  0.80524741  0.07319765  0.49018851  1.0
  O  O42  1  0.80542259  0.91698210  0.42682501  1.0
  O  O43  1  0.80523666  0.00981266  0.58303227  1.0
  O  O44  1  0.25778188  0.26261636  0.08117341  1.0
  O  O45  1  0.25764195  0.41883910  0.18142703  1.0
  O  O46  1  0.25772237  0.31856853  0.23738568  1.0
  O  O47  1  0.72636274  0.32628709  0.08476893  1.0
  O  O48  1  0.72639107  0.25850149  0.17371352  1.0
  O  O49  1  0.72622940  0.41521082  0.24148182  1.0
  O  O50  1  0.11783521  0.72441338  0.22041546  1.0
  O  O51  1  0.28727999  0.84331242  0.29789434  1.0
  O  O52  1  0.11761198  0.27961825  0.50391751  1.0
  O  O53  1  0.28686439  0.20213687  0.54536750  1.0
  O  O54  1  0.11764624  0.99607765  0.77573661  1.0
  O  O55  1  0.28687261  0.95462118  0.65680865  1.0
