# generated using pymatgen
data_ZnHC11Br4NO6
_symmetry_space_group_name_H-M   'P 1'
_cell_length_a   9.90587887
_cell_length_b   10.95738264
_cell_length_c   13.86991290
_cell_angle_alpha   79.44163817
_cell_angle_beta   86.82536144
_cell_angle_gamma   82.79993226
_symmetry_Int_Tables_number   1
_chemical_formula_structural   ZnHC11Br4NO6
_chemical_formula_sum   'Zn2 H2 C22 Br8 N2 O12'
_cell_volume   1467.50410330
_cell_formula_units_Z   2
loop_
 _symmetry_equiv_pos_site_id
 _symmetry_equiv_pos_as_xyz
  1  'x, y, z'
loop_
 _atom_site_type_symbol
 _atom_site_label
 _atom_site_symmetry_multiplicity
 _atom_site_fract_x
 _atom_site_fract_y
 _atom_site_fract_z
 _atom_site_occupancy
  Zn  Zn0  1  0.64964673  0.48495297  0.47942743  1.0
  Zn  Zn1  1  0.35030611  0.51512236  0.52054012  1.0
  H  H2  1  0.61272185  0.24133276  0.20825188  1.0
  H  H3  1  0.38733573  0.75864700  0.79166457  1.0
  C  C4  1  0.49288252  0.26647104  0.50080743  1.0
  C  C5  1  0.06912755  0.42676535  0.57535170  1.0
  C  C6  1  0.44226564  0.54151381  0.21005320  1.0
  C  C7  1  0.55756517  0.45853317  0.78994454  1.0
  C  C8  1  0.44743507  0.53067821  0.02367382  1.0
  C  C9  1  0.55253320  0.46929553  0.97634595  1.0
  C  C10  1  0.55831057  0.46127275  0.87750432  1.0
  C  C11  1  0.44165043  0.53879361  0.12248451  1.0
  C  C12  1  0.50277507  0.08523504  0.41086537  1.0
  C  C13  1  0.49741107  0.91480455  0.58912814  1.0
  C  C14  1  0.50732596  0.95702936  0.41148390  1.0
  C  C15  1  0.50736659  0.73357647  0.49916320  1.0
  C  C16  1  0.49282908  0.04302040  0.58851738  1.0
  C  C17  1  0.50017474  0.17972424  0.31713896  1.0
  C  C18  1  0.49995095  0.82030813  0.68284042  1.0
  C  C19  1  0.50577363  0.87143625  0.49953285  1.0
  C  C20  1  0.49441544  0.12858534  0.50046438  1.0
  C  C21  1  0.54022497  0.46700362  0.68604499  1.0
  C  C22  1  0.45948072  0.53307203  0.31395646  1.0
  C  C23  1  0.05618278  0.60247113  0.45293343  1.0
  C  C24  1  0.94378717  0.39750165  0.54711406  1.0
  C  C25  1  0.93085124  0.57315586  0.42467263  1.0
  Br  Br26  1  0.12251535  0.75174475  0.39484593  1.0
  Br  Br27  1  0.87742617  0.24823284  0.60521564  1.0
  Br  Br28  1  0.84477090  0.66655303  0.31393724  1.0
  Br  Br29  1  0.15532945  0.33321993  0.68598192  1.0
  Br  Br30  1  0.70633792  0.38838980  0.05114100  1.0
  Br  Br31  1  0.29362177  0.61151841  0.94885773  1.0
  Br  Br32  1  0.50482047  0.89735504  0.29096717  1.0
  Br  Br33  1  0.49529169  0.10267919  0.70903855  1.0
  N  N34  1  0.87447332  0.47388077  0.47456924  1.0
  N  N35  1  0.12547672  0.52608355  0.52547258  1.0
  O  O36  1  0.60769030  0.30718512  0.48304034  1.0
  O  O37  1  0.62127911  0.17573327  0.26746351  1.0
  O  O38  1  0.59992256  0.74723301  0.70883248  1.0
  O  O39  1  0.37880191  0.82428490  0.73246064  1.0
  O  O40  1  0.39251695  0.69286036  0.51673911  1.0
  O  O41  1  0.37941552  0.32665856  0.51812595  1.0
  O  O42  1  0.62088218  0.67338710  0.48202475  1.0
  O  O43  1  0.64664121  0.46067065  0.63104610  1.0
  O  O44  1  0.35300425  0.53909373  0.36894702  1.0
  O  O45  1  0.41650885  0.48128632  0.66146266  1.0
  O  O46  1  0.58316389  0.51911456  0.33857973  1.0
  O  O47  1  0.40020304  0.25275595  0.29121504  1.0
