# generated using pymatgen
data_CdH15C20N7O4
_symmetry_space_group_name_H-M   'P 1'
_cell_length_a   14.23236014
_cell_length_b   15.14248128
_cell_length_c   17.36866338
_cell_angle_alpha   89.99981812
_cell_angle_beta   89.99979198
_cell_angle_gamma   97.77727929
_symmetry_Int_Tables_number   1
_chemical_formula_structural   CdH15C20N7O4
_chemical_formula_sum   'Cd4 H60 C80 N28 O16'
_cell_volume   3708.74572908
_cell_formula_units_Z   4
loop_
 _symmetry_equiv_pos_site_id
 _symmetry_equiv_pos_as_xyz
  1  'x, y, z'
loop_
 _atom_site_type_symbol
 _atom_site_label
 _atom_site_symmetry_multiplicity
 _atom_site_fract_x
 _atom_site_fract_y
 _atom_site_fract_z
 _atom_site_occupancy
  Cd  Cd0  1  0.35772541  0.98432359  0.01024010  1.0
  Cd  Cd1  1  0.14227151  0.01567603  0.51023765  1.0
  Cd  Cd2  1  0.64227407  0.01568450  0.98975796  1.0
  Cd  Cd3  1  0.85772738  0.98431609  0.48975581  1.0
  H  H4  1  0.30507544  0.00010773  0.74697239  1.0
  H  H5  1  0.19491615  0.99989147  0.24696896  1.0
  H  H6  1  0.69492095  0.99987570  0.25302509  1.0
  H  H7  1  0.80507143  0.00010577  0.75303429  1.0
  H  H8  1  0.60700006  0.01557910  0.78354468  1.0
  H  H9  1  0.89298995  0.98441816  0.28354127  1.0
  H  H10  1  0.39299672  0.98441298  0.21645799  1.0
  H  H11  1  0.10699303  0.01557036  0.71646025  1.0
  H  H12  1  0.25216798  0.52033995  0.98690385  1.0
  H  H13  1  0.24783997  0.47966385  0.48691265  1.0
  H  H14  1  0.74783729  0.47966957  0.01309363  1.0
  H  H15  1  0.75217247  0.52034113  0.51309232  1.0
  H  H16  1  0.27040226  0.41633199  0.97005696  1.0
  H  H17  1  0.22959691  0.58366841  0.47005459  1.0
  H  H18  1  0.72960302  0.58367752  0.02993995  1.0
  H  H19  1  0.77040641  0.41633110  0.52994232  1.0
  H  H20  1  0.34873145  0.16792776  0.90749164  1.0
  H  H21  1  0.15127160  0.83206765  0.40749284  1.0
  H  H22  1  0.65126997  0.83207903  0.09250527  1.0
  H  H23  1  0.84872580  0.16792378  0.59250753  1.0
  H  H24  1  0.49440305  0.04122294  0.55420017  1.0
  H  H25  1  0.00559369  0.95879378  0.05419626  1.0
  H  H26  1  0.50559807  0.95877587  0.44579962  1.0
  H  H27  1  0.99439452  0.04121412  0.94580238  1.0
  H  H28  1  0.41120029  0.28936540  0.16791115  1.0
  H  H29  1  0.08880122  0.71063164  0.66791210  1.0
  H  H30  1  0.58880201  0.71064274  0.83209094  1.0
  H  H31  1  0.91120073  0.28936252  0.33209229  1.0
  H  H32  1  0.37200830  0.33353169  0.92441323  1.0
  H  H33  1  0.12799217  0.66646626  0.42441784  1.0
  H  H34  1  0.62799196  0.66647707  0.07558713  1.0
  H  H35  1  0.87201015  0.33352525  0.57559174  1.0
  H  H36  1  0.70644785  0.02192398  0.66491709  1.0
  H  H37  1  0.79354536  0.97807783  0.16491457  1.0
  H  H38  1  0.29355473  0.97808084  0.33507291  1.0
  H  H39  1  0.20644173  0.02192673  0.83508464  1.0
  H  H40  1  0.65740905  0.02558074  0.57681884  1.0
  H  H41  1  0.84258829  0.97442283  0.07681849  1.0
  H  H42  1  0.34258902  0.97442733  0.42317346  1.0
  H  H43  1  0.15740692  0.02557920  0.92317670  1.0
  H  H44  1  0.39240198  0.12475095  0.13909802  1.0
  H  H45  1  0.10760319  0.87524628  0.63909788  1.0
  H  H46  1  0.60760263  0.87525324  0.86090176  1.0
  H  H47  1  0.89239727  0.12474720  0.36090479  1.0
  H  H48  1  0.36917768  0.64018653  0.92689314  1.0
  H  H49  1  0.13082655  0.35981347  0.42689513  1.0
  H  H50  1  0.63081678  0.35982081  0.07311068  1.0
  H  H51  1  0.86918659  0.64018022  0.57309890  1.0
  H  H52  1  0.41370071  0.69494746  0.16966144  1.0
  H  H53  1  0.08628952  0.30504938  0.66966180  1.0
  H  H54  1  0.58629843  0.30505796  0.83034469  1.0
  H  H55  1  0.91370966  0.69495072  0.33033396  1.0
  H  H56  1  0.34908966  0.80142367  0.91002290  1.0
  H  H57  1  0.15091466  0.19857640  0.41002529  1.0
  H  H58  1  0.65091148  0.19858644  0.08997976  1.0
  H  H59  1  0.84908820  0.80141379  0.58997047  1.0
  H  H60  1  0.39260335  0.85427084  0.14188881  1.0
  H  H61  1  0.10739635  0.14572761  0.64189071  1.0
  H  H62  1  0.60740624  0.14573942  0.85812076  1.0
  H  H63  1  0.89259600  0.85426838  0.35810678  1.0
  C  C64  1  0.30786618  0.02232994  0.59415519  1.0
  C  C65  1  0.19213575  0.97768471  0.09415873  1.0
  C  C66  1  0.69213383  0.97766552  0.40583597  1.0
  C  C67  1  0.80786343  0.02231540  0.90584566  1.0
  C  C68  1  0.45428027  0.00720028  0.77407211  1.0
  C  C69  1  0.04571052  0.99280478  0.27407145  1.0
  C  C70  1  0.54571965  0.99279451  0.22592767  1.0
  C  C71  1  0.95428075  0.00719386  0.72593007  1.0
  C  C72  1  0.43476096  0.99531537  0.85832768  1.0
  C  C73  1  0.06523468  0.00469209  0.35832165  1.0
  C  C74  1  0.56524402  0.00468617  0.14167211  1.0
  C  C75  1  0.93476078  0.99531194  0.64167641  1.0
  C  C76  1  0.39193804  0.02100737  0.64568177  1.0
  C  C77  1  0.10805767  0.97900430  0.14567980  1.0
  C  C78  1  0.60806172  0.97898610  0.35431341  1.0
  C  C79  1  0.89193588  0.02099571  0.85432171  1.0
  C  C80  1  0.56296724  0.02948979  0.66477796  1.0
  C  C81  1  0.93702908  0.97050874  0.16477561  1.0
  C  C82  1  0.43703119  0.97050432  0.33521722  1.0
  C  C83  1  0.06295834  0.02948717  0.83522648  1.0
  C  C84  1  0.37693024  0.00880513  0.72468328  1.0
  C  C85  1  0.12305897  0.99119678  0.22468009  1.0
  C  C86  1  0.62306168  0.99117623  0.27531766  1.0
  C  C87  1  0.87692521  0.00879575  0.77531740  1.0
  C  C88  1  0.54692535  0.01735769  0.74464943  1.0
  C  C89  1  0.95306420  0.98264572  0.24464527  1.0
  C  C90  1  0.45307151  0.98263506  0.25535266  1.0
  C  C91  1  0.04692276  0.01735218  0.75535279  1.0
  C  C92  1  0.39043656  0.32458326  0.04883634  1.0
  C  C93  1  0.10956235  0.67541689  0.54883330  1.0
  C  C94  1  0.60955848  0.67542874  0.95116748  1.0
  C  C95  1  0.89044399  0.32457868  0.45117167  1.0
  C  C96  1  0.36243155  0.19786942  0.96427488  1.0
  C  C97  1  0.13757602  0.80213048  0.46427562  1.0
  C  C98  1  0.63756962  0.80213537  0.03572894  1.0
  C  C99  1  0.86242610  0.19786501  0.53573280  1.0
  C  C100  1  0.48383690  0.03139609  0.61598964  1.0
  C  C101  1  0.01616356  0.96861312  0.11598682  1.0
  C  C102  1  0.51615926  0.96859665  0.38401015  1.0
  C  C103  1  0.98382481  0.03138480  0.88401009  1.0
  C  C104  1  0.39685425  0.26451190  0.10966551  1.0
  C  C105  1  0.10314941  0.73548342  0.60966980  1.0
  C  C106  1  0.60314684  0.73549222  0.89033140  1.0
  C  C107  1  0.89685353  0.26450743  0.39033517  1.0
  C  C108  1  0.40960518  0.41950657  0.06582712  1.0
  C  C109  1  0.09039137  0.58049215  0.56582613  1.0
  C  C110  1  0.59038903  0.58049877  0.93417957  1.0
  C  C111  1  0.90961680  0.41950678  0.43417942  1.0
  C  C112  1  0.37210443  0.29002325  0.97447587  1.0
  C  C113  1  0.12789869  0.70997520  0.47447920  1.0
  C  C114  1  0.62789558  0.70998351  0.02552047  1.0
  C  C115  1  0.87210467  0.29001899  0.52551829  1.0
  C  C116  1  0.41016667  0.56437074  0.06664794  1.0
  C  C117  1  0.08983282  0.43562337  0.56664735  1.0
  C  C118  1  0.58983384  0.43562872  0.93335645  1.0
  C  C119  1  0.91017473  0.56437622  0.43334726  1.0
  C  C120  1  0.38702849  0.17392951  0.09401447  1.0
  C  C121  1  0.11297479  0.82606787  0.59401675  1.0
  C  C122  1  0.61297107  0.82607924  0.90598301  1.0
  C  C123  1  0.88702206  0.17392488  0.40598822  1.0
  C  C124  1  0.39104449  0.65468798  0.05061322  1.0
  C  C125  1  0.10895868  0.34530691  0.55061973  1.0
  C  C126  1  0.60896356  0.34531560  0.94939118  1.0
  C  C127  1  0.89104696  0.65468864  0.44937603  1.0
  C  C128  1  0.37183700  0.68464152  0.97646050  1.0
  C  C129  1  0.12816011  0.31535948  0.47646033  1.0
  C  C130  1  0.62815966  0.31536652  0.02354332  1.0
  C  C131  1  0.87184826  0.68463546  0.52353601  1.0
  C  C132  1  0.39827029  0.71616030  0.11163969  1.0
  C  C133  1  0.10172956  0.28383828  0.61163949  1.0
  C  C134  1  0.60173412  0.28384787  0.88836585  1.0
  C  C135  1  0.89827132  0.71615853  0.38835223  1.0
  C  C136  1  0.36222092  0.77427975  0.96665940  1.0
  C  C137  1  0.13778444  0.22571944  0.46666406  1.0
  C  C138  1  0.63778552  0.22572780  0.03334902  1.0
  C  C139  1  0.86222037  0.77426945  0.53333515  1.0
  C  C140  1  0.38721219  0.80410014  0.09648471  1.0
  C  C141  1  0.11278081  0.19589373  0.59648817  1.0
  C  C142  1  0.61279172  0.19590404  0.90352141  1.0
  C  C143  1  0.88721849  0.80410172  0.40350931  1.0
  N  N144  1  0.37083296  0.14122082  0.02244081  1.0
  N  N145  1  0.12917370  0.85877293  0.52244468  1.0
  N  N146  1  0.62916751  0.85878396  0.97755437  1.0
  N  N147  1  0.87082746  0.14122056  0.47755856  1.0
  N  N148  1  0.37040994  0.48738020  0.03094127  1.0
  N  N149  1  0.12959304  0.51261810  0.53094553  1.0
  N  N150  1  0.62958841  0.51262454  0.96906140  1.0
  N  N151  1  0.87041471  0.48737750  0.46905771  1.0
  N  N152  1  0.30237416  0.48104695  0.97170232  1.0
  N  N153  1  0.19763030  0.51895088  0.47170540  1.0
  N  N154  1  0.69763128  0.51896391  0.02829747  1.0
  N  N155  1  0.80238027  0.48104476  0.52829669  1.0
  N  N156  1  0.47076922  0.54393471  0.12061691  1.0
  N  N157  1  0.02922076  0.45605834  0.62061472  1.0
  N  N158  1  0.52922246  0.45606726  0.87939094  1.0
  N  N159  1  0.97078210  0.54393185  0.37938104  1.0
  N  N160  1  0.47079938  0.45426926  0.11983690  1.0
  N  N161  1  0.02919226  0.54572582  0.61983273  1.0
  N  N162  1  0.52919380  0.54573340  0.88017038  1.0
  N  N163  1  0.97081217  0.45426573  0.38017051  1.0
  N  N164  1  0.65295286  0.04223719  0.63367985  1.0
  N  N165  1  0.84704383  0.95776879  0.13367607  1.0
  N  N166  1  0.34704707  0.95776891  0.36632109  1.0
  N  N167  1  0.15294380  0.04223444  0.86631681  1.0
  N  N168  1  0.37002426  0.83267975  0.02515566  1.0
  N  N169  1  0.12997792  0.16732321  0.52515570  1.0
  N  N170  1  0.62998582  0.16733450  0.97484758  1.0
  N  N171  1  0.87002042  0.83267023  0.47483948  1.0
  O  O172  1  0.50180887  0.99636494  0.90695078  1.0
  O  O173  1  0.99818438  0.00364583  0.40694921  1.0
  O  O174  1  0.49820901  0.00365543  0.09304325  1.0
  O  O175  1  0.00181186  0.99635888  0.59305057  1.0
  O  O176  1  0.22610542  0.01962600  0.62606681  1.0
  O  O177  1  0.27389814  0.98039719  0.12607183  1.0
  O  O178  1  0.77390254  0.98036561  0.37392089  1.0
  O  O179  1  0.72610159  0.01961290  0.87393487  1.0
  O  O180  1  0.31844172  0.02564667  0.52132227  1.0
  O  O181  1  0.18156243  0.97435502  0.02132759  1.0
  O  O182  1  0.68157229  0.97434837  0.47866427  1.0
  O  O183  1  0.81843981  0.02563583  0.97868026  1.0
  O  O184  1  0.34734403  0.98487480  0.87954247  1.0
  O  O185  1  0.15265448  0.01513395  0.37953558  1.0
  O  O186  1  0.65266129  0.01512940  0.12046480  1.0
  O  O187  1  0.84734694  0.98487284  0.62046018  1.0
