# generated using pymatgen
data_CuH8C11N5
_symmetry_space_group_name_H-M   'P 1'
_cell_length_a   10.86079793
_cell_length_b   18.15970962
_cell_length_c   18.15971261
_cell_angle_alpha   80.68024622
_cell_angle_beta   86.58172845
_cell_angle_gamma   86.58143948
_symmetry_Int_Tables_number   1
_chemical_formula_structural   CuH8C11N5
_chemical_formula_sum   'Cu8 H64 C88 N40'
_cell_volume   3523.51195256
_cell_formula_units_Z   8
loop_
 _symmetry_equiv_pos_site_id
 _symmetry_equiv_pos_as_xyz
  1  'x, y, z'
loop_
 _atom_site_type_symbol
 _atom_site_label
 _atom_site_symmetry_multiplicity
 _atom_site_fract_x
 _atom_site_fract_y
 _atom_site_fract_z
 _atom_site_occupancy
  Cu  Cu0  1  0.53189277  0.59387333  0.52157790  1.0
  Cu  Cu1  1  0.96810705  0.47841968  0.40612756  1.0
  Cu  Cu2  1  0.46810696  0.40612398  0.47842361  1.0
  Cu  Cu3  1  0.03189276  0.52157650  0.59387633  1.0
  Cu  Cu4  1  0.25000097  0.53842779  0.46157103  1.0
  Cu  Cu5  1  0.75000060  0.46156950  0.53843153  1.0
  Cu  Cu6  1  0.75000088  0.62106435  0.37893268  1.0
  Cu  Cu7  1  0.24999875  0.37893465  0.62106637  1.0
  H  H8  1  0.09358948  0.54654473  0.76904189  1.0
  H  H9  1  0.40641118  0.23095753  0.45345627  1.0
  H  H10  1  0.90641174  0.45345703  0.23096164  1.0
  H  H11  1  0.59358853  0.76904035  0.54654351  1.0
  H  H12  1  0.53931406  0.61112977  0.70028244  1.0
  H  H13  1  0.96068509  0.29971696  0.38887165  1.0
  H  H14  1  0.46068617  0.38887312  0.29971819  1.0
  H  H15  1  0.03931457  0.70028148  0.61112860  1.0
  H  H16  1  0.05932169  0.55922712  0.98561711  1.0
  H  H17  1  0.44067782  0.01438021  0.44077446  1.0
  H  H18  1  0.94067860  0.44077523  0.01438195  1.0
  H  H19  1  0.55932176  0.98561934  0.55922506  1.0
  H  H20  1  0.08523915  0.56088453  0.08186196  1.0
  H  H21  1  0.41476162  0.91813578  0.43911653  1.0
  H  H22  1  0.91476029  0.43911670  0.91813786  1.0
  H  H23  1  0.58523888  0.08186377  0.56088351  1.0
  H  H24  1  0.16565570  0.49342197  0.03375228  1.0
  H  H25  1  0.33434534  0.96624512  0.50657876  1.0
  H  H26  1  0.83434375  0.50657926  0.96624698  1.0
  H  H27  1  0.66565516  0.03375444  0.49342073  1.0
  H  H28  1  0.23830322  0.72985659  0.97868901  1.0
  H  H29  1  0.26169437  0.02131185  0.27014486  1.0
  H  H30  1  0.76169806  0.27014462  0.02131185  1.0
  H  H31  1  0.73830239  0.97868827  0.72985632  1.0
  H  H32  1  0.12528513  0.69655460  0.04965770  1.0
  H  H33  1  0.37471490  0.95034206  0.30344664  1.0
  H  H34  1  0.87471611  0.30344718  0.95034197  1.0
  H  H35  1  0.62528368  0.04965862  0.69655219  1.0
  H  H36  1  0.10065966  0.69350240  0.95339823  1.0
  H  H37  1  0.39933912  0.04660168  0.30649992  1.0
  H  H38  1  0.89934255  0.30649882  0.04660150  1.0
  H  H39  1  0.60065857  0.95339844  0.69350012  1.0
  H  H40  1  0.69328390  0.61248369  0.99425775  1.0
  H  H41  1  0.80671630  0.00574204  0.38751549  1.0
  H  H42  1  0.30671937  0.38751585  0.00574220  1.0
  H  H43  1  0.19328232  0.99425808  0.61248397  1.0
  H  H44  1  0.66913928  0.60941911  0.89757686  1.0
  H  H45  1  0.83086126  0.10242253  0.39058173  1.0
  H  H46  1  0.33086009  0.39058324  0.10242168  1.0
  H  H47  1  0.16914105  0.89757758  0.60941706  1.0
  H  H48  1  0.62364786  0.53512752  0.96815178  1.0
  H  H49  1  0.87635191  0.03184727  0.46487263  1.0
  H  H50  1  0.37635255  0.46487316  0.03184754  1.0
  H  H51  1  0.12364763  0.96815285  0.53512680  1.0
  H  H52  1  0.58210966  0.73750879  0.98390890  1.0
  H  H53  1  0.91789185  0.01609171  0.26249084  1.0
  H  H54  1  0.41789347  0.26249242  0.01609135  1.0
  H  H55  1  0.08210757  0.98391009  0.73750724  1.0
  H  H56  1  0.42998772  0.75316380  0.95098921  1.0
  H  H57  1  0.07001455  0.04901123  0.24683673  1.0
  H  H58  1  0.57001541  0.24683741  0.04901104  1.0
  H  H59  1  0.92998583  0.95099001  0.75316195  1.0
  H  H60  1  0.55605518  0.73578815  0.88751921  1.0
  H  H61  1  0.94394647  0.11248205  0.26421223  1.0
  H  H62  1  0.44394708  0.26421251  0.11248060  1.0
  H  H63  1  0.05605483  0.88751917  0.73578753  1.0
  H  H64  1  0.22798098  0.56235337  0.27892064  1.0
  H  H65  1  0.27202120  0.72107716  0.43764553  1.0
  H  H66  1  0.77201969  0.43764394  0.72107974  1.0
  H  H67  1  0.72797753  0.27892127  0.56235640  1.0
  H  H68  1  0.67274204  0.62635061  0.20513418  1.0
  H  H69  1  0.82725762  0.79486540  0.37364884  1.0
  H  H70  1  0.32725004  0.37366236  0.79486571  1.0
  H  H71  1  0.17274945  0.20513424  0.62633500  1.0
  C  C72  1  0.36538232  0.58119731  0.66134181  1.0
  C  C73  1  0.13461672  0.33865751  0.41880363  1.0
  C  C74  1  0.63462186  0.41880222  0.33865977  1.0
  C  C75  1  0.86538019  0.66134035  0.58120010  1.0
  C  C76  1  0.24030565  0.56261991  0.68106865  1.0
  C  C77  1  0.25969334  0.31893068  0.43738186  1.0
  C  C78  1  0.75969852  0.43737962  0.31893348  1.0
  C  C79  1  0.74030358  0.68106719  0.56262077  1.0
  C  C80  1  0.18895211  0.56024763  0.75333227  1.0
  C  C81  1  0.31104948  0.24666614  0.43975445  1.0
  C  C82  1  0.81105096  0.43975413  0.24666955  1.0
  C  C83  1  0.68895013  0.75333284  0.56024681  1.0
  C  C84  1  0.26593174  0.57766401  0.80707113  1.0
  C  C85  1  0.23406519  0.19292899  0.42233798  1.0
  C  C86  1  0.73406756  0.42233888  0.19293063  1.0
  C  C87  1  0.76593359  0.80706889  0.57766293  1.0
  C  C88  1  0.39308419  0.59583982  0.78710002  1.0
  C  C89  1  0.10691650  0.21289957  0.40416225  1.0
  C  C90  1  0.60691697  0.40416308  0.21290058  1.0
  C  C91  1  0.89308215  0.78709998  0.59583841  1.0
  C  C92  1  0.44336879  0.59750798  0.71373638  1.0
  C  C93  1  0.05663021  0.28626256  0.40249410  1.0
  C  C94  1  0.55663148  0.40249436  0.28626433  1.0
  C  C95  1  0.94336764  0.71373531  0.59750794  1.0
  C  C96  1  0.29068764  0.59751381  0.92777326  1.0
  C  C97  1  0.20931535  0.07222596  0.40248910  1.0
  C  C98  1  0.70931635  0.40248795  0.07222908  1.0
  C  C99  1  0.79068799  0.92777247  0.59751157  1.0
  C  C100  1  0.23056835  0.60670888  0.00412429  1.0
  C  C101  1  0.26943028  0.99587362  0.39329356  1.0
  C  C102  1  0.76943109  0.39329234  0.99587608  1.0
  C  C103  1  0.73056938  0.00412481  0.60670724  1.0
  C  C104  1  0.32575391  0.60161023  0.06342952  1.0
  C  C105  1  0.17424632  0.93656959  0.39839028  1.0
  C  C106  1  0.67424737  0.39839098  0.93657244  1.0
  C  C107  1  0.82575151  0.06342886  0.60160837  1.0
  C  C108  1  0.45311960  0.61763053  0.04357926  1.0
  C  C109  1  0.04688002  0.95641957  0.38236884  1.0
  C  C110  1  0.54687979  0.38237124  0.95642268  1.0
  C  C111  1  0.95311971  0.04357833  0.61762818  1.0
  C  C112  1  0.50355986  0.63587765  0.96326812  1.0
  C  C113  1  0.99643939  0.03673179  0.36412174  1.0
  C  C114  1  0.49643878  0.36412190  0.03673419  1.0
  C  C115  1  0.00356116  0.96326721  0.63587673  1.0
  C  C116  1  0.41790798  0.61382062  0.90820816  1.0
  C  C117  1  0.08209065  0.09179056  0.38618079  1.0
  C  C118  1  0.58209236  0.38618117  0.09179044  1.0
  C  C119  1  0.91790809  0.90820788  0.61381893  1.0
  C  C120  1  0.12856649  0.55144316  0.02794795  1.0
  C  C121  1  0.37143380  0.97204972  0.44855810  1.0
  C  C122  1  0.87143203  0.44855807  0.97205189  1.0
  C  C123  1  0.62856771  0.02794871  0.55144263  1.0
  C  C124  1  0.17003189  0.68730197  0.99585498  1.0
  C  C125  1  0.32996696  0.00414522  0.31269952  1.0
  C  C126  1  0.82996944  0.31269869  0.00414541  1.0
  C  C127  1  0.67003165  0.99585489  0.68730049  1.0
  C  C128  1  0.63135411  0.59586367  0.95512036  1.0
  C  C129  1  0.86864592  0.04487948  0.40413619  1.0
  C  C130  1  0.36864629  0.40413699  0.04488006  1.0
  C  C131  1  0.13135458  0.95512007  0.59586330  1.0
  C  C132  1  0.51844523  0.72147584  0.94518060  1.0
  C  C133  1  0.98155573  0.05481847  0.27852580  1.0
  C  C134  1  0.48155607  0.27852539  0.05481860  1.0
  C  C135  1  0.01844384  0.94518108  0.72147427  1.0
  C  C136  1  0.36612923  0.58898517  0.18852703  1.0
  C  C137  1  0.13386936  0.81147297  0.41101453  1.0
  C  C138  1  0.63386467  0.41101605  0.81147573  1.0
  C  C139  1  0.86613503  0.18852437  0.58898132  1.0
  C  C140  1  0.32352671  0.57595692  0.26390440  1.0
  C  C141  1  0.17647281  0.73609534  0.42404226  1.0
  C  C142  1  0.67647298  0.42404095  0.73609758  1.0
  C  C143  1  0.82352506  0.26390256  0.57595648  1.0
  C  C144  1  0.40799403  0.58325209  0.31658089  1.0
  C  C145  1  0.09201002  0.68341648  0.41674618  1.0
  C  C146  1  0.59200095  0.41674691  0.68342162  1.0
  C  C147  1  0.90799532  0.31658027  0.58325248  1.0
  C  C148  1  0.53272638  0.60195611  0.29598773  1.0
  C  C149  1  0.96727460  0.70401128  0.39804405  1.0
  C  C150  1  0.46726616  0.39805071  0.70401420  1.0
  C  C151  1  0.03273162  0.29598664  0.60194670  1.0
  C  C152  1  0.57775371  0.61295086  0.22220130  1.0
  C  C153  1  0.92224723  0.77779760  0.38704763  1.0
  C  C154  1  0.42223945  0.38705986  0.77780055  1.0
  C  C155  1  0.07775714  0.22220091  0.61293923  1.0
  C  C156  1  0.49332172  0.60687366  0.16818402  1.0
  C  C157  1  0.00667837  0.83181570  0.39312379  1.0
  C  C158  1  0.50667178  0.39313259  0.83181851  1.0
  C  C159  1  0.99332695  0.16818223  0.60686588  1.0
  N  N160  1  0.38554637  0.57785562  0.58657743  1.0
  N  N161  1  0.11445159  0.41342238  0.42214485  1.0
  N  N162  1  0.61445692  0.42214336  0.41342426  1.0
  N  N163  1  0.88554442  0.58657550  0.57785725  1.0
  N  N164  1  0.27996582  0.55783890  0.56217081  1.0
  N  N165  1  0.22003294  0.43782844  0.44216112  1.0
  N  N166  1  0.72003659  0.44215951  0.43783210  1.0
  N  N167  1  0.77996403  0.56216887  0.55784049  1.0
  N  N168  1  0.19104912  0.54887383  0.61689519  1.0
  N  N169  1  0.30895007  0.38310367  0.45112551  1.0
  N  N170  1  0.80895333  0.45112402  0.38310836  1.0
  N  N171  1  0.69104783  0.61689365  0.54887551  1.0
  N  N172  1  0.21884181  0.57924249  0.87830871  1.0
  N  N173  1  0.28115788  0.12169005  0.42076000  1.0
  N  N174  1  0.78115841  0.42076040  0.12169302  1.0
  N  N175  1  0.71884266  0.87830894  0.57924013  1.0
  N  N176  1  0.46591906  0.61262993  0.84008560  1.0
  N  N177  1  0.03408013  0.15991451  0.38737147  1.0
  N  N178  1  0.53408109  0.38737409  0.15991431  1.0
  N  N179  1  0.96591949  0.84008449  0.61262758  1.0
  N  N180  1  0.28554166  0.58703690  0.13389878  1.0
  N  N181  1  0.21445961  0.86609843  0.41296283  1.0
  N  N182  1  0.71445889  0.41296210  0.86610025  1.0
  N  N183  1  0.78554094  0.13390057  0.58703619  1.0
  N  N184  1  0.53276917  0.61974953  0.09485923  1.0
  N  N185  1  0.96723186  0.90514294  0.38024881  1.0
  N  N186  1  0.46722801  0.38025670  0.90514484  1.0
  N  N187  1  0.03277156  0.09485555  0.61974139  1.0
  N  N188  1  0.39462589  0.57650910  0.39302035  1.0
  N  N189  1  0.10537562  0.60697820  0.42349079  1.0
  N  N190  1  0.60537291  0.42348820  0.60698340  1.0
  N  N191  1  0.89462508  0.39301855  0.57651133  1.0
  N  N192  1  0.50236711  0.59055211  0.41755503  1.0
  N  N193  1  0.99763450  0.58244301  0.40944817  1.0
  N  N194  1  0.49763148  0.40944799  0.58244719  1.0
  N  N195  1  0.00236621  0.41755375  0.59055230  1.0
  N  N196  1  0.58813504  0.60584229  0.36102070  1.0
  N  N197  1  0.91186685  0.63897708  0.39415666  1.0
  N  N198  1  0.41185961  0.39416118  0.63898003  1.0
  N  N199  1  0.08813755  0.36102027  0.60583809  1.0
