# generated using pymatgen
data_Zn2H11C12N9O2
_symmetry_space_group_name_H-M   'P 1'
_cell_length_a   17.94328595
_cell_length_b   27.17201624
_cell_length_c   27.17214826
_cell_angle_alpha   60.00019822
_cell_angle_beta   89.99987702
_cell_angle_gamma   89.99992258
_symmetry_Int_Tables_number   1
_chemical_formula_structural   Zn2H11C12N9O2
_chemical_formula_sum   'Zn24 H132 C144 N108 O24'
_cell_volume   11473.06141787
_cell_formula_units_Z   12
loop_
 _symmetry_equiv_pos_site_id
 _symmetry_equiv_pos_as_xyz
  1  'x, y, z'
loop_
 _atom_site_type_symbol
 _atom_site_label
 _atom_site_symmetry_multiplicity
 _atom_site_fract_x
 _atom_site_fract_y
 _atom_site_fract_z
 _atom_site_occupancy
  Zn  Zn0  1  0.42173258  0.66718321  0.44479909  1.0
  Zn  Zn1  1  0.42173366  0.88801651  0.66718492  1.0
  Zn  Zn2  1  0.42173320  0.44479722  0.88801899  1.0
  Zn  Zn3  1  0.92173207  0.33281649  0.55520181  1.0
  Zn  Zn4  1  0.92173377  0.11198325  0.33281513  1.0
  Zn  Zn5  1  0.92173367  0.55520233  0.11198148  1.0
  Zn  Zn6  1  0.57826733  0.11198029  0.55520322  1.0
  Zn  Zn7  1  0.57826445  0.55520149  0.33281594  1.0
  Zn  Zn8  1  0.57826615  0.33281553  0.11198162  1.0
  Zn  Zn9  1  0.07826739  0.88801941  0.44479684  1.0
  Zn  Zn10  1  0.07826581  0.44479805  0.66718370  1.0
  Zn  Zn11  1  0.07826745  0.66718416  0.88801845  1.0
  Zn  Zn12  1  0.57826711  0.33281654  0.55520203  1.0
  Zn  Zn13  1  0.57826435  0.11198198  0.33281577  1.0
  Zn  Zn14  1  0.57826648  0.55520237  0.11198171  1.0
  Zn  Zn15  1  0.07826984  0.66718315  0.44479804  1.0
  Zn  Zn16  1  0.07826424  0.88801823  0.66718473  1.0
  Zn  Zn17  1  0.07826712  0.44479726  0.88801922  1.0
  Zn  Zn18  1  0.42173068  0.88801830  0.44479875  1.0
  Zn  Zn19  1  0.42173356  0.44479773  0.66718476  1.0
  Zn  Zn20  1  0.42173409  0.66718412  0.88801823  1.0
  Zn  Zn21  1  0.92173285  0.11198257  0.55520130  1.0
  Zn  Zn22  1  0.92173331  0.55520218  0.33281572  1.0
  Zn  Zn23  1  0.92173334  0.33281570  0.11198097  1.0
  H  H24  1  0.56160215  0.74980595  0.39803638  1.0
  H  H25  1  0.32806038  0.66592008  0.34505546  1.0
  H  H26  1  0.57268203  0.60832901  0.50620903  1.0
  H  H27  1  0.46690003  0.74593631  0.30756657  1.0
  H  H28  1  0.56160761  0.85215484  0.74980616  1.0
  H  H29  1  0.32805841  0.98902449  0.66591823  1.0
  H  H30  1  0.57268270  0.88545897  0.60832961  1.0
  H  H31  1  0.46689967  0.94649545  0.74593575  1.0
  H  H32  1  0.56160568  0.39803748  0.85215595  1.0
  H  H33  1  0.32805799  0.34505432  0.98902568  1.0
  H  H34  1  0.57268598  0.50620785  0.88546323  1.0
  H  H35  1  0.46689889  0.30756628  0.94649762  1.0
  H  H36  1  0.06160422  0.25019252  0.60196542  1.0
  H  H37  1  0.82805731  0.33408096  0.65494514  1.0
  H  H38  1  0.07268138  0.39167068  0.49379105  1.0
  H  H39  1  0.96689868  0.25406328  0.69243300  1.0
  H  H40  1  0.06160824  0.14784549  0.25019266  1.0
  H  H41  1  0.82805705  0.01097615  0.33408024  1.0
  H  H42  1  0.07268350  0.11454093  0.39167005  1.0
  H  H43  1  0.96689848  0.05350489  0.25406380  1.0
  H  H44  1  0.06160850  0.60196169  0.14784372  1.0
  H  H45  1  0.82805803  0.65494400  0.01097448  1.0
  H  H46  1  0.07268467  0.49379073  0.11453685  1.0
  H  H47  1  0.96689871  0.69243405  0.05350194  1.0
  H  H48  1  0.43839540  0.14784287  0.60196555  1.0
  H  H49  1  0.67194187  0.01097647  0.65494385  1.0
  H  H50  1  0.42731905  0.11453814  0.49379072  1.0
  H  H51  1  0.53310097  0.05350152  0.69243320  1.0
  H  H52  1  0.43839216  0.60196061  0.25019428  1.0
  H  H53  1  0.67193894  0.65494182  0.33408143  1.0
  H  H54  1  0.42731604  0.49378829  0.39167081  1.0
  H  H55  1  0.53310047  0.69243027  0.25406560  1.0
  H  H56  1  0.43839158  0.25019423  0.14784420  1.0
  H  H57  1  0.67194202  0.33407972  0.01097532  1.0
  H  H58  1  0.42731436  0.39167125  0.11453743  1.0
  H  H59  1  0.53310124  0.25406364  0.05350291  1.0
  H  H60  1  0.93839814  0.85215751  0.39803618  1.0
  H  H61  1  0.17194148  0.98902436  0.34505525  1.0
  H  H62  1  0.92731858  0.88546183  0.50620890  1.0
  H  H63  1  0.03309857  0.94649808  0.30756566  1.0
  H  H64  1  0.93839190  0.39803888  0.74980702  1.0
  H  H65  1  0.17194106  0.34505600  0.66592148  1.0
  H  H66  1  0.92731713  0.50621168  0.60832881  1.0
  H  H67  1  0.03309963  0.30756970  0.74593325  1.0
  H  H68  1  0.93839194  0.74980510  0.85215668  1.0
  H  H69  1  0.17194411  0.66591974  0.98902505  1.0
  H  H70  1  0.92731435  0.60832961  0.88546262  1.0
  H  H71  1  0.03310164  0.74593606  0.94649722  1.0
  H  H72  1  0.43839697  0.25019379  0.60196475  1.0
  H  H73  1  0.67194042  0.33407988  0.65494524  1.0
  H  H74  1  0.42731765  0.39167079  0.49379125  1.0
  H  H75  1  0.53309965  0.25406402  0.69243412  1.0
  H  H76  1  0.43839096  0.14784555  0.25019368  1.0
  H  H77  1  0.67194071  0.01097706  0.33408076  1.0
  H  H78  1  0.42731698  0.11454141  0.39167024  1.0
  H  H79  1  0.53309890  0.05350357  0.25406536  1.0
  H  H80  1  0.43839233  0.60196217  0.14784390  1.0
  H  H81  1  0.67194169  0.65494402  0.01097458  1.0
  H  H82  1  0.42731370  0.49379158  0.11453704  1.0
  H  H83  1  0.53310135  0.69243410  0.05350223  1.0
  H  H84  1  0.93839880  0.74980554  0.39803613  1.0
  H  H85  1  0.17194349  0.66591942  0.34505471  1.0
  H  H86  1  0.92731942  0.60832897  0.50620880  1.0
  H  H87  1  0.03310212  0.74593731  0.30756643  1.0
  H  H88  1  0.93839088  0.85215379  0.74980719  1.0
  H  H89  1  0.17194096  0.98902488  0.66591833  1.0
  H  H90  1  0.92731674  0.88545914  0.60832895  1.0
  H  H91  1  0.03309953  0.94649672  0.74593434  1.0
  H  H92  1  0.93839285  0.39803775  0.85215655  1.0
  H  H93  1  0.17194165  0.34505397  0.98902578  1.0
  H  H94  1  0.92731389  0.50620891  0.88546301  1.0
  H  H95  1  0.03310153  0.30756597  0.94649790  1.0
  H  H96  1  0.56160205  0.85215814  0.39803599  1.0
  H  H97  1  0.32805837  0.98902434  0.34505515  1.0
  H  H98  1  0.57268119  0.88546187  0.50620913  1.0
  H  H99  1  0.46689815  0.94649687  0.30756622  1.0
  H  H100  1  0.56160696  0.39803840  0.74980684  1.0
  H  H101  1  0.32805795  0.34505619  0.66592096  1.0
  H  H102  1  0.57268420  0.50621115  0.60832946  1.0
  H  H103  1  0.46689865  0.30756890  0.74593594  1.0
  H  H104  1  0.56160811  0.74980631  0.85215608  1.0
  H  H105  1  0.32806045  0.66591999  0.98902368  1.0
  H  H106  1  0.57268588  0.60832855  0.88546285  1.0
  H  H107  1  0.46689899  0.74593675  0.94649693  1.0
  H  H108  1  0.06160488  0.14784334  0.60196495  1.0
  H  H109  1  0.82805876  0.01097703  0.65494332  1.0
  H  H110  1  0.07268166  0.11453803  0.49379052  1.0
  H  H111  1  0.96689833  0.05350362  0.69243377  1.0
  H  H112  1  0.06160889  0.60196093  0.25019324  1.0
  H  H113  1  0.82805639  0.65494269  0.33408176  1.0
  H  H114  1  0.07268311  0.49378855  0.39167061  1.0
  H  H115  1  0.96690006  0.69243089  0.25406618  1.0
  H  H116  1  0.06160719  0.25019424  0.14784231  1.0
  H  H117  1  0.82805835  0.33407991  0.01097479  1.0
  H  H118  1  0.07268478  0.39167099  0.11453680  1.0
  H  H119  1  0.96689916  0.25406374  0.05350306  1.0
  H  H120  1  0.36191396  0.76440425  0.47119237  1.0
  H  H121  1  0.36191850  0.76440373  0.76440479  1.0
  H  H122  1  0.36191768  0.47119247  0.76440341  1.0
  H  H123  1  0.86191819  0.23559648  0.52880733  1.0
  H  H124  1  0.86191867  0.23559599  0.23559618  1.0
  H  H125  1  0.86191837  0.52880958  0.23559586  1.0
  H  H126  1  0.63808349  0.23559519  0.52880790  1.0
  H  H127  1  0.63808200  0.52880850  0.23559601  1.0
  H  H128  1  0.63808118  0.23559513  0.23559590  1.0
  H  H129  1  0.13808651  0.76440375  0.47119209  1.0
  H  H130  1  0.13808243  0.47119118  0.76440398  1.0
  H  H131  1  0.13808157  0.76440455  0.76440409  1.0
  H  H132  1  0.35123037  0.55525328  0.55525637  1.0
  H  H133  1  0.35122948  0.88949068  0.55525608  1.0
  H  H134  1  0.35123318  0.55525468  0.88949028  1.0
  H  H135  1  0.85122999  0.44474686  0.44474377  1.0
  H  H136  1  0.85123034  0.11050910  0.44474406  1.0
  H  H137  1  0.85123221  0.44474516  0.11050900  1.0
  H  H138  1  0.64877076  0.11050896  0.44474378  1.0
  H  H139  1  0.64876875  0.44474652  0.44474390  1.0
  H  H140  1  0.64876706  0.44474555  0.11050914  1.0
  H  H141  1  0.14876990  0.88949034  0.55525620  1.0
  H  H142  1  0.14877080  0.55525315  0.55525608  1.0
  H  H143  1  0.14876692  0.55525529  0.88948998  1.0
  H  H144  1  0.49999986  0.57285812  0.42714503  1.0
  H  H145  1  0.50000086  0.99999894  0.57285772  1.0
  H  H146  1  0.50000019  0.42714205  0.00000011  1.0
  H  H147  1  0.99999966  0.42714147  0.57285449  1.0
  H  H148  1  0.00000178  0.00000082  0.42714161  1.0
  H  H149  1  0.00000021  0.57285876  0.00000006  1.0
  H  H150  1  0.49999982  0.42714093  0.57285822  1.0
  H  H151  1  0.49999998  0.99999665  0.42714392  1.0
  H  H152  1  0.49999949  0.57285922  0.00000017  1.0
  H  H153  1  0.00000003  0.57285934  0.42714451  1.0
  H  H154  1  0.99999954  0.00000346  0.57285603  1.0
  H  H155  1  0.99999980  0.42714159  0.00000001  1.0
  C  C156  1  0.51984443  0.76823473  0.41286145  1.0
  C  C157  1  0.28887575  0.66605230  0.37541523  1.0
  C  C158  1  0.52653551  0.58188134  0.53123899  1.0
  C  C159  1  0.48354973  0.70194524  0.32458011  1.0
  C  C160  1  0.51985216  0.81890542  0.76823059  1.0
  C  C161  1  0.28887443  0.95853257  0.66605126  1.0
  C  C162  1  0.52653400  0.88687798  0.58188204  1.0
  C  C163  1  0.48354995  0.97347266  0.70194595  1.0
  C  C164  1  0.51984915  0.41286277  0.81890610  1.0
  C  C165  1  0.28887510  0.37541382  0.95853338  1.0
  C  C166  1  0.52653889  0.53123780  0.88688135  1.0
  C  C167  1  0.48354906  0.32457913  0.97347513  1.0
  C  C168  1  0.01984826  0.23176786  0.58713954  1.0
  C  C169  1  0.78887279  0.33394808  0.62458456  1.0
  C  C170  1  0.02653488  0.41811831  0.46876199  1.0
  C  C171  1  0.98354890  0.29805435  0.67541944  1.0
  C  C172  1  0.01985167  0.18109456  0.23176827  1.0
  C  C173  1  0.78887411  0.04146954  0.33394727  1.0
  C  C174  1  0.02653583  0.11312221  0.41811640  1.0
  C  C175  1  0.98354868  0.02652766  0.29805360  1.0
  C  C176  1  0.01985078  0.58713593  0.18109532  1.0
  C  C177  1  0.78887399  0.62458435  0.04146641  1.0
  C  C178  1  0.02653764  0.46876160  0.11311793  1.0
  C  C179  1  0.98354845  0.67542114  0.02652526  1.0
  C  C180  1  0.48015474  0.18109467  0.58714007  1.0
  C  C181  1  0.71112646  0.04146872  0.62458493  1.0
  C  C182  1  0.47346560  0.11311996  0.46876159  1.0
  C  C183  1  0.51645246  0.02652352  0.67542134  1.0
  C  C184  1  0.48014822  0.58713616  0.23176940  1.0
  C  C185  1  0.71112355  0.62458254  0.33394838  1.0
  C  C186  1  0.47346364  0.46876108  0.41811709  1.0
  C  C187  1  0.51645074  0.67541918  0.29805543  1.0
  C  C188  1  0.48014811  0.23176966  0.18109404  1.0
  C  C189  1  0.71112599  0.33394616  0.04146763  1.0
  C  C190  1  0.47346085  0.41811837  0.11311890  1.0
  C  C191  1  0.51645156  0.29805383  0.02652499  1.0
  C  C192  1  0.98015750  0.81890450  0.41286032  1.0
  C  C193  1  0.21112604  0.95853125  0.37541582  1.0
  C  C194  1  0.97346504  0.88688021  0.53123754  1.0
  C  C195  1  0.01645106  0.97347545  0.32457881  1.0
  C  C196  1  0.98014898  0.41286368  0.76823185  1.0
  C  C197  1  0.21112561  0.37541643  0.66605363  1.0
  C  C198  1  0.97346533  0.53123983  0.58188204  1.0
  C  C199  1  0.01645000  0.32458079  0.70194346  1.0
  C  C200  1  0.98014854  0.76822988  0.81890636  1.0
  C  C201  1  0.21112706  0.66605282  0.95853142  1.0
  C  C202  1  0.97346144  0.58188217  0.88688023  1.0
  C  C203  1  0.01645252  0.70194688  0.97347388  1.0
  C  C204  1  0.48015302  0.23176738  0.58714009  1.0
  C  C205  1  0.71112560  0.33394766  0.62458547  1.0
  C  C206  1  0.47346473  0.41811783  0.46876255  1.0
  C  C207  1  0.51645107  0.29805414  0.67542101  1.0
  C  C208  1  0.48014752  0.18109512  0.23176968  1.0
  C  C209  1  0.71112414  0.04146913  0.33394816  1.0
  C  C210  1  0.47346512  0.11312204  0.41811781  1.0
  C  C211  1  0.51644861  0.02652582  0.29805476  1.0
  C  C212  1  0.48015053  0.58713640  0.18109545  1.0
  C  C213  1  0.71112513  0.62458473  0.04146646  1.0
  C  C214  1  0.47346135  0.46876238  0.11311892  1.0
  C  C215  1  0.51645173  0.67542120  0.02652556  1.0
  C  C216  1  0.98015755  0.76823400  0.41286030  1.0
  C  C217  1  0.21112689  0.66605230  0.37541529  1.0
  C  C218  1  0.97346647  0.58188187  0.53123827  1.0
  C  C219  1  0.01645245  0.70194566  0.32458042  1.0
  C  C220  1  0.98014801  0.81890435  0.76823158  1.0
  C  C221  1  0.21112612  0.95853243  0.66605088  1.0
  C  C222  1  0.97346441  0.88687845  0.58188217  1.0
  C  C223  1  0.01644933  0.97347462  0.70194540  1.0
  C  C224  1  0.98014946  0.41286308  0.81890580  1.0
  C  C225  1  0.21112513  0.37541367  0.95853301  1.0
  C  C226  1  0.97346149  0.53123869  0.88688063  1.0
  C  C227  1  0.01645290  0.32457845  0.97347544  1.0
  C  C228  1  0.51984382  0.81890471  0.41286105  1.0
  C  C229  1  0.28887323  0.95853088  0.37541576  1.0
  C  C230  1  0.52653464  0.88687963  0.53123911  1.0
  C  C231  1  0.48354778  0.97347402  0.32457978  1.0
  C  C232  1  0.51984979  0.41286364  0.76823087  1.0
  C  C233  1  0.28887502  0.37541621  0.66605401  1.0
  C  C234  1  0.52653548  0.53123973  0.58188191  1.0
  C  C235  1  0.48354839  0.32458109  0.70194612  1.0
  C  C236  1  0.51985046  0.76823210  0.81890453  1.0
  C  C237  1  0.28887592  0.66605260  0.95853179  1.0
  C  C238  1  0.52653884  0.58188075  0.88688052  1.0
  C  C239  1  0.48354868  0.70194698  0.97347400  1.0
  C  C240  1  0.01984831  0.18109367  0.58713953  1.0
  C  C241  1  0.78887420  0.04146966  0.62458445  1.0
  C  C242  1  0.02653464  0.11312044  0.46876103  1.0
  C  C243  1  0.98354751  0.02652610  0.67542018  1.0
  C  C244  1  0.01985293  0.58713628  0.23176885  1.0
  C  C245  1  0.78887296  0.62458390  0.33394706  1.0
  C  C246  1  0.02653547  0.46876071  0.41811823  1.0
  C  C247  1  0.98354968  0.67541965  0.29805554  1.0
  C  C248  1  0.01984947  0.23176824  0.18109434  1.0
  C  C249  1  0.78887429  0.33394615  0.04146758  1.0
  C  C250  1  0.02653769  0.41811906  0.11311792  1.0
  C  C251  1  0.98354940  0.29805314  0.02652596  1.0
  C  C252  1  0.41554407  0.77500223  0.44999635  1.0
  C  C253  1  0.41554912  0.77500202  0.77500191  1.0
  C  C254  1  0.41554778  0.44999718  0.77500094  1.0
  C  C255  1  0.91554770  0.22499827  0.55000371  1.0
  C  C256  1  0.91554934  0.22499732  0.22499900  1.0
  C  C257  1  0.91554957  0.55000432  0.22499785  1.0
  C  C258  1  0.58445450  0.22499599  0.55000562  1.0
  C  C259  1  0.58445135  0.55000394  0.22499891  1.0
  C  C260  1  0.58445057  0.22499757  0.22499879  1.0
  C  C261  1  0.08445756  0.77500223  0.44999444  1.0
  C  C262  1  0.08445179  0.44999590  0.77500158  1.0
  C  C263  1  0.08445146  0.77500264  0.77500170  1.0
  C  C264  1  0.25000092  0.66670968  0.44959144  1.0
  C  C265  1  0.24999924  0.88369571  0.66670994  1.0
  C  C266  1  0.25000044  0.44958994  0.88374339  1.0
  C  C267  1  0.75000043  0.33333333  0.55036584  1.0
  C  C268  1  0.74999933  0.11630314  0.33329076  1.0
  C  C269  1  0.74999980  0.55040724  0.11630169  1.0
  C  C270  1  0.74999954  0.11630433  0.55040747  1.0
  C  C271  1  0.74999889  0.55040683  0.33328837  1.0
  C  C272  1  0.75000002  0.33333333  0.11625697  1.0
  C  C273  1  0.24999959  0.88369780  0.44963553  1.0
  C  C274  1  0.24999968  0.44959303  0.66671105  1.0
  C  C275  1  0.25000134  0.66671066  0.88369738  1.0
  C  C276  1  0.41161954  0.55535559  0.55535790  1.0
  C  C277  1  0.41161864  0.88928658  0.55535802  1.0
  C  C278  1  0.41162290  0.55535682  0.88928669  1.0
  C  C279  1  0.91161860  0.44464433  0.44464259  1.0
  C  C280  1  0.91161894  0.11071413  0.44464162  1.0
  C  C281  1  0.91162137  0.44464380  0.11071167  1.0
  C  C282  1  0.58838160  0.11071301  0.44464267  1.0
  C  C283  1  0.58838015  0.44464406  0.44464195  1.0
  C  C284  1  0.58837734  0.44464399  0.11071231  1.0
  C  C285  1  0.08838130  0.88928668  0.55535738  1.0
  C  C286  1  0.08838164  0.55535621  0.55535768  1.0
  C  C287  1  0.08837720  0.55535728  0.88928605  1.0
  C  C288  1  0.49999765  0.61285123  0.38715067  1.0
  C  C289  1  0.50000024  0.99999813  0.61285124  1.0
  C  C290  1  0.49999968  0.38714892  0.99999967  1.0
  C  C291  1  0.99999740  0.38714910  0.61284884  1.0
  C  C292  1  0.00000017  0.00000090  0.38714808  1.0
  C  C293  1  0.00000017  0.61285121  0.99999966  1.0
  C  C294  1  0.49999975  0.38714957  0.61285058  1.0
  C  C295  1  0.49999726  0.99999841  0.38714997  1.0
  C  C296  1  0.50000000  0.61285109  0.00000018  1.0
  C  C297  1  0.00000284  0.61285150  0.38715058  1.0
  C  C298  1  0.99999724  0.00000191  0.61284955  1.0
  C  C299  1  0.00000040  0.38714877  0.00000042  1.0
  N  N300  1  0.45340174  0.74072790  0.43638028  1.0
  N  N301  1  0.31302621  0.66645437  0.42282466  1.0
  N  N302  1  0.45335049  0.59690283  0.51464152  1.0
  N  N303  1  0.47338543  0.66186466  0.38119282  1.0
  N  N304  1  0.45340507  0.82289103  0.74072830  1.0
  N  N305  1  0.31302557  0.91071967  0.66645408  1.0
  N  N306  1  0.45335062  0.88845338  0.59690515  1.0
  N  N307  1  0.47338579  0.95694158  0.66186446  1.0
  N  N308  1  0.45340366  0.43637980  0.82289224  1.0
  N  N309  1  0.31302567  0.42282348  0.91072194  1.0
  N  N310  1  0.45335387  0.51463992  0.88845713  1.0
  N  N311  1  0.47338367  0.38119186  0.95694180  1.0
  N  N312  1  0.95340414  0.25927238  0.56362015  1.0
  N  N313  1  0.81302507  0.33354573  0.57717638  1.0
  N  N314  1  0.95335006  0.40309708  0.48535892  1.0
  N  N315  1  0.97338470  0.33813552  0.61880631  1.0
  N  N316  1  0.95340528  0.17710952  0.25927086  1.0
  N  N317  1  0.81302460  0.08928033  0.33354569  1.0
  N  N318  1  0.95335049  0.11154674  0.40309486  1.0
  N  N319  1  0.97338602  0.04305875  0.33813509  1.0
  N  N320  1  0.95340501  0.56362064  0.17710861  1.0
  N  N321  1  0.81302562  0.57717447  0.08927825  1.0
  N  N322  1  0.95335281  0.48535968  0.11154245  1.0
  N  N323  1  0.97338368  0.61880884  0.04305776  1.0
  N  N324  1  0.54659635  0.17710728  0.56362208  1.0
  N  N325  1  0.68697428  0.08928057  0.57717553  1.0
  N  N326  1  0.54665061  0.11154355  0.48535907  1.0
  N  N327  1  0.52661790  0.04305715  0.61880776  1.0
  N  N328  1  0.54659478  0.56362017  0.25927169  1.0
  N  N329  1  0.68697417  0.57717402  0.33354468  1.0
  N  N330  1  0.54664813  0.48535778  0.40309526  1.0
  N  N331  1  0.52661553  0.61880602  0.33813518  1.0
  N  N332  1  0.54659467  0.25927092  0.17710791  1.0
  N  N333  1  0.68697426  0.33354442  0.08927909  1.0
  N  N334  1  0.54664645  0.40309711  0.11154354  1.0
  N  N335  1  0.52661630  0.33813474  0.04305751  1.0
  N  N336  1  0.04659991  0.82289257  0.43637846  1.0
  N  N337  1  0.18697436  0.91072057  0.42282440  1.0
  N  N338  1  0.04665044  0.88845578  0.51464104  1.0
  N  N339  1  0.02661579  0.95694188  0.38119152  1.0
  N  N340  1  0.04659536  0.43637932  0.74072884  1.0
  N  N341  1  0.18697446  0.42282543  0.66645568  1.0
  N  N342  1  0.04664957  0.51464192  0.59690485  1.0
  N  N343  1  0.02661537  0.38119410  0.66186411  1.0
  N  N344  1  0.04659491  0.74072820  0.82289262  1.0
  N  N345  1  0.18697605  0.66645393  0.91072127  1.0
  N  N346  1  0.04664678  0.59690359  0.88845530  1.0
  N  N347  1  0.02661683  0.66186613  0.95694177  1.0
  N  N348  1  0.54659850  0.25927221  0.56362084  1.0
  N  N349  1  0.68697291  0.33354522  0.57717604  1.0
  N  N350  1  0.54664919  0.40309734  0.48535876  1.0
  N  N351  1  0.52661537  0.33813399  0.61880830  1.0
  N  N352  1  0.54659350  0.17710899  0.25927155  1.0
  N  N353  1  0.68697356  0.08928124  0.33354619  1.0
  N  N354  1  0.54664907  0.11154664  0.40309469  1.0
  N  N355  1  0.52661445  0.04305944  0.33813411  1.0
  N  N356  1  0.54659547  0.56362111  0.17710803  1.0
  N  N357  1  0.68697457  0.57717443  0.08927918  1.0
  N  N358  1  0.54664637  0.48535951  0.11154314  1.0
  N  N359  1  0.52661545  0.61880853  0.04305804  1.0
  N  N360  1  0.04660056  0.74072901  0.43637843  1.0
  N  N361  1  0.18697517  0.66645408  0.42282388  1.0
  N  N362  1  0.04665129  0.59690309  0.51464136  1.0
  N  N363  1  0.02661665  0.66186477  0.38119226  1.0
  N  N364  1  0.04659441  0.82289102  0.74072941  1.0
  N  N365  1  0.18697396  0.91072005  0.66645416  1.0
  N  N366  1  0.04664863  0.88845443  0.59690415  1.0
  N  N367  1  0.02661534  0.95694121  0.66186560  1.0
  N  N368  1  0.04659578  0.43637911  0.82289251  1.0
  N  N369  1  0.18697407  0.42282275  0.91072203  1.0
  N  N370  1  0.04664631  0.51464156  0.88845569  1.0
  N  N371  1  0.02661767  0.38119149  0.95694294  1.0
  N  N372  1  0.45339999  0.82289204  0.43637989  1.0
  N  N373  1  0.31302485  0.91072018  0.42282432  1.0
  N  N374  1  0.45334908  0.88845610  0.51464077  1.0
  N  N375  1  0.47338346  0.95694229  0.38119251  1.0
  N  N376  1  0.45340435  0.43638074  0.74072858  1.0
  N  N377  1  0.31302495  0.42282541  0.66645560  1.0
  N  N378  1  0.45335155  0.51464150  0.59690459  1.0
  N  N379  1  0.47338415  0.38119299  0.66186594  1.0
  N  N380  1  0.45340557  0.74072868  0.82289278  1.0
  N  N381  1  0.31302654  0.66645508  0.91072033  1.0
  N  N382  1  0.45335378  0.59690333  0.88845546  1.0
  N  N383  1  0.47338338  0.66186660  0.95694190  1.0
  N  N384  1  0.95340478  0.17710866  0.56361970  1.0
  N  N385  1  0.81302588  0.08928129  0.57717545  1.0
  N  N386  1  0.95334980  0.11154482  0.48535838  1.0
  N  N387  1  0.97338333  0.04305783  0.61880747  1.0
  N  N388  1  0.95340544  0.56362064  0.25927186  1.0
  N  N389  1  0.81302466  0.57717416  0.33354502  1.0
  N  N390  1  0.95335067  0.48535856  0.40309627  1.0
  N  N391  1  0.97338376  0.61880686  0.33813531  1.0
  N  N392  1  0.95340533  0.25927203  0.17710680  1.0
  N  N393  1  0.81302586  0.33354403  0.08927901  1.0
  N  N394  1  0.95335234  0.40309712  0.11154242  1.0
  N  N395  1  0.97338508  0.33813389  0.04305807  1.0
  N  N396  1  0.25000028  0.66698564  0.50200728  1.0
  N  N397  1  0.25000040  0.83100512  0.66698741  1.0
  N  N398  1  0.25000047  0.50200462  0.83100822  1.0
  N  N399  1  0.74999996  0.33301316  0.49799426  1.0
  N  N400  1  0.74999928  0.16899426  0.33301371  1.0
  N  N401  1  0.75000032  0.49799450  0.16899120  1.0
  N  N402  1  0.75000068  0.16899482  0.49799419  1.0
  N  N403  1  0.74999950  0.49799303  0.33301299  1.0
  N  N404  1  0.75000049  0.33301298  0.16899199  1.0
  N  N405  1  0.25000011  0.83100625  0.50200650  1.0
  N  N406  1  0.25000130  0.50200846  0.66698686  1.0
  N  N407  1  0.25000031  0.66698694  0.83100658  1.0
  O  O408  1  0.31164448  0.66703483  0.52317264  1.0
  O  O409  1  0.31164633  0.80978933  0.66703709  1.0
  O  O410  1  0.31164416  0.52317097  0.80979351  1.0
  O  O411  1  0.81164756  0.33296347  0.47683053  1.0
  O  O412  1  0.81164571  0.19020982  0.33296438  1.0
  O  O413  1  0.81164565  0.47682766  0.19020753  1.0
  O  O414  1  0.68835480  0.19021062  0.47682716  1.0
  O  O415  1  0.68835474  0.47682619  0.33296415  1.0
  O  O416  1  0.68835400  0.33296489  0.19020628  1.0
  O  O417  1  0.18835476  0.80979168  0.52317192  1.0
  O  O418  1  0.18835482  0.52317442  0.66703536  1.0
  O  O419  1  0.18835500  0.66703594  0.80979279  1.0
  O  O420  1  0.68835632  0.33296476  0.47682806  1.0
  O  O421  1  0.68835447  0.19021036  0.33296489  1.0
  O  O422  1  0.68835441  0.47682736  0.19020677  1.0
  O  O423  1  0.18835435  0.66703438  0.52317144  1.0
  O  O424  1  0.18835508  0.80978904  0.66703631  1.0
  O  O425  1  0.18835347  0.52316988  0.80979359  1.0
  O  O426  1  0.31164544  0.80979187  0.52317142  1.0
  O  O427  1  0.31164495  0.52317478  0.66703527  1.0
  O  O428  1  0.31164568  0.66703567  0.80979101  1.0
  O  O429  1  0.81164604  0.19020945  0.47682792  1.0
  O  O430  1  0.81164598  0.47682633  0.33296449  1.0
  O  O431  1  0.81164524  0.33296392  0.19020664  1.0
