# generated using pymatgen
data_Zn7H52C76(NO3)6
_symmetry_space_group_name_H-M   'P 1'
_cell_length_a   12.92887640
_cell_length_b   16.89237288
_cell_length_c   17.45370880
_cell_angle_alpha   75.64610963
_cell_angle_beta   73.09514802
_cell_angle_gamma   68.90760645
_symmetry_Int_Tables_number   1
_chemical_formula_structural   Zn7H52C76(NO3)6
_chemical_formula_sum   'Zn7 H52 C76 N6 O18'
_cell_volume   3358.70114944
_cell_formula_units_Z   1
loop_
 _symmetry_equiv_pos_site_id
 _symmetry_equiv_pos_as_xyz
  1  'x, y, z'
loop_
 _atom_site_type_symbol
 _atom_site_label
 _atom_site_symmetry_multiplicity
 _atom_site_fract_x
 _atom_site_fract_y
 _atom_site_fract_z
 _atom_site_occupancy
  Zn  Zn0  1  0.46949341  0.31639206  0.05024498  1.0
  Zn  Zn1  1  0.53050590  0.68360771  0.94975543  1.0
  Zn  Zn2  1  0.35104172  0.44414020  0.17891407  1.0
  Zn  Zn3  1  0.64895921  0.55585956  0.82108600  1.0
  Zn  Zn4  1  0.61583377  0.37447477  0.13954683  1.0
  Zn  Zn5  1  0.38416635  0.62552499  0.86045340  1.0
  Zn  Zn6  1  0.50000020  0.49999981  0.00000015  1.0
  H  H7  1  0.64925592  0.36269410  0.37480134  1.0
  H  H8  1  0.35074473  0.63730631  0.62519862  1.0
  H  H9  1  0.64606445  0.36221189  0.51790289  1.0
  H  H10  1  0.35393566  0.63778787  0.48209735  1.0
  H  H11  1  0.28194551  0.41870831  0.57768397  1.0
  H  H12  1  0.71805541  0.58129145  0.42231609  1.0
  H  H13  1  0.28647013  0.42227971  0.43352142  1.0
  H  H14  1  0.71352811  0.57772069  0.56647792  1.0
  H  H15  1  0.15792904  0.69493996  0.23722525  1.0
  H  H16  1  0.84207269  0.30505981  0.76277464  1.0
  H  H17  1  0.00498782  0.83584373  0.24421318  1.0
  H  H18  1  0.99501175  0.16415539  0.75578675  1.0
  H  H19  1  0.03648335  0.87085544  0.98609379  1.0
  H  H20  1  0.96351757  0.12914433  0.01390570  1.0
  H  H21  1  0.19055320  0.73189562  0.97984507  1.0
  H  H22  1  0.80944772  0.26810414  0.02015442  1.0
  H  H23  1  0.96703339  0.30193131  0.24487971  1.0
  H  H24  1  0.03296646  0.69806910  0.75512043  1.0
  H  H25  1  0.77215812  0.30626560  0.24312064  1.0
  H  H26  1  0.22784118  0.69373417  0.75687977  1.0
  H  H27  1  0.79619505  0.43938571  0.00862557  1.0
  H  H28  1  0.20380399  0.56061469  0.99137474  1.0
  H  H29  1  0.99544950  0.43452570  0.99779613  1.0
  H  H30  1  0.00455008  0.56547535  0.00220391  1.0
  H  H31  1  0.30164761  0.49274550  0.80483755  1.0
  H  H32  1  0.69835304  0.50725491  0.19516242  1.0
  H  H33  1  0.30055770  0.48970281  0.66406523  1.0
  H  H34  1  0.69944134  0.51029759  0.33593451  1.0
  H  H35  1  0.62310514  0.28869718  0.64502329  1.0
  H  H36  1  0.37689498  0.71130258  0.35497694  1.0
  H  H37  1  0.62072280  0.29014228  0.78750602  1.0
  H  H38  1  0.37927705  0.70985813  0.21249355  1.0
  H  H39  1  0.81566127  0.12697037  0.20603930  1.0
  H  H40  1  0.18433965  0.87302940  0.79396019  1.0
  H  H41  1  0.97211348  0.98766861  0.20222732  1.0
  H  H42  1  0.02788744  0.01233116  0.79777332  1.0
  H  H43  1  0.83441836  0.92157355  0.03831682  1.0
  H  H44  1  0.16558175  0.07842622  0.96168342  1.0
  H  H45  1  0.67788885  0.06083931  0.04351421  1.0
  H  H46  1  0.32211073  0.93915981  0.95648630  1.0
  H  H47  1  0.11671454  0.47207646  0.26928484  1.0
  H  H48  1  0.88328531  0.52792395  0.73071530  1.0
  H  H49  1  0.01915645  0.41337795  0.29039966  1.0
  H  H50  1  0.98084367  0.58662182  0.70960058  1.0
  H  H51  1  0.00196695  0.50987465  0.21946127  1.0
  H  H52  1  0.99803316  0.49012512  0.78053897  1.0
  H  H53  1  0.32938634  0.26526426  0.97223988  1.0
  H  H54  1  0.67061351  0.73473614  0.02776084  1.0
  H  H55  1  0.19691803  0.33219082  0.94967099  1.0
  H  H56  1  0.80308208  0.66780895  0.05032868  1.0
  H  H57  1  0.20428456  0.23403693  0.01716595  1.0
  H  H58  1  0.79571529  0.76596348  0.98283362  1.0
  C  C59  1  0.46161101  0.39331101  0.89010734  1.0
  C  C60  1  0.53838965  0.60668940  0.10989263  1.0
  C  C61  1  0.46818957  0.39225793  0.39527756  1.0
  C  C62  1  0.53181055  0.60774184  0.60472267  1.0
  C  C63  1  0.56927056  0.37441471  0.41999860  1.0
  C  C64  1  0.43072929  0.62558569  0.58000154  1.0
  C  C65  1  0.56706268  0.37346719  0.50027512  1.0
  C  C66  1  0.43293636  0.62653322  0.49972519  1.0
  C  C67  1  0.46384881  0.38984684  0.55871360  1.0
  C  C68  1  0.53615131  0.61015292  0.44128606  1.0
  C  C69  1  0.36287948  0.40740191  0.53333183  1.0
  C  C70  1  0.63712064  0.59259785  0.46666784  1.0
  C  C71  1  0.36481757  0.40876183  0.45293241  1.0
  C  C72  1  0.63518039  0.59123922  0.54706684  1.0
  C  C73  1  0.18299839  0.70393697  0.10836762  1.0
  C  C74  1  0.81700253  0.29606279  0.89163187  1.0
  C  C75  1  0.13107691  0.73454791  0.18253350  1.0
  C  C76  1  0.86892347  0.26545121  0.81746626  1.0
  C  C77  1  0.04581395  0.81331707  0.18600781  1.0
  C  C78  1  0.95418508  0.18668141  0.81399296  1.0
  C  C79  1  0.00819251  0.86276494  0.11583389  1.0
  C  C80  1  0.99180571  0.13723353  0.88416649  1.0
  C  C81  1  0.06148091  0.83208525  0.04166309  1.0
  C  C82  1  0.93851867  0.16791386  0.95833685  1.0
  C  C83  1  0.14855399  0.75425328  0.03784741  1.0
  C  C84  1  0.85144666  0.24574713  0.96215199  1.0
  C  C85  1  0.99831500  0.36915648  0.12144574  1.0
  C  C86  1  0.00168458  0.63084457  0.87855430  1.0
  C  C87  1  0.93244331  0.33310285  0.19115967  1.0
  C  C88  1  0.06755493  0.66689755  0.80884082  1.0
  C  C89  1  0.82464195  0.33493413  0.19072496  1.0
  C  C90  1  0.17535790  0.66506628  0.80927518  1.0
  C  C91  1  0.83875033  0.40847868  0.05868826  1.0
  C  C92  1  0.16124925  0.59152237  0.94131236  1.0
  C  C93  1  0.94896520  0.40581088  0.05378282  1.0
  C  C94  1  0.05103465  0.59418953  0.94621732  1.0
  C  C95  1  0.46139945  0.39188972  0.80498056  1.0
  C  C96  1  0.53860067  0.60811004  0.19501968  1.0
  C  C97  1  0.37116810  0.44742069  0.76984002  1.0
  C  C98  1  0.62883202  0.55257907  0.23015965  1.0
  C  C99  1  0.37081631  0.44523687  0.69081724  1.0
  C  C100  1  0.62918354  0.55476353  0.30918290  1.0
  C  C101  1  0.46211234  0.38939400  0.64373423  1.0
  C  C102  1  0.53788750  0.61060640  0.35626591  1.0
  C  C103  1  0.55241537  0.33390588  0.67969533  1.0
  C  C104  1  0.44758474  0.66609388  0.32030490  1.0
  C  C105  1  0.55146913  0.33415200  0.75951661  1.0
  C  C106  1  0.44853071  0.66584841  0.24048353  1.0
  C  C107  1  0.81989852  0.08076439  0.17041954  1.0
  C  C108  1  0.18010186  0.91923473  0.82958137  1.0
  C  C109  1  0.90698997  0.00290123  0.16808903  1.0
  C  C110  1  0.09300987  0.99709725  0.83191215  1.0
  C  C111  1  0.91464140  0.94471474  0.11976714  1.0
  C  C112  1  0.08535737  0.05528437  0.88023412  1.0
  C  C113  1  0.83084120  0.96655493  0.07507799  1.0
  C  C114  1  0.16915757  0.03344419  0.92492326  1.0
  C  C115  1  0.74266542  0.04385504  0.07826292  1.0
  C  C116  1  0.25733389  0.95614472  0.92173807  1.0
  C  C117  1  0.73702199  0.10209424  0.12537998  1.0
  C  C118  1  0.26297732  0.89790552  0.87462044  1.0
  C  C119  1  0.47082934  0.39561513  0.30847431  1.0
  C  C120  1  0.52917051  0.60438528  0.69152584  1.0
  C  C121  1  0.64916338  0.18880856  0.12326072  1.0
  C  C122  1  0.35083674  0.81119120  0.87673894  1.0
  C  C123  1  0.27002365  0.61705125  0.10552296  1.0
  C  C124  1  0.72997728  0.38294851  0.89447653  1.0
  C  C125  1  0.06557259  0.45184737  0.24211475  1.0
  C  C126  1  0.93442752  0.54815239  0.75788549  1.0
  C  C127  1  0.14011606  0.40263057  0.17540265  1.0
  C  C128  1  0.85988433  0.59737048  0.82459722  1.0
  C  C129  1  0.11153046  0.36884028  0.12093149  1.0
  C  C130  1  0.88846939  0.63116012  0.87906922  1.0
  C  C131  1  0.21554271  0.33381575  0.06766005  1.0
  C  C132  1  0.78445713  0.66618466  0.93234009  1.0
  C  C133  1  0.23787569  0.28881707  0.99824309  1.0
  C  C134  1  0.76212335  0.71118334  0.00175723  1.0
  N  N135  1  0.25322438  0.38857480  0.15515111  1.0
  N  N136  1  0.74677573  0.61142496  0.84484970  1.0
  N  N137  1  0.29956803  0.34504168  0.09044340  1.0
  N  N138  1  0.70043182  0.65495873  0.90955674  1.0
  N  N139  1  0.77732803  0.37317836  0.12601807  1.0
  N  N140  1  0.22267101  0.62682204  0.87398225  1.0
  O  O141  1  0.48608675  0.40849670  0.09216813  1.0
  O  O142  1  0.51391337  0.59150306  0.90783211  1.0
  O  O143  1  0.41783749  0.46377208  0.91808282  1.0
  O  O144  1  0.58216236  0.53622833  0.08191674  1.0
  O  O145  1  0.50651704  0.32056862  0.93114727  1.0
  O  O146  1  0.49348281  0.67943178  0.06885230  1.0
  O  O147  1  0.56715319  0.38434485  0.25885626  1.0
  O  O148  1  0.43284666  0.61565556  0.74114331  1.0
  O  O149  1  0.37591690  0.41025696  0.29025208  1.0
  O  O150  1  0.62408295  0.58974345  0.70974749  1.0
  O  O151  1  0.57083526  0.20249930  0.08600905  1.0
  O  O152  1  0.42916566  0.79750047  0.91399102  1.0
  O  O153  1  0.66088605  0.24268246  0.15702342  1.0
  O  O154  1  0.33911487  0.75731731  0.84297607  1.0
  O  O155  1  0.28086501  0.56949196  0.17465632  1.0
  O  O156  1  0.71913591  0.43050781  0.82534374  1.0
  O  O157  1  0.32476843  0.59393182  0.03737632  1.0
  O  O158  1  0.67523249  0.40606795  0.96262318  1.0
