# generated using pymatgen
data_CaCd2H18(C8O5)3
_symmetry_space_group_name_H-M   'P 1'
_cell_length_a   13.11170149
_cell_length_b   14.18498799
_cell_length_c   14.78485257
_cell_angle_alpha   69.10067338
_cell_angle_beta   63.69990973
_cell_angle_gamma   62.48757312
_symmetry_Int_Tables_number   1
_chemical_formula_structural   CaCd2H18(C8O5)3
_chemical_formula_sum   'Ca2 Cd4 H36 C48 O30'
_cell_volume   2146.04066141
_cell_formula_units_Z   2
loop_
 _symmetry_equiv_pos_site_id
 _symmetry_equiv_pos_as_xyz
  1  'x, y, z'
loop_
 _atom_site_type_symbol
 _atom_site_label
 _atom_site_symmetry_multiplicity
 _atom_site_fract_x
 _atom_site_fract_y
 _atom_site_fract_z
 _atom_site_occupancy
  Ca  Ca0  1  0.71246751  0.24992159  0.74999538  1.0
  Ca  Ca1  1  0.28753303  0.75007830  0.25000395  1.0
  Cd  Cd2  1  0.97412945  0.03785211  0.61630612  1.0
  Cd  Cd3  1  0.62831832  0.46220303  0.88367922  1.0
  Cd  Cd4  1  0.02587091  0.96214698  0.38369301  1.0
  Cd  Cd5  1  0.37168171  0.53779686  0.11631976  1.0
  H  H6  1  0.67817524  0.41287648  0.50846091  1.0
  H  H7  1  0.59898873  0.08720716  0.99145522  1.0
  H  H8  1  0.32182547  0.58712261  0.49153957  1.0
  H  H9  1  0.40101163  0.91279194  0.00854729  1.0
  H  H10  1  0.54261766  0.53445024  0.40322007  1.0
  H  H11  1  0.47967523  0.96570744  0.09676733  1.0
  H  H12  1  0.45738341  0.46555047  0.59678079  1.0
  H  H13  1  0.52032428  0.03429246  0.90323470  1.0
  H  H14  1  0.68801534  0.28720681  0.22950159  1.0
  H  H15  1  0.20479094  0.21288381  0.27067376  1.0
  H  H16  1  0.31198438  0.71279470  0.77049844  1.0
  H  H17  1  0.79520657  0.78711851  0.72932376  1.0
  H  H18  1  0.82420615  0.16655073  0.33183133  1.0
  H  H19  1  0.32272925  0.33348564  0.16828240  1.0
  H  H20  1  0.17579476  0.83345159  0.66816620  1.0
  H  H21  1  0.67727012  0.66651587  0.83171629  1.0
  H  H22  1  0.84636335  0.17060909  0.94156816  1.0
  H  H23  1  0.95882298  0.32922142  0.55844991  1.0
  H  H24  1  0.15363856  0.82939080  0.05842981  1.0
  H  H25  1  0.04117653  0.67077847  0.44154874  1.0
  H  H26  1  0.13144575  0.86395541  0.88663073  1.0
  H  H27  1  0.88170461  0.63617562  0.61326303  1.0
  H  H28  1  0.86855582  0.13604529  0.11336710  1.0
  H  H29  1  0.11829390  0.36382509  0.38673614  1.0
  H  H30  1  0.13586357  0.16110978  0.49163154  1.0
  H  H31  1  0.78852038  0.33901696  0.00846847  1.0
  H  H32  1  0.86413678  0.83888850  0.50836977  1.0
  H  H33  1  0.21147810  0.66098213  0.99153167  1.0
  H  H34  1  0.15795373  0.07766498  0.43021633  1.0
  H  H35  1  0.66575386  0.42238700  0.06988015  1.0
  H  H36  1  0.84204747  0.92233329  0.56978329  1.0
  H  H37  1  0.33424617  0.57761289  0.93011883  1.0
  H  H38  1  0.50411466  0.18608303  0.76544774  1.0
  H  H39  1  0.45597120  0.31354205  0.73464660  1.0
  H  H40  1  0.49588655  0.81391526  0.23455864  1.0
  H  H41  1  0.54402594  0.68645787  0.26535947  1.0
  C  C42  1  0.75908683  0.28160559  0.42747750  1.0
  C  C43  1  0.46794459  0.21845371  0.07251189  1.0
  C  C44  1  0.24091439  0.71839430  0.57252115  1.0
  C  C45  1  0.53205494  0.78154700  0.92748796  1.0
  C  C46  1  0.68118570  0.38643255  0.44621919  1.0
  C  C47  1  0.51339359  0.11368250  0.05370170  1.0
  C  C48  1  0.31881466  0.61356735  0.55378115  1.0
  C  C49  1  0.48660712  0.88631740  0.94629999  1.0
  C  C50  1  0.60637187  0.45427200  0.38723293  1.0
  C  C51  1  0.44742309  0.04588650  0.11271481  1.0
  C  C52  1  0.39362698  0.54572871  0.61276759  1.0
  C  C53  1  0.55257559  0.95411421  0.88728672  1.0
  C  C54  1  0.60788635  0.41888558  0.30918247  1.0
  C  C55  1  0.33568782  0.08128896  0.19082323  1.0
  C  C56  1  0.39211078  0.58111351  0.69081901  1.0
  C  C57  1  0.66431019  0.91871256  0.80917680  1.0
  C  C58  1  0.68805282  0.31522764  0.28918720  1.0
  C  C59  1  0.29238560  0.18489891  0.21089917  1.0
  C  C60  1  0.31194671  0.68477307  0.71081265  1.0
  C  C61  1  0.70761156  0.81510341  0.78910038  1.0
  C  C62  1  0.76336175  0.24710777  0.34758112  1.0
  C  C63  1  0.35800794  0.25297373  0.15248014  1.0
  C  C64  1  0.23663984  0.75289375  0.65241791  1.0
  C  C65  1  0.64198990  0.74702778  0.84752090  1.0
  C  C66  1  0.83322584  0.20539815  0.49477399  1.0
  C  C67  1  0.53333739  0.29451116  0.00519405  1.0
  C  C68  1  0.16677454  0.79460256  0.50522755  1.0
  C  C69  1  0.46666128  0.70548874  0.99480628  1.0
  C  C70  1  0.51970086  0.48953979  0.25188647  1.0
  C  C71  1  0.26091451  0.01060985  0.24814538  1.0
  C  C72  1  0.48029864  0.51045849  0.74811652  1.0
  C  C73  1  0.73908368  0.98939248  0.75185484  1.0
  C  C74  1  0.97594384  0.03929056  0.80317060  1.0
  C  C75  1  0.81846849  0.46066412  0.69672235  1.0
  C  C76  1  0.02405858  0.96070933  0.19682771  1.0
  C  C77  1  0.18153186  0.53933497  0.30327679  1.0
  C  C78  1  0.98819377  0.01919196  0.90483101  1.0
  C  C79  1  0.91223535  0.48077811  0.59508836  1.0
  C  C80  1  0.01180848  0.98080874  0.09516614  1.0
  C  C81  1  0.08776621  0.51922179  0.40491165  1.0
  C  C82  1  0.91365794  0.09666014  0.96799626  1.0
  C  C83  1  0.97848464  0.40323477  0.53199177  1.0
  C  C84  1  0.08634483  0.90334056  0.03200123  1.0
  C  C85  1  0.02151622  0.59676432  0.46800771  1.0
  C  C86  1  0.07444808  0.92256401  0.93743746  1.0
  C  C87  1  0.93424887  0.57752375  0.56249579  1.0
  C  C88  1  0.92555469  0.07743669  0.06256003  1.0
  C  C89  1  0.06575132  0.42247534  0.43750436  1.0
  O  O90  1  0.81686776  0.23104861  0.57591087  1.0
  O  O91  1  0.62367241  0.26876616  0.92408782  1.0
  O  O92  1  0.18313362  0.76894966  0.42408773  1.0
  O  O93  1  0.37632593  0.73123455  0.07591236  1.0
  O  O94  1  0.14425873  0.08718993  0.49928864  1.0
  O  O95  1  0.73066692  0.41293280  0.00083122  1.0
  O  O96  1  0.85574179  0.91280834  0.50071165  1.0
  O  O97  1  0.26933327  0.58706629  0.99916892  1.0
  O  O98  1  0.91215864  0.11412764  0.47066584  1.0
  O  O99  1  0.49714171  0.38576150  0.02927622  1.0
  O  O100  1  0.08784205  0.88587063  0.52933344  1.0
  O  O101  1  0.50285680  0.61423921  0.97072295  1.0
  O  O102  1  0.52344973  0.24971966  0.74965840  1.0
  O  O103  1  0.47655421  0.75028022  0.25033756  1.0
  O  O104  1  0.53739327  0.46090201  0.17103642  1.0
  O  O105  1  0.16936279  0.03907143  0.32914333  1.0
  O  O106  1  0.46260319  0.53909789  0.82896694  1.0
  O  O107  1  0.83063606  0.96092927  0.67085719  1.0
  O  O108  1  0.43213141  0.57095886  0.28646479  1.0
  O  O109  1  0.28916848  0.92931069  0.21343350  1.0
  O  O110  1  0.56786983  0.42904265  0.71353289  1.0
  O  O111  1  0.71083019  0.07068920  0.78656683  1.0
  O  O112  1  0.03955804  0.96255732  0.75207748  1.0
  O  O113  1  0.75417604  0.53745359  0.74776046  1.0
  O  O114  1  0.96044506  0.03744257  0.24792016  1.0
  O  O115  1  0.24582466  0.46254550  0.25224003  1.0
  O  O116  1  0.90465891  0.13020647  0.77018341  1.0
  O  O117  1  0.80514098  0.36972628  0.72977350  1.0
  O  O118  1  0.09534145  0.86979262  0.22981572  1.0
  O  O119  1  0.19485887  0.63027361  0.27022650  1.0
