# generated using pymatgen
data_H6PdC8(N2O)2
_symmetry_space_group_name_H-M   'P 1'
_cell_length_a   16.36997742
_cell_length_b   16.36997836
_cell_length_c   16.36997564
_cell_angle_alpha   89.99999650
_cell_angle_beta   90.00000026
_cell_angle_gamma   89.99997735
_symmetry_Int_Tables_number   1
_chemical_formula_structural   H6PdC8(N2O)2
_chemical_formula_sum   'H72 Pd12 C96 N48 O24'
_cell_volume   4386.76347517
_cell_formula_units_Z   12
loop_
 _symmetry_equiv_pos_site_id
 _symmetry_equiv_pos_as_xyz
  1  'x, y, z'
loop_
 _atom_site_type_symbol
 _atom_site_label
 _atom_site_symmetry_multiplicity
 _atom_site_fract_x
 _atom_site_fract_y
 _atom_site_fract_z
 _atom_site_occupancy
  H  H0  1  0.23857145  0.42615151  0.58405987  1.0
  H  H1  1  0.26142555  0.07384622  0.58406050  1.0
  H  H2  1  0.23857213  0.07384621  0.91593943  1.0
  H  H3  1  0.26142671  0.42615089  0.91593941  1.0
  H  H4  1  0.42615140  0.58406006  0.23857127  1.0
  H  H5  1  0.07384670  0.58406013  0.26142530  1.0
  H  H6  1  0.07384663  0.91593962  0.23857187  1.0
  H  H7  1  0.42615133  0.91593955  0.26142712  1.0
  H  H8  1  0.58406005  0.23857148  0.42615128  1.0
  H  H9  1  0.58406005  0.26142552  0.07384654  1.0
  H  H10  1  0.91593956  0.23857204  0.07384593  1.0
  H  H11  1  0.91593955  0.26142728  0.42615128  1.0
  H  H12  1  0.92615083  0.73857146  0.41593927  1.0
  H  H13  1  0.57384796  0.76142740  0.41593927  1.0
  H  H14  1  0.57384674  0.73857154  0.08406034  1.0
  H  H15  1  0.92615083  0.76142734  0.08406034  1.0
  H  H16  1  0.08406045  0.92615098  0.76142726  1.0
  H  H17  1  0.08406052  0.57384691  0.73857140  1.0
  H  H18  1  0.41593880  0.57384745  0.76142727  1.0
  H  H19  1  0.41593934  0.92615091  0.73857139  1.0
  H  H20  1  0.73857160  0.08406055  0.57384668  1.0
  H  H21  1  0.76142746  0.08406054  0.92615080  1.0
  H  H22  1  0.73857153  0.41593942  0.92615079  1.0
  H  H23  1  0.76142740  0.41593881  0.57384789  1.0
  H  H24  1  0.76142737  0.57384739  0.41593928  1.0
  H  H25  1  0.73857143  0.92615086  0.41593927  1.0
  H  H26  1  0.76142729  0.92615086  0.08406034  1.0
  H  H27  1  0.73857150  0.57384680  0.08406035  1.0
  H  H28  1  0.57384803  0.41593884  0.76142727  1.0
  H  H29  1  0.92615090  0.41593938  0.73857141  1.0
  H  H30  1  0.92615096  0.08406051  0.76142728  1.0
  H  H31  1  0.57384687  0.08406058  0.73857142  1.0
  H  H32  1  0.41593876  0.76142742  0.57384788  1.0
  H  H33  1  0.41593938  0.73857155  0.92615078  1.0
  H  H34  1  0.08406048  0.76142748  0.92615078  1.0
  H  H35  1  0.08406049  0.73857163  0.57384665  1.0
  H  H36  1  0.07384676  0.26142561  0.58406049  1.0
  H  H37  1  0.42615147  0.23857151  0.58406049  1.0
  H  H38  1  0.42615146  0.26142675  0.91593942  1.0
  H  H39  1  0.07384615  0.23857218  0.91593942  1.0
  H  H40  1  0.91593959  0.07384610  0.23857189  1.0
  H  H41  1  0.91593952  0.42615139  0.26142653  1.0
  H  H42  1  0.58406063  0.42615145  0.23857127  1.0
  H  H43  1  0.58406008  0.07384677  0.26142532  1.0
  H  H44  1  0.26142661  0.91593958  0.42615125  1.0
  H  H45  1  0.23857196  0.91593959  0.07384652  1.0
  H  H46  1  0.26142545  0.58406010  0.07384653  1.0
  H  H47  1  0.23857142  0.58406009  0.42615126  1.0
  H  H48  1  0.31434555  0.31434500  0.50577632  1.0
  H  H49  1  0.18564962  0.18564907  0.50577754  1.0
  H  H50  1  0.31434680  0.18565086  0.99422421  1.0
  H  H51  1  0.18565081  0.31434684  0.99422359  1.0
  H  H52  1  0.31434552  0.50577653  0.31434536  1.0
  H  H53  1  0.18564955  0.50577717  0.18564938  1.0
  H  H54  1  0.18565068  0.99422375  0.31434718  1.0
  H  H55  1  0.31434725  0.99422373  0.18565120  1.0
  H  H56  1  0.50577648  0.31434558  0.31434537  1.0
  H  H57  1  0.50577773  0.18564963  0.18564939  1.0
  H  H58  1  0.99422371  0.31434671  0.18565122  1.0
  H  H59  1  0.99422373  0.18565075  0.31434720  1.0
  H  H60  1  0.81434553  0.81434556  0.49422344  1.0
  H  H61  1  0.68565143  0.68565146  0.49422345  1.0
  H  H62  1  0.68565262  0.81434621  0.00577617  1.0
  H  H63  1  0.81434617  0.68565268  0.00577617  1.0
  H  H64  1  0.00577631  0.81434572  0.68565256  1.0
  H  H65  1  0.00577633  0.68565281  0.81434610  1.0
  H  H66  1  0.49422294  0.68565150  0.68565195  1.0
  H  H67  1  0.49422353  0.81434561  0.81434548  1.0
  H  H68  1  0.81434630  0.00577637  0.68565259  1.0
  H  H69  1  0.68565279  0.00577640  0.81434612  1.0
  H  H70  1  0.81434560  0.49422356  0.81434549  1.0
  H  H71  1  0.68565147  0.49422359  0.68565196  1.0
  Pd  Pd72  1  0.24999906  0.49999888  0.75000025  1.0
  Pd  Pd73  1  0.24999896  0.99999893  0.74999902  1.0
  Pd  Pd74  1  0.49999875  0.75000040  0.25000011  1.0
  Pd  Pd75  1  0.99999944  0.74999908  0.24999950  1.0
  Pd  Pd76  1  0.74999980  0.24999907  0.49999867  1.0
  Pd  Pd77  1  0.74999919  0.24999906  0.99999880  1.0
  Pd  Pd78  1  0.75000036  0.49999880  0.25000012  1.0
  Pd  Pd79  1  0.74999904  0.99999946  0.24999949  1.0
  Pd  Pd80  1  0.49999885  0.24999973  0.75000026  1.0
  Pd  Pd81  1  0.99999893  0.24999902  0.74999904  1.0
  Pd  Pd82  1  0.24999901  0.74999983  0.49999865  1.0
  Pd  Pd83  1  0.24999901  0.74999921  0.99999878  1.0
  C  C84  1  0.28956053  0.39207204  0.61021080  1.0
  C  C85  1  0.21043647  0.10792568  0.61021081  1.0
  C  C86  1  0.28956181  0.10792627  0.88978972  1.0
  C  C87  1  0.21043703  0.39207205  0.88978971  1.0
  C  C88  1  0.39207193  0.61021038  0.28956035  1.0
  C  C89  1  0.10792554  0.61021105  0.21043683  1.0
  C  C90  1  0.10792610  0.88978991  0.28956156  1.0
  C  C91  1  0.39207188  0.88978986  0.21043682  1.0
  C  C92  1  0.61021096  0.28956055  0.39207242  1.0
  C  C93  1  0.61021098  0.21043706  0.10792600  1.0
  C  C94  1  0.88978985  0.28956172  0.10792600  1.0
  C  C95  1  0.88978925  0.21043699  0.39207242  1.0
  C  C96  1  0.89207197  0.78956054  0.38978896  1.0
  C  C97  1  0.60792621  0.71043710  0.38978957  1.0
  C  C98  1  0.60792680  0.78956122  0.11021004  1.0
  C  C99  1  0.89207260  0.71043766  0.11021066  1.0
  C  C100  1  0.11021016  0.89207213  0.71043757  1.0
  C  C101  1  0.11021021  0.60792697  0.78956109  1.0
  C  C102  1  0.38978909  0.60792631  0.71043697  1.0
  C  C103  1  0.38978904  0.89207207  0.78956047  1.0
  C  C104  1  0.78956128  0.11021024  0.60792675  1.0
  C  C105  1  0.71043777  0.11021086  0.89207256  1.0
  C  C106  1  0.78956061  0.38978910  0.89207194  1.0
  C  C107  1  0.71043711  0.38978912  0.60792613  1.0
  C  C108  1  0.71043706  0.60792625  0.38978957  1.0
  C  C109  1  0.78956051  0.89207200  0.38978895  1.0
  C  C110  1  0.71043762  0.89207202  0.11021065  1.0
  C  C111  1  0.78956118  0.60792686  0.11021005  1.0
  C  C112  1  0.60792627  0.38978914  0.71043697  1.0
  C  C113  1  0.89207205  0.38978908  0.78956049  1.0
  C  C114  1  0.89207211  0.11021083  0.71043759  1.0
  C  C115  1  0.60792694  0.11021027  0.78956111  1.0
  C  C116  1  0.38978907  0.71043714  0.60792612  1.0
  C  C117  1  0.38978906  0.78956063  0.89207193  1.0
  C  C118  1  0.11021080  0.71043779  0.89207254  1.0
  C  C119  1  0.11021018  0.78956130  0.60792673  1.0
  C  C120  1  0.10792562  0.21043653  0.61021080  1.0
  C  C121  1  0.39207199  0.28956059  0.61021019  1.0
  C  C122  1  0.39207262  0.21043708  0.88978911  1.0
  C  C123  1  0.10792560  0.28956185  0.88978972  1.0
  C  C124  1  0.88978927  0.10792617  0.28956158  1.0
  C  C125  1  0.88978983  0.39207194  0.21043684  1.0
  C  C126  1  0.61021033  0.39207199  0.28956035  1.0
  C  C127  1  0.61021100  0.10792562  0.21043685  1.0
  C  C128  1  0.21043693  0.88978989  0.39207179  1.0
  C  C129  1  0.28956165  0.88978988  0.10792598  1.0
  C  C130  1  0.21043698  0.61021103  0.10792538  1.0
  C  C131  1  0.28956049  0.61021101  0.39207180  1.0
  C  C132  1  0.37450690  0.37450694  0.72728306  1.0
  C  C133  1  0.33055388  0.33055393  0.56807146  1.0
  C  C134  1  0.12548889  0.12548895  0.72728245  1.0
  C  C135  1  0.16944251  0.16944257  0.56807207  1.0
  C  C136  1  0.37450817  0.12549012  0.77271685  1.0
  C  C137  1  0.33055575  0.16944192  0.93192906  1.0
  C  C138  1  0.12549006  0.37450821  0.77271684  1.0
  C  C139  1  0.16944187  0.33055579  0.93192845  1.0
  C  C140  1  0.37450683  0.72728323  0.37450671  1.0
  C  C141  1  0.33055383  0.56807166  0.33055369  1.0
  C  C142  1  0.12548877  0.72728267  0.12548924  1.0
  C  C143  1  0.16944243  0.56807170  0.16944227  1.0
  C  C144  1  0.12548998  0.77271706  0.37450854  1.0
  C  C145  1  0.16944236  0.93192862  0.33055551  1.0
  C  C146  1  0.37450865  0.77271702  0.12548985  1.0
  C  C147  1  0.33055559  0.93192860  0.16944226  1.0
  C  C148  1  0.72728319  0.37450688  0.37450672  1.0
  C  C149  1  0.56807162  0.33055389  0.33055370  1.0
  C  C150  1  0.72728263  0.12548885  0.12548865  1.0
  C  C151  1  0.56807165  0.16944251  0.16944289  1.0
  C  C152  1  0.77271697  0.37450871  0.12549047  1.0
  C  C153  1  0.93192918  0.33055566  0.16944228  1.0
  C  C154  1  0.77271702  0.12549005  0.37450856  1.0
  C  C155  1  0.93192860  0.16944243  0.33055554  1.0
  C  C156  1  0.87450688  0.87450691  0.27271670  1.0
  C  C157  1  0.83055386  0.83055389  0.43192830  1.0
  C  C158  1  0.62548948  0.62548952  0.27271732  1.0
  C  C159  1  0.66944249  0.66944253  0.43192891  1.0
  C  C160  1  0.62549065  0.87450818  0.22728291  1.0
  C  C161  1  0.66944307  0.83055515  0.06807131  1.0
  C  C162  1  0.87450815  0.62549070  0.22728292  1.0
  C  C163  1  0.83055511  0.66944312  0.06807132  1.0
  C  C164  1  0.22728240  0.87450825  0.62549059  1.0
  C  C165  1  0.06807083  0.83055464  0.66944362  1.0
  C  C166  1  0.22728306  0.62549080  0.87450807  1.0
  C  C167  1  0.06807086  0.66944325  0.83055504  1.0
  C  C168  1  0.27271746  0.62548958  0.62548937  1.0
  C  C169  1  0.43192842  0.66944257  0.66944240  1.0
  C  C170  1  0.27271680  0.87450701  0.87450684  1.0
  C  C171  1  0.43192839  0.83055396  0.83055381  1.0
  C  C172  1  0.87450823  0.22728246  0.62549061  1.0
  C  C173  1  0.83055462  0.06807089  0.66944364  1.0
  C  C174  1  0.62549078  0.22728250  0.87450808  1.0
  C  C175  1  0.66944322  0.06807092  0.83055506  1.0
  C  C176  1  0.87450700  0.27271684  0.87450686  1.0
  C  C177  1  0.83055394  0.43192843  0.83055383  1.0
  C  C178  1  0.62548955  0.27271690  0.62548938  1.0
  C  C179  1  0.66944254  0.43192846  0.66944241  1.0
  N  N180  1  0.30997351  0.41252961  0.68656400  1.0
  N  N181  1  0.19002289  0.08746811  0.68656523  1.0
  N  N182  1  0.30997418  0.08746870  0.81343530  1.0
  N  N183  1  0.19002404  0.41252963  0.81343529  1.0
  N  N184  1  0.41252949  0.68656417  0.30997394  1.0
  N  N185  1  0.08746795  0.68656485  0.19002324  1.0
  N  N186  1  0.08746854  0.81343490  0.30997454  1.0
  N  N187  1  0.41252946  0.81343545  0.19002446  1.0
  N  N188  1  0.68656415  0.30997351  0.41252938  1.0
  N  N189  1  0.68656539  0.19002345  0.08746782  1.0
  N  N190  1  0.81343543  0.30997411  0.08746842  1.0
  N  N191  1  0.81343545  0.19002403  0.41252939  1.0
  N  N192  1  0.91252954  0.80997352  0.31343515  1.0
  N  N193  1  0.58746803  0.69002413  0.31343515  1.0
  N  N194  1  0.58746862  0.80997481  0.18656446  1.0
  N  N195  1  0.91252957  0.69002407  0.18656447  1.0
  N  N196  1  0.18656395  0.91252968  0.69002459  1.0
  N  N197  1  0.18656463  0.58746877  0.80997468  1.0
  N  N198  1  0.31343530  0.58746814  0.69002398  1.0
  N  N199  1  0.31343523  0.91252965  0.80997345  1.0
  N  N200  1  0.80997485  0.18656464  0.58746856  1.0
  N  N201  1  0.69002417  0.18656405  0.91252952  1.0
  N  N202  1  0.80997361  0.31343530  0.91252952  1.0
  N  N203  1  0.69002414  0.31343472  0.58746795  1.0
  N  N204  1  0.69002409  0.58746808  0.31343515  1.0
  N  N205  1  0.80997349  0.91252957  0.31343514  1.0
  N  N206  1  0.69002402  0.91252960  0.18656446  1.0
  N  N207  1  0.80997477  0.58746867  0.18656447  1.0
  N  N208  1  0.58746811  0.31343474  0.69002399  1.0
  N  N209  1  0.91252903  0.31343528  0.80997347  1.0
  N  N210  1  0.91252967  0.18656401  0.69002461  1.0
  N  N211  1  0.58746874  0.18656468  0.80997470  1.0
  N  N212  1  0.31343467  0.69002417  0.58746793  1.0
  N  N213  1  0.31343525  0.80997362  0.91252950  1.0
  N  N214  1  0.18656400  0.69002419  0.91252950  1.0
  N  N215  1  0.18656458  0.80997488  0.58746854  1.0
  N  N216  1  0.08746805  0.19002355  0.68656523  1.0
  N  N217  1  0.41252956  0.30997356  0.68656400  1.0
  N  N218  1  0.41252959  0.19002410  0.81343530  1.0
  N  N219  1  0.08746864  0.30997423  0.81343529  1.0
  N  N220  1  0.81343486  0.08746861  0.30997457  1.0
  N  N221  1  0.81343541  0.41252952  0.19002447  1.0
  N  N222  1  0.68656413  0.41252954  0.30997394  1.0
  N  N223  1  0.68656542  0.08746803  0.19002326  1.0
  N  N224  1  0.19002396  0.81343548  0.41252937  1.0
  N  N225  1  0.30997404  0.81343486  0.08746841  1.0
  N  N226  1  0.19002338  0.68656544  0.08746780  1.0
  N  N227  1  0.30997345  0.68656419  0.41252937  1.0
  O  O228  1  0.39663398  0.39663403  0.79620252  1.0
  O  O229  1  0.10336058  0.10336064  0.79620131  1.0
  O  O230  1  0.39663771  0.10336180  0.70379800  1.0
  O  O231  1  0.10336174  0.39663775  0.70379799  1.0
  O  O232  1  0.39663390  0.79620268  0.39663380  1.0
  O  O233  1  0.10336044  0.79620152  0.10336031  1.0
  O  O234  1  0.10336168  0.70379822  0.39663747  1.0
  O  O235  1  0.39663759  0.70379817  0.10336214  1.0
  O  O236  1  0.79620265  0.39663396  0.39663443  1.0
  O  O237  1  0.79620148  0.10336052  0.10336033  1.0
  O  O238  1  0.70379812  0.39663765  0.10336215  1.0
  O  O239  1  0.70379818  0.10336175  0.39663749  1.0
  O  O240  1  0.89663457  0.89663461  0.20379723  1.0
  O  O241  1  0.60336056  0.60336060  0.20379846  1.0
  O  O242  1  0.60336233  0.89663710  0.29620115  1.0
  O  O243  1  0.89663708  0.60336238  0.29620116  1.0
  O  O244  1  0.29620125  0.89663716  0.60336227  1.0
  O  O245  1  0.29620131  0.60336187  0.89663761  1.0
  O  O246  1  0.20379861  0.60336067  0.60336045  1.0
  O  O247  1  0.20379733  0.89663411  0.89663455  1.0
  O  O248  1  0.89663714  0.29620130  0.60336229  1.0
  O  O249  1  0.60336184  0.29620135  0.89663762  1.0
  O  O250  1  0.89663410  0.20379738  0.89663457  1.0
  O  O251  1  0.60336064  0.20379867  0.60336046  1.0
