# generated using pymatgen
data_AlH18(C9O2)3
_symmetry_space_group_name_H-M   'P 1'
_cell_length_a   4.02032882
_cell_length_b   28.91745472
_cell_length_c   28.91649445
_cell_angle_alpha   59.99825246
_cell_angle_beta   89.99860562
_cell_angle_gamma   89.99997727
_symmetry_Int_Tables_number   1
_chemical_formula_structural   AlH18(C9O2)3
_chemical_formula_sum   'Al2 H36 C54 O12'
_cell_volume   2911.32215459
_cell_formula_units_Z   2
loop_
 _symmetry_equiv_pos_site_id
 _symmetry_equiv_pos_as_xyz
  1  'x, y, z'
loop_
 _atom_site_type_symbol
 _atom_site_label
 _atom_site_symmetry_multiplicity
 _atom_site_fract_x
 _atom_site_fract_y
 _atom_site_fract_z
 _atom_site_occupancy
  Al  Al0  1  0.01553867  0.50000161  0.99999390  1.0
  Al  Al1  1  0.01550338  0.16666269  0.66667766  1.0
  H  H2  1  0.84782337  0.30413834  0.52216242  1.0
  H  H3  1  0.87751864  0.35364428  0.42229045  1.0
  H  H4  1  0.25500914  0.18270189  0.51809459  1.0
  H  H5  1  0.25511314  0.48396280  0.14857270  1.0
  H  H6  1  0.84778900  0.36251169  0.14450780  1.0
  H  H7  1  0.87749186  0.31301056  0.24438123  1.0
  H  H8  1  0.84783130  0.17370161  0.80415047  1.0
  H  H9  1  0.87754332  0.22406994  0.85364917  1.0
  H  H10  1  0.25498726  0.29920282  0.68271048  1.0
  H  H11  1  0.25512009  0.36746148  0.98396519  1.0
  H  H12  1  0.84786564  0.49297189  0.86251017  1.0
  H  H13  1  0.87753920  0.44260426  0.81300932  1.0
  H  H14  1  0.84777065  0.02216080  0.67370213  1.0
  H  H15  1  0.87750920  0.92229161  0.72406341  1.0
  H  H16  1  0.25495002  0.01807171  0.79922071  1.0
  H  H17  1  0.25510012  0.64857766  0.86745577  1.0
  H  H18  1  0.84781188  0.64450733  0.99297409  1.0
  H  H19  1  0.87750031  0.74437518  0.94260611  1.0
  H  H20  1  0.45758575  0.21083488  0.39019353  1.0
  H  H21  1  0.10290930  0.25115671  0.37821581  1.0
  H  H22  1  0.11863437  0.18632134  0.43623859  1.0
  H  H23  1  0.45773721  0.45583203  0.27647205  1.0
  H  H24  1  0.10300154  0.41552006  0.28845016  1.0
  H  H25  1  0.11880125  0.48035502  0.23042612  1.0
  H  H26  1  0.45759242  0.39897418  0.71082646  1.0
  H  H27  1  0.10290402  0.37063450  0.75115200  1.0
  H  H28  1  0.11862976  0.37744247  0.68631780  1.0
  H  H29  1  0.45773291  0.26769188  0.95584630  1.0
  H  H30  1  0.10300919  0.29602610  0.91553034  1.0
  H  H31  1  0.11878834  0.28921857  0.98036367  1.0
  H  H32  1  0.45756817  0.89017165  0.89898428  1.0
  H  H33  1  0.10287329  0.87819699  0.87063885  1.0
  H  H34  1  0.11861017  0.93621267  0.87746056  1.0
  H  H35  1  0.45771649  0.77647378  0.76768792  1.0
  H  H36  1  0.10299179  0.78844935  0.79602536  1.0
  H  H37  1  0.11877721  0.73042925  0.78921318  1.0
  C  C38  1  0.52100791  0.58176680  0.96330835  1.0
  C  C39  1  0.52099026  0.45491917  0.08176509  1.0
  C  C40  1  0.52101372  0.46331256  0.95491524  1.0
  C  C41  1  0.52097160  0.21173658  0.58490620  1.0
  C  C42  1  0.52096306  0.20335680  0.71175166  1.0
  C  C43  1  0.52094648  0.08488746  0.70337492  1.0
  C  C44  1  0.54656915  0.24079248  0.52569876  1.0
  C  C45  1  0.72441758  0.28883255  0.49900257  1.0
  C  C46  1  0.74146078  0.31610362  0.44362272  1.0
  C  C47  1  0.59163233  0.29485003  0.41416675  1.0
  C  C48  1  0.41955207  0.24532927  0.44105782  1.0
  C  C49  1  0.39501695  0.21983632  0.49648479  1.0
  C  C50  1  0.60945915  0.32245794  0.35768235  1.0
  C  C51  1  0.60948077  0.34420667  0.30898574  1.0
  C  C52  1  0.59166871  0.37181186  0.25250263  1.0
  C  C53  1  0.41963284  0.42133567  0.22561033  1.0
  C  C54  1  0.39508740  0.44682560  0.17018387  1.0
  C  C55  1  0.54659249  0.42586531  0.14097122  1.0
  C  C56  1  0.72441149  0.37782300  0.16766702  1.0
  C  C57  1  0.74146252  0.35055319  0.22304918  1.0
  C  C58  1  0.54655295  0.23351072  0.74080133  1.0
  C  C59  1  0.72441970  0.21216704  0.78884063  1.0
  C  C60  1  0.74146566  0.24027842  0.81610973  1.0
  C  C61  1  0.59163146  0.29098534  0.79485669  1.0
  C  C62  1  0.41954037  0.31361514  0.74533305  1.0
  C  C63  1  0.39499984  0.28367797  0.71984258  1.0
  C  C64  1  0.60944599  0.31986306  0.82245843  1.0
  C  C65  1  0.60947641  0.34680593  0.84420846  1.0
  C  C66  1  0.59168439  0.37568241  0.87181267  1.0
  C  C67  1  0.41963696  0.35304995  0.92134028  1.0
  C  C68  1  0.39509942  0.38298845  0.94683085  1.0
  C  C69  1  0.54662611  0.43315909  0.92586466  1.0
  C  C70  1  0.72446399  0.45450492  0.87782375  1.0
  C  C71  1  0.74150479  0.42639230  0.85055297  1.0
  C  C72  1  0.54651894  0.02568783  0.73351854  1.0
  C  C73  1  0.72435852  0.99899936  0.71217087  1.0
  C  C74  1  0.74143682  0.94362114  0.74027591  1.0
  C  C75  1  0.59160638  0.91415827  0.79098952  1.0
  C  C76  1  0.41950653  0.94104576  0.81362285  1.0
  C  C77  1  0.39495885  0.99647391  0.78368891  1.0
  C  C78  1  0.60945072  0.85767497  0.81986407  1.0
  C  C79  1  0.60946085  0.80898027  0.84680786  1.0
  C  C80  1  0.59166880  0.75250131  0.87568409  1.0
  C  C81  1  0.41961770  0.72561332  0.85304833  1.0
  C  C82  1  0.39508730  0.67018728  0.88298359  1.0
  C  C83  1  0.54659545  0.64097463  0.93315663  1.0
  C  C84  1  0.72443475  0.66766791  0.95450533  1.0
  C  C85  1  0.74147057  0.72304743  0.92639423  1.0
  C  C86  1  0.26541815  0.22195700  0.41002612  1.0
  C  C87  1  0.26554571  0.44471474  0.25663952  1.0
  C  C88  1  0.26541068  0.36802043  0.72195277  1.0
  C  C89  1  0.26554062  0.29864322  0.94472484  1.0
  C  C90  1  0.26538756  0.91000599  0.86803107  1.0
  C  C91  1  0.26552805  0.75664145  0.79863921  1.0
  O  O92  1  0.27659561  0.45231540  0.98694957  1.0
  O  O93  1  0.27659106  0.56073193  0.95230715  1.0
  O  O94  1  0.27657922  0.48695334  0.06072842  1.0
  O  O95  1  0.74596868  0.49805078  0.94617242  1.0
  O  O96  1  0.74594179  0.44618002  0.05576678  1.0
  O  O97  1  0.74595666  0.55577035  0.99804557  1.0
  O  O98  1  0.27654510  0.10593072  0.71437044  1.0
  O  O99  1  0.27657188  0.17969939  0.60594756  1.0
  O  O100  1  0.27655548  0.21435336  0.67971443  1.0
  O  O101  1  0.74588879  0.11088587  0.66863789  1.0
  O  O102  1  0.74590911  0.16861965  0.72049507  1.0
  O  O103  1  0.74593352  0.22047811  0.61090111  1.0
