# generated using pymatgen
data_AlH10C12NClO5
_symmetry_space_group_name_H-M   'P 1'
_cell_length_a   6.63277320
_cell_length_b   10.98430712
_cell_length_c   16.95273873
_cell_angle_alpha   88.28995208
_cell_angle_beta   82.73596752
_cell_angle_gamma   72.54427701
_symmetry_Int_Tables_number   1
_chemical_formula_structural   AlH10C12NClO5
_chemical_formula_sum   'Al2 H20 C24 N2 Cl2 O10'
_cell_volume   1168.73835243
_cell_formula_units_Z   2
loop_
 _symmetry_equiv_pos_site_id
 _symmetry_equiv_pos_as_xyz
  1  'x, y, z'
loop_
 _atom_site_type_symbol
 _atom_site_label
 _atom_site_symmetry_multiplicity
 _atom_site_fract_x
 _atom_site_fract_y
 _atom_site_fract_z
 _atom_site_occupancy
  Al  Al0  1  0.99864109  0.50397696  0.50057832  1.0
  Al  Al1  1  0.50100041  0.49912967  0.50094849  1.0
  H  H2  1  0.16634962  0.64656910  0.55104684  1.0
  H  H3  1  0.84149779  0.35743248  0.44910580  1.0
  H  H4  1  0.65439216  0.44559916  0.26537948  1.0
  H  H5  1  0.72679086  0.43474645  0.11633702  1.0
  H  H6  1  0.06217149  0.62453744  0.10352641  1.0
  H  H7  1  0.95075918  0.37277964  0.89550433  1.0
  H  H8  1  0.28260883  0.55768279  0.88668800  1.0
  H  H9  1  0.34939539  0.55020738  0.73753122  1.0
  H  H10  1  0.54160869  0.12041133  0.37285298  1.0
  H  H11  1  0.74066937  0.10410581  0.43574341  1.0
  H  H12  1  0.82714078  0.88320954  0.41308406  1.0
  H  H13  1  0.58987092  0.90076492  0.37101069  1.0
  H  H14  1  0.80428870  0.90446820  0.56277768  1.0
  H  H15  1  0.58291551  0.88430165  0.62572040  1.0
  H  H16  1  0.64669776  0.12457914  0.58492832  1.0
  H  H17  1  0.40232321  0.10272269  0.62755166  1.0
  H  H18  1  0.17915385  0.09873441  0.43699162  1.0
  H  H19  1  0.10911544  0.11768023  0.54065377  1.0
  H  H20  1  0.24442703  0.89844257  0.56195153  1.0
  H  H21  1  0.25979738  0.87880387  0.45840158  1.0
  C  C22  1  0.63864701  0.73220381  0.49988146  1.0
  C  C23  1  0.70982287  0.47693896  0.64393397  1.0
  C  C24  1  0.35688035  0.27082656  0.50031554  1.0
  C  C25  1  0.29156939  0.52462433  0.35721778  1.0
  C  C26  1  0.31838514  0.53388208  0.26841350  1.0
  C  C27  1  0.52578825  0.48193583  0.22872875  1.0
  C  C28  1  0.56668672  0.47636031  0.14661002  1.0
  C  C29  1  0.39665078  0.52630427  0.10150835  1.0
  C  C30  1  0.19050956  0.58321813  0.13956364  1.0
  C  C31  1  0.15093142  0.58648394  0.22237346  1.0
  C  C32  1  0.82032816  0.41394062  0.86036005  1.0
  C  C33  1  0.61469524  0.46870800  0.89952770  1.0
  C  C34  1  0.44218681  0.51802434  0.85548233  1.0
  C  C35  1  0.47992434  0.51433898  0.77330890  1.0
  C  C36  1  0.68666484  0.46508794  0.73259018  1.0
  C  C37  1  0.85664461  0.41265774  0.77747394  1.0
  C  C38  1  0.59937913  0.07538807  0.42788118  1.0
  C  C39  1  0.65417243  0.92850824  0.42203285  1.0
  C  C40  1  0.55792983  0.87694936  0.49888960  1.0
  C  C41  1  0.62938347  0.93010575  0.57068103  1.0
  C  C42  1  0.52733896  0.07669086  0.57642417  1.0
  C  C43  1  0.42744213  0.12604593  0.49939859  1.0
  C  C44  1  0.24003362  0.07242481  0.49456265  1.0
  C  C45  1  0.31359674  0.92600238  0.50429959  1.0
  N  N46  1  0.41473195  0.52653205  0.01758798  1.0
  N  N47  1  0.59839159  0.46788972  0.98349109  1.0
  Cl  Cl48  1  0.89350413  0.66167354  0.26456595  1.0
  Cl  Cl49  1  0.11344194  0.34030025  0.73338387  1.0
  O  O50  1  0.83948724  0.67972451  0.49174966  1.0
  O  O51  1  0.55459242  0.46685288  0.61017817  1.0
  O  O52  1  0.50231461  0.32587532  0.49217361  1.0
  O  O53  1  0.12173736  0.50503723  0.39065817  1.0
  O  O54  1  0.15827816  0.32844465  0.50871752  1.0
  O  O55  1  0.44824922  0.53104635  0.39144907  1.0
  O  O56  1  0.50086789  0.67203813  0.51040809  1.0
  O  O57  1  0.87487009  0.50210268  0.61031965  1.0
  O  O58  1  0.21140207  0.55696650  0.53624990  1.0
  O  O59  1  0.78968407  0.44647368  0.46513120  1.0
