# generated using pymatgen
data_Al6H29C84Cl21(O7F3)4
_symmetry_space_group_name_H-M   'P 1'
_cell_length_a   13.98891268
_cell_length_b   14.09125138
_cell_length_c   27.20604999
_cell_angle_alpha   89.66305279
_cell_angle_beta   89.43669663
_cell_angle_gamma   60.91753793
_symmetry_Int_Tables_number   1
_chemical_formula_structural   Al6H29C84Cl21(O7F3)4
_chemical_formula_sum   'Al6 H29 C84 Cl21 O28 F12'
_cell_volume   4686.51355363
_cell_formula_units_Z   1
loop_
 _symmetry_equiv_pos_site_id
 _symmetry_equiv_pos_as_xyz
  1  'x, y, z'
loop_
 _atom_site_type_symbol
 _atom_site_label
 _atom_site_symmetry_multiplicity
 _atom_site_fract_x
 _atom_site_fract_y
 _atom_site_fract_z
 _atom_site_occupancy
  Al  Al0  1  0.39689709  0.43437057  0.50681297  1.0
  Al  Al1  1  0.19099642  0.39178524  0.50370804  1.0
  Al  Al2  1  0.41627536  0.19786572  0.50376613  1.0
  Al  Al3  1  0.90676569  0.93458951  0.01495000  1.0
  Al  Al4  1  0.14503945  0.91397990  0.01778916  1.0
  Al  Al5  1  0.95078728  0.13776227  0.01858561  1.0
  H  H6  1  0.28098680  0.26357528  0.73230722  1.0
  H  H7  1  0.45970879  0.25172000  0.75288244  1.0
  H  H8  1  0.27140664  0.44369612  0.73624710  1.0
  H  H9  1  0.20971277  0.27821590  0.80943586  1.0
  H  H10  1  0.50184178  0.26687985  0.83098684  1.0
  H  H11  1  0.30117856  0.50986657  0.80758876  1.0
  H  H12  1  0.03091212  0.17131774  0.78659570  1.0
  H  H13  1  0.75788264  0.03115631  0.80526615  1.0
  H  H14  1  0.16419749  0.78987832  0.77954268  1.0
  H  H15  1  0.06387172  0.30763377  0.38368284  1.0
  H  H16  1  0.47710564  0.40910578  0.36625736  1.0
  H  H17  1  0.09571850  0.48330114  0.36625700  1.0
  H  H18  1  0.04055684  0.28179640  0.29465730  1.0
  H  H19  1  0.52653956  0.38580790  0.27686181  1.0
  H  H20  1  0.07746770  0.52978493  0.27680450  1.0
  H  H21  1  0.39019443  0.08512186  0.27856454  1.0
  H  H22  1  0.68386055  0.03833444  0.29487349  1.0
  H  H23  1  0.28263925  0.67650299  0.29509422  1.0
  H  H24  1  0.41225435  0.10785493  0.36781635  1.0
  H  H25  1  0.62914959  0.06282528  0.38377265  1.0
  H  H26  1  0.30368953  0.62568441  0.38430363  1.0
  H  H27  1  0.09540396  0.32279960  0.73536548  1.0
  H  H28  1  0.58226679  0.08434795  0.73706188  1.0
  H  H29  1  0.32051194  0.57829624  0.73006313  1.0
  H  H30  1  0.03567461  0.28523208  0.81041520  1.0
  H  H31  1  0.61759672  0.08647634  0.81915191  1.0
  H  H32  1  0.29001788  0.68516877  0.80160498  1.0
  H  H33  1  0.45378782  0.55846042  0.48098198  1.0
  H  H34  1  0.78712188  0.87890529  0.98292689  1.0
  C  C35  1  0.52147908  0.24725610  0.57596501  1.0
  C  C36  1  0.20240358  0.52323089  0.57526611  1.0
  C  C37  1  0.25037965  0.21714140  0.57121411  1.0
  C  C38  1  0.07988404  0.21267696  0.78748392  1.0
  C  C39  1  0.67685516  0.09838406  0.79690134  1.0
  C  C40  1  0.21442262  0.70184948  0.78283114  1.0
  C  C41  1  0.09637019  0.24452207  0.73523007  1.0
  C  C42  1  0.65149440  0.09937680  0.74180824  1.0
  C  C43  1  0.23940869  0.65062650  0.73156659  1.0
  C  C44  1  0.17830159  0.12394329  0.86362863  1.0
  C  C45  1  0.70558693  0.19638918  0.86409348  1.0
  C  C46  1  0.14908300  0.68761418  0.86547259  1.0
  C  C47  1  0.22517705  0.17145985  0.66329369  1.0
  C  C48  1  0.58441498  0.22181969  0.66887653  1.0
  C  C49  1  0.15749040  0.58502100  0.66815643  1.0
  C  C50  1  0.23463128  0.18694408  0.62006355  1.0
  C  C51  1  0.56119528  0.22863351  0.62574819  1.0
  C  C52  1  0.16966044  0.56235884  0.62481519  1.0
  C  C53  1  0.10475033  0.79369649  0.94962354  1.0
  C  C54  1  0.12657492  0.08405789  0.95195434  1.0
  C  C55  1  0.80752401  0.13261194  0.94913226  1.0
  C  C56  1  0.23922560  0.20686956  0.38129810  1.0
  C  C57  1  0.55218083  0.23745345  0.38025264  1.0
  C  C58  1  0.19906794  0.55368078  0.38053005  1.0
  C  C59  1  0.13470870  0.25849126  0.36040368  1.0
  C  C60  1  0.52181433  0.32850137  0.35003349  1.0
  C  C61  1  0.13639037  0.52540076  0.35023015  1.0
  C  C62  1  0.12206762  0.24497566  0.31063201  1.0
  C  C63  1  0.54916607  0.31521638  0.30037667  1.0
  C  C64  1  0.12678092  0.55095314  0.30043190  1.0
  C  C65  1  0.21390747  0.18088991  0.28116219  1.0
  C  C66  1  0.60924820  0.21059366  0.28069122  1.0
  C  C67  1  0.17814376  0.60682859  0.28064841  1.0
  C  C68  1  0.51947895  0.25539392  0.43296898  1.0
  C  C69  1  0.21360370  0.52176967  0.43325135  1.0
  C  C70  1  0.25544786  0.22276456  0.43383072  1.0
  C  C71  1  0.31871557  0.13340760  0.30166543  1.0
  C  C72  1  0.63682172  0.11950087  0.31048932  1.0
  C  C73  1  0.24316678  0.63265705  0.31067336  1.0
  C  C74  1  0.33126301  0.14540559  0.35146318  1.0
  C  C75  1  0.60755353  0.13290096  0.36007695  1.0
  C  C76  1  0.25407176  0.60565988  0.36034371  1.0
  C  C77  1  0.17863592  0.22342029  0.19032400  1.0
  C  C78  1  0.60357976  0.18038174  0.18951177  1.0
  C  C79  1  0.22737200  0.60191390  0.19070630  1.0
  C  C80  1  0.16221488  0.19795309  0.14252610  1.0
  C  C81  1  0.64834029  0.16310087  0.14202333  1.0
  C  C82  1  0.20672923  0.64554625  0.14313741  1.0
  C  C83  1  0.19357721  0.02280281  0.17272894  1.0
  C  C84  1  0.79915927  0.18210012  0.17456358  1.0
  C  C85  1  0.03139419  0.78933646  0.17227685  1.0
  C  C86  1  0.20814707  0.05146257  0.22039875  1.0
  C  C87  1  0.75291396  0.19783553  0.22185857  1.0
  C  C88  1  0.05500191  0.74404334  0.21967937  1.0
  C  C89  1  0.20026972  0.15291923  0.23000807  1.0
  C  C90  1  0.65433341  0.19636110  0.22999099  1.0
  C  C91  1  0.15403717  0.64958911  0.22964186  1.0
  C  C92  1  0.16804554  0.09684830  0.13328571  1.0
  C  C93  1  0.74843989  0.16234604  0.13433779  1.0
  C  C94  1  0.10818572  0.74137729  0.13362258  1.0
  C  C95  1  0.08649444  0.79852849  0.08470878  1.0
  C  C96  1  0.13389800  0.07301131  0.08458977  1.0
  C  C97  1  0.80693612  0.12850190  0.08551318  1.0
  C  C98  1  0.29129456  0.18499691  0.74508882  1.0
  C  C99  1  0.51349039  0.28832831  0.75263983  1.0
  C  C100  1  0.19457079  0.50752245  0.75202911  1.0
  C  C101  1  0.23500308  0.04143613  0.72745939  1.0
  C  C102  1  0.70257341  0.25140946  0.72566053  1.0
  C  C103  1  0.03754813  0.69827723  0.73618579  1.0
  C  C104  1  0.23956152  0.02220725  0.78546388  1.0
  C  C105  1  0.74965958  0.22961963  0.77965981  1.0
  C  C106  1  0.03048404  0.71248001  0.79439261  1.0
  C  C107  1  0.16070528  0.10964550  0.90604696  1.0
  C  C108  1  0.74498671  0.17535153  0.90484225  1.0
  C  C109  1  0.13698997  0.72724951  0.90605520  1.0
  C  C110  1  0.21207557  0.15911662  0.71541983  1.0
  C  C111  1  0.61471823  0.21439898  0.72001000  1.0
  C  C112  1  0.15475409  0.61112785  0.71965900  1.0
  C  C113  1  0.26259203  0.19211385  0.80057822  1.0
  C  C114  1  0.54778736  0.29288218  0.80670379  1.0
  C  C115  1  0.21420958  0.53320722  0.80502365  1.0
  C  C116  1  0.19274224  0.13562594  0.81147695  1.0
  C  C117  1  0.67058708  0.20737858  0.81341383  1.0
  C  C118  1  0.15085180  0.65780031  0.81447841  1.0
  Cl  Cl119  1  0.37895482  0.15314696  0.83838397  1.0
  Cl  Cl120  1  0.50889150  0.42697673  0.82664398  1.0
  Cl  Cl121  1  0.19755207  0.45035318  0.85005701  1.0
  Cl  Cl122  1  0.13845534  0.29104946  0.09686049  1.0
  Cl  Cl123  1  0.57819175  0.14536786  0.09494712  1.0
  Cl  Cl124  1  0.30225620  0.57758127  0.09804684  1.0
  Cl  Cl125  1  0.23117146  0.96331994  0.26846930  1.0
  Cl  Cl126  1  0.81876663  0.21566931  0.27112854  1.0
  Cl  Cl127  1  0.96395923  0.80727321  0.26713359  1.0
  Cl  Cl128  1  0.19890669  0.89994993  0.16517170  1.0
  Cl  Cl129  1  0.92219906  0.17984890  0.16807175  1.0
  Cl  Cl130  1  0.91147487  0.90753904  0.16395060  1.0
  Cl  Cl131  1  0.37445859  0.93155983  0.80434012  1.0
  Cl  Cl132  1  0.76533874  0.33999874  0.80081965  1.0
  Cl  Cl133  1  0.95510287  0.65459435  0.82133644  1.0
  Cl  Cl134  1  0.15542572  0.96414620  0.80247112  1.0
  Cl  Cl135  1  0.88184679  0.11210498  0.78028735  1.0
  Cl  Cl136  1  0.96239393  0.85349388  0.80959296  1.0
  Cl  Cl137  1  0.98672914  0.26569124  0.69619931  1.0
  Cl  Cl138  1  0.76055842  0.99365497  0.70810263  1.0
  Cl  Cl139  1  0.24647978  0.74042534  0.68745341  1.0
  O  O140  1  0.29464377  0.50932203  0.56178731  1.0
  O  O141  1  0.17474058  0.30761915  0.55501240  1.0
  O  O142  1  0.51185460  0.16978569  0.55577973  1.0
  O  O143  1  0.82530406  0.03933657  0.96219116  1.0
  O  O144  1  0.17930451  0.80785582  0.97069691  1.0
  O  O145  1  0.03824702  0.15882220  0.97119813  1.0
  O  O146  1  0.49606204  0.33843965  0.55746442  1.0
  O  O147  1  0.13720223  0.50204641  0.55017062  1.0
  O  O148  1  0.34043557  0.15460794  0.54936985  1.0
  O  O149  1  0.28978801  0.52481776  0.45653010  1.0
  O  O150  1  0.17615916  0.29942208  0.45754953  1.0
  O  O151  1  0.52363665  0.17431701  0.45747749  1.0
  O  O152  1  0.48587573  0.34927700  0.45020918  1.0
  O  O153  1  0.14937733  0.48843081  0.45134890  1.0
  O  O154  1  0.35037199  0.16208047  0.45184486  1.0
  O  O155  1  0.33363542  0.34022763  0.50524775  1.0
  O  O156  1  0.00169419  0.99617807  0.01735017  1.0
  O  O157  1  0.00546380  0.83578355  0.96214506  1.0
  O  O158  1  0.18348533  0.98763712  0.96841319  1.0
  O  O159  1  0.84299637  0.19082670  0.97024686  1.0
  O  O160  1  0.81996375  0.04103064  0.06758548  1.0
  O  O161  1  0.16365226  0.81380404  0.06717348  1.0
  O  O162  1  0.04373922  0.14655113  0.06731173  1.0
  O  O163  1  0.99419614  0.83122772  0.06577312  1.0
  O  O164  1  0.19287112  0.97999854  0.06506631  1.0
  O  O165  1  0.84291384  0.18951973  0.06686145  1.0
  O  O166  1  0.45806047  0.51670180  0.50995529  1.0
  O  O167  1  0.81828622  0.87996823  0.01432067  1.0
  F  F168  1  0.17283276  0.32071043  0.19857330  1.0
  F  F169  1  0.50747089  0.18066684  0.19674937  1.0
  F  F170  1  0.32262158  0.50991580  0.19952270  1.0
  F  F171  1  0.39989182  0.10759449  0.73539736  1.0
  F  F172  1  0.45259890  0.39157346  0.73216546  1.0
  F  F173  1  0.11927306  0.46877302  0.75054035  1.0
  F  F174  1  0.15299543  0.02793848  0.70739493  1.0
  F  F175  1  0.78420298  0.20163778  0.69169390  1.0
  F  F176  1  0.01444429  0.79442989  0.71372919  1.0
  F  F177  1  0.32973444  0.96691770  0.70543163  1.0
  F  F178  1  0.65335425  0.36052879  0.71571148  1.0
  F  F179  1  0.96146830  0.67197092  0.71993929  1.0
