# generated using pymatgen
data_ZnH7C24Br2N(OF)4
_symmetry_space_group_name_H-M   'P 1'
_cell_length_a   21.53717181
_cell_length_b   21.67215807
_cell_length_c   22.12477544
_cell_angle_alpha   60.72945032
_cell_angle_beta   63.50565619
_cell_angle_gamma   89.99812879
_symmetry_Int_Tables_number   1
_chemical_formula_structural   ZnH7C24Br2N(OF)4
_chemical_formula_sum   'Zn4 H28 C96 Br8 N4 O16 F16'
_cell_volume   7741.34143932
_cell_formula_units_Z   4
loop_
 _symmetry_equiv_pos_site_id
 _symmetry_equiv_pos_as_xyz
  1  'x, y, z'
loop_
 _atom_site_type_symbol
 _atom_site_label
 _atom_site_symmetry_multiplicity
 _atom_site_fract_x
 _atom_site_fract_y
 _atom_site_fract_z
 _atom_site_occupancy
  Zn  Zn0  1  0.53835156  0.04188323  0.91613080  1.0
  Zn  Zn1  1  0.46171831  0.95817968  0.08375845  1.0
  Zn  Zn2  1  0.96167362  0.45804540  0.08387365  1.0
  Zn  Zn3  1  0.03829128  0.54180463  0.91621657  1.0
  H  H4  1  0.82301359  0.25146147  0.49680968  1.0
  H  H5  1  0.67693838  0.24853614  0.50319594  1.0
  H  H6  1  0.17704433  0.74846010  0.50298608  1.0
  H  H7  1  0.32296255  0.75153942  0.49699918  1.0
  H  H8  1  0.57999911  0.07401109  0.12981367  1.0
  H  H9  1  0.61569430  0.10666299  0.20483938  1.0
  H  H10  1  0.69711284  0.20252090  0.87149745  1.0
  H  H11  1  0.91993832  0.42618903  0.87004373  1.0
  H  H12  1  0.88425152  0.39352957  0.79500804  1.0
  H  H13  1  0.80282551  0.29765353  0.12835679  1.0
  H  H14  1  0.30152557  0.79568150  0.12994686  1.0
  H  H15  1  0.19741532  0.68776078  0.20490813  1.0
  H  H16  1  0.42021428  0.92612704  0.87164068  1.0
  H  H17  1  0.19896392  0.70376825  0.87003847  1.0
  H  H18  1  0.30331143  0.81157232  0.79502340  1.0
  H  H19  1  0.08030690  0.57336587  0.12835174  1.0
  H  H20  1  0.30104915  0.07422489  0.13007887  1.0
  H  H21  1  0.19643332  0.10690902  0.20494702  1.0
  H  H22  1  0.42055764  0.20226321  0.87176156  1.0
  H  H23  1  0.19866701  0.42551606  0.86982982  1.0
  H  H24  1  0.30322519  0.39279043  0.79495323  1.0
  H  H25  1  0.07917181  0.29751948  0.12813388  1.0
  H  H26  1  0.57934369  0.79577480  0.12986795  1.0
  H  H27  1  0.61460908  0.68778373  0.20499264  1.0
  H  H28  1  0.69677891  0.92521629  0.87154874  1.0
  H  H29  1  0.91913637  0.70259571  0.87034135  1.0
  H  H30  1  0.88324221  0.80988317  0.79524686  1.0
  H  H31  1  0.80164092  0.57296966  0.12866887  1.0
  C  C32  1  0.41430997  0.91408106  0.00086764  1.0
  C  C33  1  0.41436992  0.08512155  0.00101775  1.0
  C  C34  1  0.58496683  0.08510812  0.00074023  1.0
  C  C35  1  0.58469737  0.91382369  0.00077936  1.0
  C  C36  1  0.08548937  0.41473617  0.99887084  1.0
  C  C37  1  0.08590256  0.58564051  0.99914961  1.0
  C  C38  1  0.91475106  0.58548782  0.99935643  1.0
  C  C39  1  0.91498803  0.41497598  0.99916451  1.0
  C  C40  1  0.82958219  0.37195508  0.25623983  1.0
  C  C41  1  0.78848573  0.33006749  0.34009927  1.0
  C  C42  1  0.82203366  0.30677910  0.38643841  1.0
  C  C43  1  0.89822548  0.32937627  0.34087513  1.0
  C  C44  1  0.93524402  0.37131764  0.25696088  1.0
  C  C45  1  0.78620288  0.26301543  0.47389778  1.0
  C  C46  1  0.71374625  0.23698325  0.52611173  1.0
  C  C47  1  0.60173457  0.17058574  0.65913255  1.0
  C  C48  1  0.67792283  0.19320643  0.61357097  1.0
  C  C49  1  0.71147295  0.16991645  0.65990587  1.0
  C  C50  1  0.67037299  0.12799056  0.74376276  1.0
  C  C51  1  0.56471400  0.12860770  0.74304602  1.0
  C  C52  1  0.17044695  0.62826166  0.74344507  1.0
  C  C53  1  0.21156204  0.67014607  0.65962658  1.0
  C  C54  1  0.17797526  0.69325746  0.61335619  1.0
  C  C55  1  0.10181486  0.67054045  0.65886270  1.0
  C  C56  1  0.06483444  0.62861910  0.74274610  1.0
  C  C57  1  0.21377364  0.73697522  0.52599395  1.0
  C  C58  1  0.28623375  0.76302813  0.47399154  1.0
  C  C59  1  0.39819324  0.82948486  0.34111708  1.0
  C  C60  1  0.32203298  0.80675301  0.38662919  1.0
  C  C61  1  0.28843996  0.82986050  0.34036513  1.0
  C  C62  1  0.32955022  0.87175971  0.25654489  1.0
  C  C63  1  0.43516648  0.87143743  0.25723196  1.0
  C  C64  1  0.62395745  0.12063916  0.07340584  1.0
  C  C65  1  0.66948070  0.16619365  0.07410225  1.0
  C  C66  1  0.65960207  0.15317209  0.14824377  1.0
  C  C67  1  0.69033655  0.19340796  0.92725326  1.0
  C  C68  1  0.73711796  0.24037063  0.92502781  1.0
  C  C69  1  0.79577470  0.30224736  0.85168505  1.0
  C  C70  1  0.87596544  0.37956649  0.92644662  1.0
  C  C71  1  0.83042795  0.33402845  0.92574811  1.0
  C  C72  1  0.84031763  0.34703906  0.85160656  1.0
  C  C73  1  0.80958326  0.30677080  0.07260510  1.0
  C  C74  1  0.76278317  0.25984271  0.07482270  1.0
  C  C75  1  0.70415284  0.19795442  0.14817040  1.0
  C  C76  1  0.63422160  0.13420915  0.00059736  1.0
  C  C77  1  0.72693060  0.22704066  0.99950501  1.0
  C  C78  1  0.86570879  0.36594928  0.99926831  1.0
  C  C79  1  0.77295237  0.27319955  0.00034152  1.0
  C  C80  1  0.30910258  0.80558922  0.07351124  1.0
  C  C81  1  0.26302892  0.75926313  0.07418769  1.0
  C  C82  1  0.20520576  0.69799886  0.14828908  1.0
  C  C83  1  0.37616578  0.87928887  0.92737395  1.0
  C  C84  1  0.33148002  0.83450775  0.92513141  1.0
  C  C85  1  0.33987900  0.84611737  0.85175612  1.0
  C  C86  1  0.19146765  0.69381745  0.92645562  1.0
  C  C87  1  0.23766924  0.74005022  0.92574831  1.0
  C  C88  1  0.29549408  0.80134020  0.85164895  1.0
  C  C89  1  0.12440708  0.62014516  0.07259512  1.0
  C  C90  1  0.16918610  0.66485430  0.07480802  1.0
  C  C91  1  0.16077629  0.65328147  0.14817375  1.0
  C  C92  1  0.36527356  0.86501140  0.00073259  1.0
  C  C93  1  0.27371992  0.77316210  0.99957272  1.0
  C  C94  1  0.13519099  0.63448651  0.99925518  1.0
  C  C95  1  0.22699990  0.72614694  0.00035644  1.0
  C  C96  1  0.30872986  0.12070473  0.07362500  1.0
  C  C97  1  0.26247715  0.16619175  0.07422789  1.0
  C  C98  1  0.20435096  0.15326446  0.14829443  1.0
  C  C99  1  0.37623987  0.19320919  0.92748690  1.0
  C  C100  1  0.33138642  0.24006101  0.92517604  1.0
  C  C101  1  0.33989777  0.30174993  0.85177142  1.0
  C  C102  1  0.19096080  0.37901436  0.92628060  1.0
  C  C103  1  0.23720685  0.33352361  0.92566878  1.0
  C  C104  1  0.29533636  0.34645747  0.85160222  1.0
  C  C105  1  0.12344344  0.30650766  0.07242383  1.0
  C  C106  1  0.16827207  0.25962861  0.07472163  1.0
  C  C107  1  0.15974810  0.19793313  0.14812621  1.0
  C  C108  1  0.36519554  0.13417418  0.00086926  1.0
  C  C109  1  0.27328697  0.22682349  0.99958472  1.0
  C  C110  1  0.13453646  0.36557558  0.99903387  1.0
  C  C111  1  0.22637528  0.27287437  0.00031060  1.0
  C  C112  1  0.62323999  0.80535715  0.07348315  1.0
  C  C113  1  0.66851118  0.75884698  0.07423855  1.0
  C  C114  1  0.65849586  0.69775097  0.14840018  1.0
  C  C115  1  0.68978845  0.87851949  0.92733242  1.0
  C  C116  1  0.73636218  0.83355056  0.92516306  1.0
  C  C117  1  0.79500741  0.84483230  0.85184565  1.0
  C  C118  1  0.87499818  0.69274392  0.92674161  1.0
  C  C119  1  0.82932669  0.73884725  0.92600465  1.0
  C  C120  1  0.83933256  0.79991162  0.85183403  1.0
  C  C121  1  0.80846615  0.61953453  0.07288851  1.0
  C  C122  1  0.76151694  0.66413505  0.07506645  1.0
  C  C123  1  0.70287086  0.65286335  0.14836638  1.0
  C  C124  1  0.63372415  0.86462038  0.00063730  1.0
  C  C125  1  0.72593310  0.77236379  0.99968316  1.0
  C  C126  1  0.86484265  0.63378791  0.99956831  1.0
  C  C127  1  0.77179433  0.72520397  0.00056432  1.0
  Br  Br128  1  0.68728287  0.17701956  0.24953652  1.0
  Br  Br129  1  0.81271072  0.32311372  0.75032331  1.0
  Br  Br130  1  0.08515250  0.57261303  0.24949003  1.0
  Br  Br131  1  0.41547428  0.92686936  0.75045963  1.0
  Br  Br132  1  0.08370168  0.17714899  0.24940142  1.0
  Br  Br133  1  0.41594316  0.32250539  0.75051563  1.0
  Br  Br134  1  0.68583863  0.57252505  0.24977102  1.0
  Br  Br135  1  0.81217752  0.92529289  0.75041831  1.0
  N  N136  1  0.90155374  0.39234114  0.21520195  1.0
  N  N137  1  0.59840348  0.10757927  0.78480536  1.0
  N  N138  1  0.09854202  0.60777886  0.78441548  1.0
  N  N139  1  0.40145421  0.89227379  0.21556825  1.0
  O  O140  1  0.46444091  0.96734176  0.93245701  1.0
  O  O141  1  0.40185093  0.89859494  0.06943398  1.0
  O  O142  1  0.40181158  0.03205673  0.06958810  1.0
  O  O143  1  0.46467437  0.10036345  0.93259862  1.0
  O  O144  1  0.53471379  0.03204139  0.06933957  1.0
  O  O145  1  0.59733860  0.10027530  0.93235726  1.0
  O  O146  1  0.59708182  0.96696043  0.93239772  1.0
  O  O147  1  0.53457730  0.89852773  0.06938378  1.0
  O  O148  1  0.03528780  0.39959269  0.06729950  1.0
  O  O149  1  0.09802862  0.46777031  0.93030469  1.0
  O  O150  1  0.09832054  0.60113971  0.93058979  1.0
  O  O151  1  0.03563768  0.53252974  0.06757009  1.0
  O  O152  1  0.96526750  0.60123393  0.93072744  1.0
  O  O153  1  0.90269694  0.53264522  0.06771397  1.0
  O  O154  1  0.90267348  0.39969967  0.06756357  1.0
  O  O155  1  0.96520175  0.46808365  0.93057631  1.0
  F  F156  1  0.00712727  0.39162212  0.21608795  1.0
  F  F157  1  0.93648819  0.31040649  0.37848431  1.0
  F  F158  1  0.79600836  0.39299495  0.21443116  1.0
  F  F159  1  0.71585513  0.31265376  0.37528304  1.0
  F  F160  1  0.78410520  0.18735375  0.62471882  1.0
  F  F161  1  0.70393778  0.10692868  0.78558257  1.0
  F  F162  1  0.56347315  0.18954678  0.62152151  1.0
  F  F163  1  0.49283310  0.10827104  0.78391484  1.0
  F  F164  1  0.99291627  0.60822307  0.78353090  1.0
  F  F165  1  0.06359261  0.68936591  0.62118272  1.0
  F  F166  1  0.20414316  0.60738750  0.78516341  1.0
  F  F167  1  0.28422555  0.68770990  0.62443272  1.0
  F  F168  1  0.21577690  0.81227909  0.37556485  1.0
  F  F169  1  0.29584974  0.89261412  0.21483096  1.0
  F  F170  1  0.43641923  0.81065781  0.37879213  1.0
  F  F171  1  0.50708445  0.89189268  0.21643214  1.0
