# generated using pymatgen
data_Zn4H36C38O13
_symmetry_space_group_name_H-M   'P 1'
_cell_length_a   17.74464608
_cell_length_b   18.62758736
_cell_length_c   23.35674563
_cell_angle_alpha   113.35317488
_cell_angle_beta   110.27857407
_cell_angle_gamma   90.09791945
_symmetry_Int_Tables_number   1
_chemical_formula_structural   Zn4H36C38O13
_chemical_formula_sum   'Zn8 H72 C76 O26'
_cell_volume   6561.26602680
_cell_formula_units_Z   2
loop_
 _symmetry_equiv_pos_site_id
 _symmetry_equiv_pos_as_xyz
  1  'x, y, z'
loop_
 _atom_site_type_symbol
 _atom_site_label
 _atom_site_symmetry_multiplicity
 _atom_site_fract_x
 _atom_site_fract_y
 _atom_site_fract_z
 _atom_site_occupancy
  Zn  Zn0  1  0.88219005  0.46857760  0.94364012  1.0
  Zn  Zn1  1  0.03104729  0.44334012  0.05338345  1.0
  Zn  Zn2  1  0.02113636  0.61132187  0.04978301  1.0
  Zn  Zn3  1  0.05978475  0.47030752  0.93307811  1.0
  Zn  Zn4  1  0.61398914  0.01954963  0.04783717  1.0
  Zn  Zn5  1  0.46891333  0.88491569  0.93839555  1.0
  Zn  Zn6  1  0.47593323  0.05266261  0.93463662  1.0
  Zn  Zn7  1  0.43426180  0.03097195  0.05247641  1.0
  H  H8  1  0.50770830  0.12190258  0.25940203  1.0
  H  H9  1  0.56517820  0.18445599  0.38505696  1.0
  H  H10  1  0.80573316  0.20217252  0.38194525  1.0
  H  H11  1  0.67941816  0.29495066  0.60886480  1.0
  H  H12  1  0.97804089  0.37437113  0.72642223  1.0
  H  H13  1  0.91743508  0.31151216  0.60082606  1.0
  H  H14  1  0.38320088  0.97224976  0.72899070  1.0
  H  H15  1  0.31471459  0.91140367  0.60361028  1.0
  H  H16  1  0.28838887  0.68272304  0.60595046  1.0
  H  H17  1  0.20146236  0.80777024  0.38929004  1.0
  H  H18  1  0.11510024  0.51843666  0.25427109  1.0
  H  H19  1  0.17432439  0.57293420  0.37978880  1.0
  H  H20  1  0.79620339  0.69441502  0.90509060  1.0
  H  H21  1  0.86776684  0.76709381  0.98120870  1.0
  H  H22  1  0.77629379  0.85708994  0.97699322  1.0
  H  H23  1  0.70407485  0.78277105  0.90237364  1.0
  H  H24  1  0.78179949  0.87198419  0.09010393  1.0
  H  H25  1  0.71054897  0.81223854  0.09655538  1.0
  H  H26  1  0.86967666  0.77863358  0.09319918  1.0
  H  H27  1  0.79593703  0.71749239  0.09591842  1.0
  H  H28  1  0.69191826  0.60481705  0.90893611  1.0
  H  H29  1  0.69319167  0.61208122  0.98657951  1.0
  H  H30  1  0.60502573  0.70545799  0.98895505  1.0
  H  H31  1  0.60092731  0.69542970  0.90991885  1.0
  H  H32  1  0.11097610  0.20293580  0.90751246  1.0
  H  H33  1  0.11766163  0.21741308  0.98881786  1.0
  H  H34  1  0.20602244  0.12422102  0.98787480  1.0
  H  H35  1  0.20104367  0.11250815  0.90759187  1.0
  H  H36  1  0.30992701  0.22939429  0.09275181  1.0
  H  H37  1  0.38212409  0.28991685  0.08801457  1.0
  H  H38  1  0.22355457  0.32430480  0.09237956  1.0
  H  H39  1  0.29472940  0.38234200  0.08437705  1.0
  H  H40  1  0.21141967  0.28824914  0.89572446  1.0
  H  H41  1  0.28506155  0.36295680  0.96766483  1.0
  H  H42  1  0.37612850  0.27296207  0.97206829  1.0
  H  H43  1  0.30351408  0.19908948  0.89882190  1.0
  H  H44  1  0.84027939  0.20464864  0.93632309  1.0
  H  H45  1  0.75573302  0.24221475  0.89743659  1.0
  H  H46  1  0.66879448  0.14520877  0.89450944  1.0
  H  H47  1  0.75389957  0.11010391  0.93574702  1.0
  H  H48  1  0.60998187  0.25495546  0.96232296  1.0
  H  H49  1  0.65067449  0.29475001  0.05118829  1.0
  H  H50  1  0.69967337  0.35220150  0.96784288  1.0
  H  H51  1  0.74179659  0.38936077  0.05658469  1.0
  H  H52  1  0.90228194  0.25958297  0.06437873  1.0
  H  H53  1  0.86338266  0.33633914  0.11339918  1.0
  H  H54  1  0.77199489  0.24350914  0.11080892  1.0
  H  H55  1  0.81287158  0.16674721  0.06382402  1.0
  H  H56  1  0.09996910  0.73112864  0.93184160  1.0
  H  H57  1  0.14752114  0.65714727  0.88838496  1.0
  H  H58  1  0.22897109  0.75599660  0.88834843  1.0
  H  H59  1  0.18455326  0.82975338  0.93559641  1.0
  H  H60  1  0.34980295  0.70613674  0.94727376  1.0
  H  H61  1  0.39574085  0.74871487  0.03603878  1.0
  H  H62  1  0.26780255  0.61114268  0.95166222  1.0
  H  H63  1  0.31093529  0.65739463  0.04059135  1.0
  H  H64  1  0.16071223  0.79741628  0.06026446  1.0
  H  H65  1  0.24440971  0.76512451  0.10491938  1.0
  H  H66  1  0.33413698  0.85679194  0.10460619  1.0
  H  H67  1  0.25031839  0.89267628  0.06402817  1.0
  H  H68  1  0.77263731  0.07433715  0.22425981  1.0
  H  H69  1  0.75105231  0.15953414  0.21084723  1.0
  H  H70  1  0.82970869  0.16862091  0.28711360  1.0
  H  H71  1  0.65721711  0.33308653  0.70385109  1.0
  H  H72  1  0.73505209  0.33259840  0.77673546  1.0
  H  H73  1  0.72017499  0.42265874  0.77064586  1.0
  H  H74  1  0.42371318  0.71960352  0.76002043  1.0
  H  H75  1  0.33741236  0.74517652  0.77904385  1.0
  H  H76  1  0.32572263  0.66471839  0.70090962  1.0
  H  H77  1  0.17204007  0.83204021  0.29718377  1.0
  H  H78  1  0.16294092  0.75526224  0.21796281  1.0
  H  H79  1  0.07501164  0.77809440  0.23514872  1.0
  C  C80  1  0.86254708  0.36302148  0.00477421  1.0
  C  C81  1  0.08567702  0.59284862  0.17636829  1.0
  C  C82  1  0.85174440  0.63298964  0.99641867  1.0
  C  C83  1  0.14198358  0.63595377  0.99499072  1.0
  C  C84  1  0.90598247  0.40991050  0.81332202  1.0
  C  C85  1  0.14163063  0.36018721  0.98931350  1.0
  C  C86  1  0.63433012  0.85371473  0.99401707  1.0
  C  C87  1  0.41822836  0.90422557  0.81215712  1.0
  C  C88  1  0.64634132  0.13438589  0.99845530  1.0
  C  C89  1  0.35970328  0.13881839  0.99261343  1.0
  C  C90  1  0.58359628  0.08478814  0.17495654  1.0
  C  C91  1  0.35093740  0.86441754  0.99345748  1.0
  C  C92  1  0.62357485  0.12482082  0.25001866  1.0
  C  C93  1  0.57321591  0.13935251  0.28720903  1.0
  C  C94  1  0.60504046  0.17426648  0.35704378  1.0
  C  C95  1  0.69004292  0.19696285  0.39215398  1.0
  C  C96  1  0.74015221  0.18364001  0.35465981  1.0
  C  C97  1  0.70924284  0.14778031  0.28427300  1.0
  C  C98  1  0.72521614  0.23265422  0.46344529  1.0
  C  C99  1  0.75713900  0.26342229  0.52493329  1.0
  C  C100  1  0.79363826  0.29917337  0.59616698  1.0
  C  C101  1  0.74518592  0.31292069  0.63502502  1.0
  C  C102  1  0.77785255  0.34854583  0.70544963  1.0
  C  C103  1  0.86377804  0.37111168  0.73836779  1.0
  C  C104  1  0.91238512  0.35681294  0.69970055  1.0
  C  C105  1  0.87882743  0.32179387  0.62990749  1.0
  C  C106  1  0.37621005  0.86222448  0.73759848  1.0
  C  C107  1  0.36256280  0.90858382  0.70097861  1.0
  C  C108  1  0.32437847  0.87502009  0.63151582  1.0
  C  C109  1  0.29753065  0.79246672  0.59639932  1.0
  C  C110  1  0.31012307  0.74636772  0.63330921  1.0
  C  C111  1  0.34936690  0.77908845  0.70338062  1.0
  C  C112  1  0.25910544  0.75689701  0.52542322  1.0
  C  C113  1  0.22718400  0.72746637  0.46401706  1.0
  C  C114  1  0.19160944  0.69455017  0.39292772  1.0
  C  C115  1  0.18141048  0.74415699  0.35919479  1.0
  C  C116  1  0.14701229  0.71492514  0.28905064  1.0
  C  C117  1  0.12284718  0.63177758  0.25141176  1.0
  C  C118  1  0.13373163  0.58200314  0.28488820  1.0
  C  C119  1  0.16679385  0.61210237  0.35448706  1.0
  C  C120  1  0.80444137  0.73666143  0.95648803  1.0
  C  C121  1  0.74391200  0.79629447  0.95463205  1.0
  C  C122  1  0.69079589  0.79242688  0.99401954  1.0
  C  C123  1  0.74768211  0.81185579  0.06726755  1.0
  C  C124  1  0.80572109  0.75000497  0.06805113  1.0
  C  C125  1  0.79083448  0.69022875  0.99522167  1.0
  C  C126  1  0.70243601  0.64731582  0.96067262  1.0
  C  C127  1  0.64313014  0.70813869  0.96124032  1.0
  C  C128  1  0.15393633  0.21760489  0.95913448  1.0
  C  C129  1  0.21329992  0.15662858  0.95926563  1.0
  C  C130  1  0.30225541  0.19952414  0.99118327  1.0
  C  C131  1  0.31822589  0.26073431  0.06370460  1.0
  C  C132  1  0.26004268  0.32247359  0.06243745  1.0
  C  C133  1  0.20202816  0.30202368  0.98923189  1.0
  C  C134  1  0.25254416  0.30266872  0.94772109  1.0
  C  C135  1  0.31282399  0.24291632  0.94982941  1.0
  C  C136  1  0.78396984  0.22686793  0.94010469  1.0
  C  C137  1  0.72598695  0.16351775  0.93872255  1.0
  C  C138  1  0.70633499  0.19697661  0.00314041  1.0
  C  C139  1  0.66696683  0.27175661  0.00651075  1.0
  C  C140  1  0.72670170  0.33518547  0.00963485  1.0
  C  C141  1  0.80598923  0.30295908  0.00638471  1.0
  C  C142  1  0.84562101  0.28204384  0.06634383  1.0
  C  C143  1  0.78593934  0.22010361  0.06503363  1.0
  C  C144  1  0.15932882  0.71303622  0.93321621  1.0
  C  C145  1  0.21492959  0.77794785  0.93402679  1.0
  C  C146  1  0.29561563  0.80437534  0.99631210  1.0
  C  C147  1  0.33675455  0.73049228  0.99338291  1.0
  C  C148  1  0.28099122  0.66823254  0.99556111  1.0
  C  C149  1  0.20020361  0.69785621  0.99681605  1.0
  C  C150  1  0.21828400  0.77630148  0.05972143  1.0
  C  C151  1  0.27679457  0.83856141  0.06045200  1.0
  C  C152  1  0.76894807  0.13722349  0.24990103  1.0
  C  C153  1  0.71928403  0.35966119  0.74091105  1.0
  C  C154  1  0.35934315  0.72408690  0.73755011  1.0
  C  C155  1  0.13912942  0.77330441  0.25830551  1.0
  O  O156  1  0.99982681  0.49722273  0.99365352  1.0
  O  O157  1  0.83245256  0.38710265  0.95860862  1.0
  O  O158  1  0.08713369  0.51859694  0.14803845  1.0
  O  O159  1  0.92693201  0.66393812  0.02694144  1.0
  O  O160  1  0.93526928  0.38381027  0.04817286  1.0
  O  O161  1  0.82404982  0.55904291  0.96679093  1.0
  O  O162  1  0.05445718  0.63566267  0.14573265  1.0
  O  O163  1  0.10961826  0.66011186  0.03884677  1.0
  O  O164  1  0.98394460  0.41956331  0.83777658  1.0
  O  O165  1  0.12869995  0.56548128  0.94926444  1.0
  O  O166  1  0.86102706  0.43112344  0.84769900  1.0
  O  O167  1  0.10264243  0.36774192  0.02770887  1.0
  O  O168  1  0.13375343  0.39590377  0.95144306  1.0
  O  O169  1  0.49723708  0.99888980  0.99434523  1.0
  O  O170  1  0.66783692  0.92632531  0.02268725  1.0
  O  O171  1  0.44687846  0.86234805  0.84433525  1.0
  O  O172  1  0.57649639  0.11526658  0.95077678  1.0
  O  O173  1  0.55797230  0.82851389  0.96553711  1.0
  O  O174  1  0.67019464  0.10538383  0.04169061  1.0
  O  O175  1  0.42315672  0.97972422  0.83885789  1.0
  O  O176  1  0.40144470  0.12745504  0.95597511  1.0
  O  O177  1  0.50699692  0.08417080  0.14861677  1.0
  O  O178  1  0.36127026  0.10381879  0.03026391  1.0
  O  O179  1  0.62872569  0.05315933  0.14248014  1.0
  O  O180  1  0.37417333  0.83864097  0.94380090  1.0
  O  O181  1  0.36987406  0.93490372  0.03963145  1.0
