# generated using pymatgen
data_ZnH8C21N(O3F)2
_symmetry_space_group_name_H-M   'P 1'
_cell_length_a   10.97854332
_cell_length_b   14.84453550
_cell_length_c   16.18092008
_cell_angle_alpha   89.23335504
_cell_angle_beta   89.16518800
_cell_angle_gamma   89.56430716
_symmetry_Int_Tables_number   1
_chemical_formula_structural   ZnH8C21N(O3F)2
_chemical_formula_sum   'Zn2 H16 C42 N2 O12 F4'
_cell_volume   2636.43847521
_cell_formula_units_Z   2
loop_
 _symmetry_equiv_pos_site_id
 _symmetry_equiv_pos_as_xyz
  1  'x, y, z'
loop_
 _atom_site_type_symbol
 _atom_site_label
 _atom_site_symmetry_multiplicity
 _atom_site_fract_x
 _atom_site_fract_y
 _atom_site_fract_z
 _atom_site_occupancy
  Zn  Zn0  1  0.49744273  0.59527177  0.49821233  1.0
  Zn  Zn1  1  0.50251796  0.40473307  0.50178597  1.0
  H  H2  1  0.32462579  0.91369853  0.56089010  1.0
  H  H3  1  0.67537028  0.08631093  0.43912030  1.0
  H  H4  1  0.32373451  0.34223887  0.24033793  1.0
  H  H5  1  0.67624611  0.65777131  0.75966823  1.0
  H  H6  1  0.20568443  0.45699396  0.31789487  1.0
  H  H7  1  0.79427624  0.54301628  0.68210091  1.0
  H  H8  1  0.19303724  0.13657979  0.41041881  1.0
  H  H9  1  0.80695058  0.86343575  0.58959158  1.0
  H  H10  1  0.88831315  0.37658256  0.43388780  1.0
  H  H11  1  0.11165118  0.62342836  0.56610486  1.0
  H  H12  1  0.57323816  0.63646542  0.92328740  1.0
  H  H13  1  0.42724225  0.36348753  0.07669785  1.0
  H  H14  1  0.57104415  0.63309129  0.07743267  1.0
  H  H15  1  0.42947013  0.36684546  0.92254758  1.0
  H  H16  1  0.43760327  0.13536705  0.18589922  1.0
  H  H17  1  0.56241992  0.86465648  0.81412263  1.0
  C  C18  1  0.49631364  0.49937286  0.66103948  1.0
  C  C19  1  0.50375646  0.50062376  0.33895331  1.0
  C  C20  1  0.87260347  0.49653227  0.50526250  1.0
  C  C21  1  0.12736087  0.50347865  0.49472891  1.0
  C  C22  1  0.93432464  0.56750226  0.54345981  1.0
  C  C23  1  0.06563422  0.43251069  0.45653285  1.0
  C  C24  1  0.54024615  0.57519476  0.04291136  1.0
  C  C25  1  0.46027261  0.42474939  0.95707066  1.0
  C  C26  1  0.49904373  0.49828059  0.08703870  1.0
  C  C27  1  0.50140941  0.50167512  0.91293741  1.0
  C  C28  1  0.45902250  0.42299739  0.04277229  1.0
  C  C29  1  0.54148344  0.57694743  0.95721660  1.0
  C  C30  1  0.49911141  0.49740361  0.17446754  1.0
  C  C31  1  0.50124303  0.50257779  0.82552312  1.0
  C  C32  1  0.49899321  0.50092623  0.75027502  1.0
  C  C33  1  0.50125188  0.49906342  0.24971311  1.0
  C  C34  1  0.40097002  0.95104744  0.53435915  1.0
  C  C35  1  0.59902604  0.04896269  0.46565187  1.0
  C  C36  1  0.50321085  0.90610547  0.50125857  1.0
  C  C37  1  0.49678612  0.09390467  0.49875245  1.0
  C  C38  1  0.60076322  0.95585233  0.46741201  1.0
  C  C39  1  0.39923464  0.04415847  0.53260084  1.0
  C  C40  1  0.26381793  0.50736277  0.49685784  1.0
  C  C41  1  0.73614549  0.49264072  0.50314107  1.0
  C  C42  1  0.50773871  0.81074123  0.50137465  1.0
  C  C43  1  0.49225008  0.18926892  0.49863456  1.0
  C  C44  1  0.26749079  0.32198238  0.29321342  1.0
  C  C45  1  0.73249168  0.67802578  0.70679090  1.0
  C  C46  1  0.20145346  0.38633826  0.33708466  1.0
  C  C47  1  0.79851451  0.61366927  0.66291233  1.0
  C  C48  1  0.13149618  0.36329833  0.40747181  1.0
  C  C49  1  0.86846994  0.63671257  0.59252454  1.0
  C  C50  1  0.12810356  0.27184157  0.42993401  1.0
  C  C51  1  0.87186531  0.72816798  0.57006234  1.0
  C  C52  1  0.19500773  0.20641893  0.38898915  1.0
  C  C53  1  0.80497652  0.79359326  0.61101635  1.0
  C  C54  1  0.26635697  0.23175883  0.32002706  1.0
  C  C55  1  0.73362817  0.76825471  0.67997966  1.0
  C  C56  1  0.93869938  0.43008491  0.46326530  1.0
  C  C57  1  0.06126041  0.56992872  0.53672427  1.0
  C  C58  1  0.34403203  0.16176632  0.28121436  1.0
  C  C59  1  0.65597127  0.83824852  0.71879781  1.0
  N  N60  1  0.49108156  0.26736267  0.49900075  1.0
  N  N61  1  0.50889268  0.73264548  0.50100733  1.0
  O  O62  1  0.49056866  0.57587104  0.62456547  1.0
  O  O63  1  0.50943940  0.42412901  0.37543630  1.0
  O  O64  1  0.50069576  0.42206493  0.62799437  1.0
  O  O65  1  0.49929878  0.57793046  0.37199516  1.0
  O  O66  1  0.31168229  0.58515251  0.49604965  1.0
  O  O67  1  0.68829021  0.41484757  0.50395666  1.0
  O  O68  1  0.31999686  0.43222003  0.50108900  1.0
  O  O69  1  0.67995839  0.56778078  0.49890875  1.0
  O  O70  1  0.37130453  0.08926219  0.31371505  1.0
  O  O71  1  0.38587630  0.18556854  0.20414126  1.0
  O  O72  1  0.62870508  0.91075599  0.68630199  1.0
  O  O73  1  0.61413334  0.81444695  0.79587519  1.0
  F  F74  1  0.05983435  0.24598076  0.49724218  1.0
  F  F75  1  0.94013174  0.75402878  0.50275975  1.0
  F  F76  1  0.30207362  0.08870587  0.56390053  1.0
  F  F77  1  0.69792696  0.91130627  0.43611291  1.0
