# generated using pymatgen
data_AlH15C24(SO5)3
_symmetry_space_group_name_H-M   'P 1'
_cell_length_a   4.31254451
_cell_length_b   28.37700661
_cell_length_c   28.37683900
_cell_angle_alpha   59.99846510
_cell_angle_beta   89.99705278
_cell_angle_gamma   89.99819193
_symmetry_Int_Tables_number   1
_chemical_formula_structural   AlH15C24(SO5)3
_chemical_formula_sum   'Al2 H30 C48 S6 O30'
_cell_volume   3007.37857787
_cell_formula_units_Z   2
loop_
 _symmetry_equiv_pos_site_id
 _symmetry_equiv_pos_as_xyz
  1  'x, y, z'
loop_
 _atom_site_type_symbol
 _atom_site_label
 _atom_site_symmetry_multiplicity
 _atom_site_fract_x
 _atom_site_fract_y
 _atom_site_fract_z
 _atom_site_occupancy
  Al  Al0  1  0.97301149  0.99999553  0.49999842  1.0
  Al  Al1  1  0.97310769  0.66666711  0.16667153  1.0
  H  H2  1  0.50967077  0.51764026  0.30233682  1.0
  H  H3  1  0.55620442  0.41783161  0.35196035  1.0
  H  H4  1  0.51586423  0.41859441  0.19941557  1.0
  H  H5  1  0.51572758  0.24807122  0.46725505  1.0
  H  H6  1  0.55632800  0.24882339  0.31471879  1.0
  H  H7  1  0.50969624  0.14901602  0.36434204  1.0
  H  H8  1  0.55646668  0.33478929  0.27836054  1.0
  H  H9  1  0.55650168  0.33187303  0.38831141  1.0
  H  H10  1  0.50965032  0.80233081  0.18002071  1.0
  H  H11  1  0.55625602  0.85195761  0.23019970  1.0
  H  H12  1  0.51577353  0.69941852  0.38199355  1.0
  H  H13  1  0.51579233  0.96725292  0.28466537  1.0
  H  H14  1  0.55630378  0.81471867  0.43645507  1.0
  H  H15  1  0.50969119  0.86434296  0.48663707  1.0
  H  H16  1  0.55643886  0.77836192  0.38684942  1.0
  H  H17  1  0.55653601  0.88831070  0.27980789  1.0
  H  H18  1  0.50962793  0.68002053  0.01765044  1.0
  H  H19  1  0.55620549  0.73020422  0.91784054  1.0
  H  H20  1  0.51589551  0.88199155  0.91859065  1.0
  H  H21  1  0.51573278  0.78466733  0.74808163  1.0
  H  H22  1  0.55632400  0.93645380  0.74882340  1.0
  H  H23  1  0.50967647  0.98663941  0.64901461  1.0
  H  H24  1  0.55648386  0.88684995  0.83478465  1.0
  H  H25  1  0.55652098  0.77980929  0.83188255  1.0
  H  H26  1  0.98186065  0.56748174  0.10773119  1.0
  H  H27  1  0.98165198  0.09919107  0.55894735  1.0
  H  H28  1  0.98167823  0.60772692  0.32481667  1.0
  H  H29  1  0.98166512  0.05894467  0.34184451  1.0
  H  H30  1  0.98181291  0.82479512  0.06747175  1.0
  H  H31  1  0.98163480  0.84184433  0.59920867  1.0
  C  C32  1  0.47453413  0.94828830  0.58073744  1.0
  C  C33  1  0.47455520  0.08073393  0.47096893  1.0
  C  C34  1  0.47458436  0.97096768  0.44828883  1.0
  C  C35  1  0.47466065  0.58592605  0.19571223  1.0
  C  C36  1  0.47459903  0.69570857  0.21836693  1.0
  C  C37  1  0.47464462  0.71836395  0.08593173  1.0
  C  C38  1  0.49837919  0.52519728  0.22301954  1.0
  C  C39  1  0.51779270  0.49562237  0.27999523  1.0
  C  C40  1  0.54408460  0.43933388  0.30766014  1.0
  C  C41  1  0.54819207  0.41006402  0.27955812  1.0
  C  C42  1  0.52576874  0.43983180  0.22249164  1.0
  C  C43  1  0.50170288  0.49636812  0.19474509  1.0
  C  C44  1  0.55776578  0.35089987  0.30623081  1.0
  C  C45  1  0.55776488  0.31575961  0.36044361  1.0
  C  C46  1  0.52566519  0.22683015  0.44418285  1.0
  C  C47  1  0.54817820  0.25659710  0.38711379  1.0
  C  C48  1  0.54412112  0.22732439  0.35901534  1.0
  C  C49  1  0.51779907  0.17103797  0.38668365  1.0
  C  C50  1  0.49830052  0.14146389  0.44365943  1.0
  C  C51  1  0.50158313  0.17029102  0.47193029  1.0
  C  C52  1  0.49831434  0.72301739  0.25178638  1.0
  C  C53  1  0.51777213  0.77999325  0.22438057  1.0
  C  C54  1  0.54409457  0.80765657  0.25300173  1.0
  C  C55  1  0.54817352  0.77955837  0.31037595  1.0
  C  C56  1  0.52570549  0.72249351  0.33767793  1.0
  C  C57  1  0.50160915  0.69474392  0.30889163  1.0
  C  C58  1  0.55775819  0.80623120  0.34286455  1.0
  C  C59  1  0.55778825  0.86044182  0.32379114  1.0
  C  C60  1  0.52572103  0.94418199  0.32897818  1.0
  C  C61  1  0.54820095  0.88711303  0.35628274  1.0
  C  C62  1  0.54412230  0.85901442  0.41365578  1.0
  C  C63  1  0.51780528  0.88668306  0.44227273  1.0
  C  C64  1  0.49833522  0.94365884  0.41486921  1.0
  C  C65  1  0.50164627  0.97192916  0.35776940  1.0
  C  C66  1  0.49837293  0.75178386  0.02519978  1.0
  C  C67  1  0.51778867  0.72438153  0.99562937  1.0
  C  C68  1  0.54408598  0.75300422  0.93934036  1.0
  C  C69  1  0.54821247  0.81037471  0.91006584  1.0
  C  C70  1  0.52578859  0.83767752  0.93983056  1.0
  C  C71  1  0.50170109  0.80888840  0.99636629  1.0
  C  C72  1  0.55778888  0.84286602  0.85090092  1.0
  C  C73  1  0.55778290  0.82379281  0.81576472  1.0
  C  C74  1  0.52565631  0.82898257  0.72683435  1.0
  C  C75  1  0.54817110  0.85628372  0.75660148  1.0
  C  C76  1  0.54410985  0.91365423  0.72732593  1.0
  C  C77  1  0.51778625  0.94227409  0.67103889  1.0
  C  C78  1  0.49829286  0.91487080  0.64146906  1.0
  C  C79  1  0.50158199  0.85777416  0.67029792  1.0
  S  S80  1  0.42619244  0.52820089  0.12343376  1.0
  S  S81  1  0.42597166  0.13847136  0.54323918  1.0
  S  S82  1  0.42604008  0.62343627  0.34837901  1.0
  S  S83  1  0.42602199  0.04323638  0.31827893  1.0
  S  S84  1  0.42615676  0.84837045  0.02819240  1.0
  S  S85  1  0.42597719  0.81828144  0.63848332  1.0
  O  O86  1  0.70292027  0.00093295  0.44524951  1.0
  O  O87  1  0.70287520  0.94525099  0.55380916  1.0
  O  O88  1  0.70289839  0.05380595  0.50093352  1.0
  O  O89  1  0.23426995  0.95982470  0.47784082  1.0
  O  O90  1  0.23426235  0.06232575  0.45982521  1.0
  O  O91  1  0.23422129  0.97783866  0.56232957  1.0
  O  O92  1  0.70298521  0.72140383  0.11285236  1.0
  O  O93  1  0.70301999  0.61284969  0.16575191  1.0
  O  O94  1  0.70296796  0.66574751  0.22140941  1.0
  O  O95  1  0.23435952  0.68881184  0.10434341  1.0
  O  O96  1  0.23431782  0.70684859  0.18881442  1.0
  O  O97  1  0.23437411  0.60433736  0.20685485  1.0
  O  O98  1  0.70359982  0.55427244  0.09148325  1.0
  O  O99  1  0.27761543  0.48896541  0.11320642  1.0
  O  O100  1  0.21096584  0.57597607  0.11370723  1.0
  O  O101  1  0.70335739  0.11239947  0.57519791  1.0
  O  O102  1  0.27738999  0.17770904  0.55345283  1.0
  O  O103  1  0.21073313  0.09069602  0.55297029  1.0
  O  O104  1  0.70339374  0.59147471  0.35426956  1.0
  O  O105  1  0.27743327  0.61322158  0.39783981  1.0
  O  O106  1  0.21079643  0.61370646  0.31033877  1.0
  O  O107  1  0.70337796  0.07519964  0.31238853  1.0
  O  O108  1  0.27745113  0.05344891  0.26882356  1.0
  O  O109  1  0.21074255  0.05296401  0.35632194  1.0
  O  O110  1  0.70353785  0.85425385  0.05426052  1.0
  O  O111  1  0.27756325  0.89783215  0.98895182  1.0
  O  O112  1  0.21092006  0.81032465  0.07596966  1.0
  O  O113  1  0.70334516  0.81238836  0.61241364  1.0
  O  O114  1  0.27736968  0.76882661  0.67773120  1.0
  O  O115  1  0.21073254  0.85632140  0.59070995  1.0
