# generated using pymatgen
data_AlH20C23NO5
_symmetry_space_group_name_H-M   'P 1'
_cell_length_a   6.70578959
_cell_length_b   24.85005609
_cell_length_c   29.12206808
_cell_angle_alpha   89.60026167
_cell_angle_beta   88.28788827
_cell_angle_gamma   86.09847610
_symmetry_Int_Tables_number   1
_chemical_formula_structural   AlH20C23NO5
_chemical_formula_sum   'Al4 H80 C92 N4 O20'
_cell_volume   4839.41187701
_cell_formula_units_Z   4
loop_
 _symmetry_equiv_pos_site_id
 _symmetry_equiv_pos_as_xyz
  1  'x, y, z'
loop_
 _atom_site_type_symbol
 _atom_site_label
 _atom_site_symmetry_multiplicity
 _atom_site_fract_x
 _atom_site_fract_y
 _atom_site_fract_z
 _atom_site_occupancy
  Al  Al0  1  0.19343814  0.74994111  0.25365605  1.0
  Al  Al1  1  0.80078954  0.25231218  0.74937051  1.0
  Al  Al2  1  0.69251541  0.74851832  0.25352945  1.0
  Al  Al3  1  0.30180137  0.25104683  0.74965683  1.0
  H  H4  1  0.25813627  0.66666667  0.37457631  1.0
  H  H5  1  0.75905062  0.32776884  0.62225935  1.0
  H  H6  1  0.27227986  0.60172659  0.44078385  1.0
  H  H7  1  0.75065651  0.39067511  0.55460332  1.0
  H  H8  1  0.69344623  0.55069689  0.40706944  1.0
  H  H9  1  0.29758456  0.45403903  0.59704793  1.0
  H  H10  1  0.29383969  0.55309589  0.09710992  1.0
  H  H11  1  0.70357254  0.44461735  0.90626082  1.0
  H  H12  1  0.68395301  0.60424946  0.06701678  1.0
  H  H13  1  0.31737382  0.39591748  0.93485933  1.0
  H  H14  1  0.67029509  0.66609347  0.13398238  1.0
  H  H15  1  0.32980653  0.33304269  0.86847591  1.0
  H  H16  1  0.69381746  0.51246553  0.05108774  1.0
  H  H17  1  0.30562202  0.48676885  0.95137663  1.0
  H  H18  1  0.70143921  0.44915680  0.98619755  1.0
  H  H19  1  0.29825323  0.54994750  0.01635426  1.0
  H  H20  1  0.34224798  0.21092450  0.61467747  1.0
  H  H21  1  0.69888635  0.88585725  0.31346855  1.0
  H  H22  1  0.32503722  0.16327282  0.54180390  1.0
  H  H23  1  0.73154043  0.96313602  0.36265059  1.0
  H  H24  1  0.76999510  0.04396820  0.58845711  1.0
  H  H25  1  0.21209358  0.92030074  0.44161356  1.0
  H  H26  1  0.82448282  0.03353062  0.51905944  1.0
  H  H27  1  0.19404053  0.01923021  0.44311525  1.0
  H  H28  1  0.26398567  0.18170247  0.87100262  1.0
  H  H29  1  0.70736413  0.88022335  0.17215930  1.0
  H  H30  1  0.22898336  0.12046381  0.93853371  1.0
  H  H31  1  0.73481981  0.94820745  0.10995550  1.0
  H  H32  1  0.82510231  0.00897173  0.67004162  1.0
  H  H33  1  0.02214059  0.02333221  0.63048959  1.0
  H  H34  1  0.05933776  0.02655731  0.69023860  1.0
  H  H35  1  0.00259613  0.11965055  0.65714892  1.0
  H  H36  1  0.82708255  0.10541138  0.70009194  1.0
  H  H37  1  0.25753802  0.76056429  0.38599998  1.0
  H  H38  1  0.21722267  0.78666295  0.44252522  1.0
  H  H39  1  0.01545521  0.76197249  0.41227827  1.0
  H  H40  1  0.99268157  0.86274252  0.41143736  1.0
  H  H41  1  0.02857915  0.83621280  0.35542175  1.0
  H  H42  1  0.80199415  0.02905470  0.38085620  1.0
  H  H43  1  0.96282966  0.05859363  0.41775827  1.0
  H  H44  1  0.05801904  0.00474622  0.38123407  1.0
  H  H45  1  0.99313345  0.97619430  0.46688724  1.0
  H  H46  1  0.86996659  0.93888814  0.42637076  1.0
  H  H47  1  0.23656448  0.17262470  0.47866911  1.0
  H  H48  1  0.12692742  0.13313085  0.43745178  1.0
  H  H49  1  0.97351950  0.16608991  0.48109164  1.0
  H  H50  1  0.02153585  0.06910622  0.49697024  1.0
  H  H51  1  0.12602399  0.10474454  0.54095662  1.0
  H  H52  1  0.82572743  0.05170959  0.91015330  1.0
  H  H53  1  0.20069619  0.89421248  0.05227176  1.0
  H  H54  1  0.86137612  0.04011298  0.79711915  1.0
  H  H55  1  0.79043489  0.10275334  0.77055380  1.0
  H  H56  1  0.04718681  0.08000551  0.77187727  1.0
  H  H57  1  0.97747770  0.15086634  0.83007806  1.0
  H  H58  1  0.03549700  0.08849571  0.85801682  1.0
  H  H59  1  0.29737053  0.75947644  0.06194143  1.0
  H  H60  1  0.30826468  0.73838389  0.12041535  1.0
  H  H61  1  0.08791931  0.73121304  0.08952547  1.0
  H  H62  1  0.04547883  0.81077077  0.14251665  1.0
  H  H63  1  0.02296638  0.83075428  0.08439405  1.0
  H  H64  1  0.16808216  0.95759333  0.90775418  1.0
  H  H65  1  0.24957314  0.01852902  0.88368658  1.0
  H  H66  1  0.28657584  0.95755342  0.85216106  1.0
  H  H67  1  0.60640231  0.98160774  0.88657989  1.0
  H  H68  1  0.53004531  0.92006844  0.90949279  1.0
  H  H69  1  0.12100554  0.05963978  0.09627746  1.0
  H  H70  1  0.20684433  0.99767307  0.12206121  1.0
  H  H71  1  0.22076494  0.05907576  0.15231820  1.0
  H  H72  1  0.55774310  0.02760391  0.12014030  1.0
  H  H73  1  0.47538273  0.08977074  0.09554911  1.0
  H  H74  1  0.47833241  0.90722351  0.98786839  1.0
  H  H75  1  0.48884366  0.10213033  0.01807283  1.0
  H  H76  1  0.67424926  0.61877943  0.34299420  1.0
  H  H77  1  0.31080840  0.38896769  0.66311341  1.0
  H  H78  1  0.28153225  0.61750763  0.16231074  1.0
  H  H79  1  0.71494480  0.37885877  0.84179777  1.0
  H  H80  1  0.45737475  0.68121881  0.23763594  1.0
  H  H81  1  0.53329496  0.31913667  0.73145892  1.0
  H  H82  1  0.92673892  0.81528805  0.23351600  1.0
  H  H83  1  0.06736797  0.18684241  0.72771740  1.0
  C  C84  1  0.42570019  0.81687363  0.31243916  1.0
  C  C85  1  0.57089926  0.19005610  0.68450656  1.0
  C  C86  1  0.43273485  0.81228723  0.18877738  1.0
  C  C87  1  0.56608770  0.18883063  0.81252420  1.0
  C  C88  1  0.96242653  0.68288398  0.19217026  1.0
  C  C89  1  0.03422139  0.31431072  0.81185885  1.0
  C  C90  1  0.95712255  0.68627542  0.31647388  1.0
  C  C91  1  0.03760816  0.31734548  0.68701819  1.0
  C  C92  1  0.13455009  0.64153854  0.38243402  1.0
  C  C93  1  0.87665766  0.35540201  0.61623426  1.0
  C  C94  1  0.14296098  0.60527144  0.41892399  1.0
  C  C95  1  0.87148782  0.39040837  0.57880871  1.0
  C  C96  1  0.98378424  0.57224183  0.42785811  1.0
  C  C97  1  0.02286061  0.42642769  0.57193267  1.0
  C  C98  1  0.81508384  0.57678846  0.40010907  1.0
  C  C99  1  0.18137623  0.42591457  0.60257723  1.0
  C  C100  1  0.80495141  0.61429434  0.36444034  1.0
  C  C101  1  0.18819305  0.38990114  0.63932343  1.0
  C  C102  1  0.96503068  0.64666055  0.35523275  1.0
  C  C103  1  0.03499361  0.35485042  0.64672881  1.0
  C  C104  1  0.01449195  0.46455731  0.53311711  1.0
  C  C105  1  0.99532994  0.53297760  0.46577473  1.0
  C  C106  1  0.15117793  0.61411576  0.14131985  1.0
  C  C107  1  0.84594165  0.38314982  0.86242851  1.0
  C  C108  1  0.15798284  0.57863540  0.10448852  1.0
  C  C109  1  0.84002209  0.41932250  0.89877601  1.0
  C  C110  1  0.98955545  0.57385903  0.07745737  1.0
  C  C111  1  0.00977718  0.42500442  0.92519096  1.0
  C  C112  1  0.81395868  0.60604592  0.08848454  1.0
  C  C113  1  0.18614473  0.39327427  0.91393020  1.0
  C  C114  1  0.80597749  0.64096960  0.12562410  1.0
  C  C115  1  0.19347732  0.35764111  0.87729612  1.0
  C  C116  1  0.97450495  0.64526724  0.15244591  1.0
  C  C117  1  0.02328124  0.35227140  0.85127655  1.0
  C  C118  1  0.82732535  0.50766484  0.02875518  1.0
  C  C119  1  0.17204899  0.49158214  0.97367534  1.0
  C  C120  1  0.83158729  0.47194935  0.99215556  1.0
  C  C121  1  0.16794430  0.52723919  0.01032386  1.0
  C  C122  1  0.00414175  0.46314437  0.96383577  1.0
  C  C123  1  0.99534480  0.53602842  0.03861572  1.0
  C  C124  1  0.43994079  0.17474422  0.60810537  1.0
  C  C125  1  0.58787662  0.89485034  0.34093631  1.0
  C  C126  1  0.42580576  0.14662919  0.56748659  1.0
  C  C127  1  0.60878972  0.93797171  0.36996378  1.0
  C  C128  1  0.53968314  0.09762219  0.55991382  1.0
  C  C129  1  0.47508557  0.94824760  0.40760539  1.0
  C  C130  1  0.68079889  0.08191349  0.59320230  1.0
  C  C131  1  0.31461391  0.91464820  0.41208280  1.0
  C  C132  1  0.71040866  0.11196493  0.63263152  1.0
  C  C133  1  0.28147718  0.87321806  0.38130319  1.0
  C  C134  1  0.57897646  0.15805234  0.64120514  1.0
  C  C135  1  0.42634610  0.86217091  0.34581722  1.0
  C  C136  1  0.68306355  0.03130539  0.50209561  1.0
  C  C137  1  0.33387449  0.02229715  0.45988609  1.0
  C  C138  1  0.68250954  0.99856285  0.46340591  1.0
  C  C139  1  0.33714932  0.06019654  0.49516429  1.0
  C  C140  1  0.49881678  0.99017434  0.44311801  1.0
  C  C141  1  0.51663153  0.06334339  0.51911253  1.0
  C  C142  1  0.38747411  0.15337632  0.88037274  1.0
  C  C143  1  0.59529113  0.88403360  0.14581362  1.0
  C  C144  1  0.36785503  0.11906506  0.91792853  1.0
  C  C145  1  0.60976306  0.92232190  0.11117688  1.0
  C  C146  1  0.52423449  0.08094313  0.92825687  1.0
  C  C147  1  0.46488950  0.92708353  0.07732240  1.0
  C  C148  1  0.70208162  0.08065654  0.90165720  1.0
  C  C149  1  0.31206736  0.89122478  0.07895917  1.0
  C  C150  1  0.72827336  0.11593859  0.86459612  1.0
  C  C151  1  0.29302337  0.85240691  0.11367318  1.0
  C  C152  1  0.56428030  0.15199940  0.85323609  1.0
  C  C153  1  0.43729168  0.84959900  0.14836285  1.0
  C  C154  1  0.49556036  0.98555966  0.95688283  1.0
  C  C155  1  0.47340840  0.02375510  0.04919396  1.0
  C  C156  1  0.48105049  0.95042945  0.99437147  1.0
  C  C157  1  0.48737343  0.05888477  0.01164526  1.0
  C  C158  1  0.47377260  0.96794915  0.04009908  1.0
  C  C159  1  0.50229281  0.04111417  0.96604130  1.0
  C  C160  1  0.87567640  0.09459580  0.66490945  1.0
  C  C161  1  0.94907808  0.03507181  0.66353695  1.0
  C  C162  1  0.10127209  0.84048685  0.38837453  1.0
  C  C163  1  0.15123741  0.78419592  0.40856568  1.0
  C  C164  1  0.87705237  0.97923524  0.44103415  1.0
  C  C165  1  0.92959743  0.01983715  0.40292673  1.0
  C  C166  1  0.14485712  0.09399777  0.50449502  1.0
  C  C167  1  0.11947330  0.14447457  0.47390653  1.0
  C  C168  1  0.92330959  0.11094072  0.83724410  1.0
  C  C169  1  0.90455758  0.08162050  0.79158648  1.0
  C  C170  1  0.12892075  0.81403258  0.10977092  1.0
  C  C171  1  0.21065041  0.75750014  0.09448737  1.0
  C  C172  1  0.49168742  0.96382998  0.90856769  1.0
  C  C173  1  0.28694932  0.97494920  0.88675800  1.0
  C  C174  1  0.44643450  0.04672534  0.09712921  1.0
  C  C175  1  0.23641591  0.04043129  0.11817029  1.0
  N  N176  1  0.85750846  0.49554419  0.46839510  1.0
  N  N177  1  0.15572752  0.50099880  0.52973435  1.0
  N  N178  1  0.86705577  0.46085149  0.50270032  1.0
  N  N179  1  0.14576079  0.53583652  0.49558220  1.0
  O  O180  1  0.59917929  0.80101294  0.20811167  1.0
  O  O181  1  0.40008040  0.19841739  0.79278521  1.0
  O  O182  1  0.26153121  0.80424720  0.29590700  1.0
  O  O183  1  0.73269663  0.19887151  0.70435424  1.0
  O  O184  1  0.12058111  0.70647759  0.30469276  1.0
  O  O185  1  0.87075670  0.29875709  0.69875339  1.0
  O  O186  1  0.26495643  0.79536039  0.20229542  1.0
  O  O187  1  0.73022857  0.20818522  0.79989467  1.0
  O  O188  1  0.12520063  0.69391554  0.21054396  1.0
  O  O189  1  0.87255693  0.30549104  0.79217151  1.0
  O  O190  1  0.59782297  0.79482237  0.30162058  1.0
  O  O191  1  0.39510181  0.20685960  0.69851879  1.0
  O  O192  1  0.44989473  0.71573214  0.25309764  1.0
  O  O193  1  0.54217719  0.28532993  0.74830912  1.0
  O  O194  1  0.78669821  0.70099337  0.20473992  1.0
  O  O195  1  0.20746429  0.29367651  0.80039460  1.0
  O  O196  1  0.78925447  0.69653131  0.29789027  1.0
  O  O197  1  0.20397198  0.30726345  0.70649692  1.0
  O  O198  1  0.93477310  0.78217475  0.25134579  1.0
  O  O199  1  0.05901926  0.21822694  0.74750447  1.0
