# generated using pymatgen
data_ZnH12C12NO4
_symmetry_space_group_name_H-M   'P 1'
_cell_length_a   14.33788030
_cell_length_b   14.33684745
_cell_length_c   14.35878854
_cell_angle_alpha   95.54823929
_cell_angle_beta   116.89087478
_cell_angle_gamma   116.75707011
_symmetry_Int_Tables_number   1
_chemical_formula_structural   ZnH12C12NO4
_chemical_formula_sum   'Zn4 H48 C48 N4 O16'
_cell_volume   2177.02936993
_cell_formula_units_Z   4
loop_
 _symmetry_equiv_pos_site_id
 _symmetry_equiv_pos_as_xyz
  1  'x, y, z'
loop_
 _atom_site_type_symbol
 _atom_site_label
 _atom_site_symmetry_multiplicity
 _atom_site_fract_x
 _atom_site_fract_y
 _atom_site_fract_z
 _atom_site_occupancy
  Zn  Zn0  1  0.02601129  0.43344851  0.44585639  1.0
  Zn  Zn1  1  0.03043071  0.08202088  0.09854937  1.0
  Zn  Zn2  1  0.01675794  0.56825831  0.59857126  1.0
  Zn  Zn3  1  0.01265664  0.91998850  0.94600947  1.0
  H  H4  1  0.07512912  0.22699549  0.62370053  1.0
  H  H5  1  0.00732021  0.53626213  0.11925148  1.0
  H  H6  1  0.86706641  0.40784139  0.99266512  1.0
  H  H7  1  0.84593277  0.50794372  0.14625935  1.0
  H  H8  1  0.95896174  0.19808010  0.38924934  1.0
  H  H9  1  0.12529924  0.28201259  0.46685454  1.0
  H  H10  1  0.63320305  0.16336524  0.23699245  1.0
  H  H11  1  0.23141960  0.43730040  0.42123124  1.0
  H  H12  1  0.14127128  0.45879917  0.30265035  1.0
  H  H13  1  0.40175304  0.68130054  0.52910036  1.0
  H  H14  1  0.91670591  0.34553487  0.19749979  1.0
  H  H15  1  0.83898877  0.23117325  0.23070620  1.0
  H  H16  1  0.64061493  0.94522807  0.92324207  1.0
  H  H17  1  0.15058205  0.33722903  0.18848021  1.0
  H  H18  1  0.23168405  0.30768244  0.30490607  1.0
  H  H19  1  0.40999041  0.20843960  0.40218423  1.0
  H  H20  1  0.83887767  0.11286632  0.10280666  1.0
  H  H21  1  0.92503309  0.22959191  0.07735993  1.0
  H  H22  1  0.97846724  0.90212651  0.30579664  1.0
  H  H23  1  0.00633009  0.36778373  0.96523996  1.0
  H  H24  1  0.14612757  0.49613594  0.09166866  1.0
  H  H25  1  0.19667430  0.37020593  0.01613237  1.0
  H  H26  1  0.11713394  0.15207956  0.34252984  1.0
  H  H27  1  0.95073951  0.07218657  0.26115480  1.0
  H  H28  1  0.97836523  0.78299111  0.42336431  1.0
  H  H29  1  0.85200721  0.53779390  0.68921204  1.0
  H  H30  1  0.99825124  0.57358669  0.80551725  1.0
  H  H31  1  0.19325524  0.49198723  0.90171445  1.0
  H  H32  1  0.98941003  0.76355655  0.60268949  1.0
  H  H33  1  0.84757905  0.65184853  0.57772925  1.0
  H  H34  1  0.40390652  0.82756052  0.80568788  1.0
  H  H35  1  0.60143610  0.46072367  0.46730891  1.0
  H  H36  1  0.59788833  0.44634610  0.59280863  1.0
  H  H37  1  0.64613205  0.31923908  0.51654532  1.0
  H  H38  1  0.19097249  0.72588050  0.84255595  1.0
  H  H39  1  0.18891676  0.81068263  0.76095511  1.0
  H  H40  1  0.39675524  0.04914145  0.12374550  1.0
  H  H41  1  0.57836405  0.60883256  0.61700556  1.0
  H  H42  1  0.58181782  0.62359540  0.49131526  1.0
  H  H43  1  0.63846445  0.79968752  0.64644661  1.0
  H  H44  1  0.19112166  0.93045929  0.88908566  1.0
  H  H45  1  0.18536072  0.84191727  0.96693996  1.0
  H  H46  1  0.07420146  0.10386545  0.73703594  1.0
  H  H47  1  0.98484700  0.69004705  0.92183124  1.0
  H  H48  1  0.84442403  0.66116295  0.80324761  1.0
  H  H49  1  0.84714307  0.62730164  0.02894010  1.0
  H  H50  1  0.85178302  0.78026973  0.69782764  1.0
  H  H51  1  0.99905637  0.89137221  0.73066622  1.0
  C  C52  1  0.10250324  0.25780632  0.71013951  1.0
  C  C53  1  0.96947441  0.46290393  0.04980862  1.0
  C  C54  1  0.87407678  0.59422532  0.17999062  1.0
  C  C55  1  0.03939191  0.24044787  0.38175518  1.0
  C  C56  1  0.58338134  0.17114862  0.27309802  1.0
  C  C57  1  0.14733663  0.39398069  0.33481620  1.0
  C  C58  1  0.45511279  0.74023439  0.61519105  1.0
  C  C59  1  0.91971934  0.27731862  0.22436572  1.0
  C  C60  1  0.58735444  0.88836231  0.83626319  1.0
  C  C61  1  0.14955767  0.31226080  0.25803124  1.0
  C  C62  1  0.45968098  0.19784581  0.36727911  1.0
  C  C63  1  0.92171224  0.19968110  0.14396505  1.0
  C  C64  1  0.94814978  0.81513093  0.27131205  1.0
  C  C65  1  0.04370376  0.44085976  0.03471676  1.0
  C  C66  1  0.17040257  0.33986658  0.93010008  1.0
  C  C67  1  0.03522928  0.15771836  0.30009730  1.0
  C  C68  1  0.94802029  0.74917464  0.33632512  1.0
  C  C69  1  0.94649837  0.60857680  0.75857898  1.0
  C  C70  1  0.16914322  0.40744226  0.86692908  1.0
  C  C71  1  0.94411300  0.72195227  0.64410710  1.0
  C  C72  1  0.45638821  0.82324326  0.77125821  1.0
  C  C73  1  0.59541969  0.49145477  0.53553199  1.0
  C  C74  1  0.59041875  0.25968935  0.43041861  1.0
  C  C75  1  0.14263312  0.76514466  0.80010799  1.0
  C  C76  1  0.45242868  0.10807088  0.21025550  1.0
  C  C77  1  0.58475298  0.57871788  0.54881416  1.0
  C  C78  1  0.58591756  0.80547629  0.68008506  1.0
  C  C79  1  0.14154908  0.84258822  0.88178953  1.0
  C  C80  1  0.10223359  0.18971183  0.77300954  1.0
  C  C81  1  0.94145855  0.68751200  0.83534670  1.0
  C  C82  1  0.87444912  0.66011495  0.11506780  1.0
  C  C83  1  0.94685840  0.80431857  0.72451965  1.0
  C  C84  1  0.13164375  0.36567604  0.75522260  1.0
  C  C85  1  0.11110789  0.43070308  0.68090301  1.0
  C  C86  1  0.91433217  0.63927552  0.29207627  1.0
  C  C87  1  0.93300885  0.57490266  0.36736079  1.0
  C  C88  1  0.65347358  0.25012084  0.38251077  1.0
  C  C89  1  0.79309386  0.33172041  0.44288965  1.0
  C  C90  1  0.38941754  0.74657474  0.66135623  1.0
  C  C91  1  0.24966065  0.66518815  0.59812643  1.0
  C  C92  1  0.65294839  0.87759240  0.79207649  1.0
  C  C93  1  0.79261279  0.93436831  0.86734866  1.0
  C  C94  1  0.38969737  0.12386988  0.25547049  1.0
  C  C95  1  0.25036000  0.07011683  0.18114900  1.0
  C  C96  1  0.91466898  0.77210035  0.16133612  1.0
  C  C97  1  0.93299110  0.84863258  0.09813115  1.0
  C  C98  1  0.13241551  0.22900023  0.88233328  1.0
  C  C99  1  0.11127834  0.14978045  0.94275742  1.0
  N  N100  1  0.03544313  0.33069323  0.34023046  1.0
  N  N101  1  0.03509046  0.19610105  0.20727052  1.0
  N  N102  1  0.01144712  0.67222143  0.70748054  1.0
  N  N103  1  0.00976930  0.80476779  0.84048596  1.0
  O  O104  1  0.10164449  0.40020581  0.58899825  1.0
  O  O105  1  0.94259152  0.49533419  0.33545108  1.0
  O  O106  1  0.84822675  0.31064873  0.40346122  1.0
  O  O107  1  0.19847603  0.57987764  0.51272987  1.0
  O  O108  1  0.85195200  0.01628173  0.95888122  1.0
  O  O109  1  0.20492787  0.11410787  0.21356367  1.0
  O  O110  1  0.95200557  0.94362744  0.13689371  1.0
  O  O111  1  0.10782584  0.18178920  0.02662189  1.0
  O  O112  1  0.94271350  0.60704976  0.45891843  1.0
  O  O113  1  0.09971189  0.50865052  0.71337954  1.0
  O  O114  1  0.19346193  0.68501447  0.63683560  1.0
  O  O115  1  0.84498345  0.41900267  0.52678663  1.0
  O  O116  1  0.18892775  0.98761368  0.08930898  1.0
  O  O117  1  0.84038903  0.89300894  0.83552034  1.0
  O  O118  1  0.09308579  0.05527887  0.90344609  1.0
  O  O119  1  0.93292214  0.81439158  0.01278704  1.0
