# generated using pymatgen
data_Al4H33C50NO20
_symmetry_space_group_name_H-M   'P 1'
_cell_length_a   6.74051831
_cell_length_b   18.08308059
_cell_length_c   20.66921438
_cell_angle_alpha   72.45335530
_cell_angle_beta   86.54709372
_cell_angle_gamma   86.44370376
_symmetry_Int_Tables_number   1
_chemical_formula_structural   Al4H33C50NO20
_chemical_formula_sum   'Al4 H33 C50 N1 O20'
_cell_volume   2395.22619603
_cell_formula_units_Z   1
loop_
 _symmetry_equiv_pos_site_id
 _symmetry_equiv_pos_as_xyz
  1  'x, y, z'
loop_
 _atom_site_type_symbol
 _atom_site_label
 _atom_site_symmetry_multiplicity
 _atom_site_fract_x
 _atom_site_fract_y
 _atom_site_fract_z
 _atom_site_occupancy
  Al  Al0  1  0.09691143  0.50021650  0.50194445  1.0
  Al  Al1  1  0.59668593  0.50086907  0.50043737  1.0
  Al  Al2  1  0.64746905  0.99914469  0.99794353  1.0
  Al  Al3  1  0.14775284  0.99879229  0.99949427  1.0
  H  H4  1  0.63457699  0.14639188  0.27877739  1.0
  H  H5  1  0.69866177  0.30874904  0.23619427  1.0
  H  H6  1  0.98373204  0.36613424  0.17238180  1.0
  H  H7  1  0.96636576  0.36921700  0.25802496  1.0
  H  H8  1  0.13463478  0.42844523  0.19838589  1.0
  H  H9  1  0.46098261  0.40405921  0.10833437  1.0
  H  H10  1  0.57813741  0.32183986  0.08899358  1.0
  H  H11  1  0.31809520  0.34093262  0.08013894  1.0
  H  H12  1  0.62803979  0.90229848  0.63584653  1.0
  H  H13  1  0.76226733  0.84822063  0.58680031  1.0
  H  H14  1  0.52826569  0.81768421  0.62707401  1.0
  H  H15  1  0.37100367  0.71268320  0.71730697  1.0
  H  H16  1  0.24532223  0.63010630  0.71415640  1.0
  H  H17  1  0.24517124  0.71482872  0.64367981  1.0
  H  H18  1  0.11635576  0.59943281  0.86315694  1.0
  H  H19  1  0.22558462  0.68481484  0.86759386  1.0
  H  H20  1  0.99512922  0.65684368  0.91153425  1.0
  H  H21  1  0.61221633  0.62183330  0.87663156  1.0
  H  H22  1  0.51003724  0.61713923  0.80068998  1.0
  H  H23  1  0.73774769  0.56605142  0.82763156  1.0
  H  H24  1  0.37519285  0.79528319  0.77520780  1.0
  H  H25  1  0.49160858  0.78950368  0.85174125  1.0
  H  H26  1  0.50740394  0.87427240  0.78131403  1.0
  H  H27  1  0.29509209  0.09652820  0.39121903  1.0
  H  H28  1  0.43702624  0.16092767  0.41783312  1.0
  H  H29  1  0.17623926  0.17848265  0.41057381  1.0
  H  H30  1  0.90381833  0.19378460  0.30371711  1.0
  H  H31  1  0.92603417  0.19441659  0.21721994  1.0
  H  H32  1  0.02950180  0.11495341  0.28116059  1.0
  H  H33  1  0.33242524  0.60235998  0.48466310  1.0
  H  H34  1  0.86348196  0.40524653  0.49790595  1.0
  H  H35  1  0.41220860  0.89838948  0.00872113  1.0
  H  H36  1  0.88061463  0.09459040  0.00103182  1.0
  C  C37  1  0.37338016  0.42260015  0.42424905  1.0
  C  C38  1  0.34583360  0.39512934  0.60532931  1.0
  C  C39  1  0.81747282  0.57837375  0.57776938  1.0
  C  C40  1  0.85060986  0.60741787  0.39692525  1.0
  C  C41  1  0.85554391  0.66872621  0.33320729  1.0
  C  C42  1  0.86622610  0.72123984  0.27969895  1.0
  C  C43  1  0.87757923  0.77916008  0.22061503  1.0
  C  C44  1  0.88828943  0.83160428  0.16706135  1.0
  C  C45  1  0.77048912  0.79518311  0.69432939  1.0
  C  C46  1  0.98351160  0.81207571  0.71330827  1.0
  C  C47  1  0.93912960  0.87699081  0.87438371  1.0
  C  C48  1  0.80633060  0.62313374  0.62496390  1.0
  C  C49  1  0.69476973  0.77764247  0.77080311  1.0
  C  C50  1  0.90675094  0.79494933  0.79042139  1.0
  C  C51  1  0.76270369  0.68927697  0.78507876  1.0
  C  C52  1  0.83882042  0.70647412  0.70799756  1.0
  C  C53  1  0.97493320  0.70630481  0.80356368  1.0
  C  C54  1  0.05092412  0.72354071  0.72721580  1.0
  C  C55  1  0.93417471  0.83977959  0.83423936  1.0
  C  C56  1  0.81255830  0.66163923  0.66405269  1.0
  C  C57  1  0.52040209  0.19330383  0.26585752  1.0
  C  C58  1  0.34447833  0.20542620  0.31495006  1.0
  C  C59  1  0.38261255  0.37917173  0.37621214  1.0
  C  C60  1  0.36269399  0.12152016  0.12248844  1.0
  C  C61  1  0.55507359  0.28211974  0.24190165  1.0
  C  C62  1  0.37970366  0.29640552  0.29119451  1.0
  C  C63  1  0.40682359  0.29506781  0.18372340  1.0
  C  C64  1  0.37169805  0.20423426  0.20729210  1.0
  C  C65  1  0.22801679  0.30745423  0.23255115  1.0
  C  C66  1  0.19492501  0.21770339  0.25686998  1.0
  C  C67  1  0.38222261  0.34161329  0.33609931  1.0
  C  C68  1  0.36783812  0.15908168  0.16243036  1.0
  C  C69  1  0.35180771  0.33312908  0.66846425  1.0
  C  C70  1  0.36636075  0.27957635  0.72103111  1.0
  C  C71  1  0.38094925  0.22040672  0.77904088  1.0
  C  C72  1  0.39396088  0.16674677  0.83159973  1.0
  C  C73  1  0.39931336  0.10453302  0.89458054  1.0
  C  C74  1  0.37075603  0.07734147  0.07510156  1.0
  C  C75  1  0.89317982  0.89267762  0.10319750  1.0
  C  C76  1  0.92764698  0.92116883  0.92207242  1.0
  C  C77  1  0.09759218  0.87577505  0.67572861  1.0
  C  C78  1  0.06981670  0.37103550  0.21439293  1.0
  C  C79  1  0.44258427  0.34298269  0.11153419  1.0
  C  C80  1  0.66682874  0.84348328  0.63283237  1.0
  C  C81  1  0.23849284  0.69389498  0.69949335  1.0
  C  C82  1  0.08396321  0.65931492  0.86455282  1.0
  C  C83  1  0.64930755  0.62013237  0.82450652  1.0
  C  C84  1  0.50735624  0.81057277  0.79599403  1.0
  C  C85  1  0.31122858  0.15789954  0.38734795  1.0
  C  C86  1  0.00322521  0.17844757  0.26519124  1.0
  N  N87  1  0.19268604  0.92749905  0.64406736  1.0
  O  O88  1  0.51458910  0.41813415  0.57841956  1.0
  O  O89  1  0.19918706  0.43778674  0.44627740  1.0
  O  O90  1  0.01917504  0.58288422  0.42161808  1.0
  O  O91  1  0.17514681  0.41967466  0.58261547  1.0
  O  O92  1  0.99279202  0.56177224  0.55794788  1.0
  O  O93  1  0.53776580  0.44126114  0.44127371  1.0
  O  O94  1  0.34033016  0.54647182  0.49421892  1.0
  O  O95  1  0.65462003  0.56043226  0.55949409  1.0
  O  O96  1  0.67941856  0.58510751  0.42197572  1.0
  O  O97  1  0.85311441  0.45506996  0.50674759  1.0
  O  O98  1  0.20621776  0.05810631  0.05873943  1.0
  O  O99  1  0.57013341  0.07943918  0.91695536  1.0
  O  O100  1  0.75230361  0.93684920  0.94252245  1.0
  O  O101  1  0.54459569  0.06210876  0.05283913  1.0
  O  O102  1  0.72449496  0.91728850  0.07865236  1.0
  O  O103  1  0.23037924  0.08208255  0.92176845  1.0
  O  O104  1  0.40394044  0.95300473  0.00554350  1.0
  O  O105  1  0.06432189  0.91461410  0.07782234  1.0
  O  O106  1  0.09038645  0.93941215  0.94013558  1.0
  O  O107  1  0.89127341  0.04444403  0.99282548  1.0
