# generated using pymatgen
data_MnH14C20S2(NO)4
_symmetry_space_group_name_H-M   'P 1'
_cell_length_a   8.89350362
_cell_length_b   16.68775193
_cell_length_c   19.23869383
_cell_angle_alpha   90.00024520
_cell_angle_beta   90.00023493
_cell_angle_gamma   76.33002997
_symmetry_Int_Tables_number   1
_chemical_formula_structural   MnH14C20S2(NO)4
_chemical_formula_sum   'Mn4 H56 C80 S8 N16 O16'
_cell_volume   2774.38349820
_cell_formula_units_Z   4
loop_
 _symmetry_equiv_pos_site_id
 _symmetry_equiv_pos_as_xyz
  1  'x, y, z'
loop_
 _atom_site_type_symbol
 _atom_site_label
 _atom_site_symmetry_multiplicity
 _atom_site_fract_x
 _atom_site_fract_y
 _atom_site_fract_z
 _atom_site_occupancy
  Mn  Mn0  1  0.18302739  0.97965401  0.43813288  1.0
  Mn  Mn1  1  0.81697060  0.52034941  0.93811511  1.0
  Mn  Mn2  1  0.81698185  0.02034808  0.56188540  1.0
  Mn  Mn3  1  0.18302982  0.47963863  0.06189122  1.0
  H  H4  1  0.80511341  0.34058816  0.89383680  1.0
  H  H5  1  0.19488777  0.15940921  0.39383677  1.0
  H  H6  1  0.19488745  0.65940970  0.10616277  1.0
  H  H7  1  0.80510829  0.84059485  0.60616281  1.0
  H  H8  1  0.89451470  0.24195910  0.79623600  1.0
  H  H9  1  0.10549445  0.25803596  0.29623409  1.0
  H  H10  1  0.10549093  0.75803811  0.20376461  1.0
  H  H11  1  0.89450139  0.74196318  0.70376185  1.0
  H  H12  1  0.17150545  0.40571447  0.72423749  1.0
  H  H13  1  0.82850330  0.09428275  0.22423529  1.0
  H  H14  1  0.82850492  0.59428761  0.27576572  1.0
  H  H15  1  0.17149734  0.90571020  0.77576844  1.0
  H  H16  1  0.06937521  0.49775679  0.82579904  1.0
  H  H17  1  0.93062308  0.00224341  0.32579564  1.0
  H  H18  1  0.93062048  0.50224543  0.17420469  1.0
  H  H19  1  0.06938393  0.99775318  0.67420861  1.0
  H  H20  1  0.42608857  0.15566779  0.53320091  1.0
  H  H21  1  0.57391114  0.34433366  0.03320176  1.0
  H  H22  1  0.57391037  0.84433746  0.46679866  1.0
  H  H23  1  0.42607745  0.65566125  0.96679989  1.0
  H  H24  1  0.46024406  0.24520802  0.57627420  1.0
  H  H25  1  0.53975898  0.25479173  0.07627257  1.0
  H  H26  1  0.53976103  0.75479595  0.42372121  1.0
  H  H27  1  0.46023326  0.74520253  0.92372492  1.0
  H  H28  1  0.33111426  0.25531530  0.50451143  1.0
  H  H29  1  0.66887811  0.24468426  0.00450793  1.0
  H  H30  1  0.66888832  0.74468931  0.49548762  1.0
  H  H31  1  0.33110360  0.75530825  0.99548956  1.0
  H  H32  1  0.57939784  0.54203601  0.06620594  1.0
  H  H33  1  0.42060439  0.95796833  0.56620621  1.0
  H  H34  1  0.42060186  0.45796740  0.93379727  1.0
  H  H35  1  0.57940787  0.04203190  0.43379544  1.0
  H  H36  1  0.48645165  0.64100314  0.16063656  1.0
  H  H37  1  0.51354750  0.85899976  0.66063560  1.0
  H  H38  1  0.51354831  0.35899965  0.83936665  1.0
  H  H39  1  0.48645286  0.14099934  0.33936605  1.0
  H  H40  1  0.77362746  0.79417710  0.07728531  1.0
  H  H41  1  0.22637335  0.70582545  0.57728687  1.0
  H  H42  1  0.22637890  0.20582379  0.92271114  1.0
  H  H43  1  0.77361932  0.29417864  0.42270699  1.0
  H  H44  1  0.85290254  0.68840463  0.98348444  1.0
  H  H45  1  0.14708664  0.81159659  0.48348592  1.0
  H  H46  1  0.14708817  0.31159333  0.01651253  1.0
  H  H47  1  0.85291892  0.18841168  0.51651105  1.0
  H  H48  1  0.57203439  0.03026296  0.24041586  1.0
  H  H49  1  0.42795652  0.46973696  0.74041203  1.0
  H  H50  1  0.42796268  0.96973863  0.75958423  1.0
  H  H51  1  0.57204787  0.53025781  0.25958702  1.0
  H  H52  1  0.76296119  0.96640980  0.23339185  1.0
  H  H53  1  0.23703196  0.53359283  0.73338759  1.0
  H  H54  1  0.23703888  0.03359544  0.76661032  1.0
  H  H55  1  0.76296868  0.46640013  0.26661355  1.0
  H  H56  1  0.66299839  0.98081604  0.31560527  1.0
  H  H57  1  0.33699097  0.51918389  0.81560217  1.0
  H  H58  1  0.33699607  0.01918373  0.68439534  1.0
  H  H59  1  0.66301364  0.48081579  0.18439740  1.0
  C  C60  1  0.88543411  0.35272289  0.85462166  1.0
  C  C61  1  0.11456679  0.14727432  0.35462039  1.0
  C  C62  1  0.11456762  0.64727558  0.14538051  1.0
  C  C63  1  0.88543229  0.85272786  0.64537970  1.0
  C  C64  1  0.93558809  0.29843362  0.80015169  1.0
  C  C65  1  0.06440915  0.20156587  0.30015105  1.0
  C  C66  1  0.06441539  0.70156607  0.19985048  1.0
  C  C67  1  0.93558254  0.79843515  0.69984800  1.0
  C  C68  1  0.04028726  0.31678426  0.75138926  1.0
  C  C69  1  0.95971917  0.18321371  0.25138659  1.0
  C  C70  1  0.95971659  0.68321726  0.24861396  1.0
  C  C71  1  0.04027830  0.81678419  0.74861454  1.0
  C  C72  1  0.08978923  0.38989974  0.76083863  1.0
  C  C73  1  0.91021009  0.11010202  0.26083612  1.0
  C  C74  1  0.91021524  0.61010301  0.23916510  1.0
  C  C75  1  0.08978851  0.88989587  0.73916606  1.0
  C  C76  1  0.03360865  0.44059095  0.81671408  1.0
  C  C77  1  0.96638343  0.05941049  0.31671045  1.0
  C  C78  1  0.96639396  0.55940813  0.18329277  1.0
  C  C79  1  0.03360888  0.94059175  0.68329484  1.0
  C  C80  1  0.09806216  0.26383204  0.69225214  1.0
  C  C81  1  0.90194888  0.23616442  0.19224593  1.0
  C  C82  1  0.90194646  0.73616883  0.30775003  1.0
  C  C83  1  0.09804711  0.76383164  0.80775052  1.0
  C  C84  1  0.14620949  0.16345339  0.59882258  1.0
  C  C85  1  0.85379585  0.33654398  0.09881717  1.0
  C  C86  1  0.85380073  0.83655176  0.40117596  1.0
  C  C87  1  0.14619263  0.66344847  0.90117876  1.0
  C  C88  1  0.24422054  0.21775170  0.60016590  1.0
  C  C89  1  0.75578645  0.28224443  0.10016166  1.0
  C  C90  1  0.75578917  0.78225468  0.39983315  1.0
  C  C91  1  0.24419890  0.71774744  0.89983687  1.0
  C  C92  1  0.13823769  0.09568359  0.55063986  1.0
  C  C93  1  0.86175136  0.40431681  0.05063524  1.0
  C  C94  1  0.86178022  0.90431658  0.44936543  1.0
  C  C95  1  0.13821600  0.59568321  0.94936849  1.0
  C  C96  1  0.37341115  0.21819512  0.55093867  1.0
  C  C97  1  0.62658970  0.28180393  0.05093731  1.0
  C  C98  1  0.62659179  0.78181132  0.44905935  1.0
  C  C99  1  0.37340217  0.71818849  0.94906175  1.0
  C  C100  1  0.62073706  0.59841965  0.06993139  1.0
  C  C101  1  0.37927954  0.90157719  0.56993345  1.0
  C  C102  1  0.37926755  0.40158002  0.93006767  1.0
  C  C103  1  0.62074052  0.09842050  0.43006508  1.0
  C  C104  1  0.56816003  0.65480913  0.12285915  1.0
  C  C105  1  0.43183688  0.84518750  0.62286266  1.0
  C  C106  1  0.43184135  0.34518751  0.87714146  1.0
  C  C107  1  0.56815907  0.15481410  0.37713951  1.0
  C  C108  1  0.62391572  0.72664540  0.12727180  1.0
  C  C109  1  0.37608687  0.77335119  0.62727026  1.0
  C  C110  1  0.37608438  0.27335432  0.87272725  1.0
  C  C111  1  0.62390959  0.22664917  0.37272464  1.0
  C  C112  1  0.72865895  0.73893460  0.07586043  1.0
  C  C113  1  0.27133897  0.76106674  0.57585968  1.0
  C  C114  1  0.27134592  0.26106446  0.92413914  1.0
  C  C115  1  0.72865734  0.23893669  0.42413365  1.0
  C  C116  1  0.77337547  0.68007866  0.02445251  1.0
  C  C117  1  0.22662522  0.81992306  0.52445137  1.0
  C  C118  1  0.22661848  0.31992234  0.97554551  1.0
  C  C119  1  0.77338085  0.18008398  0.47554404  1.0
  C  C120  1  0.57993558  0.78823451  0.18203599  1.0
  C  C121  1  0.42007289  0.71176532  0.68203534  1.0
  C  C122  1  0.42007278  0.21176698  0.81796306  1.0
  C  C123  1  0.57992684  0.28823256  0.31795904  1.0
  C  C124  1  0.47143940  0.87549680  0.27979996  1.0
  C  C125  1  0.52856278  0.62449857  0.77979763  1.0
  C  C126  1  0.52856270  0.12450351  0.72019857  1.0
  C  C127  1  0.47144023  0.37549682  0.22019883  1.0
  C  C128  1  0.58884052  0.89991764  0.24375090  1.0
  C  C129  1  0.41115484  0.60008256  0.74374669  1.0
  C  C130  1  0.41115743  0.10008456  0.75625128  1.0
  C  C131  1  0.58884438  0.39991655  0.25625029  1.0
  C  C132  1  0.37933966  0.91428945  0.33998595  1.0
  C  C133  1  0.62066218  0.58570800  0.83998364  1.0
  C  C134  1  0.62065782  0.08570844  0.66001570  1.0
  C  C135  1  0.37934880  0.41429530  0.16001593  1.0
  C  C136  1  0.65104315  0.97344750  0.25946838  1.0
  C  C137  1  0.34894869  0.52655341  0.75946481  1.0
  C  C138  1  0.34895680  0.02655529  0.74053224  1.0
  C  C139  1  0.65105494  0.47344320  0.24053372  1.0
  S  S140  1  0.01589743  0.18477925  0.66656202  1.0
  S  S141  1  0.98410916  0.31521653  0.16655678  1.0
  S  S142  1  0.98411683  0.81522157  0.33343859  1.0
  S  S143  1  0.01588067  0.68478082  0.83343967  1.0
  S  S144  1  0.43719104  0.78737895  0.24310133  1.0
  S  S145  1  0.56281364  0.71261502  0.74309991  1.0
  S  S146  1  0.56281510  0.21261703  0.75689824  1.0
  S  S147  1  0.43718296  0.28738227  0.25689499  1.0
  N  N148  1  0.93308390  0.42302685  0.86340778  1.0
  N  N149  1  0.06691230  0.07697105  0.36340407  1.0
  N  N150  1  0.06691194  0.57697229  0.13659595  1.0
  N  N151  1  0.93308678  0.92303113  0.63659810  1.0
  N  N152  1  0.21409888  0.27428832  0.65265603  1.0
  N  N153  1  0.78590886  0.22570985  0.15265268  1.0
  N  N154  1  0.78590647  0.72571503  0.34734511  1.0
  N  N155  1  0.21408979  0.77428250  0.84734534  1.0
  N  N156  1  0.72305438  0.61002623  0.02149890  1.0
  N  N157  1  0.27694828  0.88997607  0.52150385  1.0
  N  N158  1  0.27694408  0.38997473  0.97849963  1.0
  N  N159  1  0.72306168  0.11002970  0.47849677  1.0
  N  N160  1  0.64788550  0.85043462  0.18905536  1.0
  N  N161  1  0.35211334  0.64956962  0.68905434  1.0
  N  N162  1  0.35212097  0.14956872  0.81094629  1.0
  N  N163  1  0.64788476  0.35042950  0.31094211  1.0
  O  O164  1  0.03456027  0.05572813  0.56215294  1.0
  O  O165  1  0.96544331  0.44426726  0.06214191  1.0
  O  O166  1  0.96546280  0.94426769  0.43785391  1.0
  O  O167  1  0.03453119  0.55573453  0.93785610  1.0
  O  O168  1  0.23410275  0.07946179  0.50031945  1.0
  O  O169  1  0.76586923  0.42054346  0.00032303  1.0
  O  O170  1  0.76589520  0.92054040  0.49967752  1.0
  O  O171  1  0.23410123  0.57946267  0.99968018  1.0
  O  O172  1  0.26756201  0.88320141  0.35979690  1.0
  O  O173  1  0.73244336  0.61679610  0.85979336  1.0
  O  O174  1  0.73242629  0.11679965  0.64019591  1.0
  O  O175  1  0.26756180  0.38321586  0.14019893  1.0
  O  O176  1  0.41004558  0.97660251  0.36980621  1.0
  O  O177  1  0.58995837  0.52339321  0.86980257  1.0
  O  O178  1  0.58996384  0.02339098  0.63019804  1.0
  O  O179  1  0.41005137  0.47660765  0.13019545  1.0
