# generated using pymatgen
data_Al4H28C37O22
_symmetry_space_group_name_H-M   'P 1'
_cell_length_a   6.66683195
_cell_length_b   16.57294193
_cell_length_c   18.53510176
_cell_angle_alpha   73.16431775
_cell_angle_beta   89.44195174
_cell_angle_gamma   89.57884393
_symmetry_Int_Tables_number   1
_chemical_formula_structural   Al4H28C37O22
_chemical_formula_sum   'Al4 H28 C37 O22'
_cell_volume   1960.03479681
_cell_formula_units_Z   1
loop_
 _symmetry_equiv_pos_site_id
 _symmetry_equiv_pos_as_xyz
  1  'x, y, z'
loop_
 _atom_site_type_symbol
 _atom_site_label
 _atom_site_symmetry_multiplicity
 _atom_site_fract_x
 _atom_site_fract_y
 _atom_site_fract_z
 _atom_site_occupancy
  Al  Al0  1  0.86745687  0.49939229  0.50166963  1.0
  Al  Al1  1  0.36752045  0.50159759  0.49867553  1.0
  Al  Al2  1  0.36237522  0.99953946  0.00029206  1.0
  Al  Al3  1  0.86248860  0.00156809  0.99798181  1.0
  H  H4  1  0.37347307  0.86388572  0.22644693  1.0
  H  H5  1  0.23838294  0.77067747  0.37063179  1.0
  H  H6  1  0.41337530  0.73183217  0.31663585  1.0
  H  H7  1  0.36720140  0.74599719  0.16612358  1.0
  H  H8  1  0.80927108  0.76591744  0.17858274  1.0
  H  H9  1  0.80962652  0.84976321  0.21907994  1.0
  H  H10  1  0.86346758  0.75873139  0.34082694  1.0
  H  H11  1  0.78593067  0.67879177  0.30152807  1.0
  H  H12  1  0.14605509  0.72575647  0.12177643  1.0
  H  H13  1  0.03027534  0.62385311  0.23017927  1.0
  H  H14  1  0.30786344  0.34320519  0.71796248  1.0
  H  H15  1  0.31850371  0.26795615  0.66802767  1.0
  H  H16  1  0.31558065  0.23683477  0.83262879  1.0
  H  H17  1  0.63345286  0.39393780  0.76208544  1.0
  H  H18  1  0.65364607  0.28222061  0.87208658  1.0
  H  H19  1  0.87925848  0.25615560  0.65999116  1.0
  H  H20  1  0.65679116  0.22050103  0.62823390  1.0
  H  H21  1  0.63316594  0.10895532  0.73823676  1.0
  H  H22  1  0.86553210  0.13924969  0.76721712  1.0
  H  H23  1  0.86651900  0.36226688  0.73275434  1.0
  H  H24  1  0.30665864  0.16165703  0.78265754  1.0
  H  H25  1  0.14762386  0.88568934  0.26846892  1.0
  H  H26  1  0.87653347  0.24516231  0.83985980  1.0
  H  H27  1  0.38681026  0.47770981  0.28538567  1.0
  H  H28  1  0.62091515  0.60642799  0.45181581  1.0
  H  H29  1  0.12188433  0.38915307  0.52423476  1.0
  H  H30  1  0.61686281  0.89237582  0.04135217  1.0
  H  H31  1  0.11410595  0.11161658  0.97064636  1.0
  C  C32  1  0.61583510  0.38616931  0.61562458  1.0
  C  C33  1  0.62203718  0.41349452  0.41434800  1.0
  C  C34  1  0.11284534  0.61542065  0.38404687  1.0
  C  C35  1  0.11620071  0.58663666  0.58557632  1.0
  C  C36  1  0.11470998  0.63598363  0.63808587  1.0
  C  C37  1  0.11430348  0.67999051  0.68110643  1.0
  C  C38  1  0.11461613  0.72842504  0.72784806  1.0
  C  C39  1  0.11547795  0.77317008  0.77069287  1.0
  C  C40  1  0.11661569  0.82159566  0.81744118  1.0
  C  C41  1  0.11753379  0.86561929  0.86043186  1.0
  C  C42  1  0.22882059  0.83698463  0.25004471  1.0
  C  C43  1  0.26031059  0.75659096  0.31666421  1.0
  C  C44  1  0.20462475  0.73612728  0.17361278  1.0
  C  C45  1  0.89094316  0.79234088  0.21773866  1.0
  C  C46  1  0.10580323  0.81473055  0.18825787  1.0
  C  C47  1  0.10890425  0.68833355  0.31163688  1.0
  C  C48  1  0.16251607  0.65765201  0.24100578  1.0
  C  C49  1  0.89809539  0.72810116  0.29678674  1.0
  C  C50  1  0.39234046  0.28797615  0.71273638  1.0
  C  C51  1  0.39099019  0.21637551  0.78782926  1.0
  C  C52  1  0.71464749  0.34029406  0.75179165  1.0
  C  C53  1  0.72340664  0.23756835  0.67585836  1.0
  C  C54  1  0.60896144  0.31414360  0.68822862  1.0
  C  C55  1  0.60676157  0.18897114  0.81214150  1.0
  C  C56  1  0.72125757  0.26476158  0.82430660  1.0
  C  C57  1  0.71427196  0.16210967  0.74841756  1.0
  C  C58  1  0.62521223  0.36703332  0.35939915  1.0
  C  C59  1  0.62122127  0.32465232  0.31500828  1.0
  C  C60  1  0.61745649  0.27706320  0.26759075  1.0
  C  C61  1  0.61355937  0.23199968  0.22505453  1.0
  C  C62  1  0.61080066  0.18288773  0.17895058  1.0
  C  C63  1  0.60915167  0.13797533  0.13675898  1.0
  C  C64  1  0.60966934  0.08752130  0.08503299  1.0
  C  C65  1  0.61088552  0.11647074  0.88443657  1.0
  C  C66  1  0.11522258  0.91505273  0.91291051  1.0
  C  C67  1  0.11046060  0.88593287  0.11514757  1.0
  C  C68  1  0.33735114  0.59617153  0.25412658  1.0
  O  O69  1  0.44839185  0.43539461  0.43126952  1.0
  O  O70  1  0.78794891  0.41467345  0.59064575  1.0
  O  O71  1  0.94570313  0.56919767  0.56389015  1.0
  O  O72  1  0.79036994  0.42686204  0.44009258  1.0
  O  O73  1  0.94577694  0.58523597  0.41247460  1.0
  O  O74  1  0.45041025  0.41249884  0.58350820  1.0
  O  O75  1  0.61748017  0.55148911  0.48901757  1.0
  O  O76  1  0.28412532  0.59060470  0.41236615  1.0
  O  O77  1  0.28814057  0.56677335  0.56550980  1.0
  O  O78  1  0.11908449  0.45014853  0.50826786  1.0
  O  O79  1  0.78215806  0.09015207  0.91171254  1.0
  O  O80  1  0.43858284  0.06832414  0.06531401  1.0
  O  O81  1  0.28230978  0.91247097  0.08803072  1.0
  O  O82  1  0.44366240  0.08729933  0.91382621  1.0
  O  O83  1  0.28513486  0.93183782  0.93556425  1.0
  O  O84  1  0.78170099  0.06892067  0.06401625  1.0
  O  O85  1  0.61377378  0.94989083  0.00880068  1.0
  O  O86  1  0.94271594  0.93568181  0.93179200  1.0
  O  O87  1  0.94366284  0.91291236  0.08443245  1.0
  O  O88  1  0.11247908  0.05087038  0.99124511  1.0
  O  O89  1  0.51525925  0.61471820  0.24952458  1.0
  O  O90  1  0.27060756  0.51570033  0.27171285  1.0
