# generated using pymatgen
data_ZnH9C16BrNO5
_symmetry_space_group_name_H-M   'P 1'
_cell_length_a   9.71448103
_cell_length_b   11.04388546
_cell_length_c   17.71138211
_cell_angle_alpha   89.21743737
_cell_angle_beta   89.02544217
_cell_angle_gamma   88.11649536
_symmetry_Int_Tables_number   1
_chemical_formula_structural   ZnH9C16BrNO5
_chemical_formula_sum   'Zn2 H18 C32 Br2 N2 O10'
_cell_volume   1898.71205494
_cell_formula_units_Z   2
loop_
 _symmetry_equiv_pos_site_id
 _symmetry_equiv_pos_as_xyz
  1  'x, y, z'
loop_
 _atom_site_type_symbol
 _atom_site_label
 _atom_site_symmetry_multiplicity
 _atom_site_fract_x
 _atom_site_fract_y
 _atom_site_fract_z
 _atom_site_occupancy
  Zn  Zn0  1  0.36620902  0.50301623  0.50017320  1.0
  Zn  Zn1  1  0.64718220  0.49542646  0.49676355  1.0
  H  H2  1  0.71945279  0.09988236  0.47967484  1.0
  H  H3  1  0.18377467  0.14285851  0.55121759  1.0
  H  H4  1  0.17262313  0.12029985  0.45186847  1.0
  H  H5  1  0.18171270  0.91935114  0.57393084  1.0
  H  H6  1  0.16118935  0.89523374  0.47485967  1.0
  H  H7  1  0.89180944  0.37945517  0.40575835  1.0
  H  H8  1  0.15164636  0.37791297  0.41415087  1.0
  H  H9  1  0.11374164  0.74544572  0.59139903  1.0
  H  H10  1  0.85239823  0.62380507  0.65559158  1.0
  H  H11  1  0.30890352  0.43019824  0.26964262  1.0
  H  H12  1  0.85179102  0.74377830  0.58658320  1.0
  H  H13  1  0.70480217  0.54876555  0.10705358  1.0
  H  H14  1  0.31099871  0.37723706  0.73079955  1.0
  H  H15  1  0.73537163  0.47211250  0.73918993  1.0
  H  H16  1  0.72600386  0.45684214  0.88023964  1.0
  H  H17  1  0.71224765  0.87556518  0.49079864  1.0
  H  H18  1  0.30220906  0.36193115  0.07424664  1.0
  H  H19  1  0.20841802  0.33398393  0.84545070  1.0
  C  C20  1  0.49320323  0.73482620  0.51136202  1.0
  C  C21  1  0.50911280  0.46135733  0.11063317  1.0
  C  C22  1  0.50878264  0.43538845  0.03296100  1.0
  C  C23  1  0.50625048  0.41588792  0.96517822  1.0
  C  C24  1  0.39653614  0.38204376  0.84268418  1.0
  C  C25  1  0.40182892  0.39311526  0.76423701  1.0
  C  C26  1  0.52241109  0.42886911  0.72705295  1.0
  C  C27  1  0.64107495  0.44763233  0.76884357  1.0
  C  C28  1  0.63582998  0.43861163  0.84692972  1.0
  C  C29  1  0.51280990  0.40937964  0.88576458  1.0
  C  C30  1  0.37325538  0.94353159  0.50719538  1.0
  C  C31  1  0.52267497  0.45384694  0.64377105  1.0
  C  C32  1  0.49249581  0.86975086  0.50528377  1.0
  C  C33  1  0.61714018  0.93041900  0.49411374  1.0
  C  C34  1  0.62114598  0.05598275  0.48680167  1.0
  C  C35  1  0.49984520  0.12965745  0.48819431  1.0
  C  C36  1  0.37703816  0.06924858  0.49761314  1.0
  C  C37  1  0.22201584  0.08716801  0.50390237  1.0
  C  C38  1  0.21759707  0.94540488  0.51693335  1.0
  C  C39  1  0.92608936  0.56622871  0.54284548  1.0
  C  C40  1  0.94267561  0.43357693  0.44737679  1.0
  C  C41  1  0.08644948  0.43310220  0.45172097  1.0
  C  C42  1  0.50440765  0.26426756  0.48351659  1.0
  C  C43  1  0.06905166  0.56558659  0.54704728  1.0
  C  C44  1  0.06609392  0.66042613  0.60782181  1.0
  C  C45  1  0.90320755  0.65829493  0.60429564  1.0
  C  C46  1  0.50549168  0.52054737  0.35123628  1.0
  C  C47  1  0.39548399  0.42936628  0.15716720  1.0
  C  C48  1  0.39592753  0.45525644  0.23389317  1.0
  C  C49  1  0.50752544  0.51070517  0.26672948  1.0
  C  C50  1  0.61875437  0.54499171  0.21980905  1.0
  C  C51  1  0.61914472  0.52120459  0.14307494  1.0
  Br  Br52  1  0.14420119  0.61393325  0.70520428  1.0
  Br  Br53  1  0.77112213  0.63180999  0.25545168  1.0
  N  N54  1  0.85934144  0.50114483  0.49363997  1.0
  N  N55  1  0.15288575  0.50035263  0.50236329  1.0
  O  O56  1  0.37747030  0.68457986  0.52158316  1.0
  O  O57  1  0.60967373  0.67923359  0.50459591  1.0
  O  O58  1  0.40799246  0.44939258  0.61011781  1.0
  O  O59  1  0.63743788  0.48033649  0.61273447  1.0
  O  O60  1  0.38988644  0.32190141  0.47347822  1.0
  O  O61  1  0.62104214  0.31148088  0.49182244  1.0
  O  O62  1  0.38961547  0.53922533  0.38448223  1.0
  O  O63  1  0.62078293  0.50347955  0.38324863  1.0
  O  O64  1  0.28570128  0.37310037  0.12855668  1.0
  O  O65  1  0.28031092  0.34898110  0.88153332  1.0
