# generated using pymatgen
data_Zn4H11C28S2Br3O13
_symmetry_space_group_name_H-M   'P 1'
_cell_length_a   18.56005211
_cell_length_b   19.70048969
_cell_length_c   32.78302446
_cell_angle_alpha   86.05544725
_cell_angle_beta   73.62112499
_cell_angle_gamma   62.00406704
_symmetry_Int_Tables_number   1
_chemical_formula_structural   Zn4H11C28S2Br3O13
_chemical_formula_sum   'Zn16 H44 C112 S8 Br12 O52'
_cell_volume   10126.00060723
_cell_formula_units_Z   4
loop_
 _symmetry_equiv_pos_site_id
 _symmetry_equiv_pos_as_xyz
  1  'x, y, z'
loop_
 _atom_site_type_symbol
 _atom_site_label
 _atom_site_symmetry_multiplicity
 _atom_site_fract_x
 _atom_site_fract_y
 _atom_site_fract_z
 _atom_site_occupancy
  Zn  Zn0  1  0.87280806  0.55391195  0.51843237  1.0
  Zn  Zn1  1  0.03785177  0.48524845  0.43893605  1.0
  Zn  Zn2  1  0.04348309  0.39837084  0.52397427  1.0
  Zn  Zn3  1  0.04543656  0.56163551  0.51785315  1.0
  Zn  Zn4  1  0.62576293  0.19103539  0.73275201  1.0
  Zn  Zn5  1  0.46448887  0.34937992  0.72501935  1.0
  Zn  Zn6  1  0.45642432  0.26549229  0.81266772  1.0
  Zn  Zn7  1  0.45365585  0.19271283  0.72897104  1.0
  Zn  Zn8  1  0.46220520  0.76426303  0.31284444  1.0
  Zn  Zn9  1  0.45268813  0.69207857  0.23208528  1.0
  Zn  Zn10  1  0.62582499  0.69389016  0.22934674  1.0
  Zn  Zn11  1  0.45701980  0.85118306  0.22582529  1.0
  Zn  Zn12  1  0.03705251  0.89934207  0.02434099  1.0
  Zn  Zn13  1  0.04947545  0.05751263  0.01892487  1.0
  Zn  Zn14  1  0.87592748  0.05797773  0.01945631  1.0
  Zn  Zn15  1  0.03735298  0.98595897  0.93740105  1.0
  H  H16  1  0.80463797  0.96447413  0.65517443  1.0
  H  H17  1  0.31265806  0.97538443  0.40139533  1.0
  H  H18  1  0.81203160  0.24167062  0.65370607  1.0
  H  H19  1  0.54528397  0.48450078  0.62035018  1.0
  H  H20  1  0.55126696  0.52461417  0.66560764  1.0
  H  H21  1  0.65160181  0.56833049  0.61716626  1.0
  H  H22  1  0.64590871  0.52792355  0.57195081  1.0
  H  H23  1  0.29376431  0.60324443  0.29617939  1.0
  H  H24  1  0.35005640  0.67313923  0.43518038  1.0
  H  H25  1  0.25960299  0.76166019  0.43260861  1.0
  H  H26  1  0.16271168  0.71164823  0.47797371  1.0
  H  H27  1  0.25292250  0.62310566  0.48054361  1.0
  H  H28  1  0.80953050  0.60197860  0.29503120  1.0
  H  H29  1  0.54809177  0.76188681  0.43052574  1.0
  H  H30  1  0.54294354  0.67357533  0.43293430  1.0
  H  H31  1  0.64321353  0.62342465  0.47903769  1.0
  H  H32  1  0.64856458  0.71161701  0.47653845  1.0
  H  H33  1  0.30847315  0.45662018  0.64593696  1.0
  H  H34  1  0.32912469  0.17916141  0.62950652  1.0
  H  H35  1  0.23850991  0.22035918  0.67488833  1.0
  H  H36  1  0.14290429  0.27340970  0.62635078  1.0
  H  H37  1  0.23365370  0.23229641  0.58109060  1.0
  H  H38  1  0.18802423  0.65950339  0.96286962  1.0
  H  H39  1  0.69004207  0.14738852  0.95551445  1.0
  H  H40  1  0.95450575  0.07849155  0.81677351  1.0
  H  H41  1  0.95009868  0.98984672  0.81906701  1.0
  H  H42  1  0.84873525  0.04005135  0.77358152  1.0
  H  H43  1  0.85310771  0.12867046  0.77135606  1.0
  H  H44  1  0.19219015  0.05233143  0.84517571  1.0
  H  H45  1  0.17093988  0.21639837  0.97555926  1.0
  H  H46  1  0.26175669  0.12790808  0.97769506  1.0
  H  H47  1  0.35709418  0.17422375  0.92685847  1.0
  H  H48  1  0.26627143  0.26255559  0.92474810  1.0
  H  H49  1  0.92701984  0.28338892  0.09435056  1.0
  H  H50  1  0.19295401  0.79418247  0.10285972  1.0
  H  H51  1  0.26119548  0.03157800  0.07471797  1.0
  H  H52  1  0.17030351  0.07203649  0.12005428  1.0
  H  H53  1  0.26562131  0.01926039  0.16853292  1.0
  H  H54  1  0.35654228  0.97883645  0.12330195  1.0
  H  H55  1  0.68980787  0.00661146  0.09615586  1.0
  H  H56  1  0.95073063  0.72314113  0.08508178  1.0
  H  H57  1  0.95457594  0.76419204  0.13069236  1.0
  H  H58  1  0.85356019  0.72064629  0.17825461  1.0
  H  H59  1  0.84959752  0.67954223  0.13274677  1.0
  C  C60  1  0.86252255  0.56779246  0.43037539  1.0
  C  C61  1  0.12411432  0.31586305  0.43883403  1.0
  C  C62  1  0.86550453  0.42718400  0.56856516  1.0
  C  C63  1  0.13904363  0.43418999  0.56818097  1.0
  C  C64  1  0.87281204  0.68382164  0.56029775  1.0
  C  C65  1  0.13761772  0.56935292  0.43079046  1.0
  C  C66  1  0.64000818  0.31691430  0.68126204  1.0
  C  C67  1  0.37685620  0.43444255  0.81045140  1.0
  C  C68  1  0.63430445  0.18196189  0.82070308  1.0
  C  C69  1  0.36101005  0.18064474  0.81744165  1.0
  C  C70  1  0.62489949  0.06544937  0.68865235  1.0
  C  C71  1  0.36318487  0.31904948  0.68025461  1.0
  C  C72  1  0.36285288  0.68142565  0.32035331  1.0
  C  C73  1  0.62288955  0.56629474  0.18879729  1.0
  C  C74  1  0.63784364  0.68175270  0.31862356  1.0
  C  C75  1  0.63480096  0.82085983  0.18020617  1.0
  C  C76  1  0.37584961  0.93374499  0.31163664  1.0
  C  C77  1  0.36084845  0.81727489  0.18121826  1.0
  C  C78  1  0.13807864  0.93151438  0.06866199  1.0
  C  C79  1  0.87943832  0.18412526  0.06129570  1.0
  C  C80  1  0.86160300  0.93126585  0.06898028  1.0
  C  C81  1  0.86185936  0.06936782  0.93116753  1.0
  C  C82  1  0.12160738  0.81571995  0.93919598  1.0
  C  C83  1  0.13814603  0.06901833  0.93107767  1.0
  C  C84  1  0.73421811  0.80357622  0.60079759  1.0
  C  C85  1  0.76113855  0.94660390  0.64912512  1.0
  C  C86  1  0.82188794  0.75845096  0.58554510  1.0
  C  C87  1  0.67362721  0.99046383  0.66374436  1.0
  C  C88  1  0.78346776  0.87831402  0.62602279  1.0
  C  C89  1  0.71207576  0.87191300  0.62380283  1.0
  C  C90  1  0.20178825  0.22727748  0.36896498  1.0
  C  C91  1  0.29952264  0.02197682  0.38022737  1.0
  C  C92  1  0.17347419  0.24204442  0.41306283  1.0
  C  C93  1  0.32692441  0.00888741  0.33628815  1.0
  C  C94  1  0.25385232  0.10175863  0.39229019  1.0
  C  C95  1  0.24768963  0.14736834  0.35707485  1.0
  C  C96  1  0.69725808  0.34470694  0.65278851  1.0
  C  C97  1  0.81181420  0.39592101  0.59739534  1.0
  C  C98  1  0.66739032  0.41668100  0.63617272  1.0
  C  C99  1  0.84166128  0.32272755  0.61474513  1.0
  C  C100  1  0.72310369  0.44061674  0.60952100  1.0
  C  C101  1  0.78612264  0.29832106  0.64133579  1.0
  C  C102  1  0.58868365  0.49079825  0.63482040  1.0
  C  C103  1  0.65155295  0.51812312  0.60455458  1.0
  C  C104  1  0.30597279  0.65309719  0.34854926  1.0
  C  C105  1  0.19431062  0.59656271  0.40117246  1.0
  C  C106  1  0.28000351  0.66430564  0.39284587  1.0
  C  C107  1  0.22102671  0.58556654  0.35587342  1.0
  C  C108  1  0.22623334  0.63680102  0.41780768  1.0
  C  C109  1  0.27498172  0.61292839  0.33072324  1.0
  C  C110  1  0.28607498  0.69865660  0.43088643  1.0
  C  C111  1  0.22530384  0.66739415  0.45930184  1.0
  C  C112  1  0.69480214  0.65287005  0.34690693  1.0
  C  C113  1  0.80894479  0.59528848  0.40036238  1.0
  C  C114  1  0.66472039  0.66408693  0.39121011  1.0
  C  C115  1  0.83910602  0.58410907  0.35506300  1.0
  C  C116  1  0.72028346  0.63611693  0.41657065  1.0
  C  C117  1  0.78360826  0.61203892  0.32953210  1.0
  C  C118  1  0.58592601  0.69887684  0.42893856  1.0
  C  C119  1  0.64870137  0.66740859  0.45779354  1.0
  C  C120  1  0.30601757  0.34826830  0.65209931  1.0
  C  C121  1  0.19595393  0.40842619  0.59660640  1.0
  C  C122  1  0.27233922  0.30602940  0.63937833  1.0
  C  C123  1  0.23057029  0.45108908  0.60986977  1.0
  C  C124  1  0.21949255  0.33559208  0.61263936  1.0
  C  C125  1  0.28353721  0.42179995  0.63662114  1.0
  C  C126  1  0.26816911  0.23083100  0.64271180  1.0
  C  C127  1  0.20834787  0.26404743  0.61240363  1.0
  C  C128  1  0.29809115  0.58378204  0.82045071  1.0
  C  C129  1  0.20053814  0.66843838  0.92903044  1.0
  C  C130  1  0.32732498  0.50998896  0.83469822  1.0
  C  C131  1  0.17189524  0.74112647  0.91388077  1.0
  C  C132  1  0.24651463  0.61075275  0.89494984  1.0
  C  C133  1  0.25190287  0.64122537  0.85465020  1.0
  C  C134  1  0.80429871  0.09772682  0.90318168  1.0
  C  C135  1  0.68851854  0.15480023  0.85048804  1.0
  C  C136  1  0.83351171  0.08689309  0.85887675  1.0
  C  C137  1  0.65934190  0.16534516  0.89578361  1.0
  C  C138  1  0.77721850  0.11466605  0.83387168  1.0
  C  C139  1  0.71545797  0.13775424  0.92098237  1.0
  C  C140  1  0.91182269  0.05285207  0.82090562  1.0
  C  C141  1  0.84835104  0.08425381  0.79243599  1.0
  C  C142  1  0.19465449  0.09732450  0.90239347  1.0
  C  C143  1  0.30411898  0.15099506  0.84455151  1.0
  C  C144  1  0.22794312  0.13793364  0.91712796  1.0
  C  C145  1  0.26961794  0.10965466  0.82983000  1.0
  C  C146  1  0.28056472  0.16343045  0.88896987  1.0
  C  C147  1  0.21699192  0.08387762  0.85789619  1.0
  C  C148  1  0.23196402  0.17079303  0.95636353  1.0
  C  C149  1  0.29165621  0.19972659  0.92456507  1.0
  C  C150  1  0.64278305  0.44697049  0.14889539  1.0
  C  C151  1  0.85946371  0.30210916  0.10059907  1.0
  C  C152  1  0.67140536  0.49160873  0.16375212  1.0
  C  C153  1  0.82907596  0.25897201  0.08625229  1.0
  C  C154  1  0.79153931  0.37090807  0.12352820  1.0
  C  C155  1  0.71106728  0.37824314  0.12600770  1.0
  C  C156  1  0.19499279  0.90264474  0.09691039  1.0
  C  C157  1  0.30455972  0.84286268  0.15256369  1.0
  C  C158  1  0.22820266  0.94514882  0.10979781  1.0
  C  C159  1  0.27050240  0.79983589  0.13910021  1.0
  C  C160  1  0.28085145  0.91577039  0.13662082  1.0
  C  C161  1  0.21769714  0.82907114  0.11227565  1.0
  C  C162  1  0.23156804  0.02069784  0.10678371  1.0
  C  C163  1  0.29127527  0.98765628  0.13715666  1.0
  C  C164  1  0.80428260  0.90318323  0.09708887  1.0
  C  C165  1  0.68894430  0.85215275  0.15187228  1.0
  C  C166  1  0.83374690  0.83118379  0.11367613  1.0
  C  C167  1  0.65951655  0.92561227  0.13477885  1.0
  C  C168  1  0.77763225  0.80730218  0.13999509  1.0
  C  C169  1  0.71542818  0.94982891  0.10839492  1.0
  C  C170  1  0.91219812  0.75734912  0.11566500  1.0
  C  C171  1  0.84890550  0.73004308  0.14548200  1.0
  S  S172  1  0.87718764  0.80008788  0.59953645  1.0
  S  S173  1  0.61784894  0.94953365  0.64979505  1.0
  S  S174  1  0.20318964  0.15783068  0.43982246  1.0
  S  S175  1  0.29789844  0.09260282  0.30929231  1.0
  S  S176  1  0.29816380  0.51137785  0.89023639  1.0
  S  S177  1  0.20051074  0.74026621  0.85850668  1.0
  S  S178  1  0.78223083  0.44906455  0.14946664  1.0
  S  S179  1  0.71858143  0.30106383  0.10033786  1.0
  Br  Br180  1  0.65027568  0.78176411  0.59324804  1.0
  Br  Br181  1  0.18505675  0.29970838  0.32761863  1.0
  Br  Br182  1  0.31404367  0.61029896  0.76363906  1.0
  Br  Br183  1  0.52952389  0.46975357  0.15612640  1.0
  Br  Br184  1  0.95925939  0.24949356  0.60417790  1.0
  Br  Br185  1  0.18650451  0.53438038  0.32407967  1.0
  Br  Br186  1  0.95649630  0.53029428  0.32383207  1.0
  Br  Br187  1  0.20980251  0.55194475  0.59303151  1.0
  Br  Br188  1  0.54200701  0.21768401  0.92745519  1.0
  Br  Br189  1  0.28958789  0.08503043  0.77101731  1.0
  Br  Br190  1  0.29143991  0.69894671  0.15570053  1.0
  Br  Br191  1  0.54218007  0.99958708  0.14565664  1.0
  O  O192  1  0.99804614  0.50053145  0.50128797  1.0
  O  O193  1  0.82256146  0.58030997  0.47020315  1.0
  O  O194  1  0.10055919  0.37661214  0.41874306  1.0
  O  O195  1  0.94580242  0.38671158  0.55926071  1.0
  O  O196  1  0.94274949  0.53458538  0.41449727  1.0
  O  O197  1  0.82470253  0.49355501  0.55553397  1.0
  O  O198  1  0.10913702  0.31230319  0.47936908  1.0
  O  O199  1  0.11745337  0.38506423  0.55964127  1.0
  O  O200  1  0.95358371  0.65810480  0.55026787  1.0
  O  O201  1  0.11659190  0.50113863  0.55480253  1.0
  O  O202  1  0.83320809  0.65193355  0.55080016  1.0
  O  O203  1  0.11466830  0.52834296  0.41490438  1.0
  O  O204  1  0.11682860  0.58954825  0.47045072  1.0
  O  O205  1  0.50082886  0.24940836  0.75007461  1.0
  O  O206  1  0.67475528  0.25073448  0.69541734  1.0
  O  O207  1  0.40013530  0.43395970  0.76997150  1.0
  O  O208  1  0.55404318  0.21850616  0.83629226  1.0
  O  O209  1  0.56030770  0.36263195  0.68895964  1.0
  O  O210  1  0.67474238  0.16548953  0.78098353  1.0
  O  O211  1  0.39202768  0.37563415  0.83264636  1.0
  O  O212  1  0.38193917  0.21906675  0.83743350  1.0
  O  O213  1  0.54392738  0.09569634  0.69691786  1.0
  O  O214  1  0.38435883  0.16588188  0.77736325  1.0
  O  O215  1  0.66697654  0.09335809  0.69961373  1.0
  O  O216  1  0.38999620  0.36332617  0.68946281  1.0
  O  O217  1  0.38057400  0.25161717  0.69269699  1.0
  O  O218  1  0.50083636  0.75059785  0.25032755  1.0
  O  O219  1  0.38810446  0.71776068  0.33879616  1.0
  O  O220  1  0.54217552  0.59522479  0.20008792  1.0
  O  O221  1  0.67294303  0.66855943  0.27849971  1.0
  O  O222  1  0.38136741  0.66714227  0.28029705  1.0
  O  O223  1  0.55816315  0.71751023  0.33750745  1.0
  O  O224  1  0.66666667  0.59544523  0.19704392  1.0
  O  O225  1  0.67500641  0.75340639  0.19226308  1.0
  O  O226  1  0.39288566  0.93547926  0.27105569  1.0
  O  O227  1  0.55455540  0.86226397  0.19005745  1.0
  O  O228  1  0.39651295  0.87408810  0.33292185  1.0
  O  O229  1  0.38305484  0.75027759  0.19450521  1.0
  O  O230  1  0.38243622  0.86614636  0.19015269  1.0
  O  O231  1  0.00066161  0.00008044  0.99996844  1.0
  O  O232  1  0.11125115  0.88708678  0.05968216  1.0
  O  O233  1  0.96029503  0.15524961  0.05138376  1.0
  O  O234  1  0.82655581  0.99852219  0.05603186  1.0
  O  O235  1  0.12104545  0.99870374  0.05593199  1.0
  O  O236  1  0.94138285  0.88517371  0.06025048  1.0
  O  O237  1  0.83691222  0.15492789  0.05182227  1.0
  O  O238  1  0.82696693  0.08371278  0.97126756  1.0
  O  O239  1  0.10197634  0.87576252  0.91800203  1.0
  O  O240  1  0.94160388  0.03295989  0.91238490  1.0
  O  O241  1  0.10216224  0.81378485  0.97968833  1.0
  O  O242  1  0.12124696  0.08360378  0.97102536  1.0
  O  O243  1  0.11154168  0.03295609  0.91346536  1.0
