# generated using pymatgen
data_Al3H24C49O15
_symmetry_space_group_name_H-M   'P 1'
_cell_length_a   12.62540371
_cell_length_b   12.92422351
_cell_length_c   27.66020209
_cell_angle_alpha   89.11823171
_cell_angle_beta   89.01265663
_cell_angle_gamma   61.68553721
_symmetry_Int_Tables_number   1
_chemical_formula_structural   Al3H24C49O15
_chemical_formula_sum   'Al6 H48 C98 O30'
_cell_volume   3972.69429962
_cell_formula_units_Z   2
loop_
 _symmetry_equiv_pos_site_id
 _symmetry_equiv_pos_as_xyz
  1  'x, y, z'
loop_
 _atom_site_type_symbol
 _atom_site_label
 _atom_site_symmetry_multiplicity
 _atom_site_fract_x
 _atom_site_fract_y
 _atom_site_fract_z
 _atom_site_occupancy
  Al  Al0  1  0.40844723  0.40276249  0.50143339  1.0
  Al  Al1  1  0.42169781  0.64406340  0.50044472  1.0
  Al  Al2  1  0.65373862  0.41927723  0.49980158  1.0
  Al  Al3  1  0.92518918  0.91477270  0.01456494  1.0
  Al  Al4  1  0.67731782  0.90364314  0.01761071  1.0
  Al  Al5  1  0.90596616  0.67511472  0.01727568  1.0
  H  H6  1  0.47029022  0.82222534  0.78803829  1.0
  H  H7  1  0.47099649  0.30062186  0.79566701  1.0
  H  H8  1  0.51010769  0.13190665  0.72332908  1.0
  H  H9  1  0.70893066  0.96242841  0.77654280  1.0
  H  H10  1  0.20186679  0.45871806  0.78640246  1.0
  H  H11  1  0.02605077  0.60713435  0.71887557  1.0
  H  H12  1  0.37365791  0.50787537  0.73831275  1.0
  H  H13  1  0.30989298  0.70169281  0.80137686  1.0
  H  H14  1  0.13433584  0.84987321  0.73384439  1.0
  H  H15  1  0.96272544  0.80103854  0.78192266  1.0
  H  H16  1  0.54626276  0.86224231  0.13854013  1.0
  H  H17  1  0.61370264  0.85306261  0.71497681  1.0
  H  H18  1  0.44847548  0.94827351  0.21626435  1.0
  H  H19  1  0.44474006  0.93963668  0.30494859  1.0
  H  H20  1  0.83369354  0.50696401  0.13311504  1.0
  H  H21  1  0.88867385  0.38010810  0.20803915  1.0
  H  H22  1  0.87048981  0.36365391  0.29654079  1.0
  H  H23  1  0.76964009  0.45153214  0.37488184  1.0
  H  H24  1  0.86826561  0.07706139  0.13759812  1.0
  H  H25  1  0.81586769  0.22856192  0.37457068  1.0
  H  H26  1  0.95435396  0.11941226  0.21100178  1.0
  H  H27  1  0.50494168  0.61365010  0.74197382  1.0
  H  H28  1  0.93949632  0.16628634  0.29802905  1.0
  H  H29  1  0.52959855  0.07542381  0.14728852  1.0
  H  H30  1  0.41603946  0.11866598  0.22625875  1.0
  H  H31  1  0.48643040  0.20885784  0.38558177  1.0
  H  H32  1  0.02265623  0.56366021  0.15212594  1.0
  H  H33  1  0.17351071  0.50017125  0.38869100  1.0
  H  H34  1  0.02473371  0.47456557  0.23323032  1.0
  H  H35  1  0.07156107  0.45689335  0.32027927  1.0
  H  H36  1  0.09646929  0.85472711  0.13968943  1.0
  H  H37  1  0.71245943  0.48185706  0.79907761  1.0
  H  H38  1  0.15621687  0.92651735  0.21232847  1.0
  H  H39  1  0.20660920  0.90661773  0.29911410  1.0
  H  H40  1  0.24706732  0.79100663  0.37644756  1.0
  H  H41  1  0.85581641  0.51257900  0.72598610  1.0
  H  H42  1  0.82117235  0.72119714  0.77199748  1.0
  H  H43  1  0.82396226  0.19789092  0.79665914  1.0
  H  H44  1  0.86305993  0.02926907  0.72430757  1.0
  H  H45  1  0.62517987  0.36743226  0.74343475  1.0
  H  H46  1  0.34453157  0.86801873  0.41816416  1.0
  H  H47  1  0.34339981  0.89062992  0.35399996  1.0
  H  H48  1  0.35177283  0.99475200  0.39372803  1.0
  H  H49  1  0.30649808  0.32267750  0.33721411  1.0
  H  H50  1  0.22640256  0.24158064  0.34898909  1.0
  H  H51  1  0.24414208  0.28188828  0.28784794  1.0
  H  H52  1  0.30236197  0.30813816  0.53193223  1.0
  H  H53  1  0.07894648  0.96190466  0.03060636  1.0
  C  C54  1  0.28115094  0.60970378  0.56968420  1.0
  C  C55  1  0.63292001  0.62620101  0.61536282  1.0
  C  C56  1  0.75079770  0.69726113  0.76474423  1.0
  C  C57  1  0.67080371  0.68045671  0.80596975  1.0
  C  C58  1  0.77036534  0.58140130  0.74018465  1.0
  C  C59  1  0.65537991  0.65445371  0.70805675  1.0
  C  C60  1  0.69050378  0.56405326  0.77989657  1.0
  C  C61  1  0.57533002  0.63759310  0.74927213  1.0
  C  C62  1  0.68275274  0.69420940  0.85590606  1.0
  C  C63  1  0.64405619  0.64032637  0.65811878  1.0
  C  C64  1  0.77614911  0.08934810  0.74061186  1.0
  C  C65  1  0.60849728  0.59993411  0.56788256  1.0
  C  C66  1  0.75440788  0.18347381  0.77982074  1.0
  C  C67  1  0.68413395  0.09430268  0.90193380  1.0
  C  C68  1  0.64876202  0.23347916  0.61778083  1.0
  C  C69  1  0.69037041  0.05254076  0.76847565  1.0
  C  C70  1  0.66869856  0.14634734  0.80909772  1.0
  C  C71  1  0.57964422  0.14637427  0.74015738  1.0
  C  C72  1  0.66525326  0.18353642  0.71085411  1.0
  C  C73  1  0.55788386  0.24052349  0.77935035  1.0
  C  C74  1  0.64368204  0.27733899  0.75146071  1.0
  C  C75  1  0.67372128  0.12143229  0.85920441  1.0
  C  C76  1  0.61721341  0.28304919  0.56994685  1.0
  C  C77  1  0.65982490  0.20774192  0.66066323  1.0
  C  C78  1  0.08878991  0.62792679  0.73784091  1.0
  C  C79  1  0.18698599  0.54543945  0.77427898  1.0
  C  C80  1  0.10597616  0.66698644  0.90264120  1.0
  C  C81  1  0.23025160  0.63863793  0.61753833  1.0
  C  C82  1  0.05393194  0.73573605  0.77145088  1.0
  C  C83  1  0.15179681  0.65276730  0.80922591  1.0
  C  C84  1  0.14928362  0.76306815  0.74590717  1.0
  C  C85  1  0.18435235  0.65557641  0.71097720  1.0
  C  C86  1  0.24738381  0.68063698  0.78238714  1.0
  C  C87  1  0.27983211  0.60859718  0.43348629  1.0
  C  C88  1  0.28234596  0.57285540  0.74877919  1.0
  C  C89  1  0.13013563  0.65700656  0.85956220  1.0
  C  C90  1  0.20616298  0.65014425  0.66061619  1.0
  C  C91  1  0.56879893  0.74227903  0.36058270  1.0
  C  C92  1  0.57458762  0.75275284  0.30964377  1.0
  C  C93  1  0.58831332  0.76914259  0.20705767  1.0
  C  C94  1  0.50592442  0.86672835  0.23527209  1.0
  C  C95  1  0.50218467  0.86097875  0.28450672  1.0
  C  C96  1  0.60137927  0.77923671  0.15711559  1.0
  C  C97  1  0.69078792  0.68598687  0.13098807  1.0
  C  C98  1  0.61014692  0.60775365  0.43377771  1.0
  C  C99  1  0.71822523  0.53531344  0.35620995  1.0
  C  C100  1  0.73096094  0.54367301  0.30618087  1.0
  C  C101  1  0.65557882  0.65238320  0.28230259  1.0
  C  C102  1  0.81452335  0.44630034  0.27785243  1.0
  C  C103  1  0.82460826  0.45547796  0.22894707  1.0
  C  C104  1  0.75129216  0.56373290  0.20382252  1.0
  C  C105  1  0.66462279  0.66130917  0.23117580  1.0
  C  C106  1  0.76423463  0.57846455  0.15405971  1.0
  C  C107  1  0.63595268  0.63160184  0.38338204  1.0
  C  C108  1  0.74959606  0.21009435  0.35743820  1.0
  C  C109  1  0.62004875  0.28184861  0.43245103  1.0
  C  C110  1  0.76493284  0.17430301  0.30902428  1.0
  C  C111  1  0.78333098  0.11776070  0.20866773  1.0
  C  C112  1  0.87604746  0.13130111  0.23238925  1.0
  C  C113  1  0.86748784  0.15766536  0.28036491  1.0
  C  C114  1  0.79075061  0.08936773  0.15959817  1.0
  C  C115  1  0.70006386  0.07333333  0.13805529  1.0
  C  C116  1  0.56260526  0.19959411  0.36353816  1.0
  C  C117  1  0.57343682  0.16645415  0.31507905  1.0
  C  C118  1  0.67323614  0.15700413  0.28666557  1.0
  C  C119  1  0.48372761  0.14663684  0.29173222  1.0
  C  C120  1  0.63561346  0.77084014  0.73413771  1.0
  C  C121  1  0.48822506  0.12818411  0.24313008  1.0
  C  C122  1  0.58785942  0.11707432  0.21409082  1.0
  C  C123  1  0.68160505  0.13059113  0.23661448  1.0
  C  C124  1  0.59880803  0.08856092  0.16489366  1.0
  C  C125  1  0.64757294  0.22599858  0.38392853  1.0
  C  C126  1  0.17157871  0.57193306  0.36678755  1.0
  C  C127  1  0.12884484  0.59115732  0.31931671  1.0
  C  C128  1  0.07091683  0.61429756  0.21916886  1.0
  C  C129  1  0.05736502  0.53026786  0.24946552  1.0
  C  C130  1  0.08346652  0.52033991  0.29750122  1.0
  C  C131  1  0.55577073  0.75346085  0.77385113  1.0
  C  C132  1  0.04958050  0.62267545  0.16935777  1.0
  C  C133  1  0.06030727  0.70822295  0.14123430  1.0
  C  C134  1  0.21380399  0.73648284  0.35982992  1.0
  C  C135  1  0.17518205  0.75670136  0.31178281  1.0
  C  C136  1  0.13575489  0.68085024  0.29059449  1.0
  C  C137  1  0.17899470  0.84737499  0.28244430  1.0
  C  C138  1  0.15108784  0.85855799  0.23457466  1.0
  C  C139  1  0.11609834  0.78062138  0.21187173  1.0
  C  C140  1  0.10675934  0.69248237  0.24074077  1.0
  C  C141  1  0.09156867  0.78747777  0.16242701  1.0
  C  C142  1  0.69526590  0.70740328  0.89861807  1.0
  C  C143  1  0.21684465  0.64210453  0.38632525  1.0
  C  C144  1  0.71593512  0.04197101  0.94930907  1.0
  C  C145  1  0.72077360  0.73018872  0.94655580  1.0
  C  C146  1  0.05297488  0.70043660  0.94998839  1.0
  C  C147  1  0.71881112  0.02993388  0.08735506  1.0
  C  C148  1  0.71638857  0.70972462  0.08062626  1.0
  C  C149  1  0.02939708  0.72174016  0.08907440  1.0
  C  C150  1  0.37882733  0.90160966  0.38841884  1.0
  C  C151  1  0.28669085  0.25432476  0.32345406  1.0
  O  O152  1  0.51284684  0.30919572  0.55584371  1.0
  O  O153  1  0.50867287  0.67854597  0.45292967  1.0
  O  O154  1  0.68605905  0.51132108  0.45385969  1.0
  O  O155  1  0.69651991  0.31091958  0.45000762  1.0
  O  O156  1  0.49534661  0.48952958  0.50102632  1.0
  O  O157  1  0.02545838  0.80302336  0.96324442  1.0
  O  O158  1  0.82168371  0.01173647  0.96274362  1.0
  O  O159  1  0.63600350  0.02609937  0.97322829  1.0
  O  O160  1  0.64479778  0.82690289  0.96607010  1.0
  O  O161  1  0.82001575  0.65437358  0.96499173  1.0
  O  O162  1  0.03309621  0.62441635  0.97402941  1.0
  O  O163  1  0.30373614  0.51058191  0.55335251  1.0
  O  O164  1  0.02349303  0.81051051  0.06674417  1.0
  O  O165  1  0.81343341  0.01500415  0.06550620  1.0
  O  O166  1  0.63905195  0.00520945  0.06978841  1.0
  O  O167  1  0.64367780  0.80853680  0.06142551  1.0
  O  O168  1  0.81423552  0.63415977  0.06028101  1.0
  O  O169  1  0.00610369  0.64403362  0.07049160  1.0
  O  O170  1  0.83554257  0.82991733  0.01657909  1.0
  O  O171  1  0.30413945  0.68650403  0.54834173  1.0
  O  O172  1  0.50975587  0.67429016  0.54853752  1.0
  O  O173  1  0.68454931  0.50162151  0.54960129  1.0
  O  O174  1  0.69624347  0.30072358  0.54620460  1.0
  O  O175  1  0.52115091  0.30263506  0.45222129  1.0
  O  O176  1  0.30847905  0.50729085  0.45008668  1.0
  O  O177  1  0.30602795  0.68375499  0.45301351  1.0
  O  O178  1  0.50805060  0.83981870  0.38835665  1.0
  O  O179  1  0.39412581  0.14339792  0.32014677  1.0
  O  O180  1  0.32904383  0.32214891  0.50073849  1.0
  O  O181  1  0.00575462  0.99406712  0.01215709  1.0
