# generated using pymatgen
data_ZnH24C21NO7
_symmetry_space_group_name_H-M   'P 1'
_cell_length_a   9.70276387
_cell_length_b   11.01681346
_cell_length_c   16.01775499
_cell_angle_alpha   90.12708189
_cell_angle_beta   94.88034092
_cell_angle_gamma   92.67447544
_symmetry_Int_Tables_number   1
_chemical_formula_structural   ZnH24C21NO7
_chemical_formula_sum   'Zn2 H48 C42 N2 O14'
_cell_volume   1704.09588295
_cell_formula_units_Z   2
loop_
 _symmetry_equiv_pos_site_id
 _symmetry_equiv_pos_as_xyz
  1  'x, y, z'
loop_
 _atom_site_type_symbol
 _atom_site_label
 _atom_site_symmetry_multiplicity
 _atom_site_fract_x
 _atom_site_fract_y
 _atom_site_fract_z
 _atom_site_occupancy
  Zn  Zn0  1  0.36163487  0.48715652  0.50059165  1.0
  Zn  Zn1  1  0.64617489  0.50236936  0.50135021  1.0
  H  H2  1  0.29325574  0.58291601  0.05097413  1.0
  H  H3  1  0.71079270  0.88205183  0.55162780  1.0
  H  H4  1  0.16960577  0.10159718  0.50512775  1.0
  H  H5  1  0.21102866  0.11151473  0.39888067  1.0
  H  H6  1  0.20283371  0.88242655  0.38947135  1.0
  H  H7  1  0.85090132  0.43160481  0.37665176  1.0
  H  H8  1  0.11115713  0.41454731  0.38078694  1.0
  H  H9  1  0.17847842  0.68376642  0.64992006  1.0
  H  H10  1  0.89469644  0.56445961  0.68739429  1.0
  H  H11  1  0.66777637  0.59068989  0.10247663  1.0
  H  H12  1  0.50868822  0.29129424  0.92402599  1.0
  H  H13  1  0.67187423  0.36417191  0.95020172  1.0
  H  H14  1  0.46512277  0.28685287  0.06573202  1.0
  H  H15  1  0.28385243  0.27701313  0.92700892  1.0
  H  H16  1  0.35264239  0.30738921  0.82795621  1.0
  H  H17  1  0.10904170  0.32537187  0.76212413  1.0
  H  H18  1  0.13876206  0.17966725  0.80546812  1.0
  H  H19  1  0.04418911  0.28504856  0.85972160  1.0
  H  H20  1  0.07161014  0.50597848  0.06475833  1.0
  H  H21  1  0.17937304  0.46746224  0.15620844  1.0
  H  H22  1  0.09614917  0.24925857  0.13899146  1.0
  H  H23  1  0.95450241  0.34520964  0.14613451  1.0
  H  H24  1  0.98984035  0.28648567  0.04699400  1.0
  H  H25  1  0.63483672  0.35015097  0.09077028  1.0
  H  H26  1  0.81728079  0.18562594  0.47179416  1.0
  H  H27  1  0.89927855  0.05413409  0.51446097  1.0
  H  H28  1  0.99486124  0.17621888  0.64081935  1.0
  H  H29  1  0.04566450  0.24943958  0.54882105  1.0
  H  H30  1  0.90491592  0.30383384  0.60164218  1.0
  H  H31  1  0.15948950  0.87396107  0.49535994  1.0
  H  H32  1  0.15205463  0.65028264  0.95852013  1.0
  H  H33  1  0.15764448  0.65480142  0.84818641  1.0
  H  H34  1  0.28894427  0.85936210  0.86234995  1.0
  H  H35  1  0.12423349  0.86237979  0.90341520  1.0
  H  H36  1  0.27713654  0.85511563  0.97276766  1.0
  H  H37  1  0.15742087  0.53669701  0.69546877  1.0
  H  H38  1  0.99706069  0.75537159  0.76314848  1.0
  H  H39  1  0.81353195  0.76470413  0.74626754  1.0
  H  H40  1  0.84848580  0.96781910  0.67494438  1.0
  H  H41  1  0.93162733  0.96970144  0.77803955  1.0
  H  H42  1  0.03134011  0.95404238  0.69055871  1.0
  H  H43  1  0.89309900  0.68501934  0.91952060  1.0
  H  H44  1  0.74682296  0.63648725  0.85046402  1.0
  H  H45  1  0.83052841  0.42765803  0.84550804  1.0
  H  H46  1  0.96653323  0.53138773  0.82027843  1.0
  H  H47  1  0.97170418  0.46773413  0.92127723  1.0
  H  H48  1  0.58971111  0.67987893  0.94014268  1.0
  H  H49  1  0.52036493  0.67618936  0.07527650  1.0
  C  C50  1  0.49655338  0.72837560  0.49761104  1.0
  C  C51  1  0.33405887  0.49731986  0.03005209  1.0
  C  C52  1  0.47559422  0.48166266  0.08063051  1.0
  C  C53  1  0.53724441  0.36269939  0.05244655  1.0
  C  C54  1  0.56126123  0.36807249  0.95861234  1.0
  C  C55  1  0.46277014  0.47729643  0.17016788  1.0
  C  C56  1  0.53083580  0.49517027  0.83118705  1.0
  C  C57  1  0.53662733  0.49874281  0.75569319  1.0
  C  C58  1  0.37977831  0.92918627  0.48295533  1.0
  C  C59  1  0.49678413  0.86312208  0.50320842  1.0
  C  C60  1  0.61822968  0.93081073  0.53219613  1.0
  C  C61  1  0.53389310  0.50320764  0.66540914  1.0
  C  C62  1  0.62195325  0.05751382  0.53921563  1.0
  C  C63  1  0.50461129  0.12509765  0.51399001  1.0
  C  C64  1  0.38463676  0.05572467  0.48815889  1.0
  C  C65  1  0.23274350  0.06409160  0.45851092  1.0
  C  C66  1  0.22720673  0.92058494  0.45270815  1.0
  C  C67  1  0.94555138  0.55765379  0.55623082  1.0
  C  C68  1  0.91950903  0.46483464  0.43007999  1.0
  C  C69  1  0.06279151  0.45407688  0.43284390  1.0
  C  C70  1  0.08767923  0.54352822  0.56054107  1.0
  C  C71  1  0.11518615  0.59842001  0.64705318  1.0
  C  C72  1  0.50580836  0.26036170  0.51211896  1.0
  C  C73  1  0.95143462  0.61782375  0.64206489  1.0
  C  C74  1  0.47694328  0.47805268  0.33666220  1.0
  C  C75  1  0.35943216  0.51546048  0.93444978  1.0
  C  C76  1  0.60888998  0.59199012  0.97007171  1.0
  C  C77  1  0.57145188  0.59243728  0.06139518  1.0
  C  C78  1  0.46567387  0.47521805  0.24615715  1.0
  C  C79  1  0.51499580  0.49035326  0.92029108  1.0
  C  C80  1  0.26635532  0.32329993  0.86653485  1.0
  C  C81  1  0.13117206  0.27627427  0.82099087  1.0
  C  C82  1  0.13127855  0.43269477  0.09539235  1.0
  C  C83  1  0.03770941  0.32153630  0.10742709  1.0
  C  C84  1  0.85403787  0.14060351  0.53030027  1.0
  C  C85  1  0.95639545  0.22236542  0.58341720  1.0
  C  C86  1  0.21242754  0.68632242  0.90783222  1.0
  C  C87  1  0.22696160  0.82384756  0.91195792  1.0
  C  C88  1  0.91285223  0.79204917  0.72118822  1.0
  C  C89  1  0.93186589  0.92874257  0.71538871  1.0
  C  C90  1  0.82232075  0.60644583  0.90032398  1.0
  C  C91  1  0.90180149  0.50208956  0.87015241  1.0
  N  N92  1  0.85766324  0.51610285  0.49353704  1.0
  N  N93  1  0.14975541  0.49092034  0.49997011  1.0
  O  O94  1  0.37987298  0.67126791  0.48154853  1.0
  O  O95  1  0.61342048  0.68033084  0.50977253  1.0
  O  O96  1  0.41571166  0.52003208  0.62702092  1.0
  O  O97  1  0.64724254  0.49009434  0.63239441  1.0
  O  O98  1  0.39125758  0.30797117  0.52312400  1.0
  O  O99  1  0.61744551  0.31793439  0.49628896  1.0
  O  O100  1  0.36644387  0.45611592  0.37295754  1.0
  O  O101  1  0.59758636  0.50321160  0.37185299  1.0
  O  O102  1  0.25862359  0.45217247  0.87979170  1.0
  O  O103  1  0.23765021  0.39982562  0.04335957  1.0
  O  O104  1  0.73788048  0.11654542  0.57923596  1.0
  O  O105  1  0.34894826  0.64071365  0.91485544  1.0
  O  O106  1  0.91475423  0.73975344  0.63871742  1.0
  O  O107  1  0.75241002  0.56850539  0.97226724  1.0
