# generated using pymatgen
data_Zn2H3C24N6Cl6O8F7
_symmetry_space_group_name_H-M   'P 1'
_cell_length_a   9.96537740
_cell_length_b   11.21709666
_cell_length_c   19.23330927
_cell_angle_alpha   87.00808116
_cell_angle_beta   85.18032101
_cell_angle_gamma   83.21937992
_symmetry_Int_Tables_number   1
_chemical_formula_structural   Zn2H3C24N6Cl6O8F7
_chemical_formula_sum   'Zn2 H3 C24 N6 Cl6 O8 F7'
_cell_volume   2125.42015465
_cell_formula_units_Z   1
loop_
 _symmetry_equiv_pos_site_id
 _symmetry_equiv_pos_as_xyz
  1  'x, y, z'
loop_
 _atom_site_type_symbol
 _atom_site_label
 _atom_site_symmetry_multiplicity
 _atom_site_fract_x
 _atom_site_fract_y
 _atom_site_fract_z
 _atom_site_occupancy
  Zn  Zn0  1  0.63613301  0.48994339  0.49106239  1.0
  Zn  Zn1  1  0.35738774  0.51025038  0.50577297  1.0
  H  H2  1  0.56970561  0.90076572  0.45896328  1.0
  H  H3  1  0.83746079  0.66318702  0.51121213  1.0
  H  H4  1  0.67246296  0.51859373  0.13310533  1.0
  C  C5  1  0.50755492  0.27037885  0.50984293  1.0
  C  C6  1  0.48870386  0.43156848  0.14292487  1.0
  C  C7  1  0.39434264  0.94524009  0.52339614  1.0
  C  C8  1  0.50914183  0.49550536  0.63265657  1.0
  C  C9  1  0.48638895  0.86508857  0.49055240  1.0
  C  C10  1  0.40151555  0.07544349  0.51572582  1.0
  C  C11  1  0.50999820  0.13655153  0.52090358  1.0
  C  C12  1  0.90674510  0.58364818  0.49626685  1.0
  C  C13  1  0.05477035  0.58783310  0.48924070  1.0
  C  C14  1  0.49158940  0.73248145  0.49357406  1.0
  C  C15  1  0.48787506  0.49007243  0.36502880  1.0
  C  C16  1  0.51459537  0.47993336  0.71086390  1.0
  C  C17  1  0.60097927  0.38534358  0.73940259  1.0
  C  C18  1  0.60010794  0.36767381  0.81188632  1.0
  C  C19  1  0.51451811  0.44121955  0.85741455  1.0
  C  C20  1  0.43030392  0.53551660  0.82762387  1.0
  C  C21  1  0.42975002  0.55631024  0.75545093  1.0
  C  C22  1  0.49608814  0.41307104  0.06759620  1.0
  C  C23  1  0.51029936  0.41966792  0.93382177  1.0
  C  C24  1  0.59087914  0.48939337  0.16878987  1.0
  C  C25  1  0.58812766  0.50851734  0.23931129  1.0
  C  C26  1  0.48660052  0.47211652  0.28817489  1.0
  C  C27  1  0.38576436  0.41473822  0.26163091  1.0
  C  C28  1  0.38568529  0.39439245  0.19051916  1.0
  N  N29  1  0.38955864  0.40176879  0.96783561  1.0
  N  N30  1  0.38193409  0.40036830  0.03674563  1.0
  N  N31  1  0.62133600  0.40348446  0.03340270  1.0
  N  N32  1  0.62823786  0.40933247  0.96453420  1.0
  N  N33  1  0.84557756  0.49588223  0.48091138  1.0
  N  N34  1  0.14433489  0.52096725  0.52272595  1.0
  Cl  Cl35  1  0.70359966  0.28643251  0.68750223  1.0
  Cl  Cl36  1  0.66238377  0.06101464  0.54274986  1.0
  Cl  Cl37  1  0.10331860  0.69594613  0.43079730  1.0
  Cl  Cl38  1  0.08773005  0.42002001  0.58388859  1.0
  Cl  Cl39  1  0.32779450  0.67722416  0.72318109  1.0
  Cl  Cl40  1  0.25547836  0.90848331  0.57638007  1.0
  O  O41  1  0.61851500  0.31323568  0.51516042  1.0
  O  O42  1  0.39525179  0.32934989  0.49612329  1.0
  O  O43  1  0.61600328  0.52098069  0.59731495  1.0
  O  O44  1  0.39770670  0.47878160  0.60968002  1.0
  O  O45  1  0.60722054  0.67571246  0.47533843  1.0
  O  O46  1  0.38393390  0.68513010  0.51261656  1.0
  O  O47  1  0.60189966  0.46455423  0.39035586  1.0
  O  O48  1  0.37615959  0.52782141  0.39760122  1.0
  F  F49  1  0.28006493  0.13584004  0.50231121  1.0
  F  F50  1  0.93267843  0.39630336  0.45787798  1.0
  F  F51  1  0.67974081  0.27394805  0.83874428  1.0
  F  F52  1  0.35010548  0.61037221  0.87038044  1.0
  F  F53  1  0.68666429  0.56771034  0.26147566  1.0
  F  F54  1  0.28643266  0.37323601  0.30494706  1.0
  F  F55  1  0.28710077  0.33395040  0.17081278  1.0
