# generated using pymatgen
data_Zn4H48C56Br4O13
_symmetry_space_group_name_H-M   'P 1'
_cell_length_a   23.63015386
_cell_length_b   23.63043556
_cell_length_c   23.62790561
_cell_angle_alpha   107.38137183
_cell_angle_beta   113.74281552
_cell_angle_gamma   107.37889007
_symmetry_Int_Tables_number   1
_chemical_formula_structural   Zn4H48C56Br4O13
_chemical_formula_sum   'Zn8 H96 C112 Br8 O26'
_cell_volume   10113.40129340
_cell_formula_units_Z   2
loop_
 _symmetry_equiv_pos_site_id
 _symmetry_equiv_pos_as_xyz
  1  'x, y, z'
loop_
 _atom_site_type_symbol
 _atom_site_label
 _atom_site_symmetry_multiplicity
 _atom_site_fract_x
 _atom_site_fract_y
 _atom_site_fract_z
 _atom_site_occupancy
  Zn  Zn0  1  0.51168171  0.55192130  0.45161308  1.0
  Zn  Zn1  1  0.54843496  0.44815755  0.48835130  1.0
  Zn  Zn2  1  0.54017907  0.55192077  0.60030263  1.0
  Zn  Zn3  1  0.39970998  0.44811121  0.45972111  1.0
  Zn  Zn4  1  0.98824877  0.43989290  0.04017860  1.0
  Zn  Zn5  1  0.95166083  0.43994375  0.89970273  1.0
  Zn  Zn6  1  0.95969874  0.56002900  0.01153582  1.0
  Zn  Zn7  1  0.10029654  0.56011698  0.04852933  1.0
  H  H8  1  0.83504164  0.19822775  0.98624493  1.0
  H  H9  1  0.84235785  0.27202572  0.97859811  1.0
  H  H10  1  0.91838471  0.26418809  0.01742900  1.0
  H  H11  1  0.86186621  0.19837840  0.71131583  1.0
  H  H12  1  0.92896174  0.27190877  0.79279581  1.0
  H  H13  1  0.84520641  0.26458564  0.74706353  1.0
  H  H14  1  0.76139927  0.11420243  0.65444679  1.0
  H  H15  1  0.74325523  0.03960671  0.66254871  1.0
  H  H16  1  0.82574244  0.08701444  0.67655602  1.0
  H  H17  1  0.85244121  0.11468097  0.95994371  1.0
  H  H18  1  0.79721227  0.03988366  0.87739730  1.0
  H  H19  1  0.76068098  0.08620980  0.90958957  1.0
  H  H20  1  0.67555904  0.90753525  0.81871026  1.0
  H  H21  1  0.76093178  0.94088336  0.83372469  1.0
  H  H22  1  0.72554589  0.86494645  0.83649430  1.0
  H  H23  1  0.73264858  0.90799224  0.58949001  1.0
  H  H24  1  0.67987517  0.94065845  0.60706111  1.0
  H  H25  1  0.64012893  0.86480786  0.52854100  1.0
  H  H26  1  0.57082837  0.73296192  0.47450094  1.0
  H  H27  1  0.62919428  0.70183965  0.50550901  1.0
  H  H28  1  0.66163769  0.78097274  0.50795134  1.0
  H  H29  1  0.66254964  0.73288393  0.75850527  1.0
  H  H30  1  0.57305180  0.70192943  0.69658290  1.0
  H  H31  1  0.61997275  0.78105194  0.77335792  1.0
  H  H32  1  0.28747934  0.80177407  0.13594042  1.0
  H  H33  1  0.20610716  0.72762157  0.07023955  1.0
  H  H34  1  0.25369305  0.73637049  0.15441056  1.0
  H  H35  1  0.01326649  0.80165124  0.16416098  1.0
  H  H36  1  0.02082046  0.72779607  0.15673606  1.0
  H  H37  1  0.98243231  0.73591965  0.08082395  1.0
  H  H38  1  0.04015587  0.88576093  0.14726583  1.0
  H  H39  1  0.12282324  0.96041689  0.20354953  1.0
  H  H40  1  0.08963626  0.91313489  0.23883802  1.0
  H  H41  1  0.34513595  0.88525759  0.23745011  1.0
  H  H42  1  0.33753172  0.96013109  0.25726937  1.0
  H  H43  1  0.32325174  0.91390161  0.17431231  1.0
  H  H44  1  0.41117772  0.09249848  0.26808128  1.0
  H  H45  1  0.39283722  0.05916116  0.32011104  1.0
  H  H46  1  0.47156090  0.13507925  0.36066969  1.0
  H  H47  1  0.18159647  0.09205928  0.32477587  1.0
  H  H48  1  0.16642128  0.05944174  0.23929227  1.0
  H  H49  1  0.16380546  0.13529761  0.27549974  1.0
  H  H50  1  0.24159073  0.26708270  0.33802434  1.0
  H  H51  1  0.30382903  0.29825706  0.42749997  1.0
  H  H52  1  0.22715170  0.21912378  0.38089856  1.0
  H  H53  1  0.52567450  0.26711872  0.42981586  1.0
  H  H54  1  0.49478576  0.29814077  0.37130756  1.0
  H  H55  1  0.49238348  0.21899428  0.33905315  1.0
  H  H56  1  0.92963029  0.40403530  0.16244518  1.0
  H  H57  1  0.87110585  0.37651084  0.07294266  1.0
  H  H58  1  0.83886982  0.34661652  0.11981960  1.0
  H  H59  1  0.83772294  0.59628125  0.07073654  1.0
  H  H60  1  0.92722886  0.62367270  0.12906578  1.0
  H  H61  1  0.88055985  0.65366849  0.16155649  1.0
  H  H62  1  0.82473638  0.64323499  0.23261431  1.0
  H  H63  1  0.73930131  0.57289901  0.18003099  1.0
  H  H64  1  0.77519835  0.61151423  0.14007217  1.0
  H  H65  1  0.76798527  0.35695736  0.17561184  1.0
  H  H66  1  0.82027453  0.42732681  0.26100984  1.0
  H  H67  1  0.86055369  0.38897884  0.22536630  1.0
  H  H68  1  0.73785604  0.39248677  0.35245706  1.0
  H  H69  1  0.75727709  0.41967279  0.29709465  1.0
  H  H70  1  0.67444980  0.35099947  0.26071952  1.0
  H  H71  1  0.64740418  0.60707419  0.26168998  1.0
  H  H72  1  0.70366553  0.58067034  0.24330593  1.0
  H  H73  1  0.73897272  0.64916059  0.32587375  1.0
  H  H74  1  0.66410626  0.65076208  0.36247013  1.0
  H  H75  1  0.65715457  0.63604323  0.42921165  1.0
  H  H76  1  0.58098278  0.59837864  0.34532994  1.0
  H  H77  1  0.63666016  0.34867744  0.33487746  1.0
  H  H78  1  0.57040240  0.36384470  0.34253110  1.0
  H  H79  1  0.65437566  0.40089960  0.41837916  1.0
  H  H80  1  0.97452476  0.40373282  0.74164007  1.0
  H  H81  1  0.00553923  0.37637547  0.80377558  1.0
  H  H82  1  0.00794481  0.34635207  0.72705507  1.0
  H  H83  1  0.25860584  0.59599033  0.02568408  1.0
  H  H84  1  0.19668012  0.62358671  0.99477005  1.0
  H  H85  1  0.27341379  0.65341292  0.99234263  1.0
  H  H86  1  0.31868827  0.64310656  0.91112535  1.0
  H  H87  1  0.33369398  0.57274141  0.89283570  1.0
  H  H88  1  0.33649719  0.61096585  0.97155685  1.0
  H  H89  1  0.08929482  0.35672313  0.68155566  1.0
  H  H90  1  0.10710138  0.42703885  0.66643597  1.0
  H  H91  1  0.02853052  0.38850444  0.66375974  1.0
  H  H92  1  0.15443395  0.39294602  0.54008806  1.0
  H  H93  1  0.16242320  0.41942271  0.62274753  1.0
  H  H94  1  0.17647346  0.35090270  0.58963469  1.0
  H  H95  1  0.45988742  0.60755080  0.84519819  1.0
  H  H96  1  0.37737716  0.58020056  0.83751714  1.0
  H  H97  1  0.40948334  0.64891802  0.82334658  1.0
  H  H98  1  0.48599040  0.65134624  0.78778327  1.0
  H  H99  1  0.47850608  0.63607349  0.70635816  1.0
  H  H100  1  0.51735712  0.59914647  0.75341146  1.0
  H  H101  1  0.21148789  0.34926434  0.51308603  1.0
  H  H102  1  0.29293089  0.36398345  0.52083615  1.0
  H  H103  1  0.24676193  0.40170429  0.48240680  1.0
  C  C104  1  0.59322159  0.49988723  0.40665744  1.0
  C  C105  1  0.63650099  0.50012331  0.63659040  1.0
  C  C106  1  0.58669882  0.67322129  0.58663620  1.0
  C  C107  1  0.40665273  0.50008370  0.59321465  1.0
  C  C108  1  0.36354787  0.49999491  0.36338761  1.0
  C  C109  1  0.41348151  0.32683977  0.41353697  1.0
  C  C110  1  0.90663205  0.31348534  0.90672645  1.0
  C  C111  1  0.86336444  0.49973227  0.86323667  1.0
  C  C112  1  0.91350204  0.50013213  0.08668955  1.0
  C  C113  1  0.09324506  0.68662210  0.09321792  1.0
  C  C114  1  0.13635625  0.49979707  0.13647548  1.0
  C  C115  1  0.08668237  0.50006913  0.91350323  1.0
  C  C116  1  0.30501900  0.49989844  0.30487473  1.0
  C  C117  1  0.19488456  0.49980997  0.19490269  1.0
  C  C118  1  0.23384606  0.45499434  0.27553110  1.0
  C  C119  1  0.26604213  0.54140912  0.22093542  1.0
  C  C120  1  0.17950907  0.45826437  0.22457427  1.0
  C  C121  1  0.32039792  0.54474286  0.27849469  1.0
  C  C122  1  0.69492427  0.50000461  0.69498194  1.0
  C  C123  1  0.80483656  0.49975389  0.80483081  1.0
  C  C124  1  0.72461678  0.54504677  0.76621852  1.0
  C  C125  1  0.77843737  0.45799993  0.73359371  1.0
  C  C126  1  0.77555176  0.54163085  0.82042682  1.0
  C  C127  1  0.72089917  0.45483215  0.67938172  1.0
  C  C128  1  0.86864896  0.23766304  0.86875652  1.0
  C  C129  1  0.85066201  0.20172882  0.90323361  1.0
  C  C130  1  0.81909572  0.13080675  0.86889801  1.0
  C  C131  1  0.79768576  0.09542484  0.79765800  1.0
  C  C132  1  0.81154417  0.13081851  0.76177148  1.0
  C  C133  1  0.85067073  0.20176280  0.79830912  1.0
  C  C134  1  0.76184154  0.02358547  0.76177680  1.0
  C  C135  1  0.73095438  0.96167526  0.73088948  1.0
  C  C136  1  0.69512198  0.88990863  0.69502945  1.0
  C  C137  1  0.68335573  0.85458233  0.73170523  1.0
  C  C138  1  0.64452305  0.78376864  0.69527628  1.0
  C  C139  1  0.62449202  0.74867988  0.62439592  1.0
  C  C140  1  0.63962772  0.78376700  0.58864180  1.0
  C  C141  1  0.67161759  0.85458016  0.62303780  1.0
  C  C142  1  0.13108129  0.76244101  0.13101949  1.0
  C  C143  1  0.20144128  0.79836436  0.14886973  1.0
  C  C144  1  0.23803488  0.86928036  0.18820080  1.0
  C  C145  1  0.20220980  0.90466652  0.20224139  1.0
  C  C146  1  0.13094531  0.86926959  0.18075171  1.0
  C  C147  1  0.09655447  0.79832659  0.14896178  1.0
  C  C148  1  0.23818189  0.97649361  0.23824201  1.0
  C  C149  1  0.26921399  0.03840443  0.26929489  1.0
  C  C150  1  0.30514952  0.11015932  0.30527161  1.0
  C  C151  1  0.37716257  0.14547486  0.32886022  1.0
  C  C152  1  0.41157578  0.21629203  0.36085834  1.0
  C  C153  1  0.37578565  0.25138417  0.37588864  1.0
  C  C154  1  0.30496064  0.21631260  0.35596027  1.0
  C  C155  1  0.26851300  0.14549819  0.31711749  1.0
  C  C156  1  0.87578852  0.50011587  0.12443695  1.0
  C  C157  1  0.86073782  0.44926342  0.14445101  1.0
  C  C158  1  0.82879040  0.45168127  0.18331689  1.0
  C  C159  1  0.80523321  0.50012123  0.19511066  1.0
  C  C160  1  0.81702253  0.54859008  0.17158918  1.0
  C  C161  1  0.85581139  0.55098416  0.13955986  1.0
  C  C162  1  0.76933476  0.50009356  0.23097096  1.0
  C  C163  1  0.73835211  0.50005521  0.26190809  1.0
  C  C164  1  0.70236441  0.50000164  0.29775264  1.0
  C  C165  1  0.68835095  0.45014887  0.31911901  1.0
  C  C166  1  0.64899481  0.44739157  0.35068522  1.0
  C  C167  1  0.63107590  0.49987122  0.36869509  1.0
  C  C168  1  0.64909212  0.55237931  0.35081820  1.0
  C  C169  1  0.68087886  0.54977630  0.31166588  1.0
  C  C170  1  0.12443177  0.49996470  0.87579857  1.0
  C  C171  1  0.08865239  0.44905013  0.80495369  1.0
  C  C172  1  0.12301694  0.45141641  0.76849912  1.0
  C  C173  1  0.19499804  0.49989390  0.80512898  1.0
  C  C174  1  0.23170126  0.54834442  0.87714795  1.0
  C  C175  1  0.19530988  0.55078808  0.91156941  1.0
  C  C176  1  0.23082940  0.49991738  0.76920047  1.0
  C  C177  1  0.26171559  0.49993961  0.73816570  1.0
  C  C178  1  0.29758562  0.49998656  0.70220395  1.0
  C  C179  1  0.26170671  0.45023897  0.63091710  1.0
  C  C180  1  0.29825971  0.44762862  0.59652717  1.0
  C  C181  1  0.36868570  0.50009141  0.63106551  1.0
  C  C182  1  0.40314825  0.55256927  0.70146818  1.0
  C  C183  1  0.36881562  0.54981786  0.73805866  1.0
  C  C184  1  0.86225240  0.23559056  0.97515366  1.0
  C  C185  1  0.87256746  0.23570144  0.76012773  1.0
  C  C186  1  0.78418480  0.09109843  0.68492388  1.0
  C  C187  1  0.80685648  0.09109859  0.90606571  1.0
  C  C188  1  0.71267012  0.89369521  0.80907009  1.0
  C  C189  1  0.68145828  0.89371154  0.58481793  1.0
  C  C190  1  0.62462369  0.74806022  0.51544665  1.0
  C  C191  1  0.62389305  0.74809083  0.73281417  1.0
  C  C192  1  0.23940165  0.76447509  0.12644776  1.0
  C  C193  1  0.02449270  0.76437543  0.13702935  1.0
  C  C194  1  0.09379203  0.90895595  0.19310857  1.0
  C  C195  1  0.31489646  0.90893790  0.21560641  1.0
  C  C196  1  0.41539066  0.10634359  0.31904557  1.0
  C  C197  1  0.19116697  0.10637494  0.28786078  1.0
  C  C198  1  0.26750957  0.25201547  0.37672553  1.0
  C  C199  1  0.48481603  0.25196191  0.37595460  1.0
  C  C200  1  0.87577797  0.39109616  0.12378431  1.0
  C  C201  1  0.87645477  0.60916001  0.12453061  1.0
  C  C202  1  0.78774996  0.59666354  0.18147027  1.0
  C  C203  1  0.81901643  0.40364075  0.21264612  1.0
  C  C204  1  0.71577995  0.40071860  0.30684346  1.0
  C  C205  1  0.69324437  0.59928389  0.28433630  1.0
  C  C206  1  0.63718711  0.61252335  0.37285948  1.0
  C  C207  1  0.62669445  0.38706765  0.36225566  1.0
  C  C208  1  0.01546230  0.39087199  0.76747634  1.0
  C  C209  1  0.23288481  0.60896293  0.98479835  1.0
  C  C210  1  0.30905743  0.59637634  0.91536836  1.0
  C  C211  1  0.08476807  0.40331128  0.69114003  1.0
  C  C212  1  0.18485182  0.40077772  0.59374182  1.0
  C  C213  1  0.40600198  0.59923493  0.81494228  1.0
  C  C214  1  0.47503041  0.61292084  0.73948590  1.0
  C  C215  1  0.26012612  0.38751594  0.52443809  1.0
  Br  Br216  1  0.20915896  0.38611180  0.30027310  1.0
  Br  Br217  1  0.29063190  0.59057675  0.17648502  1.0
  Br  Br218  1  0.08599081  0.40913728  0.20024499  1.0
  Br  Br219  1  0.41397077  0.61367632  0.32253252  1.0
  Br  Br220  1  0.70035002  0.61428201  0.79105514  1.0
  Br  Br221  1  0.82240110  0.40841628  0.70863552  1.0
  Br  Br222  1  0.80030646  0.59105139  0.91407701  1.0
  Br  Br223  1  0.67639966  0.38580439  0.58574344  1.0
  O  O224  1  0.50000933  0.50003044  0.50000733  1.0
  O  O225  1  0.57380465  0.54506020  0.41810195  1.0
  O  O226  1  0.63829994  0.49201920  0.58180155  1.0
  O  O227  1  0.60213910  0.64331062  0.62320886  1.0
  O  O228  1  0.58190946  0.45476648  0.42616483  1.0
  O  O229  1  0.54128701  0.64336057  0.52015058  1.0
  O  O230  1  0.58988631  0.50829812  0.64657883  1.0
  O  O231  1  0.47128728  0.54519382  0.62705122  1.0
  O  O232  1  0.35362456  0.49186766  0.41005577  1.0
  O  O233  1  0.37292117  0.45493953  0.52859996  1.0
  O  O234  1  0.41837474  0.50820095  0.36163917  1.0
  O  O235  1  0.47995367  0.35677178  0.45894169  1.0
  O  O236  1  0.37684883  0.35667815  0.39793357  1.0
  O  O237  1  0.99999460  0.50000887  0.00000628  1.0
  O  O238  1  0.92562343  0.34431290  0.97119551  1.0
  O  O239  1  0.86165209  0.44316627  0.85327076  1.0
  O  O240  1  0.89796169  0.52119162  0.04127325  1.0
  O  O241  1  0.91859814  0.34436839  0.87318950  1.0
  O  O242  1  0.95889648  0.47905064  0.10218379  1.0
  O  O243  1  0.91002103  0.55632271  0.91803125  1.0
  O  O244  1  0.02844228  0.65576891  0.07313885  1.0
  O  O245  1  0.14629708  0.55639594  0.13830963  1.0
  O  O246  1  0.12731765  0.65584513  0.08261958  1.0
  O  O247  1  0.08153520  0.44321225  0.08984404  1.0
  O  O248  1  0.02021582  0.47900447  0.87687153  1.0
  O  O249  1  0.12324457  0.52123096  0.98001028  1.0
