# generated using pymatgen
data_AlH9C13NO6
_symmetry_space_group_name_H-M   'P 1'
_cell_length_a   6.64569631
_cell_length_b   11.12440085
_cell_length_c   15.16585056
_cell_angle_alpha   91.80085938
_cell_angle_beta   100.76077677
_cell_angle_gamma   106.79141356
_symmetry_Int_Tables_number   1
_chemical_formula_structural   AlH9C13NO6
_chemical_formula_sum   'Al2 H18 C26 N2 O12'
_cell_volume   1050.16941475
_cell_formula_units_Z   2
loop_
 _symmetry_equiv_pos_site_id
 _symmetry_equiv_pos_as_xyz
  1  'x, y, z'
loop_
 _atom_site_type_symbol
 _atom_site_label
 _atom_site_symmetry_multiplicity
 _atom_site_fract_x
 _atom_site_fract_y
 _atom_site_fract_z
 _atom_site_occupancy
  Al  Al0  1  0.00907079  0.50387905  0.51017102  1.0
  Al  Al1  1  0.50902878  0.50366102  0.50845773  1.0
  H  H2  1  0.36697186  0.65460336  0.56556889  1.0
  H  H3  1  0.66233909  0.36122296  0.43770719  1.0
  H  H4  1  0.68421855  0.54403974  0.95802901  1.0
  H  H5  1  0.35601347  0.54634123  0.06051104  1.0
  H  H6  1  0.79516336  0.43737775  0.24341885  1.0
  H  H7  1  0.68711766  0.41833761  0.07610837  1.0
  H  H8  1  0.12653925  0.41255527  0.76750599  1.0
  H  H9  1  0.21515329  0.40473963  0.93366475  1.0
  H  H10  1  0.52744031  0.76401876  0.38295931  1.0
  H  H11  1  0.30852520  0.87220987  0.28771806  1.0
  H  H12  1  0.80091415  0.22540326  0.36992363  1.0
  H  H13  1  0.44772088  0.10582341  0.27986582  1.0
  H  H14  1  0.49938658  0.54424199  0.71842322  1.0
  H  H15  1  0.45046602  0.56487317  0.82675543  1.0
  H  H16  1  0.55384062  0.55075411  0.29967932  1.0
  H  H17  1  0.61982415  0.57864385  0.19458023  1.0
  H  H18  1  0.44960890  0.21767465  0.56225372  1.0
  H  H19  1  0.20804532  0.79300161  0.56481686  1.0
  C  C20  1  0.85645239  0.73310037  0.50148038  1.0
  C  C21  1  0.82873713  0.49226830  0.67060424  1.0
  C  C22  1  0.14919979  0.27423853  0.49940036  1.0
  C  C23  1  0.17957411  0.50549075  0.34592125  1.0
  C  C24  1  0.85860783  0.48219017  0.76812167  1.0
  C  C25  1  0.13262796  0.49914857  0.24685671  1.0
  C  C26  1  0.72285277  0.51434830  0.82176034  1.0
  C  C27  1  0.78036452  0.51286426  0.91639624  1.0
  C  C28  1  0.29649336  0.52682816  0.19514409  1.0
  C  C29  1  0.23172589  0.52015735  0.10041424  1.0
  C  C30  1  0.91614324  0.46223117  0.20203631  1.0
  C  C31  1  0.85602790  0.45342861  0.10910769  1.0
  C  C32  1  0.03286827  0.44260790  0.81069522  1.0
  C  C33  1  0.08374144  0.43985146  0.90304574  1.0
  C  C34  1  0.95833189  0.47852576  0.95758434  1.0
  C  C35  1  0.01642358  0.48406660  0.05693792  1.0
  C  C36  1  0.92862464  0.86855631  0.48859220  1.0
  C  C37  1  0.79004684  0.93180913  0.43653682  1.0
  C  C38  1  0.14051769  0.93694125  0.52901370  1.0
  C  C39  1  0.58659993  0.86556317  0.38278593  1.0
  C  C40  1  0.46336525  0.92667495  0.32868941  1.0
  C  C41  1  0.07653637  0.13558436  0.48598668  1.0
  C  C42  1  0.21543116  0.07141172  0.52785964  1.0
  C  C43  1  0.86643311  0.06596105  0.43423585  1.0
  C  C44  1  0.73844178  0.12505598  0.37612892  1.0
  C  C45  1  0.54063256  0.05747879  0.32464798  1.0
  N  N46  1  0.54750669  0.54953459  0.78644771  1.0
  N  N47  1  0.50923368  0.56431209  0.23392617  1.0
  O  O48  1  0.00327630  0.67691402  0.52328850  1.0
  O  O49  1  0.65784550  0.51614056  0.63002046  1.0
  O  O50  1  0.35463341  0.33051944  0.51912599  1.0
  O  O51  1  0.03728540  0.52225469  0.38702219  1.0
  O  O52  1  0.01224226  0.33416493  0.49379827  1.0
  O  O53  1  0.35942690  0.49150400  0.38553062  1.0
  O  O54  1  0.65832055  0.67527049  0.49407491  1.0
  O  O55  1  0.97598358  0.47966267  0.63066922  1.0
  O  O56  1  0.30750491  0.56403402  0.55174096  1.0
  O  O57  1  0.71265101  0.44683129  0.46609169  1.0
  O  O58  1  0.41790990  0.12639201  0.57226721  1.0
  O  O59  1  0.28421569  0.88589870  0.57435125  1.0
