# generated using pymatgen
data_Zn2H6C14SO7F
_symmetry_space_group_name_H-M   'P 1'
_cell_length_a   18.54481037
_cell_length_b   19.72130197
_cell_length_c   32.80203325
_cell_angle_alpha   85.99728486
_cell_angle_beta   73.58865103
_cell_angle_gamma   61.96878368
_symmetry_Int_Tables_number   1
_chemical_formula_structural   Zn2H6C14SO7F
_chemical_formula_sum   'Zn16 H48 C112 S8 O56 F8'
_cell_volume   10129.75205159
_cell_formula_units_Z   8
loop_
 _symmetry_equiv_pos_site_id
 _symmetry_equiv_pos_as_xyz
  1  'x, y, z'
loop_
 _atom_site_type_symbol
 _atom_site_label
 _atom_site_symmetry_multiplicity
 _atom_site_fract_x
 _atom_site_fract_y
 _atom_site_fract_z
 _atom_site_occupancy
  Zn  Zn0  1  0.87371230  0.55617501  0.51867617  1.0
  Zn  Zn1  1  0.03844152  0.48486693  0.43797999  1.0
  Zn  Zn2  1  0.04192806  0.39818580  0.52321653  1.0
  Zn  Zn3  1  0.04593404  0.56046637  0.51842777  1.0
  Zn  Zn4  1  0.62544001  0.19175743  0.73170805  1.0
  Zn  Zn5  1  0.46313452  0.35067977  0.72543869  1.0
  Zn  Zn6  1  0.45796802  0.26619021  0.81258319  1.0
  Zn  Zn7  1  0.45259006  0.19328731  0.72977658  1.0
  Zn  Zn8  1  0.46206587  0.76368550  0.31237064  1.0
  Zn  Zn9  1  0.45265549  0.69159926  0.23109167  1.0
  Zn  Zn10  1  0.62579198  0.69197002  0.22942693  1.0
  Zn  Zn11  1  0.45899696  0.85069959  0.22582269  1.0
  Zn  Zn12  1  0.03726368  0.89907363  0.02409399  1.0
  Zn  Zn13  1  0.04877671  0.05728069  0.01899381  1.0
  Zn  Zn14  1  0.87519683  0.05795588  0.01937840  1.0
  Zn  Zn15  1  0.03728331  0.98578251  0.93745036  1.0
  H  H16  1  0.80324191  0.96577225  0.65526677  1.0
  H  H17  1  0.31123893  0.97614262  0.40152755  1.0
  H  H18  1  0.81392719  0.24306146  0.65216840  1.0
  H  H19  1  0.54241739  0.48453423  0.62096352  1.0
  H  H20  1  0.54759269  0.52474152  0.66637695  1.0
  H  H21  1  0.64585854  0.57103775  0.61816440  1.0
  H  H22  1  0.64043417  0.53089425  0.57284708  1.0
  H  H23  1  0.29143715  0.60080015  0.29611705  1.0
  H  H24  1  0.35222990  0.67431761  0.43277521  1.0
  H  H25  1  0.26146226  0.76261454  0.43014725  1.0
  H  H26  1  0.16492152  0.71369816  0.47723632  1.0
  H  H27  1  0.25548554  0.62541778  0.47983811  1.0
  H  H28  1  0.81250587  0.60052431  0.29559348  1.0
  H  H29  1  0.54623081  0.76267798  0.42950159  1.0
  H  H30  1  0.54093743  0.67448653  0.43204067  1.0
  H  H31  1  0.63921835  0.62527824  0.47916271  1.0
  H  H32  1  0.64463163  0.71333956  0.47662750  1.0
  H  H33  1  0.30474158  0.45875373  0.64532385  1.0
  H  H34  1  0.33248148  0.17794927  0.63047873  1.0
  H  H35  1  0.24184123  0.21809451  0.67593234  1.0
  H  H36  1  0.14555249  0.26822336  0.62771473  1.0
  H  H37  1  0.23623865  0.22811079  0.58234414  1.0
  H  H38  1  0.18884302  0.65952476  0.96237333  1.0
  H  H39  1  0.68675137  0.14986521  0.95442153  1.0
  H  H40  1  0.95771411  0.07635160  0.81785706  1.0
  H  H41  1  0.95277193  0.98800854  0.82041657  1.0
  H  H42  1  0.85457932  0.03687096  0.77329683  1.0
  H  H43  1  0.85948562  0.12519721  0.77077251  1.0
  H  H44  1  0.19527727  0.05240219  0.84358003  1.0
  H  H45  1  0.16737271  0.21523542  0.97658727  1.0
  H  H46  1  0.25822195  0.12701839  0.97917833  1.0
  H  H47  1  0.35419666  0.17438938  0.92995773  1.0
  H  H48  1  0.26341888  0.26252394  0.92746004  1.0
  H  H49  1  0.92566713  0.28355509  0.09443725  1.0
  H  H50  1  0.19503699  0.79189348  0.10420593  1.0
  H  H51  1  0.25804986  0.03265325  0.07372354  1.0
  H  H52  1  0.16711783  0.07281600  0.11911471  1.0
  H  H53  1  0.26301704  0.02275416  0.16738393  1.0
  H  H54  1  0.35390005  0.98253055  0.12209140  1.0
  H  H55  1  0.68692447  0.00632361  0.09773553  1.0
  H  H56  1  0.95298655  0.72440790  0.08369411  1.0
  H  H57  1  0.95806363  0.76471548  0.12912375  1.0
  H  H58  1  0.85983423  0.71863492  0.17715136  1.0
  H  H59  1  0.85485305  0.67814918  0.13179795  1.0
  H  H60  1  0.62186768  0.82143391  0.60706491  1.0
  H  H61  1  0.21376021  0.26112785  0.31177993  1.0
  H  H62  1  0.28584800  0.65227283  0.77522679  1.0
  H  H63  1  0.55099940  0.42963010  0.14324408  1.0
  C  C64  1  0.86214825  0.56819583  0.43064156  1.0
  C  C65  1  0.12374917  0.31593851  0.43785004  1.0
  C  C66  1  0.86391681  0.42940106  0.56845571  1.0
  C  C67  1  0.13808518  0.43255230  0.56844600  1.0
  C  C68  1  0.87407309  0.68423886  0.56095440  1.0
  C  C69  1  0.13732747  0.56953889  0.43092006  1.0
  C  C70  1  0.63992676  0.31723887  0.68095656  1.0
  C  C71  1  0.37691458  0.43529219  0.81037081  1.0
  C  C72  1  0.63606075  0.18159958  0.81958551  1.0
  C  C73  1  0.36141735  0.18122210  0.81824906  1.0
  C  C74  1  0.62349448  0.06596116  0.68863253  1.0
  C  C75  1  0.36292035  0.31984431  0.68038792  1.0
  C  C76  1  0.36225188  0.68093499  0.31909744  1.0
  C  C77  1  0.62208446  0.56555298  0.18833202  1.0
  C  C78  1  0.63850940  0.68085437  0.31820549  1.0
  C  C79  1  0.63643969  0.81957920  0.18070489  1.0
  C  C80  1  0.37683165  0.93318235  0.31165401  1.0
  C  C81  1  0.36116381  0.81845846  0.18112145  1.0
  C  C82  1  0.13769487  0.93042440  0.06874339  1.0
  C  C83  1  0.87876861  0.18391587  0.06124698  1.0
  C  C84  1  0.86091932  0.93183102  0.06897690  1.0
  C  C85  1  0.86082954  0.06967807  0.93146502  1.0
  C  C86  1  0.12183812  0.81581273  0.93889088  1.0
  C  C87  1  0.13770798  0.06855356  0.93060813  1.0
  C  C88  1  0.73544137  0.80279222  0.60092292  1.0
  C  C89  1  0.76020846  0.94735148  0.64915867  1.0
  C  C90  1  0.82381468  0.75851051  0.58603403  1.0
  C  C91  1  0.67259719  0.99110182  0.66372155  1.0
  C  C92  1  0.78348080  0.87872580  0.62620888  1.0
  C  C93  1  0.71265351  0.87164831  0.62386383  1.0
  C  C94  1  0.20196399  0.22768473  0.36837251  1.0
  C  C95  1  0.29880190  0.02234734  0.38011994  1.0
  C  C96  1  0.17294976  0.24196229  0.41267333  1.0
  C  C97  1  0.32744691  0.00827121  0.33627325  1.0
  C  C98  1  0.25309096  0.10213625  0.39197414  1.0
  C  C99  1  0.24786919  0.14737031  0.35670545  1.0
  C  C100  1  0.69641012  0.34585102  0.65253992  1.0
  C  C101  1  0.80839668  0.39987273  0.59712718  1.0
  C  C102  1  0.66524032  0.41819932  0.63634908  1.0
  C  C103  1  0.83852564  0.32673137  0.61407252  1.0
  C  C104  1  0.71958984  0.44366516  0.60971197  1.0
  C  C105  1  0.78549292  0.30017895  0.64061545  1.0
  C  C106  1  0.58534348  0.49160102  0.63546171  1.0
  C  C107  1  0.64676991  0.52060687  0.60530070  1.0
  C  C108  1  0.30555773  0.65264946  0.34753054  1.0
  C  C109  1  0.19444813  0.59701747  0.40199894  1.0
  C  C110  1  0.28044668  0.66447596  0.39178206  1.0
  C  C111  1  0.22096977  0.58551491  0.35692403  1.0
  C  C112  1  0.22695235  0.63754623  0.41773202  1.0
  C  C113  1  0.27421245  0.61194112  0.33048050  1.0
  C  C114  1  0.28777369  0.69968820  0.42900942  1.0
  C  C115  1  0.22723362  0.66909466  0.45848945  1.0
  C  C116  1  0.69492654  0.65258866  0.34677778  1.0
  C  C117  1  0.80677071  0.59639464  0.40154632  1.0
  C  C118  1  0.66371440  0.66445596  0.39106531  1.0
  C  C119  1  0.83706930  0.58512592  0.35648081  1.0
  C  C120  1  0.71803494  0.63718395  0.41710941  1.0
  C  C121  1  0.78401036  0.61178052  0.32993292  1.0
  C  C122  1  0.58390117  0.69973847  0.42829035  1.0
  C  C123  1  0.64541955  0.66890814  0.45783044  1.0
  C  C124  1  0.30546496  0.34835273  0.65236798  1.0
  C  C125  1  0.19455365  0.40541528  0.59708693  1.0
  C  C126  1  0.27271117  0.30496250  0.63996918  1.0
  C  C127  1  0.22834139  0.44853651  0.61028635  1.0
  C  C128  1  0.21944938  0.33284246  0.61336138  1.0
  C  C129  1  0.28152430  0.42185332  0.63675352  1.0
  C  C130  1  0.27073020  0.22884967  0.64367692  1.0
  C  C131  1  0.21045845  0.26024341  0.61352801  1.0
  C  C132  1  0.29839442  0.58367088  0.81994747  1.0
  C  C133  1  0.20120878  0.66852308  0.92854710  1.0
  C  C134  1  0.32761981  0.51004018  0.83482863  1.0
  C  C135  1  0.17208359  0.74132611  0.91366529  1.0
  C  C136  1  0.24717425  0.61085689  0.89455027  1.0
  C  C137  1  0.25222494  0.64121210  0.85431119  1.0
  C  C138  1  0.80416044  0.09793300  0.90305442  1.0
  C  C139  1  0.69179420  0.15374465  0.84855547  1.0
  C  C140  1  0.83509452  0.08605887  0.85879202  1.0
  C  C141  1  0.66186639  0.16501914  0.89361342  1.0
  C  C142  1  0.78060268  0.11314341  0.83281413  1.0
  C  C143  1  0.71507351  0.13861815  0.92007398  1.0
  C  C144  1  0.91491133  0.05093381  0.82160778  1.0
  C  C145  1  0.85337041  0.08154249  0.79208970  1.0
  C  C146  1  0.19462610  0.09691188  0.90233249  1.0
  C  C147  1  0.30499261  0.15185229  0.84613698  1.0
  C  C148  1  0.22712652  0.13746132  0.91781804  1.0
  C  C149  1  0.27134461  0.11036516  0.83116215  1.0
  C  C150  1  0.28012964  0.16368027  0.89056806  1.0
  C  C151  1  0.21840075  0.08377903  0.85775790  1.0
  C  C152  1  0.22912368  0.17001494  0.95771542  1.0
  C  C153  1  0.28924101  0.19968161  0.92691458  1.0
  C  C154  1  0.64096204  0.44701593  0.14909630  1.0
  C  C155  1  0.85808190  0.30208250  0.10063878  1.0
  C  C156  1  0.67090475  0.49109756  0.16364458  1.0
  C  C157  1  0.82836488  0.25861233  0.08615674  1.0
  C  C158  1  0.79011149  0.37075017  0.12354919  1.0
  C  C159  1  0.70965901  0.37806971  0.12609454  1.0
  C  C160  1  0.19452360  0.90221504  0.09704577  1.0
  C  C161  1  0.30468512  0.84556201  0.15258511  1.0
  C  C162  1  0.22695209  0.94579301  0.10956608  1.0
  C  C163  1  0.27110839  0.80224780  0.13937500  1.0
  C  C164  1  0.27989067  0.91806108  0.13630318  1.0
  C  C165  1  0.21820053  0.82883132  0.11277590  1.0
  C  C166  1  0.22889963  0.02193472  0.10593795  1.0
  C  C167  1  0.28894834  0.99057810  0.13620384  1.0
  C  C168  1  0.80437715  0.90331259  0.09736290  1.0
  C  C169  1  0.69215470  0.84933853  0.15251305  1.0
  C  C170  1  0.83540802  0.83100231  0.11355932  1.0
  C  C171  1  0.66214839  0.92263087  0.13569771  1.0
  C  C172  1  0.78095472  0.80553192  0.14009245  1.0
  C  C173  1  0.71528581  0.94916768  0.10925949  1.0
  C  C174  1  0.91521328  0.75764903  0.11457505  1.0
  C  C175  1  0.85368933  0.72869466  0.14466524  1.0
  S  S176  1  0.87818784  0.80106721  0.60017373  1.0
  S  S177  1  0.61760696  0.94931805  0.64971303  1.0
  S  S178  1  0.20176643  0.15778984  0.43954119  1.0
  S  S179  1  0.29914597  0.09180770  0.30901587  1.0
  S  S180  1  0.29881119  0.51167250  0.89038103  1.0
  S  S181  1  0.20039793  0.74049217  0.85826180  1.0
  S  S182  1  0.78191077  0.44827933  0.14927999  1.0
  S  S183  1  0.71763196  0.30061668  0.10026965  1.0
  O  O184  1  0.99893069  0.50038538  0.50049798  1.0
  O  O185  1  0.82333075  0.58286257  0.47054619  1.0
  O  O186  1  0.10273267  0.37647733  0.41740413  1.0
  O  O187  1  0.94409086  0.38655245  0.55893161  1.0
  O  O188  1  0.94220047  0.53238717  0.41381458  1.0
  O  O189  1  0.82459022  0.49649629  0.55592008  1.0
  O  O190  1  0.10619568  0.31299343  0.47854638  1.0
  O  O191  1  0.11583335  0.38443328  0.55931370  1.0
  O  O192  1  0.95527673  0.65712417  0.55102781  1.0
  O  O193  1  0.11699199  0.49977567  0.55556089  1.0
  O  O194  1  0.83352804  0.65342037  0.55125047  1.0
  O  O195  1  0.11218384  0.53159933  0.41405908  1.0
  O  O196  1  0.11854389  0.58686800  0.47076662  1.0
  O  O197  1  0.50054228  0.25003064  0.74998846  1.0
  O  O198  1  0.67554532  0.25020773  0.69410888  1.0
  O  O199  1  0.39864473  0.43549756  0.76983913  1.0
  O  O200  1  0.55593406  0.21859016  0.83617820  1.0
  O  O201  1  0.56005616  0.36301874  0.68966329  1.0
  O  O202  1  0.67519467  0.16517310  0.77976405  1.0
  O  O203  1  0.39376680  0.37590606  0.83227801  1.0
  O  O204  1  0.38392618  0.21896935  0.83757841  1.0
  O  O205  1  0.54235270  0.09580393  0.69753846  1.0
  O  O206  1  0.38243985  0.16678601  0.77819418  1.0
  O  O207  1  0.66589913  0.09409690  0.69903011  1.0
  O  O208  1  0.38908178  0.36463999  0.68953776  1.0
  O  O209  1  0.38113509  0.25230501  0.69281626  1.0
  O  O210  1  0.50069887  0.74986846  0.24989359  1.0
  O  O211  1  0.38745863  0.71744865  0.33742999  1.0
  O  O212  1  0.54111794  0.59507117  0.19883674  1.0
  O  O213  1  0.67418334  0.66666667  0.27815890  1.0
  O  O214  1  0.38073827  0.66648272  0.27910570  1.0
  O  O215  1  0.55859899  0.71714021  0.33675103  1.0
  O  O216  1  0.66571619  0.59444801  0.19718135  1.0
  O  O217  1  0.67524948  0.75161738  0.19235770  1.0
  O  O218  1  0.39490411  0.93502267  0.27105523  1.0
  O  O219  1  0.55631364  0.86313396  0.19070573  1.0
  O  O220  1  0.39693051  0.87347143  0.33288608  1.0
  O  O221  1  0.38175652  0.75144302  0.19413716  1.0
  O  O222  1  0.38421691  0.86615212  0.19005104  1.0
  O  O223  1  0.00004838  0.99994195  0.99994175  1.0
  O  O224  1  0.11172580  0.88545871  0.05956686  1.0
  O  O225  1  0.95973690  0.15494794  0.05149652  1.0
  O  O226  1  0.82526564  0.99946069  0.05655977  1.0
  O  O227  1  0.11985398  0.99777031  0.05609427  1.0
  O  O228  1  0.94082157  0.88558479  0.05947709  1.0
  O  O229  1  0.83621222  0.15489635  0.05163674  1.0
  O  O230  1  0.82525643  0.08495001  0.97148210  1.0
  O  O231  1  0.10221633  0.87585802  0.91770607  1.0
  O  O232  1  0.94072308  0.03231051  0.91303536  1.0
  O  O233  1  0.10242867  0.81378845  0.97936239  1.0
  O  O234  1  0.11986461  0.08324265  0.97060139  1.0
  O  O235  1  0.11170345  0.03233274  0.91270600  1.0
  O  O236  1  0.67980110  0.78161330  0.59390980  1.0
  O  O237  1  0.18729550  0.28417849  0.34096973  1.0
  O  O238  1  0.31297859  0.59689991  0.77799912  1.0
  O  O239  1  0.55710817  0.46871204  0.15641066  1.0
  F  F240  1  0.92346148  0.27790163  0.60473327  1.0
  F  F241  1  0.19443151  0.54703618  0.33711780  1.0
  F  F242  1  0.92189184  0.54648798  0.33676565  1.0
  F  F243  1  0.20960568  0.52019553  0.59698665  1.0
  F  F244  1  0.57696274  0.20338150  0.91339579  1.0
  F  F245  1  0.29002892  0.09450303  0.78869228  1.0
  F  F246  1  0.28978180  0.73072485  0.15270437  1.0
  F  F247  1  0.57724105  0.97158855  0.14504976  1.0
