# generated using pymatgen
data_Zn3H13C31Cl3(O6F)2
_symmetry_space_group_name_H-M   'P 1'
_cell_length_a   18.56953254
_cell_length_b   18.74590197
_cell_length_c   18.77061226
_cell_angle_alpha   109.54200039
_cell_angle_beta   108.90260500
_cell_angle_gamma   109.68618992
_symmetry_Int_Tables_number   1
_chemical_formula_structural   Zn3H13C31Cl3(O6F)2
_chemical_formula_sum   'Zn6 H26 C62 Cl6 O24 F4'
_cell_volume   5047.23473192
_cell_formula_units_Z   2
loop_
 _symmetry_equiv_pos_site_id
 _symmetry_equiv_pos_as_xyz
  1  'x, y, z'
loop_
 _atom_site_type_symbol
 _atom_site_label
 _atom_site_symmetry_multiplicity
 _atom_site_fract_x
 _atom_site_fract_y
 _atom_site_fract_z
 _atom_site_occupancy
  Zn  Zn0  1  0.00637505  0.45263399  0.94637712  1.0
  Zn  Zn1  1  0.00467680  0.57398073  0.07376865  1.0
  Zn  Zn2  1  0.57062726  0.00597637  0.05789241  1.0
  Zn  Zn3  1  0.43545937  0.99472029  0.93211946  1.0
  Zn  Zn4  1  0.43415580  0.42892647  0.49466388  1.0
  Zn  Zn5  1  0.56170878  0.55633406  0.49658008  1.0
  H  H6  1  0.88340751  0.38268886  0.15082335  1.0
  H  H7  1  0.69800225  0.35695849  0.53505288  1.0
  H  H8  1  0.74833404  0.28759080  0.65888566  1.0
  H  H9  1  0.82561738  0.36235201  0.64551042  1.0
  H  H10  1  0.27636670  0.81816228  0.19110018  1.0
  H  H11  1  0.40262529  0.91942302  0.19015182  1.0
  H  H12  1  0.22320676  0.73692007  0.84521571  1.0
  H  H13  1  0.10663633  0.61823265  0.84470987  1.0
  H  H14  1  0.18007406  0.57788807  0.87294429  1.0
  H  H15  1  0.11521615  0.49498828  0.24680374  1.0
  H  H16  1  0.34288633  0.36258418  0.16259845  1.0
  H  H17  1  0.30300721  0.47411359  0.08580706  1.0
  H  H18  1  0.23260279  0.35913447  0.03838627  1.0
  H  H19  1  0.51853286  0.29207340  0.11082120  1.0
  H  H20  1  0.54277213  0.41187675  0.24045458  1.0
  H  H21  1  0.52136351  0.21148021  0.38923407  1.0
  H  H22  1  0.40952951  0.18636611  0.34137131  1.0
  H  H23  1  0.62216392  0.23793977  0.72698673  1.0
  H  H24  1  0.37880271  0.06495569  0.20420089  1.0
  H  H25  1  0.34555664  0.73572292  0.69730904  1.0
  H  H26  1  0.36266643  0.62977020  0.59231915  1.0
  H  H27  1  0.70348357  0.77938733  0.82106387  1.0
  H  H28  1  0.71132274  0.84785409  0.77308127  1.0
  H  H29  1  0.69332313  0.94712571  0.88582454  1.0
  H  H30  1  0.77938835  0.24420265  0.13530204  1.0
  H  H31  1  0.80827552  0.58790474  0.89746211  1.0
  C  C32  1  0.89077321  0.49478034  0.87341663  1.0
  C  C33  1  0.73317685  0.27685179  0.93488856  1.0
  C  C34  1  0.80785177  0.34423590  0.01762578  1.0
  C  C35  1  0.82554494  0.33160220  0.08827475  1.0
  C  C36  1  0.76948792  0.25242937  0.07874038  1.0
  C  C37  1  0.70003277  0.18346616  0.99840977  1.0
  C  C38  1  0.76789770  0.42110319  0.71912167  1.0
  C  C39  1  0.81294578  0.48528182  0.80621557  1.0
  C  C40  1  0.77719240  0.53877291  0.82955929  1.0
  C  C41  1  0.70291022  0.53004029  0.76795010  1.0
  C  C42  1  0.65929858  0.46740850  0.67910303  1.0
  C  C43  1  0.87831660  0.41932932  0.02415692  1.0
  C  C44  1  0.69394698  0.41322014  0.65824789  1.0
  C  C45  1  0.68698132  0.34131309  0.58343488  1.0
  C  C46  1  0.76685165  0.34661074  0.65289484  1.0
  C  C47  1  0.21895720  0.70285251  0.98119534  1.0
  C  C48  1  0.21118124  0.72113646  0.05589154  1.0
  C  C49  1  0.27907869  0.80125683  0.13087068  1.0
  C  C50  1  0.35047337  0.85876504  0.13040400  1.0
  C  C51  1  0.35484900  0.84132564  0.05334044  1.0
  C  C52  1  0.28644525  0.76270625  0.97966302  1.0
  C  C53  1  0.24771908  0.70827722  0.88274401  1.0
  C  C54  1  0.10709016  0.47025644  0.09456164  1.0
  C  C55  1  0.17486675  0.63699171  0.88563587  1.0
  C  C56  1  0.23111148  0.44095633  0.15477174  1.0
  C  C57  1  0.16623417  0.45983840  0.16064488  1.0
  C  C58  1  0.16303596  0.47708433  0.23814954  1.0
  C  C59  1  0.22061975  0.47351802  0.30484420  1.0
  C  C60  1  0.28825704  0.45709662  0.30034567  1.0
  C  C61  1  0.29134330  0.44254101  0.22380334  1.0
  C  C62  1  0.34140767  0.42364314  0.17689243  1.0
  C  C63  1  0.27320205  0.42221691  0.09909290  1.0
  C  C64  1  0.48191451  0.12439901  0.08064038  1.0
  C  C65  1  0.13530381  0.65543977  0.05167134  1.0
  C  C66  1  0.63570126  0.11118052  0.00059530  1.0
  C  C67  1  0.47427181  0.87643792  0.85853784  1.0
  C  C68  1  0.42228587  0.90307746  0.04431749  1.0
  C  C69  1  0.51193738  0.62989074  0.60447832  1.0
  C  C70  1  0.58850487  0.46758591  0.61192017  1.0
  C  C71  1  0.52212781  0.40419998  0.37705889  1.0
  C  C72  1  0.35590482  0.46086455  0.37371686  1.0
  C  C73  1  0.47651327  0.18476267  0.21808047  1.0
  C  C74  1  0.48687229  0.19607404  0.15162365  1.0
  C  C75  1  0.50972058  0.27953520  0.16096525  1.0
  C  C76  1  0.70619486  0.29070697  0.86331418  1.0
  C  C77  1  0.52366818  0.34752077  0.23444024  1.0
  C  C78  1  0.51191725  0.33480584  0.30058575  1.0
  C  C79  1  0.48718458  0.25117868  0.28961995  1.0
  C  C80  1  0.46559124  0.19486333  0.33021336  1.0
  C  C81  1  0.44752714  0.11832398  0.24649147  1.0
  C  C82  1  0.56510348  0.82283131  0.80741617  1.0
  C  C83  1  0.48319712  0.81439975  0.79262855  1.0
  C  C84  1  0.41077477  0.74465848  0.71191232  1.0
  C  C85  1  0.42058781  0.68560137  0.65231870  1.0
  C  C86  1  0.50397667  0.69645703  0.66695726  1.0
  C  C87  1  0.64193463  0.22522488  0.78063671  1.0
  C  C88  1  0.57570317  0.76790523  0.74505988  1.0
  C  C89  1  0.67495898  0.81598923  0.79966179  1.0
  C  C90  1  0.66337034  0.87868018  0.87013994  1.0
  C  C91  1  0.60372020  0.14022024  0.76737635  1.0
  C  C92  1  0.62332484  0.12161201  0.83446180  1.0
  C  C93  1  0.68344880  0.19159841  0.92198927  1.0
  Cl  Cl94  1  0.31513894  0.67624715  0.84556063  1.0
  Cl  Cl95  1  0.21078874  0.49612672  0.39754510  1.0
  Cl  Cl96  1  0.45228540  0.50826495  0.22489067  1.0
  Cl  Cl97  1  0.70216923  0.87946470  0.97114619  1.0
  Cl  Cl98  1  0.58125564  0.01317471  0.80551006  1.0
  Cl  Cl99  1  0.66379202  0.59929867  0.80212216  1.0
  O  O100  1  0.91993255  0.44361748  0.84638655  1.0
  O  O101  1  0.42384007  0.09119437  0.00133228  1.0
  O  O102  1  0.66688680  0.08837324  0.05564957  1.0
  O  O103  1  0.55491384  0.08297108  0.95312376  1.0
  O  O104  1  0.53001093  0.90898760  0.93728794  1.0
  O  O105  1  0.41361550  0.89531188  0.83202192  1.0
  O  O106  1  0.50419034  0.93336386  0.09349957  1.0
  O  O107  1  0.39055135  0.91911826  0.98446866  1.0
  O  O108  1  0.45867871  0.55050860  0.57596616  1.0
  O  O109  1  0.57203941  0.65678061  0.58436112  1.0
  O  O110  1  0.50798915  0.41494626  0.58460076  1.0
  O  O111  1  0.92220973  0.55060575  0.95208438  1.0
  O  O112  1  0.61629356  0.52093396  0.58715772  1.0
  O  O113  1  0.47634651  0.37813257  0.41032574  1.0
  O  O114  1  0.57514380  0.48487429  0.40494873  1.0
  O  O115  1  0.32987501  0.40665191  0.39949200  1.0
  O  O116  1  0.43448316  0.51755939  0.40365655  1.0
  O  O117  1  0.90794614  0.39638921  0.97373106  1.0
  O  O118  1  0.90737820  0.49809168  0.08118021  1.0
  O  O119  1  0.08718885  0.42651066  0.01476901  1.0
  O  O120  1  0.08087646  0.52256845  0.12185544  1.0
  O  O121  1  0.10108188  0.57727187  0.99179657  1.0
  O  O122  1  0.10743380  0.67903194  0.10508819  1.0
  O  O123  1  0.53681638  0.10064304  0.10655200  1.0
  F  F124  1  0.74393434  0.37373552  0.87773475  1.0
  F  F125  1  0.49933304  0.07934979  0.26230168  1.0
  F  F126  1  0.54597873  0.07435915  0.68466588  1.0
  F  F127  1  0.60868760  0.26027307  0.53731129  1.0
