# generated using pymatgen
data_AlH6C10O5F
_symmetry_space_group_name_H-M   'P 1'
_cell_length_a   6.65395091
_cell_length_b   14.48917679
_cell_length_c   15.71783264
_cell_angle_alpha   90.00140640
_cell_angle_beta   90.49099217
_cell_angle_gamma   89.85299657
_symmetry_Int_Tables_number   1
_chemical_formula_structural   AlH6C10O5F
_chemical_formula_sum   'Al4 H24 C40 O20 F4'
_cell_volume   1515.29987825
_cell_formula_units_Z   4
loop_
 _symmetry_equiv_pos_site_id
 _symmetry_equiv_pos_as_xyz
  1  'x, y, z'
loop_
 _atom_site_type_symbol
 _atom_site_label
 _atom_site_symmetry_multiplicity
 _atom_site_fract_x
 _atom_site_fract_y
 _atom_site_fract_z
 _atom_site_occupancy
  Al  Al0  1  0.98835958  0.99879249  0.49803961  1.0
  Al  Al1  1  0.48877347  0.00190063  0.49944833  1.0
  Al  Al2  1  0.00291518  0.49937460  0.00113763  1.0
  Al  Al3  1  0.50363476  0.50125128  0.00240521  1.0
  H  H4  1  0.73387146  0.87819047  0.50884713  1.0
  H  H5  1  0.23279758  0.11956189  0.52268680  1.0
  H  H6  1  0.75543792  0.61401334  0.96415914  1.0
  H  H7  1  0.25813250  0.38382559  0.97221482  1.0
  H  H8  1  0.52973452  0.64082993  0.23787875  1.0
  H  H9  1  0.90111902  0.80755917  0.08821404  1.0
  H  H10  1  0.76532625  0.73110465  0.15518357  1.0
  H  H11  1  0.77047256  0.85231911  0.27179506  1.0
  H  H12  1  0.90464254  0.92738317  0.20281015  1.0
  H  H13  1  0.02400310  0.36203108  0.76044724  1.0
  H  H14  1  0.41845093  0.18794372  0.91511312  1.0
  H  H15  1  0.27378660  0.26354358  0.84867942  1.0
  H  H16  1  0.27380118  0.14442696  0.73220214  1.0
  H  H17  1  0.41992947  0.06936870  0.79819954  1.0
  H  H18  1  0.47379614  0.37312503  0.24394203  1.0
  H  H19  1  0.07678025  0.19168488  0.09412179  1.0
  H  H20  1  0.22266731  0.26615367  0.16043785  1.0
  H  H21  1  0.21168857  0.14715817  0.27849511  1.0
  H  H22  1  0.06794509  0.07330027  0.21088891  1.0
  H  H23  1  0.52581345  0.63123227  0.75510009  1.0
  H  H24  1  0.77521946  0.73233414  0.84309029  1.0
  H  H25  1  0.92107930  0.80813634  0.90855695  1.0
  H  H26  1  0.92150101  0.92547338  0.79056040  1.0
  H  H27  1  0.77484536  0.85008990  0.72543330  1.0
  C  C28  1  0.23746315  0.88295596  0.60860678  1.0
  C  C29  1  0.24656162  0.89179454  0.38324379  1.0
  C  C30  1  0.74269622  0.11615508  0.38942608  1.0
  C  C31  1  0.73614083  0.11056984  0.61481540  1.0
  C  C32  1  0.25720545  0.61017786  0.88497312  1.0
  C  C33  1  0.24493553  0.61265241  0.11314450  1.0
  C  C34  1  0.74813288  0.39329202  0.11741464  1.0
  C  C35  1  0.75721223  0.38524346  0.88964710  1.0
  C  C36  1  0.24410019  0.68299222  0.18186950  1.0
  C  C37  1  0.24575589  0.82082489  0.31480334  1.0
  C  C38  1  0.08764623  0.74612487  0.19130752  1.0
  C  C39  1  0.40089718  0.75521184  0.30490672  1.0
  C  C40  1  0.08993656  0.81291388  0.25523667  1.0
  C  C41  1  0.40395658  0.68902150  0.24079083  1.0
  C  C42  1  0.89066419  0.78010530  0.15327997  1.0
  C  C43  1  0.89307171  0.85594806  0.22577105  1.0
  C  C44  1  0.74827242  0.31626076  0.81975380  1.0
  C  C45  1  0.74181513  0.18087683  0.68389849  1.0
  C  C46  1  0.59400347  0.25189584  0.81112100  1.0
  C  C47  1  0.89481489  0.24777060  0.69316392  1.0
  C  C48  1  0.59282271  0.18656931  0.74583619  1.0
  C  C49  1  0.90068503  0.31274376  0.75823723  1.0
  C  C50  1  0.40208696  0.21563634  0.85027774  1.0
  C  C51  1  0.40155998  0.14109825  0.77668755  1.0
  C  C52  1  0.75095012  0.32450504  0.18735614  1.0
  C  C53  1  0.74273806  0.18777287  0.32169501  1.0
  C  C54  1  0.90117545  0.25796074  0.19664667  1.0
  C  C55  1  0.59367193  0.25677694  0.31178312  1.0
  C  C56  1  0.89559919  0.19215119  0.26139957  1.0
  C  C57  1  0.59488226  0.32247174  0.24729449  1.0
  C  C58  1  0.09292741  0.21950283  0.15892700  1.0
  C  C59  1  0.08693696  0.14494783  0.23245076  1.0
  C  C60  1  0.24965745  0.67796203  0.81402785  1.0
  C  C61  1  0.24272818  0.81205628  0.67716199  1.0
  C  C62  1  0.09518550  0.74249077  0.80482874  1.0
  C  C63  1  0.39584294  0.74496228  0.68684022  1.0
  C  C64  1  0.09373951  0.80721951  0.73909076  1.0
  C  C65  1  0.40211450  0.68059995  0.75251074  1.0
  C  C66  1  0.90384806  0.77976759  0.84399913  1.0
  C  C67  1  0.90286764  0.85355231  0.76975697  1.0
  O  O68  1  0.06485459  0.91581362  0.58995424  1.0
  O  O69  1  0.41384965  0.92823940  0.40286967  1.0
  O  O70  1  0.57700268  0.09734276  0.42509310  1.0
  O  O71  1  0.90164819  0.08956288  0.57993113  1.0
  O  O72  1  0.91215075  0.07899257  0.40602097  1.0
  O  O73  1  0.56387094  0.07732413  0.59670793  1.0
  O  O74  1  0.40369576  0.90523266  0.57522036  1.0
  O  O75  1  0.07704065  0.90985681  0.41645883  1.0
  O  O76  1  0.73778360  0.94405029  0.49834786  1.0
  O  O77  1  0.23696103  0.05649194  0.50221103  1.0
  O  O78  1  0.09107165  0.59344668  0.92168338  1.0
  O  O79  1  0.41255884  0.59499843  0.07813244  1.0
  O  O80  1  0.58080477  0.43213177  0.10036877  1.0
  O  O81  1  0.92823644  0.42091169  0.90619226  1.0
  O  O82  1  0.91263748  0.40694182  0.07847649  1.0
  O  O83  1  0.59291143  0.40209357  0.92801691  1.0
  O  O84  1  0.42812478  0.57554124  0.90418306  1.0
  O  O85  1  0.07621282  0.57699244  0.09379592  1.0
  O  O86  1  0.75328123  0.55754956  0.99719996  1.0
  O  O87  1  0.25454630  0.44314221  0.00068218  1.0
  F  F88  1  0.55584427  0.75338640  0.36229332  1.0
  F  F89  1  0.04574383  0.25227539  0.63518046  1.0
  F  F90  1  0.44006126  0.26230502  0.36825731  1.0
  F  F91  1  0.54632987  0.73982251  0.62874045  1.0
