# generated using pymatgen
data_PrCoH18C36(NO2)6
_symmetry_space_group_name_H-M   'P 1'
_cell_length_a   18.27449321
_cell_length_b   18.27448569
_cell_length_c   21.53269559
_cell_angle_alpha   110.25936657
_cell_angle_beta   110.25937660
_cell_angle_gamma   100.59658451
_symmetry_Int_Tables_number   1
_chemical_formula_structural   PrCoH18C36(NO2)6
_chemical_formula_sum   'Pr4 Co4 H72 C144 N24 O48'
_cell_volume   5939.77052092
_cell_formula_units_Z   4
loop_
 _symmetry_equiv_pos_site_id
 _symmetry_equiv_pos_as_xyz
  1  'x, y, z'
loop_
 _atom_site_type_symbol
 _atom_site_label
 _atom_site_symmetry_multiplicity
 _atom_site_fract_x
 _atom_site_fract_y
 _atom_site_fract_z
 _atom_site_occupancy
  Pr  Pr0  1  0.85268249  0.10266976  0.74999088  1.0
  Pr  Pr1  1  0.39733085  0.64731925  0.75001026  1.0
  Pr  Pr2  1  0.14731813  0.89733111  0.25000996  1.0
  Pr  Pr3  1  0.60266919  0.35268163  0.24999041  1.0
  Co  Co4  1  0.89160507  0.60839404  0.74999924  1.0
  Co  Co5  1  0.35839779  0.14160179  0.74999990  1.0
  Co  Co6  1  0.10839454  0.39160559  0.25000001  1.0
  Co  Co7  1  0.64160181  0.85839784  0.24999981  1.0
  H  H8  1  0.96337089  0.55450890  0.87106764  1.0
  H  H9  1  0.40768810  0.31656524  0.87107960  1.0
  H  H10  1  0.18343390  0.09231349  0.62892065  1.0
  H  H11  1  0.94549142  0.53662824  0.62893168  1.0
  H  H12  1  0.03662777  0.44549135  0.12893198  1.0
  H  H13  1  0.59231420  0.68343376  0.12892072  1.0
  H  H14  1  0.81656518  0.90768800  0.37107992  1.0
  H  H15  1  0.05450972  0.46337076  0.37106830  1.0
  H  H16  1  0.96145905  0.41451982  0.86723290  1.0
  H  H17  1  0.40580010  0.45272757  0.86723530  1.0
  H  H18  1  0.04727240  0.09420167  0.63276569  1.0
  H  H19  1  0.08548091  0.53854013  0.63276750  1.0
  H  H20  1  0.03853982  0.58548105  0.13276743  1.0
  H  H21  1  0.59420302  0.54727207  0.13276545  1.0
  H  H22  1  0.95272726  0.90579982  0.36723505  1.0
  H  H23  1  0.91451986  0.46145950  0.36723348  1.0
  H  H24  1  0.73868618  0.32532824  0.54302085  1.0
  H  H25  1  0.30429823  0.21766396  0.54303736  1.0
  H  H26  1  0.28233744  0.19570029  0.95696265  1.0
  H  H27  1  0.17466954  0.76131346  0.95697880  1.0
  H  H28  1  0.26131416  0.67467015  0.45697918  1.0
  H  H29  1  0.69570180  0.78233691  0.45696238  1.0
  H  H30  1  0.71766413  0.80429996  0.04303782  1.0
  H  H31  1  0.82532912  0.23868679  0.04302128  1.0
  H  H32  1  0.80501685  0.30166974  0.63478187  1.0
  H  H33  1  0.32977088  0.33307896  0.63478310  1.0
  H  H34  1  0.16692192  0.17022836  0.86521742  1.0
  H  H35  1  0.19832972  0.69498358  0.86521759  1.0
  H  H36  1  0.19498393  0.69832990  0.36521773  1.0
  H  H37  1  0.67022777  0.66692129  0.36521698  1.0
  H  H38  1  0.83307865  0.82977065  0.13478286  1.0
  H  H39  1  0.80167011  0.30501668  0.13478237  1.0
  H  H40  1  0.71099921  0.51638294  0.47521354  1.0
  H  H41  1  0.26425314  0.95884259  0.47521347  1.0
  H  H42  1  0.54115849  0.23574636  0.02478520  1.0
  H  H43  1  0.98361438  0.78899895  0.02478501  1.0
  H  H44  1  0.28899975  0.48361482  0.52478497  1.0
  H  H45  1  0.73574689  0.04115827  0.52478580  1.0
  H  H46  1  0.45884250  0.76425389  0.97521371  1.0
  H  H47  1  0.01638364  0.21099944  0.97521387  1.0
  H  H48  1  0.80215763  0.62310822  0.60751085  1.0
  H  H49  1  0.30531971  0.98432871  0.60750921  1.0
  H  H50  1  0.51567122  0.19467955  0.89248876  1.0
  H  H51  1  0.87688951  0.69784146  0.89248733  1.0
  H  H52  1  0.19784133  0.37688953  0.39248719  1.0
  H  H53  1  0.69467931  0.01567091  0.39248940  1.0
  H  H54  1  0.48432897  0.80532007  0.10750973  1.0
  H  H55  1  0.12310892  0.30215816  0.10751157  1.0
  H  H56  1  0.76608505  0.50285979  0.77402547  1.0
  H  H57  1  0.50791473  0.27118408  0.77401828  1.0
  H  H58  1  0.22881544  0.99208573  0.72598177  1.0
  H  H59  1  0.99713941  0.73391464  0.72597333  1.0
  H  H60  1  0.23391573  0.49713984  0.22597366  1.0
  H  H61  1  0.49208487  0.72881554  0.22598189  1.0
  H  H62  1  0.77118343  0.00791515  0.27401810  1.0
  H  H63  1  0.00285940  0.26608437  0.27402550  1.0
  H  H64  1  0.63184462  0.51037378  0.77934573  1.0
  H  H65  1  0.64743894  0.26891494  0.77927204  1.0
  H  H66  1  0.23108384  0.85256055  0.72072799  1.0
  H  H67  1  0.98962546  0.86815526  0.72065405  1.0
  H  H68  1  0.36815536  0.48962523  0.22065391  1.0
  H  H69  1  0.35256126  0.73108470  0.22072878  1.0
  H  H70  1  0.76891518  0.14743907  0.27927248  1.0
  H  H71  1  0.01037414  0.13184437  0.27934566  1.0
  H  H72  1  0.67103706  0.73066832  0.74818293  1.0
  H  H73  1  0.57711834  0.01751027  0.74818679  1.0
  H  H74  1  0.48248881  0.92288119  0.75181243  1.0
  H  H75  1  0.76933174  0.82896337  0.75181816  1.0
  H  H76  1  0.32896314  0.26933132  0.25181789  1.0
  H  H77  1  0.42288127  0.98248936  0.25181339  1.0
  H  H78  1  0.51751043  0.07711906  0.24818782  1.0
  H  H79  1  0.23066809  0.17103688  0.24818227  1.0
  C  C80  1  0.92965061  0.49767138  0.81953232  1.0
  C  C81  1  0.38993702  0.32188036  0.81956065  1.0
  C  C82  1  0.17811963  0.11006399  0.68043921  1.0
  C  C83  1  0.00232931  0.57034863  0.68046714  1.0
  C  C84  1  0.07034804  0.50232886  0.18046729  1.0
  C  C85  1  0.61006513  0.67811989  0.18043953  1.0
  C  C86  1  0.82187982  0.88993688  0.31956082  1.0
  C  C87  1  0.99767146  0.42965100  0.31953338  1.0
  C  C88  1  0.92829895  0.42062250  0.81744117  1.0
  C  C89  1  0.38920886  0.39683604  0.81746982  1.0
  C  C90  1  0.10316460  0.11079295  0.68253092  1.0
  C  C91  1  0.07937797  0.57170047  0.68255876  1.0
  C  C92  1  0.07169991  0.57937837  0.18255869  1.0
  C  C93  1  0.61079388  0.60316421  0.18253053  1.0
  C  C94  1  0.89683543  0.88920792  0.31746975  1.0
  C  C95  1  0.92062280  0.42829916  0.31744223  1.0
  C  C96  1  0.88350213  0.34909035  0.75000118  1.0
  C  C97  1  0.36654970  0.40089186  0.75000743  1.0
  C  C98  1  0.09910918  0.13345161  0.74999374  1.0
  C  C99  1  0.15090935  0.61649826  0.74999927  1.0
  C  C100  1  0.11649806  0.65090928  0.24999917  1.0
  C  C101  1  0.63345209  0.59910901  0.24999329  1.0
  C  C102  1  0.90089085  0.86654926  0.25000739  1.0
  C  C103  1  0.84909106  0.38350199  0.25000179  1.0
  C  C104  1  0.84084421  0.35772386  0.68692958  1.0
  C  C105  1  0.34615887  0.32919833  0.68695187  1.0
  C  C106  1  0.17080269  0.15384131  0.81304897  1.0
  C  C107  1  0.14227571  0.65915679  0.81307054  1.0
  C  C108  1  0.15915657  0.64227576  0.31307001  1.0
  C  C109  1  0.65384094  0.67080191  0.31304855  1.0
  C  C110  1  0.82919750  0.84615832  0.18695138  1.0
  C  C111  1  0.85772433  0.34084408  0.18693013  1.0
  C  C112  1  0.84517234  0.43655561  0.69195089  1.0
  C  C113  1  0.34684285  0.25537913  0.69197129  1.0
  C  C114  1  0.24462142  0.15315700  0.80802886  1.0
  C  C115  1  0.06344407  0.65482794  0.80804858  1.0
  C  C116  1  0.15482785  0.56344402  0.30804853  1.0
  C  C117  1  0.65315698  0.74462113  0.30802867  1.0
  C  C118  1  0.75537899  0.84684325  0.19197174  1.0
  C  C119  1  0.93655575  0.34517231  0.19195138  1.0
  C  C120  1  0.80461392  0.45286185  0.62933277  1.0
  C  C121  1  0.32472428  0.17643638  0.62936082  1.0
  C  C122  1  0.32356410  0.17527451  0.87063854  1.0
  C  C123  1  0.04713703  0.69538604  0.87066636  1.0
  C  C124  1  0.19538607  0.54713716  0.37066641  1.0
  C  C125  1  0.67527517  0.82356449  0.37063921  1.0
  C  C126  1  0.67643609  0.82472511  0.12936134  1.0
  C  C127  1  0.95286221  0.30461421  0.12933296  1.0
  C  C128  1  0.75340463  0.39141018  0.55758908  1.0
  C  C129  1  0.30413100  0.16615815  0.55761711  1.0
  C  C130  1  0.33384343  0.19586813  0.94238314  1.0
  C  C131  1  0.10858923  0.74659555  0.94241074  1.0
  C  C132  1  0.24659572  0.60858821  0.44241003  1.0
  C  C133  1  0.69586867  0.83384335  0.44238317  1.0
  C  C134  1  0.66615813  0.80413211  0.05761733  1.0
  C  C135  1  0.89141059  0.25340469  0.05758968  1.0
  C  C136  1  0.71898600  0.41347083  0.50111552  1.0
  C  C137  1  0.28207995  0.08764012  0.50114655  1.0
  C  C138  1  0.41236147  0.21791967  0.99885293  1.0
  C  C139  1  0.08652685  0.78101318  0.99888395  1.0
  C  C140  1  0.28101333  0.58652631  0.49888384  1.0
  C  C141  1  0.71792030  0.91236138  0.49885298  1.0
  C  C142  1  0.58764053  0.78208182  0.00114757  1.0
  C  C143  1  0.91347160  0.21898645  0.00111589  1.0
  C  C144  1  0.73676808  0.49801253  0.51891360  1.0
  C  C145  1  0.28213064  0.02088217  0.51892314  1.0
  C  C146  1  0.47911905  0.21786844  0.98107561  1.0
  C  C147  1  0.00198568  0.76323039  0.98108442  1.0
  C  C148  1  0.26323029  0.50198523  0.48108427  1.0
  C  C149  1  0.71786940  0.97911870  0.48107614  1.0
  C  C150  1  0.52088253  0.78213182  0.01892394  1.0
  C  C151  1  0.99801276  0.23676923  0.01891495  1.0
  C  C152  1  0.78741976  0.55693323  0.59177984  1.0
  C  C153  1  0.30432915  0.03479192  0.59178649  1.0
  C  C154  1  0.46520878  0.19566976  0.90821206  1.0
  C  C155  1  0.94306458  0.71257875  0.90821807  1.0
  C  C156  1  0.21257921  0.44306453  0.40821821  1.0
  C  C157  1  0.69567009  0.96520833  0.40821237  1.0
  C  C158  1  0.53479199  0.80432987  0.09178707  1.0
  C  C159  1  0.05693423  0.28742025  0.09178076  1.0
  C  C160  1  0.87986651  0.26373614  0.74503387  1.0
  C  C161  1  0.36511598  0.48124705  0.74502425  1.0
  C  C162  1  0.01875464  0.13488588  0.75497634  1.0
  C  C163  1  0.23626429  0.62013377  0.75496724  1.0
  C  C164  1  0.12013410  0.73626472  0.25496743  1.0
  C  C165  1  0.63488544  0.51875445  0.25497748  1.0
  C  C166  1  0.98124583  0.86511623  0.24502343  1.0
  C  C167  1  0.76373634  0.37986711  0.24503500  1.0
  C  C168  1  0.66496542  0.34531857  0.42202973  1.0
  C  C169  1  0.25702337  0.07672386  0.42206697  1.0
  C  C170  1  0.42327872  0.24297606  0.07793257  1.0
  C  C171  1  0.15468151  0.83503323  0.07796966  1.0
  C  C172  1  0.33503302  0.65468106  0.57796964  1.0
  C  C173  1  0.74297905  0.92327887  0.57793402  1.0
  C  C174  1  0.57672306  0.75702481  0.92206722  1.0
  C  C175  1  0.84531693  0.16496640  0.92203017  1.0
  C  C176  1  0.74381866  0.55278259  0.76921765  1.0
  C  C177  1  0.52534053  0.21643568  0.76917692  1.0
  C  C178  1  0.28356336  0.97465872  0.73082218  1.0
  C  C179  1  0.94721673  0.75618028  0.73078142  1.0
  C  C180  1  0.25618074  0.44721643  0.23078136  1.0
  C  C181  1  0.47465966  0.78356395  0.23082343  1.0
  C  C182  1  0.71643545  0.02534029  0.26917666  1.0
  C  C183  1  0.05278267  0.24381872  0.26921805  1.0
  C  C184  1  0.66979590  0.55683457  0.77173618  1.0
  C  C185  1  0.60185097  0.21485268  0.77163428  1.0
  C  C186  1  0.28514639  0.89814830  0.72836577  1.0
  C  C187  1  0.94316430  0.83020371  0.72826341  1.0
  C  C188  1  0.33020407  0.44316443  0.22826392  1.0
  C  C189  1  0.39814826  0.78514756  0.22836643  1.0
  C  C190  1  0.71485264  0.10185133  0.27163424  1.0
  C  C191  1  0.05683472  0.16979591  0.27173613  1.0
  C  C192  1  0.64256997  0.62090345  0.76317146  1.0
  C  C193  1  0.62053921  0.14223701  0.76310808  1.0
  C  C194  1  0.35776202  0.87946101  0.73689132  1.0
  C  C195  1  0.87909664  0.85743035  0.73682915  1.0
  C  C196  1  0.35743022  0.37909618  0.23682889  1.0
  C  C197  1  0.37946119  0.85776324  0.23689298  1.0
  C  C198  1  0.64223721  0.12053923  0.26310893  1.0
  C  C199  1  0.12090377  0.14256991  0.26317145  1.0
  C  C200  1  0.69264021  0.68095915  0.75502586  1.0
  C  C201  1  0.56235324  0.07405130  0.75499750  1.0
  C  C202  1  0.42594681  0.93764602  0.74500135  1.0
  C  C203  1  0.81904032  0.80735983  0.74497449  1.0
  C  C204  1  0.30735918  0.31903986  0.24497454  1.0
  C  C205  1  0.43764637  0.92594833  0.24500222  1.0
  C  C206  1  0.57405162  0.06235360  0.25499848  1.0
  C  C207  1  0.18095950  0.19264042  0.25502547  1.0
  C  C208  1  0.76719911  0.67481865  0.75425430  1.0
  C  C209  1  0.48702735  0.07943938  0.75424653  1.0
  C  C210  1  0.42055950  0.01297179  0.74575250  1.0
  C  C211  1  0.82518087  0.73279970  0.74574465  1.0
  C  C212  1  0.23279991  0.32518098  0.24574478  1.0
  C  C213  1  0.51297204  0.92055962  0.24575294  1.0
  C  C214  1  0.57943931  0.98702722  0.25424633  1.0
  C  C215  1  0.17481873  0.26719993  0.25425460  1.0
  C  C216  1  0.55900718  0.62330186  0.75969584  1.0
  C  C217  1  0.70064624  0.13638697  0.75966289  1.0
  C  C218  1  0.36361323  0.79935387  0.74033637  1.0
  C  C219  1  0.87669863  0.94099347  0.74030544  1.0
  C  C220  1  0.44099360  0.37669777  0.24030515  1.0
  C  C221  1  0.29935321  0.86361389  0.24033714  1.0
  C  C222  1  0.63638739  0.20064700  0.25966401  1.0
  C  C223  1  0.12330178  0.05900678  0.25969516  1.0
  N  N224  1  0.88931675  0.50581927  0.75798900  1.0
  N  N225  1  0.36871520  0.25217493  0.75801726  1.0
  N  N226  1  0.24782526  0.13128525  0.74198250  1.0
  N  N227  1  0.99418045  0.61068304  0.74201033  1.0
  N  N228  1  0.11068285  0.49418036  0.24201025  1.0
  N  N229  1  0.63128557  0.74782469  0.24198233  1.0
  N  N230  1  0.75217456  0.86871500  0.25801746  1.0
  N  N231  1  0.00581937  0.38931721  0.25798963  1.0
  N  N232  1  0.82135589  0.53509574  0.64608074  1.0
  N  N233  1  0.32471151  0.11093521  0.64609159  1.0
  N  N234  1  0.38906512  0.17528789  0.85390745  1.0
  N  N235  1  0.96490283  0.67864366  0.85391771  1.0
  N  N236  1  0.17864410  0.46490328  0.35391798  1.0
  N  N237  1  0.67528751  0.88906442  0.35390749  1.0
  N  N238  1  0.61093507  0.82471174  0.14609197  1.0
  N  N239  1  0.03509619  0.32135597  0.14608137  1.0
  N  N240  1  0.79158897  0.61035422  0.76053436  1.0
  N  N241  1  0.46891758  0.15018285  0.76052931  1.0
  N  N242  1  0.34981640  0.03108152  0.73947027  1.0
  N  N243  1  0.88964484  0.70841032  0.73946414  1.0
  N  N244  1  0.20841043  0.38964479  0.23946465  1.0
  N  N245  1  0.53108144  0.84981677  0.23947023  1.0
  N  N246  1  0.65018183  0.96891749  0.26052886  1.0
  N  N247  1  0.11035418  0.29158931  0.26053447  1.0
  O  O248  1  0.92751396  0.26159706  0.80284230  1.0
  O  O249  1  0.37523256  0.54115465  0.80283670  1.0
  O  O250  1  0.95884595  0.12476708  0.69716384  1.0
  O  O251  1  0.23840375  0.57248592  0.69715881  1.0
  O  O252  1  0.07248570  0.73840443  0.19715891  1.0
  O  O253  1  0.62476843  0.45884560  0.19716407  1.0
  O  O254  1  0.04115424  0.87523255  0.30283651  1.0
  O  O255  1  0.76159703  0.42751372  0.30284218  1.0
  O  O256  1  0.82858348  0.20171473  0.68436418  1.0
  O  O257  1  0.35569641  0.48263207  0.68435532  1.0
  O  O258  1  0.01736973  0.14430595  0.81564637  1.0
  O  O259  1  0.29828446  0.67141713  0.81563620  1.0
  O  O260  1  0.17141671  0.79828490  0.31563617  1.0
  O  O261  1  0.64430559  0.51736943  0.31564611  1.0
  O  O262  1  0.98263058  0.85569741  0.18435511  1.0
  O  O263  1  0.70171537  0.32858312  0.18436469  1.0
  O  O264  1  0.65011945  0.27202830  0.41316361  1.0
  O  O265  1  0.26294051  0.14112004  0.41316745  1.0
  O  O266  1  0.35888164  0.23705731  0.08683181  1.0
  O  O267  1  0.22796884  0.84987461  0.08683497  1.0
  O  O268  1  0.34987580  0.72796884  0.58683502  1.0
  O  O269  1  0.73706345  0.85888207  0.58683335  1.0
  O  O270  1  0.64111978  0.76294419  0.91316806  1.0
  O  O271  1  0.77202939  0.15012440  0.91316462  1.0
  O  O272  1  0.64307379  0.37418640  0.37516840  1.0
  O  O273  1  0.23213686  0.00100523  0.37521116  1.0
  O  O274  1  0.49899672  0.26786382  0.12478857  1.0
  O  O275  1  0.12581283  0.85692678  0.12483223  1.0
  O  O276  1  0.35692598  0.62581199  0.62483193  1.0
  O  O277  1  0.76786499  0.99899752  0.62478874  1.0
  O  O278  1  0.50100507  0.73213706  0.87521169  1.0
  O  O279  1  0.87418620  0.14307285  0.87516824  1.0
  O  O280  1  0.52564864  0.58091408  0.78440006  1.0
  O  O281  1  0.75867640  0.20350644  0.78435140  1.0
  O  O282  1  0.29649547  0.74132398  0.71564937  1.0
  O  O283  1  0.91908716  0.97435312  0.71560223  1.0
  O  O284  1  0.47435329  0.41908555  0.21560173  1.0
  O  O285  1  0.24132363  0.79649443  0.21564973  1.0
  O  O286  1  0.70350573  0.25867689  0.28435211  1.0
  O  O287  1  0.08091463  0.02564776  0.28439942  1.0
  O  O288  1  0.52830009  0.66641437  0.72992983  1.0
  O  O289  1  0.70164651  0.06352589  0.72995346  1.0
  O  O290  1  0.43647515  0.79835507  0.77004602  1.0
  O  O291  1  0.83358504  0.97170050  0.77007110  1.0
  O  O292  1  0.47169967  0.33358402  0.27007049  1.0
  O  O293  1  0.29835332  0.93647436  0.27004604  1.0
  O  O294  1  0.56352626  0.20164642  0.22995384  1.0
  O  O295  1  0.16641478  0.02829974  0.22992932  1.0
