# generated using pymatgen
data_Zn4H57C96N20F3
_symmetry_space_group_name_H-M   'P 1'
_cell_length_a   19.78693665
_cell_length_b   20.11715738
_cell_length_c   20.14590559
_cell_angle_alpha   111.61100766
_cell_angle_beta   107.62391151
_cell_angle_gamma   105.70326181
_symmetry_Int_Tables_number   1
_chemical_formula_structural   Zn4H57C96N20F3
_chemical_formula_sum   'Zn4 H57 C96 N20 F3'
_cell_volume   6410.70357802
_cell_formula_units_Z   1
loop_
 _symmetry_equiv_pos_site_id
 _symmetry_equiv_pos_as_xyz
  1  'x, y, z'
loop_
 _atom_site_type_symbol
 _atom_site_label
 _atom_site_symmetry_multiplicity
 _atom_site_fract_x
 _atom_site_fract_y
 _atom_site_fract_z
 _atom_site_occupancy
  Zn  Zn0  1  0.48674212  0.10743625  0.11671594  1.0
  Zn  Zn1  1  0.52562797  0.92960397  0.90402135  1.0
  Zn  Zn2  1  0.38382439  0.02222417  0.91912652  1.0
  Zn  Zn3  1  0.60499063  0.00491314  0.10481777  1.0
  H  H4  1  0.32766158  0.09807941  0.16262892  1.0
  H  H5  1  0.36084105  0.78990265  0.43053785  1.0
  H  H6  1  0.32126378  0.98035892  0.45774870  1.0
  H  H7  1  0.52974343  0.75232915  0.85157796  1.0
  H  H8  1  0.44490036  0.03699350  0.41998323  1.0
  H  H9  1  0.54101792  0.99966987  0.52418256  1.0
  H  H10  1  0.48434246  0.84617250  0.39286018  1.0
  H  H11  1  0.46424339  0.41837477  0.93305373  1.0
  H  H12  1  0.67001763  0.55499577  0.13200726  1.0
  H  H13  1  0.66741674  0.46154345  0.91716243  1.0
  H  H14  1  0.53093088  0.48138428  0.85010873  1.0
  H  H15  1  0.53127526  0.91552315  0.74263437  1.0
  H  H16  1  0.16737994  0.80511798  0.62457567  1.0
  H  H17  1  0.24855109  0.89898634  0.73920270  1.0
  H  H18  1  0.86212289  0.52669272  0.39977325  1.0
  H  H19  1  0.74062064  0.39983083  0.32106545  1.0
  H  H20  1  0.98663900  0.40632152  0.30083304  1.0
  H  H21  1  0.20452686  0.57019225  0.48197171  1.0
  H  H22  1  0.89734789  0.99208419  0.10435557  1.0
  H  H23  1  0.96561500  0.90478570  0.09037485  1.0
  H  H24  1  0.10080956  0.85371152  0.12734472  1.0
  H  H25  1  0.22357820  0.95556857  0.15222870  1.0
  H  H26  1  0.41555422  0.18592137  0.89645870  1.0
  H  H27  1  0.70846723  0.82178593  0.86892188  1.0
  H  H28  1  0.77498445  0.73207368  0.85680582  1.0
  H  H29  1  0.10419185  0.92658102  0.91876598  1.0
  H  H30  1  0.38409625  0.76731264  0.77368289  1.0
  H  H31  1  0.36424383  0.97129460  0.12608826  1.0
  H  H32  1  0.56636313  0.83546756  0.09672937  1.0
  H  H33  1  0.23136036  0.91681958  0.91624143  1.0
  H  H34  1  0.63917162  0.28521795  0.27261199  1.0
  H  H35  1  0.06354285  0.68174130  0.37099979  1.0
  H  H36  1  0.96304339  0.72143641  0.31166530  1.0
  H  H37  1  0.76921313  0.98026623  0.12728777  1.0
  H  H38  1  0.89383047  0.77543533  0.38707619  1.0
  H  H39  1  0.92665169  0.78954770  0.52287057  1.0
  H  H40  1  0.02678950  0.74924886  0.58165985  1.0
  H  H41  1  0.28837167  0.57220254  0.62414260  1.0
  H  H42  1  0.41838580  0.57041923  0.67798657  1.0
  H  H43  1  0.53890086  0.67759879  0.70461708  1.0
  H  H44  1  0.52810510  0.78524103  0.67502218  1.0
  H  H45  1  0.39815929  0.78787585  0.62319373  1.0
  H  H46  1  0.50040412  0.82205710  0.21664539  1.0
  H  H47  1  0.60062405  0.78522533  0.28196375  1.0
  H  H48  1  0.68203705  0.95651655  0.89115336  1.0
  H  H49  1  0.74326361  0.87287809  0.34106828  1.0
  H  H50  1  0.78468038  0.99809434  0.33473101  1.0
  H  H51  1  0.68450180  0.03601563  0.27131850  1.0
  H  H52  1  0.94369342  0.69796081  0.84127534  1.0
  H  H53  1  0.83531812  0.63945319  0.70615426  1.0
  H  H54  1  0.79359633  0.72664544  0.65867399  1.0
  H  H55  1  0.86184652  0.87336160  0.74800254  1.0
  H  H56  1  0.97026522  0.93160640  0.88351096  1.0
  H  H57  1  0.61076940  0.25542395  0.11712638  1.0
  H  H58  1  0.74472301  0.15834100  0.14478482  1.0
  H  H59  1  0.42367913  0.07729087  0.78927713  1.0
  H  H60  1  0.26495216  0.82697252  0.32682843  1.0
  C  C61  1  0.31533194  0.06027510  0.10157287  1.0
  C  C62  1  0.55577814  0.22619717  0.06332711  1.0
  C  C63  1  0.70802137  0.17817811  0.16986146  1.0
  C  C64  1  0.53676312  0.78396146  0.91184668  1.0
  C  C65  1  0.45339408  0.03947741  0.79188989  1.0
  C  C66  1  0.72390463  0.25457334  0.22646924  1.0
  C  C67  1  0.46750669  0.99095000  0.73109882  1.0
  C  C68  1  0.53156866  0.25118295  0.00705244  1.0
  C  C69  1  0.75000426  0.95528402  0.00276310  1.0
  C  C70  1  0.37960250  0.84467713  0.42752874  1.0
  C  C71  1  0.32636556  0.86569431  0.37101574  1.0
  C  C72  1  0.55523268  0.76552256  0.97410280  1.0
  C  C73  1  0.41544358  0.90496296  0.23060875  1.0
  C  C74  1  0.44396909  0.97351784  0.65116990  1.0
  C  C75  1  0.44846667  0.87633522  0.40826638  1.0
  C  C76  1  0.28886973  0.87566059  0.76005461  1.0
  C  C77  1  0.39537260  0.89752450  0.35040810  1.0
  C  C78  1  0.47983492  0.96130109  0.47924988  1.0
  C  C79  1  0.41125994  0.93032955  0.50072055  1.0
  C  C80  1  0.42652125  0.98274441  0.42392255  1.0
  C  C81  1  0.35749502  0.95062303  0.44258183  1.0
  C  C82  1  0.39709234  0.89091405  0.27839155  1.0
  C  C83  1  0.29565527  0.80631399  0.71831188  1.0
  C  C84  1  0.42431049  0.95094253  0.58016457  1.0
  C  C85  1  0.52403280  0.46304965  0.95802947  1.0
  C  C86  1  0.56308446  0.54762226  0.03098346  1.0
  C  C87  1  0.57260406  0.70245851  0.97506357  1.0
  C  C88  1  0.52650063  0.95150012  0.19766476  1.0
  C  C89  1  0.56832042  0.32174041  0.00715643  1.0
  C  C90  1  0.56128062  0.49666884  0.91252765  1.0
  C  C91  1  0.59828278  0.58417848  0.98462207  1.0
  C  C92  1  0.63689564  0.48606861  0.94941958  1.0
  C  C93  1  0.59988254  0.45142867  0.99610723  1.0
  C  C94  1  0.44872251  0.93424849  0.18884481  1.0
  C  C95  1  0.67369713  0.57120005  0.02212286  1.0
  C  C96  1  0.63864295  0.53858510  0.06939914  1.0
  C  C97  1  0.58976809  0.64967368  0.97904083  1.0
  C  C98  1  0.59055578  0.38159991  0.00185543  1.0
  C  C99  1  0.79373458  0.32923285  0.26714939  1.0
  C  C100  1  0.35885005  0.80945357  0.77814503  1.0
  C  C101  1  0.86472722  0.33567133  0.26219179  1.0
  C  C102  1  0.93283305  0.40531527  0.30507067  1.0
  C  C103  1  0.93189939  0.47458815  0.35663800  1.0
  C  C104  1  0.86135591  0.47186220  0.36013287  1.0
  C  C105  1  0.65433215  0.24286615  0.23555762  1.0
  C  C106  1  0.79429215  0.40084166  0.31639925  1.0
  C  C107  1  0.11692610  0.69527409  0.51834340  1.0
  C  C108  1  0.17565715  0.75273339  0.59449742  1.0
  C  C109  1  0.12542959  0.62478645  0.48076368  1.0
  C  C110  1  0.24426059  0.74707630  0.63426063  1.0
  C  C111  1  0.25788871  0.68326075  0.58970842  1.0
  C  C112  1  0.42088234  0.96956436  0.14477798  1.0
  C  C113  1  0.19752342  0.62269848  0.51470424  1.0
  C  C114  1  0.17283093  0.94798075  0.03642449  1.0
  C  C115  1  0.10315104  0.91236799  0.96586662  1.0
  C  C116  1  0.50842658  0.95683879  0.76727005  1.0
  C  C117  1  0.03275787  0.85590359  0.95091201  1.0
  C  C118  1  0.03310680  0.83442390  0.01056694  1.0
  C  C119  1  0.10188743  0.87199502  0.08283668  1.0
  C  C120  1  0.17035770  0.92919094  0.09663549  1.0
  C  C121  1  0.90994681  0.88722876  0.04142274  1.0
  C  C122  1  0.87140646  0.93594905  0.04916315  1.0
  C  C123  1  0.87425370  0.81274565  0.97240303  1.0
  C  C124  1  0.55487099  0.82688081  0.03727568  1.0
  C  C125  1  0.79793564  0.91297648  0.98792657  1.0
  C  C126  1  0.76577373  0.84077167  0.91663741  1.0
  C  C127  1  0.45574342  0.19109979  0.95052796  1.0
  C  C128  1  0.80214159  0.79024600  0.90973418  1.0
  C  C129  1  0.26618781  0.96821050  0.97565336  1.0
  C  C130  1  0.24680530  0.99265135  0.03947642  1.0
  C  C131  1  0.05214651  0.71268232  0.48045737  1.0
  C  C132  1  0.03314405  0.70500251  0.40407413  1.0
  C  C133  1  0.97665684  0.72738688  0.37082061  1.0
  C  C134  1  0.93795643  0.75789881  0.41319549  1.0
  C  C135  1  0.95649468  0.76594579  0.48920722  1.0
  C  C136  1  0.01330940  0.74383306  0.52267545  1.0
  C  C137  1  0.33463921  0.68013598  0.62027856  1.0
  C  C138  1  0.74006578  0.98106748  0.07259967  1.0
  C  C139  1  0.34105509  0.61874282  0.63518558  1.0
  C  C140  1  0.41421863  0.61803164  0.66575338  1.0
  C  C141  1  0.48181399  0.67825873  0.68095164  1.0
  C  C142  1  0.47572744  0.73895242  0.66488211  1.0
  C  C143  1  0.40284450  0.74009722  0.63499758  1.0
  C  C144  1  0.58544078  0.93085824  0.23820185  1.0
  C  C145  1  0.56269858  0.86074020  0.24285559  1.0
  C  C146  1  0.61921768  0.84022269  0.27962899  1.0
  C  C147  1  0.69919284  0.88913327  0.31241672  1.0
  C  C148  1  0.72241091  0.95912361  0.30847248  1.0
  C  C149  1  0.69411135  0.96707565  0.95141142  1.0
  C  C150  1  0.66614341  0.98006345  0.27199474  1.0
  C  C151  1  0.96459529  0.81890610  0.87167388  1.0
  C  C152  1  0.92563615  0.73641143  0.82098416  1.0
  C  C153  1  0.86456814  0.70361864  0.74493219  1.0
  C  C154  1  0.84126458  0.75250297  0.71823515  1.0
  C  C155  1  0.87961021  0.83461744  0.76816045  1.0
  C  C156  1  0.94081888  0.86750396  0.84416407  1.0
  N  N157  1  0.37055380  0.07516080  0.07593188  1.0
  N  N158  1  0.06390716  0.55210236  0.41627873  1.0
  N  N159  1  0.97125052  0.76574187  0.99452705  1.0
  N  N160  1  0.52735096  0.85107261  0.93754744  1.0
  N  N161  1  0.90040668  0.75315370  0.96959176  1.0
  N  N162  1  0.34378878  0.91552850  0.83652868  1.0
  N  N163  1  0.54188398  0.99539250  0.16241652  1.0
  N  N164  1  0.38817496  0.87556752  0.84872333  1.0
  N  N165  1  0.47727003  0.00661593  0.12965954  1.0
  N  N166  1  0.53867407  0.87832212  0.01486786  1.0
  N  N167  1  0.33999440  0.01732722  0.99805206  1.0
  N  N168  1  0.51595589  0.98284044  0.84220621  1.0
  N  N169  1  0.60226443  0.16634090  0.18857375  1.0
  N  N170  1  0.43655308  0.13641733  0.97273404  1.0
  N  N171  1  0.68222062  0.00473598  0.06221917  1.0
  N  N172  1  0.65314170  0.99666488  0.98734450  1.0
  N  N173  1  0.49830599  0.15757942  0.04263356  1.0
  N  N174  1  0.63542489  0.12618105  0.14754915  1.0
  N  N175  1  0.48186669  0.03373600  0.85816201  1.0
  N  N176  1  0.99708494  0.54751899  0.41175878  1.0
  F  F177  1  0.52622418  0.57962604  0.07274342  1.0
  F  F178  1  0.74975554  0.62581860  0.05507118  1.0
  F  F179  1  0.86723857  0.26853858  0.21353046  1.0
