# generated using pymatgen
data_ZnH12C18SN2O7
_symmetry_space_group_name_H-M   'P 1'
_cell_length_a   9.72270340
_cell_length_b   16.30583096
_cell_length_c   19.85228109
_cell_angle_alpha   89.99969260
_cell_angle_beta   91.72197423
_cell_angle_gamma   89.99982578
_symmetry_Int_Tables_number   1
_chemical_formula_structural   ZnH12C18SN2O7
_chemical_formula_sum   'Zn4 H48 C72 S4 N8 O28'
_cell_volume   3145.89498520
_cell_formula_units_Z   4
loop_
 _symmetry_equiv_pos_site_id
 _symmetry_equiv_pos_as_xyz
  1  'x, y, z'
loop_
 _atom_site_type_symbol
 _atom_site_label
 _atom_site_symmetry_multiplicity
 _atom_site_fract_x
 _atom_site_fract_y
 _atom_site_fract_z
 _atom_site_occupancy
  Zn  Zn0  1  0.41945149  0.07947897  0.06032904  1.0
  Zn  Zn1  1  0.58055114  0.57947663  0.43967019  1.0
  Zn  Zn2  1  0.58055901  0.92051985  0.93967202  1.0
  Zn  Zn3  1  0.41944289  0.42052035  0.56033019  1.0
  H  H4  1  0.02986160  0.11308277  0.76458556  1.0
  H  H5  1  0.97014295  0.61308230  0.73541501  1.0
  H  H6  1  0.97014681  0.88691605  0.23541346  1.0
  H  H7  1  0.02984377  0.38692204  0.26457824  1.0
  H  H8  1  0.29081408  0.90998315  0.26663040  1.0
  H  H9  1  0.70918472  0.40998261  0.23336835  1.0
  H  H10  1  0.70918305  0.09001812  0.73337102  1.0
  H  H11  1  0.29080930  0.59001621  0.76663103  1.0
  H  H12  1  0.15949064  0.16780124  0.91112906  1.0
  H  H13  1  0.84050843  0.66779707  0.58886919  1.0
  H  H14  1  0.84051672  0.83220125  0.08886844  1.0
  H  H15  1  0.15948555  0.33220604  0.41112817  1.0
  H  H16  1  0.63573332  0.95791105  0.09462845  1.0
  H  H17  1  0.36426728  0.45791244  0.40537011  1.0
  H  H18  1  0.36426899  0.04208531  0.90537505  1.0
  H  H19  1  0.63572363  0.54208699  0.59462772  1.0
  H  H20  1  0.25686188  0.01300804  0.17359520  1.0
  H  H21  1  0.74313904  0.51300615  0.32640279  1.0
  H  H22  1  0.74313935  0.98699200  0.82640475  1.0
  H  H23  1  0.25685085  0.48699389  0.67359604  1.0
  H  H24  1  0.68270023  0.84997142  0.18168149  1.0
  H  H25  1  0.31729787  0.34997408  0.31831801  1.0
  H  H26  1  0.31729798  0.15002617  0.81832296  1.0
  H  H27  1  0.68269716  0.65002289  0.68168087  1.0
  H  H28  1  0.72481578  0.21330054  0.87216386  1.0
  H  H29  1  0.27518405  0.71330080  0.62783319  1.0
  H  H30  1  0.27519056  0.78670012  0.12783464  1.0
  H  H31  1  0.72480893  0.28670538  0.37216617  1.0
  H  H32  1  0.86164273  0.08218193  0.05015777  1.0
  H  H33  1  0.13835472  0.58218154  0.44983938  1.0
  H  H34  1  0.13836563  0.91781566  0.94983823  1.0
  H  H35  1  0.86164239  0.41782157  0.55016053  1.0
  H  H36  1  0.29969855  0.76989209  0.28699436  1.0
  H  H37  1  0.70030107  0.26989169  0.21300904  1.0
  H  H38  1  0.70030069  0.23010796  0.71301010  1.0
  H  H39  1  0.29969819  0.73010774  0.78699694  1.0
  H  H40  1  0.73638179  0.82350378  0.29375799  1.0
  H  H41  1  0.26362056  0.32350360  0.20624117  1.0
  H  H42  1  0.26361740  0.17649381  0.70624345  1.0
  H  H43  1  0.73637960  0.67649215  0.79375675  1.0
  H  H44  1  0.34826700  0.65912280  0.37026339  1.0
  H  H45  1  0.65174043  0.15912121  0.12974007  1.0
  H  H46  1  0.65173428  0.34087724  0.62973958  1.0
  H  H47  1  0.34827115  0.84087700  0.87026402  1.0
  H  H48  1  0.76705166  0.70699670  0.37387108  1.0
  H  H49  1  0.23295134  0.20699465  0.12612960  1.0
  H  H50  1  0.23294856  0.29300150  0.62613037  1.0
  H  H51  1  0.76705500  0.79299864  0.87386889  1.0
  C  C52  1  0.94495178  0.19107819  0.88385805  1.0
  C  C53  1  0.05504922  0.69107402  0.61613961  1.0
  C  C54  1  0.05505972  0.80892246  0.11614100  1.0
  C  C55  1  0.94494682  0.30893155  0.38385777  1.0
  C  C56  1  0.13808309  0.09419552  0.03200616  1.0
  C  C57  1  0.86191637  0.59419126  0.46799246  1.0
  C  C58  1  0.86192634  0.90580575  0.96799236  1.0
  C  C59  1  0.13807866  0.40580755  0.53200642  1.0
  C  C60  1  0.02212293  0.12254982  0.98564620  1.0
  C  C61  1  0.97787742  0.62254712  0.51435277  1.0
  C  C62  1  0.97788855  0.87745145  0.01435185  1.0
  C  C63  1  0.02211659  0.37745415  0.48564610  1.0
  C  C64  1  0.49197181  0.87247748  0.23269961  1.0
  C  C65  1  0.50803033  0.37247769  0.26730186  1.0
  C  C66  1  0.50802847  0.12752256  0.76730537  1.0
  C  C67  1  0.49196475  0.62752113  0.73269954  1.0
  C  C68  1  0.37047355  0.91900758  0.22993815  1.0
  C  C69  1  0.62952520  0.41900878  0.27006055  1.0
  C  C70  1  0.62952564  0.08099185  0.77006329  1.0
  C  C71  1  0.37046675  0.58099127  0.72993880  1.0
  C  C72  1  0.05259025  0.16069893  0.92476930  1.0
  C  C73  1  0.94740679  0.66069772  0.57522795  1.0
  C  C74  1  0.94741814  0.83929744  0.07522821  1.0
  C  C75  1  0.05258722  0.33930478  0.42477092  1.0
  C  C76  1  0.56351425  0.94615813  0.13449143  1.0
  C  C77  1  0.43648540  0.44615782  0.36550818  1.0
  C  C78  1  0.43648806  0.05384007  0.86551156  1.0
  C  C79  1  0.56351067  0.55383977  0.63449122  1.0
  C  C80  1  0.35091172  0.97668406  0.17912128  1.0
  C  C81  1  0.64908982  0.47668244  0.32087821  1.0
  C  C82  1  0.64909054  0.02331659  0.82087919  1.0
  C  C83  1  0.35090417  0.52331515  0.67911965  1.0
  C  C84  1  0.58975388  0.88717598  0.18364505  1.0
  C  C85  1  0.41024298  0.38717788  0.31635377  1.0
  C  C86  1  0.41024432  0.11282223  0.81635890  1.0
  C  C87  1  0.58974797  0.61282278  0.68364707  1.0
  C  C88  1  0.80802262  0.18633148  0.90274455  1.0
  C  C89  1  0.19197321  0.68633148  0.59725056  1.0
  C  C90  1  0.19198372  0.81366672  0.09725345  1.0
  C  C91  1  0.80802181  0.31367286  0.40274731  1.0
  C  C92  1  0.88494821  0.11378119  0.00351374  1.0
  C  C93  1  0.11504905  0.61378115  0.49648226  1.0
  C  C94  1  0.11506017  0.88621578  0.99648327  1.0
  C  C95  1  0.88494290  0.38622319  0.50351659  1.0
  C  C96  1  0.77807716  0.14603039  0.96277271  1.0
  C  C97  1  0.22192203  0.64603134  0.53722614  1.0
  C  C98  1  0.22193124  0.85396842  0.03722581  1.0
  C  C99  1  0.77807302  0.35397177  0.46277374  1.0
  C  C100  1  0.63012421  0.13958307  0.98279931  1.0
  C  C101  1  0.36986986  0.63957898  0.51719901  1.0
  C  C102  1  0.36987908  0.86042065  0.01720117  1.0
  C  C103  1  0.63012417  0.36042229  0.48280137  1.0
  C  C104  1  0.40450900  0.76057624  0.30636733  1.0
  C  C105  1  0.59549273  0.26057433  0.19363563  1.0
  C  C106  1  0.59548922  0.23942564  0.69363762  1.0
  C  C107  1  0.40450856  0.73942204  0.80636836  1.0
  C  C108  1  0.51465069  0.80770782  0.28369400  1.0
  C  C109  1  0.48535075  0.30770902  0.21630674  1.0
  C  C110  1  0.48534749  0.19228977  0.71630844  1.0
  C  C111  1  0.51464947  0.69228979  0.78369471  1.0
  C  C112  1  0.64697918  0.78904252  0.30927750  1.0
  C  C113  1  0.35302442  0.28904167  0.19072334  1.0
  C  C114  1  0.35302107  0.21095691  0.69072597  1.0
  C  C115  1  0.64697782  0.71095592  0.80927561  1.0
  C  C116  1  0.43095539  0.69764153  0.35193607  1.0
  C  C117  1  0.56904768  0.19764118  0.14806567  1.0
  C  C118  1  0.56904072  0.30235790  0.64806584  1.0
  C  C119  1  0.43095771  0.80235641  0.85193735  1.0
  C  C120  1  0.66515702  0.72475186  0.35451576  1.0
  C  C121  1  0.33484589  0.22475195  0.14548434  1.0
  C  C122  1  0.33484010  0.27524573  0.64548465  1.0
  C  C123  1  0.66515845  0.77524319  0.85451716  1.0
  S  S124  1  0.98491264  0.23326026  0.80470310  1.0
  S  S125  1  0.01509944  0.73325747  0.69529449  1.0
  S  S126  1  0.01510090  0.76673978  0.19529497  1.0
  S  S127  1  0.98489664  0.26674625  0.30470540  1.0
  N  N128  1  0.44594143  0.99003641  0.13220378  1.0
  N  N129  1  0.55405796  0.49003526  0.36779462  1.0
  N  N130  1  0.55406186  0.00996302  0.86779670  1.0
  N  N131  1  0.44593501  0.50996539  0.63220373  1.0
  N  N132  1  0.55876359  0.67964409  0.37548788  1.0
  N  N133  1  0.44124164  0.17964168  0.12451396  1.0
  N  N134  1  0.44123561  0.32035656  0.62451407  1.0
  N  N135  1  0.55876577  0.82035468  0.87548656  1.0
  O  O136  1  0.25678716  0.09316030  0.00351592  1.0
  O  O137  1  0.74321133  0.59315790  0.49648572  1.0
  O  O138  1  0.74322333  0.90684159  0.99648463  1.0
  O  O139  1  0.25678479  0.40684092  0.50351619  1.0
  O  O140  1  0.12909665  0.25385489  0.80470729  1.0
  O  O141  1  0.87090819  0.75385425  0.69529468  1.0
  O  O142  1  0.87090972  0.74614638  0.19529272  1.0
  O  O143  1  0.12908374  0.24615438  0.30470316  1.0
  O  O144  1  0.88107915  0.29040072  0.78210299  1.0
  O  O145  1  0.11892435  0.79039576  0.71789175  1.0
  O  O146  1  0.11892614  0.70960116  0.21789399  1.0
  O  O147  1  0.88106453  0.20960489  0.28210807  1.0
  O  O148  1  0.60460400  0.07748884  0.02234774  1.0
  O  O149  1  0.39539656  0.57749333  0.47764946  1.0
  O  O150  1  0.39540650  0.92250997  0.97765332  1.0
  O  O151  1  0.60459747  0.42251162  0.52235092  1.0
  O  O152  1  0.96062619  0.15509516  0.75383284  1.0
  O  O153  1  0.03938115  0.65509383  0.74616354  1.0
  O  O154  1  0.03938526  0.84490488  0.24616370  1.0
  O  O155  1  0.96060459  0.34490866  0.25383322  1.0
  O  O156  1  0.11712663  0.07694385  0.09207728  1.0
  O  O157  1  0.88287087  0.57694424  0.40792140  1.0
  O  O158  1  0.88287867  0.92305681  0.90792020  1.0
  O  O159  1  0.11712726  0.42305519  0.59207802  1.0
  O  O160  1  0.54410291  0.19049200  0.96187324  1.0
  O  O161  1  0.45589915  0.69049437  0.53812696  1.0
  O  O162  1  0.45591068  0.80951050  0.03812836  1.0
  O  O163  1  0.54410005  0.30950936  0.46187499  1.0
