# generated using pymatgen
data_Zn4H6C24S4N2O21
_symmetry_space_group_name_H-M   'P 1'
_cell_length_a   19.62309953
_cell_length_b   19.73310417
_cell_length_c   33.28658928
_cell_angle_alpha   79.09557887
_cell_angle_beta   79.40208327
_cell_angle_gamma   64.07537543
_symmetry_Int_Tables_number   1
_chemical_formula_structural   Zn4H6C24S4N2O21
_chemical_formula_sum   'Zn16 H24 C96 S16 N8 O84'
_cell_volume   11308.01666804
_cell_formula_units_Z   4
loop_
 _symmetry_equiv_pos_site_id
 _symmetry_equiv_pos_as_xyz
  1  'x, y, z'
loop_
 _atom_site_type_symbol
 _atom_site_label
 _atom_site_symmetry_multiplicity
 _atom_site_fract_x
 _atom_site_fract_y
 _atom_site_fract_z
 _atom_site_occupancy
  Zn  Zn0  1  0.05772800  0.40085311  0.47825211  1.0
  Zn  Zn1  1  0.98322595  0.48304556  0.56032206  1.0
  Zn  Zn2  1  0.06063288  0.55984165  0.48184446  1.0
  Zn  Zn3  1  0.89968620  0.55463440  0.48001916  1.0
  Zn  Zn4  1  0.69315406  0.35028889  0.27045318  1.0
  Zn  Zn5  1  0.69204192  0.18736727  0.26755223  1.0
  Zn  Zn6  1  0.76668254  0.26941818  0.18964060  1.0
  Zn  Zn7  1  0.84776539  0.19329308  0.27265319  1.0
  Zn  Zn8  1  0.26562511  0.76792483  0.68956863  1.0
  Zn  Zn9  1  0.34984141  0.69454683  0.77115712  1.0
  Zn  Zn10  1  0.19303113  0.84972217  0.77030125  1.0
  Zn  Zn11  1  0.19240614  0.68720772  0.76810066  1.0
  Zn  Zn12  1  0.56024323  0.06059005  0.98243004  1.0
  Zn  Zn13  1  0.40001945  0.05507991  0.97854779  1.0
  Zn  Zn14  1  0.55862999  0.90199985  0.97829864  1.0
  Zn  Zn15  1  0.47866757  0.98522254  0.06028955  1.0
  H  H16  1  0.74800258  0.45241188  0.35023001  1.0
  H  H17  1  0.00111535  0.29781685  0.40008208  1.0
  H  H18  1  0.20063885  0.70059101  0.59944712  1.0
  H  H19  1  0.04986662  0.54865238  0.65054746  1.0
  H  H20  1  0.65048574  0.15129131  0.04925142  1.0
  H  H21  1  0.59967758  0.09862131  0.20080803  1.0
  H  H22  1  0.29879231  0.99976970  0.90024064  1.0
  H  H23  1  0.45182402  0.74906001  0.84985669  1.0
  H  H24  1  0.32788082  0.53966093  0.39837673  1.0
  H  H25  1  0.42400460  0.20866722  0.35142833  1.0
  H  H26  1  0.75429006  0.54216904  0.68519501  1.0
  H  H27  1  0.49417761  0.70743959  0.56553759  1.0
  H  H28  1  0.04294590  0.25500540  0.68369323  1.0
  H  H29  1  0.20782519  0.99627654  0.56524651  1.0
  H  H30  1  0.74526268  0.81199283  0.38636062  1.0
  H  H31  1  0.00448955  0.93327120  0.36448055  1.0
  H  H32  1  0.70611875  0.49722704  0.06573061  1.0
  H  H33  1  0.54232734  0.75817278  0.18353352  1.0
  H  H34  1  0.14611816  0.08126248  0.22083965  1.0
  H  H35  1  0.09769625  0.17305851  0.03064192  1.0
  H  H36  1  0.50838150  0.43151153  0.86361189  1.0
  H  H37  1  0.24485854  0.31666568  0.88671222  1.0
  H  H38  1  0.92252787  0.71024877  0.85021406  1.0
  H  H39  1  0.83102211  0.04004681  0.89751972  1.0
  C  C40  1  0.06292429  0.31689649  0.56161228  1.0
  C  C41  1  0.07018775  0.56841594  0.56847003  1.0
  C  C42  1  0.18452620  0.43926735  0.43742647  1.0
  C  C43  1  0.93631847  0.68280153  0.43962388  1.0
  C  C44  1  0.93110700  0.42945552  0.43196004  1.0
  C  C45  1  0.81633770  0.56027013  0.56307562  1.0
  C  C46  1  0.56695851  0.30953161  0.31089240  1.0
  C  C47  1  0.68117350  0.18121628  0.18113841  1.0
  C  C48  1  0.68872015  0.43597196  0.18779415  1.0
  C  C49  1  0.93273365  0.18933887  0.18996989  1.0
  C  C50  1  0.81686291  0.31951983  0.31957894  1.0
  C  C51  1  0.81298833  0.06366713  0.31175409  1.0
  C  C52  1  0.43237896  0.68971062  0.68767530  1.0
  C  C53  1  0.31921336  0.81978730  0.81817125  1.0
  C  C54  1  0.18788944  0.93412765  0.68730655  1.0
  C  C55  1  0.06747921  0.80892106  0.81100850  1.0
  C  C56  1  0.18151116  0.67968907  0.68152316  1.0
  C  C57  1  0.31567212  0.56521249  0.81192391  1.0
  C  C58  1  0.43737913  0.18308699  0.93835212  1.0
  C  C59  1  0.43235555  0.93014457  0.93092346  1.0
  C  C60  1  0.68592883  0.94131481  0.93844913  1.0
  C  C61  1  0.55982076  0.81867093  0.06144866  1.0
  C  C62  1  0.56703689  0.07060640  0.06892689  1.0
  C  C63  1  0.31215264  0.06292495  0.06053748  1.0
  C  C64  1  0.90168573  0.40341027  0.40199112  1.0
  C  C65  1  0.84849054  0.34788305  0.34728401  1.0
  C  C66  1  0.83076023  0.44632295  0.38704194  1.0
  C  C67  1  0.92023043  0.30575955  0.36143756  1.0
  C  C68  1  0.80392218  0.41893163  0.36083545  1.0
  C  C69  1  0.94594250  0.33205085  0.38874765  1.0
  C  C70  1  0.09780114  0.59926953  0.59691643  1.0
  C  C71  1  0.15068015  0.65197319  0.65310353  1.0
  C  C72  1  0.13977030  0.64301256  0.58326634  1.0
  C  C73  1  0.10727467  0.60966091  0.66675007  1.0
  C  C74  1  0.16690499  0.66786647  0.61057798  1.0
  C  C75  1  0.08230957  0.58265728  0.63943308  1.0
  C  C76  1  0.30557141  0.45385014  0.40004092  1.0
  C  C77  1  0.44616380  0.29477358  0.34872445  1.0
  C  C78  1  0.25901557  0.41497200  0.41295215  1.0
  C  C79  1  0.49275836  0.33356195  0.33574766  1.0
  C  C80  1  0.37812802  0.33865650  0.37246797  1.0
  C  C81  1  0.37418217  0.40950533  0.37680948  1.0
  C  C82  1  0.72518981  0.57668697  0.63067907  1.0
  C  C83  1  0.52345679  0.67351078  0.62005148  1.0
  C  C84  1  0.74224259  0.58534671  0.58792894  1.0
  C  C85  1  0.50643052  0.66525378  0.66282873  1.0
  C  C86  1  0.60350501  0.64163734  0.60840494  1.0
  C  C87  1  0.64519981  0.60955256  0.64230425  1.0
  C  C88  1  0.07755537  0.22593466  0.62938397  1.0
  C  C89  1  0.17308735  0.02509760  0.61957830  1.0
  C  C90  1  0.08659263  0.24297369  0.58660119  1.0
  C  C91  1  0.16372376  0.00809090  0.66233758  1.0
  C  C92  1  0.14098735  0.10476481  0.60764642  1.0
  C  C93  1  0.10874306  0.14623348  0.64131887  1.0
  C  C94  1  0.84271411  0.79917159  0.39757164  1.0
  C  C95  1  0.90641154  0.94705069  0.35378009  1.0
  C  C96  1  0.91097994  0.75707878  0.41499323  1.0
  C  C97  1  0.83794235  0.98954270  0.33657859  1.0
  C  C98  1  0.90774365  0.87773033  0.37622751  1.0
  C  C99  1  0.84109813  0.86876851  0.37539247  1.0
  C  C100  1  0.65456961  0.15124168  0.15168630  1.0
  C  C101  1  0.59768571  0.09654733  0.09836516  1.0
  C  C102  1  0.66888312  0.16450744  0.10873642  1.0
  C  C103  1  0.58497159  0.08169694  0.14131280  1.0
  C  C104  1  0.64012240  0.13905751  0.08252642  1.0
  C  C105  1  0.61150857  0.10937996  0.16752726  1.0
  C  C106  1  0.67312028  0.52692575  0.11998484  1.0
  C  C107  1  0.57514127  0.72801502  0.12935308  1.0
  C  C108  1  0.66413957  0.50998610  0.16280268  1.0
  C  C109  1  0.58392159  0.74474997  0.08652047  1.0
  C  C110  1  0.60751233  0.64833456  0.14145562  1.0
  C  C111  1  0.64026657  0.60662333  0.10789734  1.0
  C  C112  1  0.07972441  0.12560274  0.17845315  1.0
  C  C113  1  0.16508663  0.12611120  0.07236269  1.0
  C  C114  1  0.00708782  0.16367417  0.16539306  1.0
  C  C115  1  0.23783082  0.08775108  0.08520090  1.0
  C  C116  1  0.10756309  0.13929909  0.10649698  1.0
  C  C117  1  0.13742712  0.11148840  0.14434065  1.0
  C  C118  1  0.34608303  0.84840789  0.84812864  1.0
  C  C119  1  0.40348491  0.89935295  0.90301311  1.0
  C  C120  1  0.30358284  0.91862781  0.86319982  1.0
  C  C121  1  0.44519126  0.82834885  0.88872279  1.0
  C  C122  1  0.33185769  0.94439358  0.88949416  1.0
  C  C123  1  0.41800532  0.80368552  0.86133727  1.0
  C  C124  1  0.40928471  0.44760743  0.85350257  1.0
  C  C125  1  0.34404776  0.30064387  0.89668998  1.0
  C  C126  1  0.34069062  0.49095023  0.83662180  1.0
  C  C127  1  0.41246686  0.25746528  0.91378310  1.0
  C  C128  1  0.34285875  0.37035372  0.87493819  1.0
  C  C129  1  0.41005423  0.37836982  0.87568795  1.0
  C  C130  1  0.94614167  0.79518564  0.84886703  1.0
  C  C131  1  0.80753799  0.95471122  0.90054762  1.0
  C  C132  1  0.99348209  0.83325925  0.83597716  1.0
  C  C133  1  0.76025988  0.91668569  0.91369624  1.0
  C  C134  1  0.87557846  0.90991913  0.87712901  1.0
  C  C135  1  0.87840917  0.83953486  0.87271642  1.0
  S  S136  1  0.29902949  0.32485764  0.39687686  1.0
  S  S137  1  0.45342553  0.42312112  0.35247051  1.0
  S  S138  1  0.66101606  0.63310538  0.56215286  1.0
  S  S139  1  0.58777419  0.61875913  0.68859043  1.0
  S  S140  1  0.13288104  0.16206477  0.56120487  1.0
  S  S141  1  0.11623374  0.08891141  0.68773902  1.0
  S  S142  1  0.97257346  0.80233078  0.40437902  1.0
  S  S143  1  0.77582900  0.94481214  0.34777299  1.0
  S  S144  1  0.61571058  0.59112086  0.18798274  1.0
  S  S145  1  0.63141435  0.66364344  0.06132328  1.0
  S  S146  1  0.00935569  0.18177591  0.11185886  1.0
  S  S147  1  0.23567502  0.06818110  0.13875529  1.0
  S  S148  1  0.27774146  0.44723681  0.84773538  1.0
  S  S149  1  0.47485520  0.30181959  0.90327231  1.0
  S  S150  1  0.95541747  0.92255282  0.85291834  1.0
  S  S151  1  0.79887947  0.82678104  0.89741144  1.0
  N  N152  1  0.78085591  0.52444498  0.39697055  1.0
  N  N153  1  0.97453025  0.23191289  0.34728591  1.0
  N  N154  1  0.15562127  0.66797836  0.53904776  1.0
  N  N155  1  0.08274420  0.59326072  0.71095984  1.0
  N  N156  1  0.71754518  0.20416772  0.08842242  1.0
  N  N157  1  0.54465314  0.03370518  0.16168663  1.0
  N  N158  1  0.22515295  0.96909069  0.85309078  1.0
  N  N159  1  0.51967701  0.77390724  0.90273254  1.0
  O  O160  1  0.00071937  0.49903301  0.49988579  1.0
  O  O161  1  0.07434167  0.31583780  0.52238772  1.0
  O  O162  1  0.02427040  0.53881855  0.58528515  1.0
  O  O163  1  0.15403236  0.50680209  0.44690915  1.0
  O  O164  1  0.03348815  0.37548824  0.58061251  1.0
  O  O165  1  0.15628676  0.38974566  0.44712846  1.0
  O  O166  1  0.09574636  0.57396552  0.53066191  1.0
  O  O167  1  0.00100762  0.65903991  0.45341955  1.0
  O  O168  1  0.88384197  0.48821661  0.44826523  1.0
  O  O169  1  0.89299943  0.64805746  0.44520807  1.0
  O  O170  1  0.00025527  0.38955416  0.43847479  1.0
  O  O171  1  0.87542635  0.52199478  0.58187610  1.0
  O  O172  1  0.81488977  0.57928047  0.52404852  1.0
  O  O173  1  0.74912394  0.25077202  0.25016551  1.0
  O  O174  1  0.59862225  0.35607058  0.30487988  1.0
  O  O175  1  0.67291815  0.15600032  0.21897363  1.0
  O  O176  1  0.72729357  0.37745213  0.16910364  1.0
  O  O177  1  0.59343026  0.24537807  0.29740051  1.0
  O  O178  1  0.66911866  0.43658104  0.22684955  1.0
  O  O179  1  0.70824863  0.22943290  0.16555608  1.0
  O  O180  1  0.87460427  0.21941229  0.16958234  1.0
  O  O181  1  0.85352782  0.25012852  0.31408868  1.0
  O  O182  1  0.93174970  0.18022576  0.22903567  1.0
  O  O183  1  0.75593174  0.36744811  0.30480268  1.0
  O  O184  1  0.74494275  0.09163859  0.30153155  1.0
  O  O185  1  0.86012902  0.09421794  0.30228348  1.0
  O  O186  1  0.25018137  0.75007720  0.75001483  1.0
  O  O187  1  0.37317558  0.71864487  0.66867876  1.0
  O  O188  1  0.36042740  0.75174442  0.81088304  1.0
  O  O189  1  0.16831034  0.93501386  0.72626983  1.0
  O  O190  1  0.43398341  0.67938962  0.72686565  1.0
  O  O191  1  0.22603038  0.87563489  0.66852758  1.0
  O  O192  1  0.25864112  0.86629506  0.80273940  1.0
  O  O193  1  0.09947712  0.85521298  0.80496907  1.0
  O  O194  1  0.17716893  0.65326227  0.71929734  1.0
  O  O195  1  0.09371705  0.74487737  0.79738340  1.0
  O  O196  1  0.20987675  0.72653828  0.66472769  1.0
  O  O197  1  0.36291245  0.59570163  0.80194763  1.0
  O  O198  1  0.24725987  0.59310738  0.80241479  1.0
  O  O199  1  0.49982384  0.00043606  0.99980619  1.0
  O  O200  1  0.50192695  0.15907741  0.95231400  1.0
  O  O201  1  0.38425187  0.99103896  0.94509882  1.0
  O  O202  1  0.65700552  0.89239541  0.94761288  1.0
  O  O203  1  0.39385709  0.14866484  0.94367301  1.0
  O  O204  1  0.65621444  0.00831889  0.94878472  1.0
  O  O205  1  0.50182760  0.89323390  0.93720088  1.0
  O  O206  1  0.57414716  0.81737063  0.02223800  1.0
  O  O207  1  0.51969760  0.04231438  0.08456241  1.0
  O  O208  1  0.52723591  0.87744965  0.08034199  1.0
  O  O209  1  0.59105414  0.08031866  0.03105072  1.0
  O  O210  1  0.31355041  0.07983582  0.02150214  1.0
  O  O211  1  0.37018470  0.02584743  0.08073469  1.0
  O  O212  1  0.80002640  0.57515051  0.37891180  1.0
  O  O213  1  0.72207766  0.53273750  0.42060310  1.0
  O  O214  1  0.00809108  0.23435170  0.31221415  1.0
  O  O215  1  0.98496394  0.17482250  0.37263340  1.0
  O  O216  1  0.10193689  0.72027858  0.52257716  1.0
  O  O217  1  0.22208615  0.63741663  0.52311918  1.0
  O  O218  1  0.03025191  0.64630866  0.72739600  1.0
  O  O219  1  0.11387343  0.52692897  0.72691186  1.0
  O  O220  1  0.78695026  0.16784051  0.08936911  1.0
  O  O221  1  0.68497109  0.26842077  0.07027001  1.0
  O  O222  1  0.58109046  0.96450452  0.16168620  1.0
  O  O223  1  0.47974034  0.06669760  0.17899722  1.0
  O  O224  1  0.17373420  0.95123587  0.87165028  1.0
  O  O225  1  0.21741312  0.02692859  0.82877296  1.0
  O  O226  1  0.51796396  0.73977838  0.93776702  1.0
  O  O227  1  0.57660638  0.76411779  0.87733670  1.0
  O  O228  1  0.28627493  0.52445854  0.40905565  1.0
  O  O229  1  0.46489718  0.22431107  0.33950244  1.0
  O  O230  1  0.77909594  0.54136977  0.65697750  1.0
  O  O231  1  0.46948629  0.70803476  0.59377981  1.0
  O  O232  1  0.04303730  0.27960887  0.65539497  1.0
  O  O233  1  0.20820267  0.97150816  0.59351758  1.0
  O  O234  1  0.78640682  0.77535021  0.40205802  1.0
  O  O235  1  0.96303916  0.97044335  0.34912587  1.0
  O  O236  1  0.70869666  0.47311852  0.09414824  1.0
  O  O237  1  0.53981202  0.78202878  0.15507545  1.0
  O  O238  1  0.09152715  0.10530192  0.21859877  1.0
  O  O239  1  0.15248400  0.14732276  0.03227409  1.0
  O  O240  1  0.46667974  0.47009443  0.84892584  1.0
  O  O241  1  0.28707113  0.27773019  0.90091839  1.0
  O  O242  1  0.96437541  0.72506821  0.83946448  1.0
  O  O243  1  0.78957718  0.02521527  0.90945408  1.0
