# generated using pymatgen
data_Al2H13C24N(O5F)2
_symmetry_space_group_name_H-M   'P 1'
_cell_length_a   6.66706494
_cell_length_b   11.11703458
_cell_length_c   17.76870617
_cell_angle_alpha   90.78835336
_cell_angle_beta   99.11420739
_cell_angle_gamma   106.95330933
_symmetry_Int_Tables_number   1
_chemical_formula_structural   Al2H13C24N(O5F)2
_chemical_formula_sum   'Al2 H13 C24 N1 O10 F2'
_cell_volume   1241.33536149
_cell_formula_units_Z   1
loop_
 _symmetry_equiv_pos_site_id
 _symmetry_equiv_pos_as_xyz
  1  'x, y, z'
loop_
 _atom_site_type_symbol
 _atom_site_label
 _atom_site_symmetry_multiplicity
 _atom_site_fract_x
 _atom_site_fract_y
 _atom_site_fract_z
 _atom_site_occupancy
  Al  Al0  1  0.00408451  0.50214520  0.49777490  1.0
  Al  Al1  1  0.50165046  0.49710379  0.49683486  1.0
  H  H2  1  0.32617437  0.56410072  0.59003539  1.0
  H  H3  1  0.66461405  0.35669092  0.44199701  1.0
  H  H4  1  0.34694291  0.10780722  0.45933846  1.0
  H  H5  1  0.77137583  0.12688382  0.53218578  1.0
  H  H6  1  0.21385638  0.87149319  0.45714079  1.0
  H  H7  1  0.12633214  0.44163647  0.72523666  1.0
  H  H8  1  0.19953298  0.43881890  0.86706258  1.0
  H  H9  1  0.63812054  0.55441730  0.87844733  1.0
  H  H10  1  0.34687243  0.45205766  0.11420535  1.0
  H  H11  1  0.86963347  0.55542604  0.27621930  1.0
  H  H12  1  0.78079189  0.55738023  0.13456996  1.0
  H  H13  1  0.53213812  0.78829114  0.52930129  1.0
  H  H14  1  0.50853021  0.93822947  0.54823551  1.0
  C  C15  1  0.80476292  0.49484006  0.63638515  1.0
  C  C16  1  0.86278233  0.72732968  0.49542164  1.0
  C  C17  1  0.20074389  0.50737899  0.36030629  1.0
  C  C18  1  0.13723870  0.27036629  0.49719264  1.0
  C  C19  1  0.92309057  0.86590477  0.49509410  1.0
  C  C20  1  0.06544272  0.12998149  0.49703896  1.0
  C  C21  1  0.79074856  0.93692256  0.51620316  1.0
  C  C22  1  0.19462987  0.05946878  0.47576145  1.0
  C  C23  1  0.86828794  0.06984858  0.51631849  1.0
  C  C24  1  0.12069249  0.92941447  0.47470070  1.0
  C  C25  1  0.84105406  0.49482827  0.72144127  1.0
  C  C26  1  0.01973238  0.46458399  0.75977715  1.0
  C  C27  1  0.06118813  0.46373644  0.83870147  1.0
  C  C28  1  0.92453770  0.49605705  0.88324506  1.0
  C  C29  1  0.74529920  0.52733750  0.84595845  1.0
  C  C30  1  0.70660199  0.52555710  0.76694637  1.0
  C  C31  1  0.96755500  0.49869635  0.96387677  1.0
  C  C32  1  0.00775919  0.50216550  0.03347151  1.0
  C  C33  1  0.05719376  0.50525110  0.11401782  1.0
  C  C34  1  0.24193186  0.47703048  0.14867222  1.0
  C  C35  1  0.28939836  0.47939524  0.22761869  1.0
  C  C36  1  0.15832343  0.50792078  0.27535301  1.0
  C  C37  1  0.97389248  0.53516925  0.23962859  1.0
  C  C38  1  0.92357632  0.53508439  0.16087789  1.0
  N  N39  1  0.59910524  0.88321926  0.53754249  1.0
  O  O40  1  0.96593643  0.50279907  0.60425135  1.0
  O  O41  1  0.66916359  0.66847070  0.50003250  1.0
  O  O42  1  0.38593567  0.51025833  0.39303233  1.0
  O  O43  1  0.99770836  0.32704276  0.50086859  1.0
  O  O44  1  0.04413047  0.50353080  0.39384063  1.0
  O  O45  1  0.33231313  0.32320855  0.49277347  1.0
  O  O46  1  0.61792687  0.48718821  0.60281785  1.0
  O  O47  1  0.00657806  0.67347527  0.49258127  1.0
  O  O48  1  0.29634937  0.55423792  0.53457419  1.0
  O  O49  1  0.71223981  0.44227414  0.46441293  1.0
  F  F50  1  0.53272491  0.55909461  0.73492098  1.0
  F  F51  1  0.46776120  0.44914710  0.25719073  1.0
