# generated using pymatgen
data_ZnH16C24(NO)4
_symmetry_space_group_name_H-M   'P 1'
_cell_length_a   7.37271975
_cell_length_b   17.03617662
_cell_length_c   18.51600217
_cell_angle_alpha   62.60771909
_cell_angle_beta   88.26684380
_cell_angle_gamma   86.21037117
_symmetry_Int_Tables_number   1
_chemical_formula_structural   ZnH16C24(NO)4
_chemical_formula_sum   'Zn2 H32 C48 N8 O8'
_cell_volume   2060.38992950
_cell_formula_units_Z   2
loop_
 _symmetry_equiv_pos_site_id
 _symmetry_equiv_pos_as_xyz
  1  'x, y, z'
loop_
 _atom_site_type_symbol
 _atom_site_label
 _atom_site_symmetry_multiplicity
 _atom_site_fract_x
 _atom_site_fract_y
 _atom_site_fract_z
 _atom_site_occupancy
  Zn  Zn0  1  0.75025854  0.09179728  0.81656348  1.0
  Zn  Zn1  1  0.24974024  0.90820274  0.18343665  1.0
  H  H2  1  0.33020140  0.06160081  0.73677202  1.0
  H  H3  1  0.16930369  0.20138911  0.73674111  1.0
  H  H4  1  0.66979628  0.93839722  0.26322842  1.0
  H  H5  1  0.83069511  0.79861089  0.26326119  1.0
  H  H6  1  0.57011868  0.03681120  0.65064984  1.0
  H  H7  1  0.92969636  0.31237611  0.65042054  1.0
  H  H8  1  0.42988173  0.96318682  0.34935165  1.0
  H  H9  1  0.07030346  0.68762655  0.34958333  1.0
  H  H10  1  0.16160422  0.98272368  0.52074899  1.0
  H  H11  1  0.33877253  0.49604989  0.52060690  1.0
  H  H12  1  0.83839744  0.01727502  0.47925112  1.0
  H  H13  1  0.66122779  0.50394880  0.47939431  1.0
  H  H14  1  0.92007276  0.00138104  0.61160920  1.0
  H  H15  1  0.57992196  0.38646480  0.61171201  1.0
  H  H16  1  0.07992708  0.99862097  0.38838792  1.0
  H  H17  1  0.42008116  0.61353324  0.38828944  1.0
  H  H18  1  0.70671619  0.88251385  0.12118412  1.0
  H  H19  1  0.79287246  0.99664770  0.12117423  1.0
  H  H20  1  0.29328502  0.11748816  0.87881514  1.0
  H  H21  1  0.20712884  0.00335365  0.87882477  1.0
  H  H22  1  0.61962668  0.75110118  0.10995148  1.0
  H  H23  1  0.88035196  0.13924488  0.10999068  1.0
  H  H24  1  0.38037328  0.24890016  0.89004862  1.0
  H  H25  1  0.11965205  0.86075648  0.89000828  1.0
  H  H26  1  0.58368088  0.76079554  0.97080055  1.0
  H  H27  1  0.91646593  0.26867789  0.97080387  1.0
  H  H28  1  0.41631781  0.23920513  0.02919985  1.0
  H  H29  1  0.08353537  0.73132346  0.02919459  1.0
  H  H30  1  0.64217972  0.90609438  0.84769179  1.0
  H  H31  1  0.85802383  0.24653020  0.84769700  1.0
  H  H32  1  0.35781878  0.09390761  0.15230698  1.0
  H  H33  1  0.14197756  0.75347050  0.15230173  1.0
  C  C34  1  0.96595701  0.04660925  0.73122321  1.0
  C  C35  1  0.53363000  0.22173028  0.73132798  1.0
  C  C36  1  0.03404049  0.95339011  0.26877614  1.0
  C  C37  1  0.46636886  0.77826908  0.26867243  1.0
  C  C38  1  0.11037467  0.03194036  0.68004998  1.0
  C  C39  1  0.38935286  0.28763314  0.68008543  1.0
  C  C40  1  0.88962266  0.96806031  0.31994936  1.0
  C  C41  1  0.61064735  0.71236621  0.31991497  1.0
  C  C42  1  0.29321694  0.04209346  0.69102723  1.0
  C  C43  1  0.20648515  0.26658318  0.69098032  1.0
  C  C44  1  0.70678191  0.95790589  0.30897210  1.0
  C  C45  1  0.79351364  0.73341683  0.30902144  1.0
  C  C46  1  0.42739602  0.02991576  0.64199757  1.0
  C  C47  1  0.07247986  0.32785234  0.64182713  1.0
  C  C48  1  0.57260438  0.97008227  0.35800338  1.0
  C  C49  1  0.92751876  0.67214900  0.35817515  1.0
  C  C50  1  0.37879240  0.01001655  0.57980497  1.0
  C  C51  1  0.12124381  0.40992906  0.57964218  1.0
  C  C52  1  0.62120917  0.98998281  0.42019487  1.0
  C  C53  1  0.87875515  0.59006961  0.42035906  1.0
  C  C54  1  0.19537090  0.99925358  0.56877256  1.0
  C  C55  1  0.30476466  0.43156270  0.56868503  1.0
  C  C56  1  0.80463202  0.00074580  0.43122617  1.0
  C  C57  1  0.69523989  0.56843469  0.43131451  1.0
  C  C58  1  0.06278690  0.00951297  0.61898799  1.0
  C  C59  1  0.43716135  0.37104508  0.61901359  1.0
  C  C60  1  0.93721177  0.99048772  0.38101078  1.0
  C  C61  1  0.56284039  0.62895297  0.38098571  1.0
  C  C62  1  0.72353195  0.96378129  0.99009854  1.0
  C  C63  1  0.77644097  0.04642916  0.99008824  1.0
  C  C64  1  0.27646402  0.03621937  0.00990136  1.0
  C  C65  1  0.22355889  0.95357285  0.00991158  1.0
  C  C66  1  0.69525135  0.88584238  0.06133984  1.0
  C  C67  1  0.80461960  0.05315006  0.06133759  1.0
  C  C68  1  0.30474716  0.11415962  0.93866000  1.0
  C  C69  1  0.19538179  0.94685062  0.93866169  1.0
  C  C70  1  0.64415339  0.81197586  0.05483761  1.0
  C  C71  1  0.85584116  0.13349117  0.05486917  1.0
  C  C72  1  0.35584529  0.18802482  0.94516225  1.0
  C  C73  1  0.14416140  0.86651085  0.94512899  1.0
  C  C74  1  0.62402361  0.81709817  0.97812102  1.0
  C  C75  1  0.87603866  0.20506625  0.97814476  1.0
  C  C76  1  0.37597517  0.18290184  0.02187966  1.0
  C  C77  1  0.12396255  0.79493577  0.02185396  1.0
  C  C78  1  0.65494675  0.89702747  0.90972484  1.0
  C  C79  1  0.84521359  0.19358924  0.90972331  1.0
  C  C80  1  0.34505185  0.10297386  0.09027583  1.0
  C  C81  1  0.15478635  0.80641211  0.09027571  1.0
  N  N82  1  0.70257130  0.96804053  0.91606886  1.0
  N  N83  1  0.79759572  0.11621434  0.91605065  1.0
  N  N84  1  0.29742593  0.03196080  0.08393074  1.0
  N  N85  1  0.20240422  0.88378700  0.08394783  1.0
  N  N86  1  0.52411733  0.00145253  0.53191474  1.0
  N  N87  1  0.97590557  0.46644695  0.53175115  1.0
  N  N88  1  0.47588434  0.99854616  0.46808591  1.0
  N  N89  1  0.02409722  0.53355372  0.46825190  1.0
  O  O90  1  0.80307149  0.02866195  0.72824319  1.0
  O  O91  1  0.69654701  0.24265405  0.72845137  1.0
  O  O92  1  0.19692754  0.97133608  0.27175616  1.0
  O  O93  1  0.30345067  0.75734397  0.27154908  1.0
  O  O94  1  0.01003488  0.07923724  0.77882411  1.0
  O  O95  1  0.48962308  0.14150338  0.77893038  1.0
  O  O96  1  0.98996125  0.92076211  0.22117472  1.0
  O  O97  1  0.51037308  0.85849597  0.22107061  1.0
