# generated using pymatgen
data_ZnH9C14NO5
_symmetry_space_group_name_H-M   'P 1'
_cell_length_a   8.68756701
_cell_length_b   13.08682034
_cell_length_c   34.59727949
_cell_angle_alpha   90.23466167
_cell_angle_beta   90.03562499
_cell_angle_gamma   89.96163390
_symmetry_Int_Tables_number   1
_chemical_formula_structural   ZnH9C14NO5
_chemical_formula_sum   'Zn4 H36 C56 N4 O20'
_cell_volume   3933.42102389
_cell_formula_units_Z   4
loop_
 _symmetry_equiv_pos_site_id
 _symmetry_equiv_pos_as_xyz
  1  'x, y, z'
loop_
 _atom_site_type_symbol
 _atom_site_label
 _atom_site_symmetry_multiplicity
 _atom_site_fract_x
 _atom_site_fract_y
 _atom_site_fract_z
 _atom_site_occupancy
  Zn  Zn0  1  0.34142233  0.99152809  0.49997569  1.0
  Zn  Zn1  1  0.64571268  0.00809146  0.50002987  1.0
  Zn  Zn2  1  0.74872598  0.98592499  0.00004193  1.0
  Zn  Zn3  1  0.44456255  0.00286341  0.00000241  1.0
  H  H4  1  0.41154114  0.00549531  0.11456087  1.0
  H  H5  1  0.37776921  0.00782894  0.18552754  1.0
  H  H6  1  0.87149331  0.99288850  0.19890135  1.0
  H  H7  1  0.22199915  0.99400047  0.30082117  1.0
  H  H8  1  0.71527549  0.00921728  0.31488413  1.0
  H  H9  1  0.67987606  0.00853141  0.38579206  1.0
  H  H10  1  0.72325124  0.99939739  0.25476876  1.0
  H  H11  1  0.37093743  0.99922192  0.24526311  1.0
  H  H12  1  0.41084344  0.99940028  0.88538837  1.0
  H  H13  1  0.37750021  0.00276496  0.81442396  1.0
  H  H14  1  0.87157451  0.99641326  0.80127454  1.0
  H  H15  1  0.22170436  0.99814146  0.69906178  1.0
  H  H16  1  0.71540773  0.00653913  0.68520954  1.0
  H  H17  1  0.68012520  0.00562370  0.61427593  1.0
  H  H18  1  0.72306275  0.99993235  0.74529828  1.0
  H  H19  1  0.37081016  0.00012664  0.75468770  1.0
  H  H20  1  0.34710030  0.66638053  0.50003083  1.0
  H  H21  1  0.83636751  0.70596222  0.49992246  1.0
  H  H22  1  0.76803061  0.33814148  0.50012742  1.0
  H  H23  1  0.27866764  0.29890207  0.50015042  1.0
  H  H24  1  0.74225104  0.66075692  0.00018973  1.0
  H  H25  1  0.25315648  0.70141377  0.00034349  1.0
  H  H26  1  0.32047300  0.33328695  0.00013243  1.0
  H  H27  1  0.80992540  0.29326898  0.00014060  1.0
  H  H28  1  0.94726556  0.98569611  0.09569003  1.0
  H  H29  1  0.02734893  0.98031808  0.14234147  1.0
  H  H30  1  0.14395985  0.98903371  0.40394697  1.0
  H  H31  1  0.06484327  0.98259779  0.35718682  1.0
  H  H32  1  0.94675797  0.98834057  0.90455650  1.0
  H  H33  1  0.02792962  0.98784645  0.85793792  1.0
  H  H34  1  0.14406263  0.99205395  0.59587153  1.0
  H  H35  1  0.06424685  0.98913283  0.64258719  1.0
  H  H36  1  0.19504394  0.55958805  0.50010511  1.0
  H  H37  1  0.91909236  0.44507250  0.50002433  1.0
  H  H38  1  0.89359513  0.55390828  0.00041820  1.0
  H  H39  1  0.16955156  0.44066554  0.00041895  1.0
  C  C40  1  0.56786025  0.80873057  0.49996354  1.0
  C  C41  1  0.42922851  0.99886142  0.42660599  1.0
  C  C42  1  0.54194001  0.19570941  0.50010444  1.0
  C  C43  1  0.42923422  0.99935802  0.57337286  1.0
  C  C44  1  0.52219576  0.80348775  0.00014596  1.0
  C  C45  1  0.66148720  0.99481405  0.07341107  1.0
  C  C46  1  0.54682459  0.19039315  0.00003990  1.0
  C  C47  1  0.66106043  0.99341901  0.92665687  1.0
  C  C48  1  0.65743583  0.99729781  0.11586372  1.0
  C  C49  1  0.51122063  0.00241289  0.13363503  1.0
  C  C50  1  0.49281242  0.00341492  0.17316426  1.0
  C  C51  1  0.62395163  0.99940069  0.19751938  1.0
  C  C52  1  0.76954815  0.99521479  0.18036380  1.0
  C  C53  1  0.79100474  0.99407648  0.13982537  1.0
  C  C54  1  0.61283209  0.99980892  0.23956143  1.0
  C  C55  1  0.48119658  0.00001474  0.26054031  1.0
  C  C56  1  0.32343806  0.99682473  0.31952170  1.0
  C  C57  1  0.46940009  0.00064472  0.30256179  1.0
  C  C58  1  0.59998255  0.00519976  0.32708612  1.0
  C  C59  1  0.58061941  0.00506650  0.36658012  1.0
  C  C60  1  0.43405787  0.00041282  0.38415386  1.0
  C  C61  1  0.30104391  0.99659315  0.36002082  1.0
  C  C62  1  0.65698662  0.99573760  0.88421157  1.0
  C  C63  1  0.51073710  0.99863593  0.86636628  1.0
  C  C64  1  0.49259351  0.00030689  0.82682982  1.0
  C  C65  1  0.62385947  0.99905400  0.80252056  1.0
  C  C66  1  0.76947970  0.99680854  0.81975104  1.0
  C  C67  1  0.79074858  0.99523636  0.86031144  1.0
  C  C68  1  0.61269987  0.00010018  0.76047883  1.0
  C  C69  1  0.48108217  0.00077103  0.73946288  1.0
  C  C70  1  0.32327453  0.99950824  0.68042005  1.0
  C  C71  1  0.46932598  0.00160958  0.69744538  1.0
  C  C72  1  0.60002541  0.00419945  0.67296513  1.0
  C  C73  1  0.58077952  0.00388019  0.63345959  1.0
  C  C74  1  0.43412635  0.00097219  0.61582578  1.0
  C  C75  1  0.30096366  0.99913296  0.63990508  1.0
  C  C76  1  0.46094716  0.63105404  0.49999636  1.0
  C  C77  1  0.73777391  0.65482549  0.49994110  1.0
  C  C78  1  0.76049729  0.55050264  0.49998215  1.0
  C  C79  1  0.63382104  0.48063268  0.50000685  1.0
  C  C80  1  0.65413997  0.37338537  0.50007015  1.0
  C  C81  1  0.37715759  0.35011215  0.50010413  1.0
  C  C82  1  0.35419487  0.45427156  0.50008565  1.0
  C  C83  1  0.48110482  0.52398170  0.50001190  1.0
  C  C84  1  0.58787207  0.69551082  0.49997044  1.0
  C  C85  1  0.52713207  0.30916243  0.50008425  1.0
  C  C86  1  0.62830563  0.62563498  0.00023247  1.0
  C  C87  1  0.35157671  0.65003754  0.00032420  1.0
  C  C88  1  0.32847362  0.54575225  0.00032130  1.0
  C  C89  1  0.45496502  0.47556202  0.00026082  1.0
  C  C90  1  0.43445304  0.36833025  0.00016705  1.0
  C  C91  1  0.71145801  0.34459709  0.00016416  1.0
  C  C92  1  0.73458539  0.44871969  0.00023707  1.0
  C  C93  1  0.60781669  0.51860813  0.00026732  1.0
  C  C94  1  0.50162202  0.69034791  0.00024274  1.0
  C  C95  1  0.56141966  0.30388006  0.00010804  1.0
  N  N96  1  0.93583590  0.99122713  0.12484083  1.0
  N  N97  1  0.15589832  0.99413854  0.37481318  1.0
  N  N98  1  0.93544212  0.99437896  0.87542714  1.0
  N  N99  1  0.15584509  0.99839822  0.62500273  1.0
  O  O100  1  0.43166877  0.84430044  0.50006081  1.0
  O  O101  1  0.69225948  0.86288816  0.49985584  1.0
  O  O102  1  0.55680674  0.00241584  0.44473820  1.0
  O  O103  1  0.29687872  0.99328671  0.44447471  1.0
  O  O104  1  0.67822680  0.15567181  0.50018127  1.0
  O  O105  1  0.41777076  0.14442703  0.50004048  1.0
  O  O106  1  0.29674340  0.99424240  0.55547813  1.0
  O  O107  1  0.55687172  0.00246553  0.55529553  1.0
  O  O108  1  0.65846468  0.83877283  0.99998273  1.0
  O  O109  1  0.39795691  0.85789349  0.00021976  1.0
  O  O110  1  0.53370285  0.99802233  0.05537792  1.0
  O  O111  1  0.79367496  0.98884494  0.05543477  1.0
  O  O112  1  0.41069532  0.15025334  0.99992572  1.0
  O  O113  1  0.67103461  0.13903644  0.00009843  1.0
  O  O114  1  0.79340026  0.98847494  0.94463746  1.0
  O  O115  1  0.53319992  0.99587204  0.94465324  1.0
  O  O116  1  0.20496125  0.48551966  0.50009776  1.0
  O  O117  1  0.90965848  0.51916062  0.50001355  1.0
  O  O118  1  0.88387046  0.47982640  0.00028048  1.0
  O  O119  1  0.17919894  0.51473960  0.00035896  1.0
