# generated using pymatgen
data_AlH15(C11O2)3
_symmetry_space_group_name_H-M   'P 1'
_cell_length_a   3.98541969
_cell_length_b   20.44466698
_cell_length_c   20.46234525
_cell_angle_alpha   60.06071748
_cell_angle_beta   87.22685329
_cell_angle_gamma   87.09571613
_symmetry_Int_Tables_number   1
_chemical_formula_structural   AlH15(C11O2)3
_chemical_formula_sum   'Al1 H15 C33 O6'
_cell_volume   1442.42310138
_cell_formula_units_Z   1
loop_
 _symmetry_equiv_pos_site_id
 _symmetry_equiv_pos_as_xyz
  1  'x, y, z'
loop_
 _atom_site_type_symbol
 _atom_site_label
 _atom_site_symmetry_multiplicity
 _atom_site_fract_x
 _atom_site_fract_y
 _atom_site_fract_z
 _atom_site_occupancy
  Al  Al0  1  0.03954500  0.49967142  0.49965798  1.0
  H  H1  1  0.84065956  0.30945674  0.70679467  1.0
  H  H2  1  0.81847834  0.23667094  0.84780305  1.0
  H  H3  1  0.23843827  0.70921779  0.30694401  1.0
  H  H4  1  0.23782835  0.85037191  0.23544854  1.0
  H  H5  1  0.27026799  0.30947047  0.48519689  1.0
  H  H6  1  0.27313198  0.23773772  0.41580229  1.0
  H  H7  1  0.78624425  0.70694388  0.48388593  1.0
  H  H8  1  0.76431191  0.84810942  0.41574591  1.0
  H  H9  1  0.18924624  0.48245957  0.70891845  1.0
  H  H10  1  0.18564265  0.41306111  0.84999458  1.0
  H  H11  1  0.87263001  0.47935963  0.30728039  1.0
  H  H12  1  0.85545522  0.41121406  0.23452784  1.0
  H  H13  1  0.48676433  0.09586079  0.09671463  1.0
  H  H14  1  0.52130825  0.09696607  0.30660851  1.0
  H  H15  1  0.52070481  0.30717317  0.09524169  1.0
  C  C16  1  0.52582708  0.44237868  0.61584639  1.0
  C  C17  1  0.56604665  0.44062869  0.44227137  1.0
  C  C18  1  0.52422152  0.61599620  0.44081085  1.0
  C  C19  1  0.69318206  0.33080496  0.73881323  1.0
  C  C20  1  0.68172159  0.29055996  0.81709300  1.0
  C  C21  1  0.35738071  0.74031559  0.32952883  1.0
  C  C22  1  0.35617463  0.81865985  0.28998981  1.0
  C  C23  1  0.40294895  0.33034139  0.43098035  1.0
  C  C24  1  0.40401439  0.29064616  0.39233554  1.0
  C  C25  1  0.66197849  0.73903584  0.43007761  1.0
  C  C26  1  0.65083573  0.81737467  0.39210868  1.0
  C  C27  1  0.33063613  0.42925518  0.73999760  1.0
  C  C28  1  0.32797535  0.39061346  0.81831335  1.0
  C  C29  1  0.73776592  0.42704109  0.32988536  1.0
  C  C30  1  0.72930748  0.38903471  0.28961325  1.0
  C  C31  1  0.51584654  0.40011948  0.69964776  1.0
  C  C32  1  0.50152464  0.32028229  0.85807918  1.0
  C  C33  1  0.49744814  0.28029791  0.93793445  1.0
  C  C34  1  0.49841283  0.24589676  0.00673795  1.0
  C  C35  1  0.50210210  0.20613635  0.08671196  1.0
  C  C36  1  0.51349555  0.69990491  0.39941557  1.0
  C  C37  1  0.50120112  0.85846021  0.32092510  1.0
  C  C38  1  0.49863837  0.93832572  0.28106562  1.0
  C  C39  1  0.49928496  0.00717147  0.24658439  1.0
  C  C40  1  0.50311710  0.08710529  0.20634246  1.0
  C  C41  1  0.57125970  0.39856014  0.40037145  1.0
  C  C42  1  0.56332361  0.31997870  0.32042231  1.0
  C  C43  1  0.55274435  0.28083461  0.27983505  1.0
  C  C44  1  0.53816286  0.24686278  0.24517006  1.0
  C  C45  1  0.52262357  0.20674256  0.20552864  1.0
  C  C46  1  0.49623091  0.12681634  0.12706402  1.0
  C  C47  1  0.51603810  0.12740170  0.24525011  1.0
  C  C48  1  0.51512679  0.24578509  0.12628032  1.0
  O  O49  1  0.30183681  0.58242791  0.42641175  1.0
  O  O50  1  0.28732766  0.49037212  0.58242180  1.0
  O  O51  1  0.32706777  0.42692895  0.49096766  1.0
  O  O52  1  0.75632472  0.58263424  0.48853575  1.0
  O  O53  1  0.79707600  0.48754909  0.42725995  1.0
  O  O54  1  0.77371118  0.42786177  0.58262270  1.0
