# generated using pymatgen
data_MgH9C16O3
_symmetry_space_group_name_H-M   'P 1'
_cell_length_a   6.90830133
_cell_length_b   34.38696403
_cell_length_c   34.38962390
_cell_angle_alpha   119.55108833
_cell_angle_beta   93.83533282
_cell_angle_gamma   93.84657646
_symmetry_Int_Tables_number   1
_chemical_formula_structural   MgH9C16O3
_chemical_formula_sum   'Mg6 H54 C96 O18'
_cell_volume   7043.52788011
_cell_formula_units_Z   6
loop_
 _symmetry_equiv_pos_site_id
 _symmetry_equiv_pos_as_xyz
  1  'x, y, z'
loop_
 _atom_site_type_symbol
 _atom_site_label
 _atom_site_symmetry_multiplicity
 _atom_site_fract_x
 _atom_site_fract_y
 _atom_site_fract_z
 _atom_site_occupancy
  Mg  Mg0  1  0.24589922  0.66980314  0.30462935  1.0
  Mg  Mg1  1  0.57620429  0.63480834  0.33013882  1.0
  Mg  Mg2  1  0.94125784  0.69531085  0.36512997  1.0
  Mg  Mg3  1  0.75410013  0.33019726  0.69537095  1.0
  Mg  Mg4  1  0.42379489  0.36519173  0.66986102  1.0
  Mg  Mg5  1  0.05874134  0.30468921  0.63487015  1.0
  H  H6  1  0.28128565  0.17873361  0.57808158  1.0
  H  H7  1  0.52504757  0.07030615  0.53775943  1.0
  H  H8  1  0.14865343  0.11469824  0.56424959  1.0
  H  H9  1  0.38362064  0.04985537  0.47018153  1.0
  H  H10  1  0.42370431  0.99364759  0.39263890  1.0
  H  H11  1  0.20136372  0.92118036  0.35242440  1.0
  H  H12  1  0.94290168  0.90651234  0.39075100  1.0
  H  H13  1  0.00236901  0.80323028  0.38259189  1.0
  H  H14  1  0.18495787  0.88009655  0.42580357  1.0
  H  H15  1  0.10262423  0.39933819  0.82134529  1.0
  H  H16  1  0.45473012  0.46752534  0.92976980  1.0
  H  H17  1  0.03407767  0.44958201  0.88530171  1.0
  H  H18  1  0.33407910  0.42040713  0.95023911  1.0
  H  H19  1  0.43031326  0.39910141  0.00645293  1.0
  H  H20  1  0.28025373  0.43129452  0.07887574  1.0
  H  H21  1  0.03644655  0.48427371  0.09350501  1.0
  H  H22  1  0.19913987  0.57937574  0.19672914  1.0
  H  H23  1  0.30469665  0.54569124  0.11988318  1.0
  H  H24  1  0.70313834  0.42193442  0.60063651  1.0
  H  H25  1  0.98727189  0.46225513  0.53252004  1.0
  H  H26  1  0.58442523  0.43576584  0.55046278  1.0
  H  H27  1  0.91342380  0.52985910  0.57964023  1.0
  H  H28  1  0.03087657  0.60743654  0.60101293  1.0
  H  H29  1  0.84855029  0.64765366  0.56879023  1.0
  H  H30  1  0.55191850  0.60927102  0.51575795  1.0
  H  H31  1  0.61989644  0.61738330  0.42064652  1.0
  H  H32  1  0.75924309  0.57422004  0.45435090  1.0
  H  H33  1  0.71871610  0.82126578  0.42191825  1.0
  H  H34  1  0.47495290  0.92969358  0.46224055  1.0
  H  H35  1  0.85134737  0.88530216  0.43575073  1.0
  H  H36  1  0.61637854  0.95014469  0.52981831  1.0
  H  H37  1  0.57629487  0.00635247  0.60736122  1.0
  H  H38  1  0.79863401  0.07881970  0.64757571  1.0
  H  H39  1  0.05709912  0.09348806  0.60924961  1.0
  H  H40  1  0.99763212  0.19677079  0.61740905  1.0
  H  H41  1  0.81504745  0.11990419  0.57419727  1.0
  H  H42  1  0.89737478  0.60066154  0.17865466  1.0
  H  H43  1  0.54526777  0.53247506  0.07023077  1.0
  H  H44  1  0.96592134  0.55041771  0.11469825  1.0
  H  H45  1  0.66592008  0.57959294  0.04976044  1.0
  H  H46  1  0.56968899  0.60089899  0.99354711  1.0
  H  H47  1  0.71974835  0.56870555  0.92112501  1.0
  H  H48  1  0.96355392  0.51572602  0.90649468  1.0
  H  H49  1  0.80085948  0.42062466  0.80327145  1.0
  H  H50  1  0.69530125  0.45430916  0.88011709  1.0
  H  H51  1  0.29686212  0.57806531  0.39936347  1.0
  H  H52  1  0.01273489  0.53774561  0.46748052  1.0
  H  H53  1  0.41557942  0.56423355  0.44953592  1.0
  H  H54  1  0.08657538  0.47014096  0.42035960  1.0
  H  H55  1  0.96912278  0.39256387  0.39898736  1.0
  H  H56  1  0.15144889  0.35234641  0.43120990  1.0
  H  H57  1  0.44808069  0.39072905  0.48424217  1.0
  H  H58  1  0.38010385  0.38261609  0.57935329  1.0
  H  H59  1  0.24075738  0.42577968  0.54564937  1.0
  C  C60  1  0.74372173  0.23123417  0.62442820  1.0
  C  C61  1  0.53677025  0.22514837  0.61197090  1.0
  C  C62  1  0.43774131  0.18148928  0.58731868  1.0
  C  C63  1  0.53253689  0.14296616  0.57428017  1.0
  C  C64  1  0.43121445  0.09737345  0.55101091  1.0
  C  C65  1  0.23605091  0.08683120  0.54703049  1.0
  C  C66  1  0.12450809  0.04218683  0.52313032  1.0
  C  C67  1  0.97652834  0.03227777  0.54486726  1.0
  C  C68  1  0.84981536  0.99028112  0.52179293  1.0
  C  C69  1  0.29192032  0.01776293  0.45379779  1.0
  C  C70  1  0.31310012  0.98647785  0.41013861  1.0
  C  C71  1  0.18751165  0.94553426  0.38739483  1.0
  C  C72  1  0.04510304  0.93705936  0.40916300  1.0
  C  C73  1  0.16034680  0.80785893  0.39099397  1.0
  C  C74  1  0.26245695  0.85046200  0.41522430  1.0
  C  C75  1  0.57919104  0.73687791  0.37677427  1.0
  C  C76  1  0.51252349  0.39316507  0.76881262  1.0
  C  C77  1  0.31167215  0.38678947  0.77492401  1.0
  C  C78  1  0.25634251  0.40581633  0.81859220  1.0
  C  C79  1  0.38962477  0.43133772  0.85710591  1.0
  C  C80  1  0.33389557  0.45367978  0.90269127  1.0
  C  C81  1  0.14921427  0.46023661  0.91319101  1.0
  C  C82  1  0.08231991  0.48096319  0.95781856  1.0
  C  C83  1  0.94392764  0.51250867  0.96768175  1.0
  C  C84  1  0.85918490  0.53141706  0.00966338  1.0
  C  C85  1  0.27454005  0.43615079  0.98233257  1.0
  C  C86  1  0.32706848  0.42381121  0.01364157  1.0
  C  C87  1  0.24240775  0.44199390  0.05456994  1.0
  C  C88  1  0.10837946  0.47220888  0.06300549  1.0
  C  C89  1  0.35247726  0.58314984  0.19209937  1.0
  C  C90  1  0.41195576  0.56474859  0.14949397  1.0
  C  C91  1  0.84238464  0.63989269  0.26303216  1.0
  C  C92  1  0.11916268  0.37559569  0.60680988  1.0
  C  C93  1  0.92466154  0.38803624  0.61315209  1.0
  C  C94  1  0.85033087  0.41268177  0.59413194  1.0
  C  C95  1  0.95815421  0.42571178  0.56863852  1.0
  C  C96  1  0.88020790  0.44900661  0.54634242  1.0
  C  C97  1  0.68898694  0.45299648  0.53981359  1.0
  C  C98  1  0.60138348  0.47688408  0.51906461  1.0
  C  C99  1  0.43164118  0.45513111  0.48744618  1.0
  C  C100  1  0.32796289  0.47819856  0.46852531  1.0
  C  C101  1  0.83810442  0.54624577  0.56394108  1.0
  C  C102  1  0.90283868  0.58991991  0.57632636  1.0
  C  C103  1  0.79990325  0.61266321  0.55814140  1.0
  C  C104  1  0.63578296  0.59086072  0.52788045  1.0
  C  C105  1  0.76951882  0.60900650  0.41689262  1.0
  C  C106  1  0.84738757  0.58480632  0.43530292  1.0
  C  C107  1  0.20266864  0.62320269  0.36013009  1.0
  C  C108  1  0.25627762  0.76876623  0.37557181  1.0
  C  C109  1  0.46323056  0.77485203  0.38802884  1.0
  C  C110  1  0.56225932  0.81851079  0.41268147  1.0
  C  C111  1  0.46746503  0.85703357  0.42572012  1.0
  C  C112  1  0.56878909  0.90262661  0.44898957  1.0
  C  C113  1  0.76394989  0.91316920  0.45296983  1.0
  C  C114  1  0.87549271  0.95781357  0.47686999  1.0
  C  C115  1  0.02347246  0.96772263  0.45513335  1.0
  C  C116  1  0.15018544  0.00971928  0.47820738  1.0
  C  C117  1  0.70807869  0.98223680  0.54620188  1.0
  C  C118  1  0.68689761  0.01352222  0.58986121  1.0
  C  C119  1  0.81248753  0.05446580  0.61260588  1.0
  C  C120  1  0.95489776  0.06294104  0.59083731  1.0
  C  C121  1  0.83965512  0.19214080  0.60900574  1.0
  C  C122  1  0.73754513  0.14953807  0.58477586  1.0
  C  C123  1  0.42080814  0.26312215  0.62322557  1.0
  C  C124  1  0.48747698  0.60683466  0.23118736  1.0
  C  C125  1  0.68832687  0.61321026  0.22507594  1.0
  C  C126  1  0.74365667  0.59418374  0.18140793  1.0
  C  C127  1  0.61037297  0.56866234  0.14289420  1.0
  C  C128  1  0.66610489  0.54631994  0.09730871  1.0
  C  C129  1  0.85078184  0.53976311  0.08680891  1.0
  C  C130  1  0.91767748  0.51903620  0.04218092  1.0
  C  C131  1  0.05607249  0.48749039  0.03231789  1.0
  C  C132  1  0.14081121  0.46858266  0.99033595  1.0
  C  C133  1  0.72546025  0.56384860  0.01766666  1.0
  C  C134  1  0.67293071  0.57618885  0.98635797  1.0
  C  C135  1  0.75759255  0.55800549  0.94542987  1.0
  C  C136  1  0.89161810  0.52779085  0.93699416  1.0
  C  C137  1  0.64752192  0.41685022  0.80790076  1.0
  C  C138  1  0.58804342  0.43525147  0.85050615  1.0
  C  C139  1  0.15761599  0.36010738  0.73696798  1.0
  C  C140  1  0.88083779  0.62440404  0.39319010  1.0
  C  C141  1  0.07533764  0.61196382  0.38684774  1.0
  C  C142  1  0.14966960  0.58731796  0.40586774  1.0
  C  C143  1  0.04184787  0.57428829  0.43136136  1.0
  C  C144  1  0.11979887  0.55099413  0.45365756  1.0
  C  C145  1  0.31101224  0.54700358  0.46018566  1.0
  C  C146  1  0.39861972  0.52311531  0.48093466  1.0
  C  C147  1  0.56836219  0.54486862  0.51255325  1.0
  C  C148  1  0.67204047  0.52180117  0.53147412  1.0
  C  C149  1  0.16189767  0.45375430  0.43605879  1.0
  C  C150  1  0.09716195  0.41008015  0.42367379  1.0
  C  C151  1  0.20009593  0.38733685  0.44185873  1.0
  C  C152  1  0.36421751  0.40913901  0.47211923  1.0
  C  C153  1  0.23048164  0.39099323  0.58310736  1.0
  C  C154  1  0.15261451  0.41519374  0.56469725  1.0
  C  C155  1  0.79733055  0.37679738  0.63986974  1.0
  O  O156  1  0.75910720  0.74339737  0.39165638  1.0
  O  O157  1  0.49282111  0.69650647  0.35086683  1.0
  O  O158  1  0.15063032  0.72840628  0.35053425  1.0
  O  O159  1  0.01577985  0.64827526  0.25651156  1.0
  O  O160  1  0.79646947  0.65429235  0.30340423  1.0
  O  O161  1  0.42231568  0.62213842  0.27155179  1.0
  O  O162  1  0.36775124  0.60833841  0.35179477  1.0
  O  O163  1  0.14211303  0.64908382  0.34563570  1.0
  O  O164  1  0.80017833  0.64941369  0.37783571  1.0
  O  O165  1  0.24089070  0.25660303  0.60834390  1.0
  O  O166  1  0.50717807  0.30349359  0.64913358  1.0
  O  O167  1  0.84936887  0.27159378  0.64946530  1.0
  O  O168  1  0.98421934  0.35172481  0.74348857  1.0
  O  O169  1  0.20352971  0.34570771  0.69659619  1.0
  O  O170  1  0.57768351  0.37786164  0.72844862  1.0
  O  O171  1  0.63224939  0.39166165  0.64820538  1.0
  O  O172  1  0.85788760  0.35091624  0.65436444  1.0
  O  O173  1  0.19982214  0.35058604  0.62216456  1.0
