# generated using pymatgen
data_Zn4H16C48N4O37
_symmetry_space_group_name_H-M   'P 1'
_cell_length_a   23.69567044
_cell_length_b   23.69614497
_cell_length_c   23.69398070
_cell_angle_alpha   65.89858428
_cell_angle_beta   72.79075535
_cell_angle_gamma   107.20669546
_symmetry_Int_Tables_number   1
_chemical_formula_structural   Zn4H16C48N4O37
_chemical_formula_sum   'Zn8 H32 C96 N8 O74'
_cell_volume   10190.64873860
_cell_formula_units_Z   2
loop_
 _symmetry_equiv_pos_site_id
 _symmetry_equiv_pos_as_xyz
  1  'x, y, z'
loop_
 _atom_site_type_symbol
 _atom_site_label
 _atom_site_symmetry_multiplicity
 _atom_site_fract_x
 _atom_site_fract_y
 _atom_site_fract_z
 _atom_site_occupancy
  Zn  Zn0  1  0.05580913  0.10034337  0.45948345  1.0
  Zn  Zn1  1  0.05580649  0.95545190  0.48470944  1.0
  Zn  Zn2  1  0.94417788  0.95947326  0.60036433  1.0
  Zn  Zn3  1  0.94419234  0.98471805  0.45544329  1.0
  Zn  Zn4  1  0.94016130  0.39964645  0.04454715  1.0
  Zn  Zn5  1  0.05983920  0.54454676  0.89964202  1.0
  Zn  Zn6  1  0.94015630  0.54051498  0.01529318  1.0
  Zn  Zn7  1  0.05982479  0.51528814  0.04053117  1.0
  H  H8  1  0.92169689  0.27211618  0.96628445  1.0
  H  H9  1  0.07830254  0.46629839  0.77205793  1.0
  H  H10  1  0.92499339  0.03546944  0.73141135  1.0
  H  H11  1  0.07497731  0.23138279  0.53546596  1.0
  H  H12  1  0.07832160  0.61206401  0.14955886  1.0
  H  H13  1  0.92170451  0.64964042  0.11198852  1.0
  H  H14  1  0.07498327  0.84359153  0.38954592  1.0
  H  H15  1  0.92499359  0.88951685  0.34362189  1.0
  H  H16  1  0.73313217  0.26860834  0.15639773  1.0
  H  H17  1  0.73313188  0.46451944  0.11047549  1.0
  H  H18  1  0.26162154  0.03369786  0.38802292  1.0
  H  H19  1  0.26161714  0.22788252  0.35045323  1.0
  H  H20  1  0.26687112  0.65641532  0.76859665  1.0
  H  H21  1  0.26685349  0.61046270  0.96453930  1.0
  H  H22  1  0.73838313  0.88803039  0.53368458  1.0
  H  H23  1  0.73836164  0.85042252  0.72790437  1.0
  H  H24  1  0.12055918  0.34253372  0.70545019  1.0
  H  H25  1  0.87941247  0.20547321  0.84254720  1.0
  H  H26  1  0.01174220  0.32769194  0.62931801  1.0
  H  H27  1  0.98823201  0.12932662  0.82770845  1.0
  H  H28  1  0.87942061  0.67396593  0.27803410  1.0
  H  H29  1  0.12057150  0.77808086  0.17392704  1.0
  H  H30  1  0.98823023  0.85891629  0.18406675  1.0
  H  H31  1  0.01175252  0.68405593  0.35891755  1.0
  H  H32  1  0.54296729  0.37066879  0.14110164  1.0
  H  H33  1  0.54297595  0.17229789  0.31595502  1.0
  H  H34  1  0.45200102  0.29449780  0.32609128  1.0
  H  H35  1  0.45199899  0.15746444  0.22198091  1.0
  H  H36  1  0.45701440  0.64108657  0.87068957  1.0
  H  H37  1  0.45702439  0.81595705  0.67229814  1.0
  H  H38  1  0.54798715  0.82605671  0.79453038  1.0
  H  H39  1  0.54801002  0.72200022  0.65743877  1.0
  C  C40  1  0.17863605  0.08929922  0.41071287  1.0
  C  C41  1  0.99998082  0.86376596  0.63624047  1.0
  C  C42  1  0.99999471  0.09201392  0.59203158  1.0
  C  C43  1  0.82135856  0.91071280  0.58930253  1.0
  C  C44  1  0.00002115  0.13623246  0.36375751  1.0
  C  C45  1  0.99999982  0.90797481  0.40797810  1.0
  C  C46  1  0.00000519  0.41069680  0.91066494  1.0
  C  C47  1  0.00000157  0.63622061  0.86376646  1.0
  C  C48  1  0.81594844  0.40797467  0.09202518  1.0
  C  C49  1  0.00000055  0.58934468  0.08929679  1.0
  C  C50  1  0.99999005  0.36377263  0.13623332  1.0
  C  C51  1  0.18404600  0.59202271  0.90798054  1.0
  C  C52  1  0.00001208  0.19473056  0.30526619  1.0
  C  C53  1  0.99999423  0.30527347  0.19473032  1.0
  C  C54  1  0.95659192  0.18044502  0.27784982  1.0
  C  C55  1  0.04170441  0.31955690  0.22385810  1.0
  C  C56  1  0.95829176  0.23443732  0.22215328  1.0
  C  C57  1  0.04342002  0.26556670  0.27613698  1.0
  C  C58  1  0.99999670  0.80527778  0.69473463  1.0
  C  C59  1  0.00000884  0.69473018  0.80527072  1.0
  C  C60  1  0.95658542  0.77613792  0.76558211  1.0
  C  C61  1  0.04171264  0.72216394  0.73442318  1.0
  C  C62  1  0.95829854  0.72385172  0.81957244  1.0
  C  C63  1  0.04341642  0.77786653  0.68043449  1.0
  C  C64  1  0.99999754  0.37315573  0.87311660  1.0
  C  C65  1  0.95556200  0.30120826  0.90995118  1.0
  C  C66  1  0.95310026  0.26615367  0.87497494  1.0
  C  C67  1  0.99999535  0.30240338  0.80238654  1.0
  C  C68  1  0.04689218  0.37498664  0.76611960  1.0
  C  C69  1  0.04443522  0.40997140  0.80116823  1.0
  C  C70  1  0.99998739  0.26673345  0.76672316  1.0
  C  C71  1  0.99998662  0.23591196  0.73591586  1.0
  C  C72  1  0.99998362  0.20024987  0.70025417  1.0
  C  C73  1  0.95961496  0.12588021  0.73829431  1.0
  C  C74  1  0.95823322  0.09195143  0.70219812  1.0
  C  C75  1  0.99998583  0.12952888  0.62954480  1.0
  C  C76  1  0.04173170  0.20217639  0.59195235  1.0
  C  C77  1  0.04034930  0.23827810  0.62587567  1.0
  C  C78  1  0.00001313  0.62690882  0.12682308  1.0
  C  C79  1  0.04444842  0.63451823  0.15433758  1.0
  C  C80  1  0.04690755  0.67195589  0.18692684  1.0
  C  C81  1  0.00000567  0.69763049  0.19758608  1.0
  C  C82  1  0.95310612  0.68699009  0.17189958  1.0
  C  C83  1  0.95557123  0.65440318  0.13444763  1.0
  C  C84  1  0.99999636  0.73328764  0.23326070  1.0
  C  C85  1  0.99999331  0.76408638  0.26408842  1.0
  C  C86  1  0.99998706  0.79973793  0.29976260  1.0
  C  C87  1  0.04035467  0.80207261  0.33376701  1.0
  C  C88  1  0.04173663  0.83955316  0.36630882  1.0
  C  C89  1  0.99999047  0.87045096  0.37047560  1.0
  C  C90  1  0.95823538  0.86627868  0.33958348  1.0
  C  C91  1  0.95961465  0.83373298  0.30210508  1.0
  C  C92  1  0.74092264  0.37046073  0.12953620  1.0
  C  C93  1  0.70585800  0.29781614  0.16043263  1.0
  C  C94  1  0.63583400  0.26171642  0.19791594  1.0
  C  C95  1  0.59949327  0.29974585  0.20025618  1.0
  C  C96  1  0.63583395  0.37411440  0.16625421  1.0
  C  C97  1  0.70585891  0.40804014  0.13370882  1.0
  C  C98  1  0.52816730  0.26408413  0.23592280  1.0
  C  C99  1  0.46654163  0.23325659  0.26675370  1.0
  C  C100  1  0.39520787  0.19758751  0.30242813  1.0
  C  C101  1  0.35888329  0.12500552  0.32811227  1.0
  C  C102  1  0.28884602  0.09002326  0.36556192  1.0
  C  C103  1  0.25372508  0.12683906  0.37318856  1.0
  C  C104  1  0.28884670  0.19878387  0.34567790  1.0
  C  C105  1  0.35887551  0.23383070  0.31308847  1.0
  C  C106  1  0.25907241  0.62954088  0.87046341  1.0
  C  C107  1  0.29414259  0.66044740  0.79780999  1.0
  C  C108  1  0.36416614  0.69792807  0.76171155  1.0
  C  C109  1  0.40049982  0.70025626  0.79974972  1.0
  C  C110  1  0.36415608  0.66625111  0.87412702  1.0
  C  C111  1  0.29413131  0.63370583  0.90805306  1.0
  C  C112  1  0.47182471  0.73591849  0.76408660  1.0
  C  C113  1  0.53345129  0.76674129  0.73325734  1.0
  C  C114  1  0.60478474  0.80241346  0.69759020  1.0
  C  C115  1  0.64111737  0.82811084  0.62499712  1.0
  C  C116  1  0.71115371  0.86556173  0.59001726  1.0
  C  C117  1  0.74626622  0.87317810  0.62684518  1.0
  C  C118  1  0.71113648  0.84565187  0.69879931  1.0
  C  C119  1  0.64110809  0.81305849  0.73384818  1.0
  C  C120  1  0.10001918  0.41898137  0.68988025  1.0
  C  C121  1  0.89997361  0.18991994  0.91898849  1.0
  C  C122  1  0.08452723  0.31701367  0.57937983  1.0
  C  C123  1  0.91544437  0.07939342  0.81703587  1.0
  C  C124  1  0.89997608  0.71008807  0.18103045  1.0
  C  C125  1  0.10004136  0.68109529  0.21002371  1.0
  C  C126  1  0.91544227  0.83605258  0.26754271  1.0
  C  C127  1  0.08452893  0.76751365  0.33608049  1.0
  C  C128  1  0.60358958  0.42060098  0.16394337  1.0
  C  C129  1  0.60359162  0.18298233  0.23247916  1.0
  C  C130  1  0.39111253  0.31006070  0.28998603  1.0
  C  C131  1  0.39111129  0.08100940  0.31897642  1.0
  C  C132  1  0.39639646  0.66393579  0.92062201  1.0
  C  C133  1  0.39641882  0.73249976  0.68296760  1.0
  C  C134  1  0.60886458  0.78993997  0.81009041  1.0
  C  C135  1  0.60889809  0.81899079  0.58098554  1.0
  N  N136  1  0.90643971  0.10662083  0.30843867  1.0
  N  N137  1  0.08494020  0.39338166  0.20018649  1.0
  N  N138  1  0.91504565  0.21486938  0.19157227  1.0
  N  N139  1  0.09357879  0.28513357  0.29980334  1.0
  N  N140  1  0.90642061  0.79979337  0.78516847  1.0
  N  N141  1  0.08494708  0.69157964  0.71484024  1.0
  N  N142  1  0.91506125  0.70016984  0.89340853  1.0
  N  N143  1  0.09356796  0.80846053  0.60659851  1.0
  O  O144  1  0.99999073  0.99999137  0.50000149  1.0
  O  O145  1  0.14991098  0.12766224  0.40609460  1.0
  O  O146  1  0.01963604  0.86841033  0.57786503  1.0
  O  O147  1  0.95333602  0.02858223  0.62655705  1.0
  O  O148  1  0.14990386  0.02221030  0.44403585  1.0
  O  O149  1  0.04665846  0.12653136  0.52859906  1.0
  O  O150  1  0.98031547  0.90247269  0.65126433  1.0
  O  O151  1  0.85007789  0.90608804  0.62767574  1.0
  O  O152  1  0.98036691  0.07786960  0.36839552  1.0
  O  O153  1  0.85009314  0.94404675  0.52221165  1.0
  O  O154  1  0.01967522  0.15124582  0.40247860  1.0
  O  O155  1  0.04666787  0.92012543  0.42473760  1.0
  O  O156  1  0.95334283  0.92474505  0.42011967  1.0
  O  O157  1  0.99999273  0.49999834  0.00000813  1.0
  O  O158  1  0.96625276  0.37233660  0.97775710  1.0
  O  O159  1  0.05373895  0.63158500  0.84874311  1.0
  O  O160  1  0.84485838  0.47139897  0.07526288  1.0
  O  O161  1  0.03376889  0.47778891  0.87230131  1.0
  O  O162  1  0.84486105  0.37345857  0.07987870  1.0
  O  O163  1  0.94627535  0.59750360  0.92213242  1.0
  O  O164  1  0.96624441  0.59394504  0.05596345  1.0
  O  O165  1  0.05371588  0.42214371  0.09752287  1.0
  O  O166  1  0.03373897  0.55599504  0.09392335  1.0
  O  O167  1  0.94626198  0.34875152  0.13159281  1.0
  O  O168  1  0.15513575  0.57988013  0.87345565  1.0
  O  O169  1  0.15513010  0.57525027  0.97141296  1.0
  O  O170  1  0.86011653  0.07631008  0.36832309  1.0
  O  O171  1  0.91550661  0.08385648  0.27008735  1.0
  O  O172  1  0.05536976  0.42368162  0.21621814  1.0
  O  O173  1  0.14605491  0.41615732  0.16833505  1.0
  O  O174  1  0.94460689  0.22841589  0.13169219  1.0
  O  O175  1  0.85393356  0.18559544  0.22992911  1.0
  O  O176  1  0.13990718  0.27159202  0.28377385  1.0
  O  O177  1  0.08450694  0.31440356  0.33164953  1.0
  O  O178  1  0.86009114  0.78377245  0.77162613  1.0
  O  O179  1  0.91549203  0.83162738  0.81444842  1.0
  O  O180  1  0.05537935  0.63170852  0.72838665  1.0
  O  O181  1  0.14606366  0.72992855  0.68555414  1.0
  O  O182  1  0.94462866  0.71617764  0.92372102  1.0
  O  O183  1  0.85394604  0.66833556  0.91617893  1.0
  O  O184  1  0.13988971  0.86833691  0.57628709  1.0
  O  O185  1  0.08449896  0.77011823  0.58382720  1.0
  O  O186  1  0.13687033  0.39073067  0.66762555  1.0
  O  O187  1  0.11173655  0.47837775  0.65051274  1.0
  O  O188  1  0.86312121  0.16765330  0.89074257  1.0
  O  O189  1  0.88827101  0.15056910  0.97838354  1.0
  O  O190  1  0.05721050  0.35732841  0.58943073  1.0
  O  O191  1  0.14116474  0.34366253  0.53277897  1.0
  O  O192  1  0.94275976  0.08945086  0.85735141  1.0
  O  O193  1  0.85880191  0.03279612  0.84369385  1.0
  O  O194  1  0.86312082  0.69548988  0.24613982  1.0
  O  O195  1  0.88826129  0.73773152  0.13335068  1.0
  O  O196  1  0.13687320  0.74618973  0.19544856  1.0
  O  O197  1  0.11175998  0.63341890  0.23765982  1.0
  O  O198  1  0.94276018  0.85332427  0.19990282  1.0
  O  O199  1  0.85879917  0.82600178  0.29753957  1.0
  O  O200  1  0.05722015  0.69988775  0.35333256  1.0
  O  O201  1  0.14116591  0.79749546  0.32604907  1.0
  O  O202  1  0.55321285  0.41054576  0.14669207  1.0
  O  O203  1  0.62353913  0.46719848  0.17398126  1.0
  O  O204  1  0.55322029  0.14266380  0.30011911  1.0
  O  O205  1  0.62354028  0.15633886  0.20248753  1.0
  O  O206  1  0.44163153  0.33231835  0.30456304  1.0
  O  O207  1  0.37107220  0.34941478  0.26234662  1.0
  O  O208  1  0.44162440  0.10926747  0.25386789  1.0
  O  O209  1  0.37107038  0.02160896  0.36665425  1.0
  O  O210  1  0.44676539  0.64667576  0.91057204  1.0
  O  O211  1  0.37644582  0.67397912  0.96722242  1.0
  O  O212  1  0.44678425  0.80013240  0.64265415  1.0
  O  O213  1  0.37647902  0.70251929  0.65630590  1.0
  O  O214  1  0.55835214  0.80452232  0.83235547  1.0
  O  O215  1  0.62889793  0.76228701  0.84945161  1.0
  O  O216  1  0.55838866  0.75389014  0.60923605  1.0
  O  O217  1  0.62894206  0.86667016  0.52158625  1.0
