# generated using pymatgen
data_Zn4H4C22N2O13F4
_symmetry_space_group_name_H-M   'P 1'
_cell_length_a   18.85533352
_cell_length_b   18.97928479
_cell_length_c   18.97948948
_cell_angle_alpha   94.29265897
_cell_angle_beta   117.47339720
_cell_angle_gamma   117.47093583
_symmetry_Int_Tables_number   1
_chemical_formula_structural   Zn4H4C22N2O13F4
_chemical_formula_sum   'Zn8 H8 C44 N4 O26 F8'
_cell_volume   4976.79345933
_cell_formula_units_Z   2
loop_
 _symmetry_equiv_pos_site_id
 _symmetry_equiv_pos_as_xyz
  1  'x, y, z'
loop_
 _atom_site_type_symbol
 _atom_site_label
 _atom_site_symmetry_multiplicity
 _atom_site_fract_x
 _atom_site_fract_y
 _atom_site_fract_z
 _atom_site_occupancy
  Zn  Zn0  1  0.92139637  0.12419323  0.70579760  1.0
  Zn  Zn1  1  0.08392416  0.70772629  0.29029747  1.0
  Zn  Zn2  1  0.08393223  0.29031034  0.70774395  1.0
  Zn  Zn3  1  0.91606219  0.70969091  0.29225626  1.0
  Zn  Zn4  1  0.91607245  0.29227369  0.70970102  1.0
  Zn  Zn5  1  0.07860203  0.87580866  0.29420712  1.0
  Zn  Zn6  1  0.07859721  0.29419682  0.87580815  1.0
  Zn  Zn7  1  0.92140402  0.70580762  0.12419332  1.0
  H  H8  1  0.06046375  0.93200734  0.66274094  1.0
  H  H9  1  0.00325944  0.97425723  0.67202122  1.0
  H  H10  1  0.93953786  0.06799583  0.33726587  1.0
  H  H11  1  0.99673954  0.02574274  0.32798521  1.0
  H  H12  1  0.94045710  0.33760520  0.06859786  1.0
  H  H13  1  0.99719163  0.32817748  0.02586119  1.0
  H  H14  1  0.05950320  0.66239029  0.93138147  1.0
  H  H15  1  0.00281494  0.67183077  0.97416726  1.0
  C  C16  1  0.99363886  0.38831981  0.88511335  1.0
  C  C17  1  0.07204307  0.08112628  0.51861051  1.0
  C  C18  1  0.07224578  0.51883574  0.08110821  1.0
  C  C19  1  0.92775586  0.48116934  0.91889244  1.0
  C  C20  1  0.92795311  0.91887305  0.48139406  1.0
  C  C21  1  0.36313559  0.43279528  0.93551675  1.0
  C  C22  1  0.63686701  0.56720280  0.06447803  1.0
  C  C23  1  0.63686102  0.06450691  0.56722044  1.0
  C  C24  1  0.00636253  0.61168017  0.11488787  1.0
  C  C25  1  0.36313119  0.93549179  0.43277540  1.0
  C  C26  1  0.45132803  0.47610203  0.97700493  1.0
  C  C27  1  0.54866437  0.52389031  0.02297787  1.0
  C  C28  1  0.54867126  0.02300240  0.52390582  1.0
  C  C29  1  0.45133340  0.97700651  0.47609545  1.0
  C  C30  1  0.00632108  0.11489766  0.61164895  1.0
  C  C31  1  0.99999124  0.43183509  0.56815712  1.0
  C  C32  1  0.00000969  0.56817828  0.43183803  1.0
  C  C33  1  0.99999573  0.47576290  0.52423604  1.0
  C  C34  1  0.00000583  0.52423644  0.47577416  1.0
  C  C35  1  0.99367753  0.88510550  0.38835702  1.0
  C  C36  1  0.74080263  0.11660844  0.61880636  1.0
  C  C37  1  0.25919617  0.88339026  0.38119093  1.0
  C  C38  1  0.25919399  0.38121896  0.88341489  1.0
  C  C39  1  0.74080503  0.61878293  0.11658379  1.0
  C  C40  1  0.99999190  0.38007747  0.61991378  1.0
  C  C41  1  0.00000974  0.61992761  0.38008845  1.0
  C  C42  1  0.00000501  0.12004806  0.87995025  1.0
  C  C43  1  0.00000064  0.87995701  0.12005607  1.0
  C  C44  1  0.00000513  0.06820876  0.93177754  1.0
  C  C45  1  0.00001212  0.93179951  0.06822857  1.0
  C  C46  1  0.00000829  0.02425733  0.97574043  1.0
  C  C47  1  0.00001392  0.97574839  0.02426882  1.0
  C  C48  1  0.02046992  0.98443888  0.57476840  1.0
  C  C49  1  0.97952828  0.01556364  0.42523786  1.0
  C  C50  1  0.97981796  0.42535403  0.01576889  1.0
  C  C51  1  0.02018067  0.57464914  0.98423076  1.0
  C  C52  1  0.08502163  0.00743740  0.53865957  1.0
  C  C53  1  0.91497435  0.99256257  0.46134705  1.0
  C  C54  1  0.91509473  0.46129353  0.99276482  1.0
  C  C55  1  0.08490551  0.53871028  0.00723456  1.0
  C  C56  1  0.99328955  0.94169474  0.44643943  1.0
  C  C57  1  0.00671105  0.05830779  0.55356740  1.0
  C  C58  1  0.00676005  0.55362631  0.05828262  1.0
  C  C59  1  0.99324118  0.44637814  0.94171675  1.0
  N  N60  1  0.05019838  0.97998495  0.65639070  1.0
  N  N61  1  0.94980022  0.02001630  0.34361459  1.0
  N  N62  1  0.95033176  0.34381527  0.02039398  1.0
  N  N63  1  0.04966228  0.65618726  0.97960457  1.0
  O  O64  1  0.99999709  0.24979186  0.75021264  1.0
  O  O65  1  0.95396332  0.63890776  0.07654812  1.0
  O  O66  1  0.95389664  0.07654021  0.63884539  1.0
  O  O67  1  0.04610177  0.92346168  0.36115880  1.0
  O  O68  1  0.77967502  0.19694052  0.64318476  1.0
  O  O69  1  0.22032481  0.80305883  0.35680409  1.0
  O  O70  1  0.22032498  0.35683991  0.80308316  1.0
  O  O71  1  0.77966929  0.64316772  0.19691588  1.0
  O  O72  1  0.99999969  0.75021005  0.24978909  1.0
  O  O73  1  0.93494363  0.35507549  0.63517945  1.0
  O  O74  1  0.06506060  0.64493087  0.36482460  1.0
  O  O75  1  0.06504819  0.36482052  0.64492504  1.0
  O  O76  1  0.93494842  0.63517946  0.35507134  1.0
  O  O77  1  0.05552548  0.20055283  0.92020693  1.0
  O  O78  1  0.94447454  0.79945161  0.07979820  1.0
  O  O79  1  0.94447913  0.07979137  0.79944232  1.0
  O  O80  1  0.05552867  0.92021308  0.20056428  1.0
  O  O81  1  0.78265864  0.07730489  0.63465320  1.0
  O  O82  1  0.21733853  0.92269317  0.36535383  1.0
  O  O83  1  0.21733256  0.36535064  0.92271472  1.0
  O  O84  1  0.78267035  0.63464041  0.07728706  1.0
  O  O85  1  0.94381035  0.37192320  0.80545455  1.0
  O  O86  1  0.05617456  0.62806401  0.19454550  1.0
  O  O87  1  0.05621136  0.19456276  0.62810959  1.0
  O  O88  1  0.94378723  0.80543849  0.37189517  1.0
  O  O89  1  0.04605355  0.36110626  0.92345705  1.0
  F  F90  1  0.16885532  0.01144214  0.57565442  1.0
  F  F91  1  0.14325633  0.16131295  0.53673608  1.0
  F  F92  1  0.14364560  0.53717075  0.16128123  1.0
  F  F93  1  0.85635623  0.46283369  0.83871999  1.0
  F  F94  1  0.85673945  0.83868574  0.46326878  1.0
  F  F95  1  0.83114007  0.98855783  0.42435193  1.0
  F  F96  1  0.83138727  0.42428534  0.98897100  1.0
  F  F97  1  0.16861354  0.57571656  0.01103009  1.0
