# generated using pymatgen
data_Zn3H14(C12O5)2
_symmetry_space_group_name_H-M   'P 1'
_cell_length_a   12.06696393
_cell_length_b   13.71523464
_cell_length_c   13.71523322
_cell_angle_alpha   85.06563716
_cell_angle_beta   86.79784758
_cell_angle_gamma   86.79790622
_symmetry_Int_Tables_number   1
_chemical_formula_structural   Zn3H14(C12O5)2
_chemical_formula_sum   'Zn6 H28 C48 O20'
_cell_volume   2254.96897999
_cell_formula_units_Z   2
loop_
 _symmetry_equiv_pos_site_id
 _symmetry_equiv_pos_as_xyz
  1  'x, y, z'
loop_
 _atom_site_type_symbol
 _atom_site_label
 _atom_site_symmetry_multiplicity
 _atom_site_fract_x
 _atom_site_fract_y
 _atom_site_fract_z
 _atom_site_occupancy
  Zn  Zn0  1  0.00000008  0.99999974  0.99999998  1.0
  Zn  Zn1  1  0.49999996  0.99999957  0.00000021  1.0
  Zn  Zn2  1  0.25000050  0.91674149  0.08326042  1.0
  Zn  Zn3  1  0.24999993  0.08034205  0.91965812  1.0
  Zn  Zn4  1  0.74999951  0.08325930  0.91674230  1.0
  Zn  Zn5  1  0.75000186  0.91965656  0.08034250  1.0
  H  H6  1  0.15789660  0.91060652  0.91663095  1.0
  H  H7  1  0.18629089  0.95227268  0.38048617  1.0
  H  H8  1  0.85514164  0.99352299  0.27777335  1.0
  H  H9  1  0.21838007  0.96810180  0.55607781  1.0
  H  H10  1  0.10168171  0.73195328  0.90036714  1.0
  H  H11  1  0.17757700  0.56291261  0.87593829  1.0
  H  H12  1  0.83680645  0.61795838  0.09167687  1.0
  H  H13  1  0.34210496  0.08336977  0.08939548  1.0
  H  H14  1  0.31370716  0.61951388  0.04772919  1.0
  H  H15  1  0.64485527  0.72222874  0.00647882  1.0
  H  H16  1  0.28161600  0.44392220  0.03189747  1.0
  H  H17  1  0.39831977  0.09963046  0.26804629  1.0
  H  H18  1  0.32242522  0.12406088  0.43708708  1.0
  H  H19  1  0.66319461  0.90832022  0.38204218  1.0
  H  H20  1  0.84210510  0.08939355  0.08337028  1.0
  H  H21  1  0.81370652  0.04772957  0.61951584  1.0
  H  H22  1  0.14485583  0.00647853  0.72222872  1.0
  H  H23  1  0.78161498  0.03189824  0.44392233  1.0
  H  H24  1  0.89831914  0.26804680  0.09963122  1.0
  H  H25  1  0.82242717  0.43708748  0.12406061  1.0
  H  H26  1  0.16319522  0.38204170  0.90831998  1.0
  H  H27  1  0.65789590  0.91663030  0.91060433  1.0
  H  H28  1  0.68629121  0.38048618  0.95227076  1.0
  H  H29  1  0.35514233  0.27777058  0.99352270  1.0
  H  H30  1  0.71838149  0.55607859  0.96810174  1.0
  H  H31  1  0.60168022  0.90037034  0.73195351  1.0
  H  H32  1  0.67757560  0.87593992  0.56291340  1.0
  H  H33  1  0.33680625  0.09167985  0.61795764  1.0
  C  C34  1  0.07025923  0.95277729  0.21883585  1.0
  C  C35  1  0.02601375  0.97165537  0.31976580  1.0
  C  C36  1  0.09791688  0.96908062  0.39538091  1.0
  C  C37  1  0.05823509  0.98834959  0.49109906  1.0
  C  C38  1  0.91061002  0.99364425  0.33776203  1.0
  C  C39  1  0.13004050  0.98612900  0.57001953  1.0
  C  C40  1  0.91768162  0.78654035  0.00934223  1.0
  C  C41  1  0.96364421  0.68435178  0.99718452  1.0
  C  C42  1  0.06102394  0.66857655  0.93623358  1.0
  C  C43  1  0.10261328  0.57495860  0.92256777  1.0
  C  C44  1  0.91078839  0.60496200  0.04430600  1.0
  C  C45  1  0.04890605  0.49219017  0.96874449  1.0
  C  C46  1  0.42974073  0.78116687  0.04722446  1.0
  C  C47  1  0.47398484  0.68023347  0.02834531  1.0
  C  C48  1  0.40207981  0.60461933  0.03092127  1.0
  C  C49  1  0.44176163  0.50890088  0.01165231  1.0
  C  C50  1  0.58938627  0.66223984  0.00635743  1.0
  C  C51  1  0.36995770  0.42997953  0.01387181  1.0
  C  C52  1  0.58232029  0.99065544  0.21345879  1.0
  C  C53  1  0.53635920  0.00281367  0.31564727  1.0
  C  C54  1  0.43897943  0.06376427  0.33142289  1.0
  C  C55  1  0.39739032  0.07743193  0.42504079  1.0
  C  C56  1  0.58921202  0.95569177  0.39503770  1.0
  C  C57  1  0.45109672  0.03125490  0.50780878  1.0
  C  C58  1  0.92974166  0.04722277  0.78116761  1.0
  C  C59  1  0.97398379  0.02834469  0.68023420  1.0
  C  C60  1  0.90207897  0.03092015  0.60462058  1.0
  C  C61  1  0.94175997  0.01165045  0.50890180  1.0
  C  C62  1  0.08938588  0.00635580  0.66223952  1.0
  C  C63  1  0.86995544  0.01387032  0.42998135  1.0
  C  C64  1  0.08232178  0.21345828  0.99065246  1.0
  C  C65  1  0.03635838  0.31564683  0.00281240  1.0
  C  C66  1  0.93897939  0.33142353  0.06376318  1.0
  C  C67  1  0.89739089  0.42504149  0.07743040  1.0
  C  C68  1  0.08921333  0.39503735  0.95569164  1.0
  C  C69  1  0.95109817  0.50780918  0.03125447  1.0
  C  C70  1  0.57025600  0.21883317  0.95277777  1.0
  C  C71  1  0.52601442  0.31976585  0.97165611  1.0
  C  C72  1  0.59791853  0.39538146  0.96908081  1.0
  C  C73  1  0.55823681  0.49109844  0.98835062  1.0
  C  C74  1  0.41061124  0.33776094  0.99364543  1.0
  C  C75  1  0.63004074  0.57001979  0.98613038  1.0
  C  C76  1  0.41767974  0.00934462  0.78654107  1.0
  C  C77  1  0.46364162  0.99718713  0.68435248  1.0
  C  C78  1  0.56102139  0.93623653  0.66857759  1.0
  C  C79  1  0.60261136  0.92256814  0.57495825  1.0
  C  C80  1  0.41078719  0.04430829  0.60496220  1.0
  C  C81  1  0.54890335  0.96874443  0.49219040  1.0
  O  O82  1  0.16368377  0.95933504  0.96339049  1.0
  O  O83  1  0.00302228  0.95093360  0.15170448  1.0
  O  O84  1  0.17686817  0.93941183  0.20797959  1.0
  O  O85  1  0.82862904  0.79456840  0.06531182  1.0
  O  O86  1  0.96653465  0.85727228  0.96355355  1.0
  O  O87  1  0.33631655  0.03661117  0.04066547  1.0
  O  O88  1  0.49697568  0.84829535  0.04906718  1.0
  O  O89  1  0.32312856  0.79202052  0.06059163  1.0
  O  O90  1  0.67137452  0.93468733  0.20543143  1.0
  O  O91  1  0.53346674  0.03644305  0.14272735  1.0
  O  O92  1  0.83631715  0.04066429  0.03661084  1.0
  O  O93  1  0.99697610  0.04906646  0.84829547  1.0
  O  O94  1  0.82312933  0.06058896  0.79202180  1.0
  O  O95  1  0.17137262  0.20543168  0.93468357  1.0
  O  O96  1  0.03346954  0.14272708  0.03644250  1.0
  O  O97  1  0.66368349  0.96338889  0.95933584  1.0
  O  O98  1  0.50302352  0.15170471  0.95093272  1.0
  O  O99  1  0.67687067  0.20797953  0.93941265  1.0
  O  O100  1  0.32862482  0.06531054  0.79456793  1.0
  O  O101  1  0.46653251  0.96355628  0.85727262  1.0
