# generated using pymatgen
data_Al2H33C38N6O10F7
_symmetry_space_group_name_H-M   'P 1'
_cell_length_a   6.74456157
_cell_length_b   20.53876681
_cell_length_c   22.48896868
_cell_angle_alpha   87.02326255
_cell_angle_beta   89.23235957
_cell_angle_gamma   89.51017666
_symmetry_Int_Tables_number   1
_chemical_formula_structural   Al2H33C38N6O10F7
_chemical_formula_sum   'Al4 H66 C76 N12 O20 F14'
_cell_volume   3110.70500496
_cell_formula_units_Z   2
loop_
 _symmetry_equiv_pos_site_id
 _symmetry_equiv_pos_as_xyz
  1  'x, y, z'
loop_
 _atom_site_type_symbol
 _atom_site_label
 _atom_site_symmetry_multiplicity
 _atom_site_fract_x
 _atom_site_fract_y
 _atom_site_fract_z
 _atom_site_occupancy
  Al  Al0  1  0.16446737  0.50027619  0.49936532  1.0
  Al  Al1  1  0.66494775  0.49970791  0.49894435  1.0
  Al  Al2  1  0.60299664  0.00032315  0.99832168  1.0
  Al  Al3  1  0.10246079  0.00162086  0.00365566  1.0
  H  H4  1  0.63435849  0.09165649  0.82005709  1.0
  H  H5  1  0.08192017  0.89505166  0.16638234  1.0
  H  H6  1  0.10648923  0.18296361  0.91002647  1.0
  H  H7  1  0.65551267  0.83853812  0.10458568  1.0
  H  H8  1  0.28034527  0.36917778  0.78975565  1.0
  H  H9  1  0.84295016  0.65268626  0.22393600  1.0
  H  H10  1  0.67434053  0.33166420  0.60115606  1.0
  H  H11  1  0.12785268  0.65416620  0.38619562  1.0
  H  H12  1  0.15045370  0.17878404  0.21567414  1.0
  H  H13  1  0.65577809  0.81078332  0.77822197  1.0
  H  H14  1  0.99555575  0.14151104  0.27088962  1.0
  H  H15  1  0.51225156  0.85595400  0.72595181  1.0
  H  H16  1  0.20851629  0.26699089  0.27509250  1.0
  H  H17  1  0.67182428  0.72174129  0.71860389  1.0
  H  H18  1  0.93363200  0.26434868  0.09643101  1.0
  H  H19  1  0.24491156  0.21800622  0.13362102  1.0
  H  H20  1  0.27809139  0.29199175  0.17077615  1.0
  H  H21  1  0.28025776  0.29321924  0.09233908  1.0
  H  H22  1  0.44317755  0.73375557  0.89725643  1.0
  H  H23  1  0.76177170  0.76060949  0.85513884  1.0
  H  H24  1  0.74332661  0.69282972  0.80895048  1.0
  H  H25  1  0.76930921  0.67950712  0.88637770  1.0
  H  H26  1  0.53399556  0.28102121  0.37657578  1.0
  H  H27  1  0.32004436  0.35515817  0.33663179  1.0
  H  H28  1  0.41916983  0.34724416  0.26347553  1.0
  H  H29  1  0.56025911  0.38505955  0.31827258  1.0
  H  H30  1  0.89941203  0.77012060  0.65924335  1.0
  H  H31  1  0.02305363  0.67020678  0.60469864  1.0
  H  H32  1  0.79703966  0.66791787  0.64531062  1.0
  H  H33  1  0.01138364  0.63233472  0.67750700  1.0
  H  H34  1  0.10968676  0.37961664  0.26756567  1.0
  H  H35  1  0.23427133  0.43596949  0.18003598  1.0
  H  H36  1  0.97899722  0.45789226  0.19072906  1.0
  H  H37  1  0.04733624  0.39933778  0.13794046  1.0
  H  H38  1  0.50667907  0.60805643  0.72590132  1.0
  H  H39  1  0.59943330  0.54272465  0.81005964  1.0
  H  H40  1  0.33372653  0.54425120  0.80945641  1.0
  H  H41  1  0.46491101  0.59500496  0.85723544  1.0
  H  H42  1  0.22544299  0.43799930  0.73814900  1.0
  H  H43  1  0.91344735  0.51133912  0.68964325  1.0
  H  H44  1  0.12046281  0.52609673  0.64124646  1.0
  H  H45  1  0.13895967  0.54022644  0.71837004  1.0
  H  H46  1  0.83976228  0.59516238  0.28828506  1.0
  H  H47  1  0.59557741  0.50076425  0.27249593  1.0
  H  H48  1  0.61908812  0.48904884  0.35149934  1.0
  H  H49  1  0.83147080  0.48507750  0.30545817  1.0
  H  H50  1  0.43710277  0.12727998  0.67524978  1.0
  H  H51  1  0.24896633  0.06891702  0.75384868  1.0
  H  H52  1  0.19064626  0.15412255  0.74861193  1.0
  H  H53  1  0.35138346  0.12204674  0.80480550  1.0
  H  H54  1  0.89945648  0.88216815  0.22488946  1.0
  H  H55  1  0.64614439  0.89882263  0.28701388  1.0
  H  H56  1  0.79332406  0.86811617  0.34759181  1.0
  H  H57  1  0.64460092  0.81421327  0.30778627  1.0
  H  H58  1  0.87278698  0.17919827  0.36145114  1.0
  H  H59  1  0.66234038  0.13249294  0.42831254  1.0
  H  H60  1  0.50207768  0.13509698  0.36563859  1.0
  H  H61  1  0.48270761  0.19513469  0.41931921  1.0
  H  H62  1  0.32077025  0.84487470  0.64455247  1.0
  H  H63  1  0.22750121  0.83390256  0.54582560  1.0
  H  H64  1  0.09290507  0.76269215  0.56645170  1.0
  H  H65  1  0.35756596  0.76060912  0.56720475  1.0
  H  H66  1  0.41468434  0.42127538  0.53124308  1.0
  H  H67  1  0.91212314  0.57632364  0.46341711  1.0
  H  H68  1  0.34983457  0.08191955  0.97431370  1.0
  H  H69  1  0.86304187  0.92145401  0.97970277  1.0
  C  C70  1  0.41714924  0.58427058  0.57029690  1.0
  C  C71  1  0.92062482  0.41498353  0.42893946  1.0
  C  C72  1  0.41263713  0.57118377  0.41018472  1.0
  C  C73  1  0.91281955  0.43006641  0.58895713  1.0
  C  C74  1  0.73543976  0.13241665  0.82192997  1.0
  C  C75  1  0.20859595  0.86235974  0.17321895  1.0
  C  C76  1  0.86553242  0.13354544  0.86976481  1.0
  C  C77  1  0.36600653  0.87100563  0.13253992  1.0
  C  C78  1  0.00434269  0.18308601  0.87300522  1.0
  C  C79  1  0.53360871  0.83088273  0.13627276  1.0
  C  C80  1  0.01106751  0.23310217  0.82833476  1.0
  C  C81  1  0.54073925  0.78009863  0.18016003  1.0
  C  C82  1  0.87938837  0.23326323  0.77898338  1.0
  C  C83  1  0.38344577  0.77111528  0.22304358  1.0
  C  C84  1  0.73886165  0.18144173  0.77609365  1.0
  C  C85  1  0.21514109  0.81430079  0.21983748  1.0
  C  C86  1  0.15162282  0.28445138  0.82848327  1.0
  C  C87  1  0.70173839  0.73474143  0.18407621  1.0
  C  C88  1  0.16399342  0.33333333  0.78541589  1.0
  C  C89  1  0.71372053  0.68470099  0.22586762  1.0
  C  C90  1  0.03166556  0.33496748  0.73619322  1.0
  C  C91  1  0.56085529  0.67581027  0.27021568  1.0
  C  C92  1  0.89259740  0.28344219  0.73292568  1.0
  C  C93  1  0.39575579  0.71982172  0.26792737  1.0
  C  C94  1  0.76107702  0.28236242  0.68368917  1.0
  C  C95  1  0.23668857  0.71196417  0.31013072  1.0
  C  C96  1  0.62535026  0.22980826  0.68258413  1.0
  C  C97  1  0.07473113  0.75671574  0.30670373  1.0
  C  C98  1  0.60837179  0.17994556  0.72549884  1.0
  C  C99  1  0.05572167  0.80743566  0.26418805  1.0
  C  C100  1  0.03172954  0.38782162  0.69195050  1.0
  C  C101  1  0.56905710  0.62390287  0.31502430  1.0
  C  C102  1  0.90473102  0.38404919  0.64238560  1.0
  C  C103  1  0.41042219  0.61796018  0.35709592  1.0
  C  C104  1  0.77058956  0.33260042  0.63952647  1.0
  C  C105  1  0.24691112  0.66053883  0.35338140  1.0
  C  C106  1  0.66090980  0.20449802  0.25524841  1.0
  C  C107  1  0.16150495  0.80903448  0.74494443  1.0
  C  C108  1  0.02618486  0.18771592  0.24587277  1.0
  C  C109  1  0.52596962  0.80836282  0.75010476  1.0
  C  C110  1  0.07787012  0.23920440  0.28940136  1.0
  C  C111  1  0.55020183  0.75513390  0.70606573  1.0
  C  C112  1  0.92636957  0.36893837  0.38270197  1.0
  C  C113  1  0.40988972  0.63034873  0.61668984  1.0
  C  C114  1  0.83779680  0.20736454  0.20993360  1.0
  C  C115  1  0.33629680  0.79661739  0.78834922  1.0
  C  C116  1  0.69824424  0.24565562  0.31254191  1.0
  C  C117  1  0.17624266  0.76595656  0.68662234  1.0
  C  C118  1  0.89830288  0.28659986  0.29605740  1.0
  C  C119  1  0.35647238  0.71574716  0.70068321  1.0
  C  C120  1  0.89776381  0.32652172  0.23297094  1.0
  C  C121  1  0.33677778  0.67562721  0.76304603  1.0
  C  C122  1  0.86374795  0.27872071  0.18039458  1.0
  C  C123  1  0.33883692  0.72392102  0.81638815  1.0
  C  C124  1  0.92389894  0.33102667  0.34304956  1.0
  C  C125  1  0.38279573  0.67003824  0.65421637  1.0
  C  C126  1  0.81580351  0.16189296  0.16341058  1.0
  C  C127  1  0.33034191  0.84118518  0.83612764  1.0
  C  C128  1  0.82751859  0.12395481  0.12386967  1.0
  C  C129  1  0.34374446  0.87768200  0.87658966  1.0
  C  C130  1  0.35555469  0.92252199  0.08351621  1.0
  C  C131  1  0.85627230  0.08188834  0.91874006  1.0
  C  C132  1  0.35150440  0.92200362  0.92414987  1.0
  C  C133  1  0.84170069  0.07813490  0.07746155  1.0
  C  C134  1  0.21055783  0.27060778  0.13263378  1.0
  C  C135  1  0.69992137  0.71157745  0.85183708  1.0
  C  C136  1  0.45565538  0.34574067  0.31068084  1.0
  C  C137  1  0.95781390  0.67359950  0.64954613  1.0
  C  C138  1  0.08181641  0.41754827  0.18144309  1.0
  C  C139  1  0.46773600  0.57413519  0.81343559  1.0
  C  C140  1  0.07650722  0.50815486  0.68609995  1.0
  C  C141  1  0.68912807  0.51035380  0.31098100  1.0
  C  C142  1  0.30889402  0.11792551  0.75835458  1.0
  C  C143  1  0.73846982  0.85763368  0.30328036  1.0
  C  C144  1  0.58827470  0.16493848  0.39506720  1.0
  C  C145  1  0.22524900  0.79050982  0.57647957  1.0
  N  N146  1  0.99867662  0.28617379  0.13083303  1.0
  N  N147  1  0.48448649  0.70905786  0.86085001  1.0
  N  N148  1  0.52454937  0.28124767  0.33149962  1.0
  N  N149  1  0.98840323  0.73485220  0.67835668  1.0
  N  N150  1  0.07163450  0.36386880  0.22703529  1.0
  N  N151  1  0.48300130  0.62640559  0.76673900  1.0
  N  N152  1  0.14536059  0.44171988  0.70043868  1.0
  N  N153  1  0.72675755  0.57995887  0.31557340  1.0
  N  N154  1  0.48185950  0.12705038  0.71831778  1.0
  N  N155  1  0.89962291  0.85042182  0.26062644  1.0
  N  N156  1  0.74398774  0.20433470  0.36522247  1.0
  N  N157  1  0.21140006  0.81279420  0.63692584  1.0
  O  O158  1  0.57849555  0.55620601  0.43410598  1.0
  O  O159  1  0.08186045  0.45014206  0.56983576  1.0
  O  O160  1  0.24972222  0.56941901  0.54929254  1.0
  O  O161  1  0.74841635  0.43481870  0.44404403  1.0
  O  O162  1  0.24437536  0.55120742  0.43005369  1.0
  O  O163  1  0.74787354  0.44362133  0.56389617  1.0
  O  O164  1  0.08676351  0.43114606  0.44965263  1.0
  O  O165  1  0.58785080  0.56366958  0.55545107  1.0
  O  O166  1  0.41488326  0.46096029  0.50591319  1.0
  O  O167  1  0.91388657  0.53951668  0.49230511  1.0
  O  O168  1  0.18436312  0.93991719  0.94504387  1.0
  O  O169  1  0.67935448  0.06155238  0.05482216  1.0
  O  O170  1  0.52068518  0.94111021  0.06085046  1.0
  O  O171  1  0.02041902  0.06610463  0.94328648  1.0
  O  O172  1  0.52328859  0.93841538  0.94069014  1.0
  O  O173  1  0.01548093  0.05920356  0.06337882  1.0
  O  O174  1  0.68568883  0.05902621  0.93286609  1.0
  O  O175  1  0.18468278  0.94284276  0.06725810  1.0
  O  O176  1  0.35238189  0.04026422  0.99665707  1.0
  O  O177  1  0.85478078  0.96122116  0.00114422  1.0
  F  F178  1  0.63595582  0.13879735  0.27233155  1.0
  F  F179  1  0.16221831  0.87529969  0.72835795  1.0
  F  F180  1  0.13322714  0.20769406  0.34438091  1.0
  F  F181  1  0.60731184  0.78383098  0.64941544  1.0
  F  F182  1  0.68051985  0.29466474  0.15384295  1.0
  F  F183  1  0.15980802  0.71695005  0.84878698  1.0
  F  F184  1  0.72909066  0.36930208  0.23118001  1.0
  F  F185  1  0.14169938  0.64736909  0.76566472  1.0
  F  F186  1  0.48616525  0.22253791  0.22822154  1.0
  F  F187  1  0.98369997  0.79931920  0.77379193  1.0
  F  F188  1  0.28151001  0.28342115  0.87464451  1.0
  F  F189  1  0.85036673  0.74250145  0.14255845  1.0
  F  F190  1  0.50322901  0.22906271  0.63421770  1.0
  F  F191  1  0.92813891  0.74682726  0.34928310  1.0
