# generated using pymatgen
data_Zn4H42C36O13
_symmetry_space_group_name_H-M   'P 1'
_cell_length_a   21.62482627
_cell_length_b   21.69587359
_cell_length_c   21.70410029
_cell_angle_alpha   89.97582362
_cell_angle_beta   60.20529196
_cell_angle_gamma   60.28751941
_symmetry_Int_Tables_number   1
_chemical_formula_structural   Zn4H42C36O13
_chemical_formula_sum   'Zn8 H84 C72 O26'
_cell_volume   7255.18282244
_cell_formula_units_Z   2
loop_
 _symmetry_equiv_pos_site_id
 _symmetry_equiv_pos_as_xyz
  1  'x, y, z'
loop_
 _atom_site_type_symbol
 _atom_site_label
 _atom_site_symmetry_multiplicity
 _atom_site_fract_x
 _atom_site_fract_y
 _atom_site_fract_z
 _atom_site_occupancy
  Zn  Zn0  1  0.08476779  0.95318901  0.03925159  1.0
  Zn  Zn1  1  0.93535133  0.95378625  0.04174770  1.0
  Zn  Zn2  1  0.08103507  0.95418528  0.89357164  1.0
  Zn  Zn3  1  0.93737846  0.10103828  0.03955472  1.0
  Zn  Zn4  1  0.93596774  0.52595308  0.46712656  1.0
  Zn  Zn5  1  0.08551745  0.52550017  0.46623306  1.0
  Zn  Zn6  1  0.08532917  0.37901627  0.46762707  1.0
  Zn  Zn7  1  0.93431873  0.52773844  0.61344393  1.0
  H  H8  1  0.94440751  0.86878936  0.23252582  1.0
  H  H9  1  0.14278087  0.76435329  0.12767260  1.0
  H  H10  1  0.08046317  0.83102343  0.21682875  1.0
  H  H11  1  0.13866466  0.68371921  0.20457785  1.0
  H  H12  1  0.05257839  0.65549345  0.17440804  1.0
  H  H13  1  0.93806948  0.78386452  0.16568682  1.0
  H  H14  1  0.05089189  0.73326550  0.09459055  1.0
  H  H15  1  0.88594433  0.79434394  0.30130305  1.0
  H  H16  1  0.94250673  0.64757545  0.28953550  1.0
  H  H17  1  0.88118628  0.71389597  0.37865035  1.0
  H  H18  1  0.07946841  0.60838643  0.27305663  1.0
  H  H19  1  0.97432903  0.74325678  0.41111651  1.0
  H  H20  1  0.08706753  0.69233101  0.33962465  1.0
  H  H21  1  0.97212098  0.82175840  0.33217435  1.0
  H  H22  1  0.35591363  0.75470365  0.82217924  1.0
  H  H23  1  0.35838424  0.87177456  0.89762524  1.0
  H  H24  1  0.38146575  0.78500392  0.91245927  1.0
  H  H25  1  0.51467595  0.79629347  0.81305147  1.0
  H  H26  1  0.51038678  0.81136742  0.69762772  1.0
  H  H27  1  0.37616956  0.80664646  0.71941871  1.0
  H  H28  1  0.35445970  0.88632118  0.77079856  1.0
  H  H29  1  0.50459767  0.67685947  0.68531509  1.0
  H  H30  1  0.63703608  0.69073999  0.58899615  1.0
  H  H31  1  0.66076283  0.60322153  0.60201071  1.0
  H  H32  1  0.65931927  0.72034120  0.68229682  1.0
  H  H33  1  0.66160671  0.58663906  0.72905835  1.0
  H  H34  1  0.63985942  0.66492641  0.78289053  1.0
  H  H35  1  0.50495763  0.66347241  0.80274665  1.0
  H  H36  1  0.06702464  0.17265633  0.11497483  1.0
  H  H37  1  0.03556468  0.08713285  0.22644233  1.0
  H  H38  1  0.13402025  0.07813686  0.16425868  1.0
  H  H39  1  0.02442199  0.17054843  0.31080320  1.0
  H  H40  1  0.89093009  0.28637287  0.32660208  1.0
  H  H41  1  0.91157812  0.27018314  0.19063368  1.0
  H  H42  1  0.88930895  0.21338940  0.24435561  1.0
  H  H43  1  0.00761379  0.30590611  0.18912229  1.0
  H  H44  1  0.89759997  0.39897737  0.33524918  1.0
  H  H45  1  0.99670067  0.38925175  0.27379950  1.0
  H  H46  1  0.96310145  0.30381918  0.38495137  1.0
  H  H47  1  0.14117478  0.26409315  0.25746208  1.0
  H  H48  1  0.11902601  0.20688519  0.31057890  1.0
  H  H49  1  0.14117610  0.19049656  0.17394874  1.0
  H  H50  1  0.95064385  0.87703426  0.82657424  1.0
  H  H51  1  0.99057633  0.75851730  0.90352335  1.0
  H  H52  1  0.88940655  0.82223748  0.91758360  1.0
  H  H53  1  0.99852414  0.67908411  0.81806711  1.0
  H  H54  1  0.12780224  0.66916822  0.70234831  1.0
  H  H55  1  0.10516263  0.80546641  0.72581692  1.0
  H  H56  1  0.13173362  0.74698658  0.77790596  1.0
  H  H57  1  0.00473735  0.81177755  0.69354495  1.0
  H  H58  1  0.11450342  0.66947195  0.59280843  1.0
  H  H59  1  0.01236081  0.73198419  0.60799532  1.0
  H  H60  1  0.05589420  0.61367801  0.68439589  1.0
  H  H61  1  0.87406214  0.74081497  0.73181956  1.0
  H  H62  1  0.90077039  0.68306305  0.78434750  1.0
  H  H63  1  0.87538411  0.82057753  0.80841121  1.0
  H  H64  1  0.66367247  0.17273094  0.24073583  1.0
  H  H65  1  0.66220054  0.09151183  0.12670926  1.0
  H  H66  1  0.63860675  0.08006966  0.21466059  1.0
  H  H67  1  0.50594751  0.17549462  0.20127968  1.0
  H  H68  1  0.50916151  0.29100478  0.18248894  1.0
  H  H69  1  0.64345439  0.27243454  0.18472790  1.0
  H  H70  1  0.66521966  0.21797488  0.10685858  1.0
  H  H71  1  0.51550027  0.30797600  0.31608167  1.0
  H  H72  1  0.38339987  0.40183097  0.30137446  1.0
  H  H73  1  0.35904499  0.39106053  0.38970592  1.0
  H  H74  1  0.36147333  0.30689938  0.27442159  1.0
  H  H75  1  0.35742780  0.26508240  0.41031039  1.0
  H  H76  1  0.37983815  0.20897008  0.33303626  1.0
  H  H77  1  0.51409640  0.19147137  0.33410720  1.0
  H  H78  1  0.93970527  0.17639471  0.84049126  1.0
  H  H79  1  0.13768948  0.08880073  0.75132458  1.0
  H  H80  1  0.07827664  0.08126218  0.72149869  1.0
  H  H81  1  0.13259051  0.17396341  0.67903247  1.0
  H  H82  1  0.04274369  0.28730398  0.79557003  1.0
  H  H83  1  0.92881979  0.26957764  0.91559048  1.0
  H  H84  1  0.04149740  0.21084685  0.87642732  1.0
  H  H85  1  0.87882188  0.30987238  0.82970611  1.0
  H  H86  1  0.93314575  0.40250756  0.78762195  1.0
  H  H87  1  0.87498320  0.39461499  0.75636234  1.0
  H  H88  1  0.07292754  0.30576137  0.66972581  1.0
  H  H89  1  0.97060387  0.27370910  0.63225647  1.0
  H  H90  1  0.08326198  0.21399032  0.59317714  1.0
  H  H91  1  0.96881762  0.19650329  0.71287022  1.0
  C  C92  1  0.00823079  0.87570254  0.12478287  1.0
  C  C93  1  0.00496629  0.82930356  0.17695307  1.0
  C  C94  1  0.08182536  0.79117816  0.18409532  1.0
  C  C95  1  0.07530979  0.73193006  0.21980524  1.0
  C  C96  1  0.02273017  0.71468987  0.20116861  1.0
  C  C97  1  0.00111292  0.76418095  0.15512035  1.0
  C  C98  1  0.94905714  0.74590179  0.28628088  1.0
  C  C99  1  0.94191918  0.68691960  0.32204875  1.0
  C  C100  1  0.01911059  0.64797714  0.32867474  1.0
  C  C101  1  0.02375048  0.71257837  0.35050908  1.0
  C  C102  1  0.00188293  0.76271230  0.30495296  1.0
  C  C103  1  0.01533005  0.60177782  0.38099589  1.0
  C  C104  1  0.24367827  0.86470321  0.88445839  1.0
  C  C105  1  0.34170503  0.81139112  0.83456915  1.0
  C  C106  1  0.38790131  0.81298652  0.86964469  1.0
  C  C107  1  0.48196061  0.77599433  0.80280906  1.0
  C  C108  1  0.47993708  0.78472458  0.73178829  1.0
  C  C109  1  0.38479064  0.82555269  0.75969851  1.0
  C  C110  1  0.53591762  0.69793722  0.69696992  1.0
  C  C111  1  0.63038400  0.66191120  0.63113375  1.0
  C  C112  1  0.67507123  0.66326536  0.66795889  1.0
  C  C113  1  0.63160061  0.64747346  0.74158728  1.0
  C  C114  1  0.53676834  0.68921185  0.76852215  1.0
  C  C115  1  0.77328727  0.61162113  0.61929175  1.0
  C  C116  1  0.02302767  0.10692865  0.10882230  1.0
  C  C117  1  0.02618465  0.15603392  0.15521184  1.0
  C  C118  1  0.06311428  0.11852321  0.19992936  1.0
  C  C119  1  0.03222845  0.18392370  0.25960531  1.0
  C  C120  1  0.95040384  0.25471946  0.26923442  1.0
  C  C121  1  0.93633326  0.22795763  0.21516286  1.0
  C  C122  1  0.99967241  0.29274216  0.24042356  1.0
  C  C123  1  0.96844441  0.35826935  0.30014031  1.0
  C  C124  1  0.00420707  0.32070806  0.34557565  1.0
  C  C125  1  0.09445166  0.24911300  0.28597037  1.0
  C  C126  1  0.08137419  0.22206993  0.23113558  1.0
  C  C127  1  0.00517757  0.37032834  0.39359994  1.0
  C  C128  1  0.99835697  0.88029038  0.88941942  1.0
  C  C129  1  0.99408630  0.83526909  0.84019439  1.0
  C  C130  1  0.95991794  0.78802333  0.87518677  1.0
  C  C131  1  0.98871886  0.73188482  0.80803686  1.0
  C  C132  1  0.06796350  0.72584701  0.73731381  1.0
  C  C133  1  0.08270228  0.77823733  0.76589679  1.0
  C  C134  1  0.01482457  0.75876229  0.70309185  1.0
  C  C135  1  0.04413924  0.70269874  0.63563910  1.0
  C  C136  1  0.01196005  0.65419012  0.67047298  1.0
  C  C137  1  0.92275557  0.71056878  0.74437390  1.0
  C  C138  1  0.93580784  0.76420576  0.77355930  1.0
  C  C139  1  0.01103044  0.60667824  0.62040006  1.0
  C  C140  1  0.77610910  0.10842942  0.13082634  1.0
  C  C141  1  0.67808983  0.15783849  0.18432107  1.0
  C  C142  1  0.63226523  0.12149102  0.18496068  1.0
  C  C143  1  0.53814978  0.18753655  0.22088648  1.0
  C  C144  1  0.53991519  0.25836768  0.20954154  1.0
  C  C145  1  0.63495194  0.23107176  0.16776907  1.0
  C  C146  1  0.48403553  0.29519486  0.29607312  1.0
  C  C147  1  0.38973023  0.36066386  0.33136168  1.0
  C  C148  1  0.34512618  0.32322615  0.33142115  1.0
  C  C149  1  0.38795132  0.25094552  0.34933273  1.0
  C  C150  1  0.48281806  0.22411068  0.30740571  1.0
  C  C151  1  0.24689273  0.37202038  0.38278592  1.0
  C  C152  1  0.00401788  0.10775962  0.88561467  1.0
  C  C153  1  0.99954700  0.15746529  0.83684313  1.0
  C  C154  1  0.07735996  0.12081861  0.75412956  1.0
  C  C155  1  0.06945950  0.18709117  0.72560739  1.0
  C  C156  1  0.01450419  0.25642994  0.79695836  1.0
  C  C157  1  0.99277140  0.22778593  0.86406881  1.0
  C  C158  1  0.94203353  0.29662320  0.78319101  1.0
  C  C159  1  0.93468850  0.36275236  0.75455697  1.0
  C  C160  1  0.01349442  0.32555513  0.67230088  1.0
  C  C161  1  0.01939991  0.25594185  0.64469600  1.0
  C  C162  1  0.99705806  0.22728899  0.71177182  1.0
  C  C163  1  0.01145702  0.37477169  0.62302483  1.0
  O  O164  1  0.00949702  0.99066923  0.00370652  1.0
  O  O165  1  0.95808097  0.89156864  0.10363106  1.0
  O  O166  1  0.05964272  0.89578407  0.10678963  1.0
  O  O167  1  0.06787786  0.58321949  0.39986009  1.0
  O  O168  1  0.96099428  0.58473872  0.40144766  1.0
  O  O169  1  0.20498841  0.88401383  0.85158055  1.0
  O  O170  1  0.20773908  0.88561121  0.95508652  1.0
  O  O171  1  0.81035884  0.59305480  0.65354639  1.0
  O  O172  1  0.81124056  0.59138689  0.54828749  1.0
  O  O173  1  0.97390042  0.14048772  0.08667039  1.0
  O  O174  1  0.06957940  0.03629307  0.09547627  1.0
  O  O175  1  0.05582168  0.33722222  0.41438327  1.0
  O  O176  1  0.95500572  0.44104852  0.40970350  1.0
  O  O177  1  0.04791546  0.90203243  0.85553952  1.0
  O  O178  1  0.95218044  0.89343472  0.96010806  1.0
  O  O179  1  0.95941272  0.58680740  0.65357967  1.0
  O  O180  1  0.06237559  0.58952666  0.54960457  1.0
  O  O181  1  0.81467517  0.14136279  0.11530234  1.0
  O  O182  1  0.81214692  0.03821128  0.10578353  1.0
  O  O183  1  0.20923274  0.33834128  0.39726765  1.0
  O  O184  1  0.20952977  0.44261139  0.40703845  1.0
  O  O185  1  0.94519581  0.14027405  0.95607732  1.0
  O  O186  1  0.06524120  0.03802120  0.85313994  1.0
  O  O187  1  0.07175299  0.34164991  0.55293193  1.0
  O  O188  1  0.95071084  0.44464832  0.65483654  1.0
  O  O189  1  0.01059564  0.48935345  0.50333651  1.0
