# generated using pymatgen
data_ZnH12C20NO5
_symmetry_space_group_name_H-M   'P 1'
_cell_length_a   14.16554650
_cell_length_b   14.16554278
_cell_length_c   26.29164758
_cell_angle_alpha   79.85336105
_cell_angle_beta   79.85344811
_cell_angle_gamma   83.83136233
_symmetry_Int_Tables_number   1
_chemical_formula_structural   ZnH12C20NO5
_chemical_formula_sum   'Zn8 H96 C160 N8 O40'
_cell_volume   5096.09571340
_cell_formula_units_Z   8
loop_
 _symmetry_equiv_pos_site_id
 _symmetry_equiv_pos_as_xyz
  1  'x, y, z'
loop_
 _atom_site_type_symbol
 _atom_site_label
 _atom_site_symmetry_multiplicity
 _atom_site_fract_x
 _atom_site_fract_y
 _atom_site_fract_z
 _atom_site_occupancy
  Zn  Zn0  1  0.18538102  0.88748138  0.58920772  1.0
  Zn  Zn1  1  0.11252148  0.81462202  0.91079143  1.0
  Zn  Zn2  1  0.81462038  0.11252219  0.41079276  1.0
  Zn  Zn3  1  0.88747611  0.18537579  0.08920842  1.0
  Zn  Zn4  1  0.41359584  0.84482026  0.56932674  1.0
  Zn  Zn5  1  0.15518015  0.58640525  0.93067482  1.0
  Zn  Zn6  1  0.58640600  0.15517829  0.43067227  1.0
  Zn  Zn7  1  0.84482089  0.41359400  0.06932648  1.0
  H  H8  1  0.45823383  0.95045078  0.40657946  1.0
  H  H9  1  0.04955787  0.54177020  0.09342147  1.0
  H  H10  1  0.54176692  0.04955207  0.59342039  1.0
  H  H11  1  0.95044859  0.45823266  0.90658051  1.0
  H  H12  1  0.46258392  0.98266241  0.30987363  1.0
  H  H13  1  0.01734499  0.53742129  0.19012692  1.0
  H  H14  1  0.53741409  0.01733899  0.69012623  1.0
  H  H15  1  0.98266266  0.46258446  0.80987507  1.0
  H  H16  1  0.15338752  0.05100739  0.29047866  1.0
  H  H17  1  0.94898727  0.84661547  0.20952200  1.0
  H  H18  1  0.84661049  0.94898538  0.70952238  1.0
  H  H19  1  0.05100553  0.15338806  0.79047890  1.0
  H  H20  1  0.02409438  0.11257049  0.23715404  1.0
  H  H21  1  0.88742783  0.97591033  0.26284566  1.0
  H  H22  1  0.97590404  0.88742587  0.76284701  1.0
  H  H23  1  0.11256711  0.02409321  0.73715580  1.0
  H  H24  1  0.19379393  0.00400711  0.10467775  1.0
  H  H25  1  0.99599802  0.80620960  0.39532040  1.0
  H  H26  1  0.80620479  0.99599429  0.89532242  1.0
  H  H27  1  0.00399706  0.19379250  0.60467966  1.0
  H  H28  1  0.32242377  0.93694474  0.15909222  1.0
  H  H29  1  0.06305849  0.67757921  0.34090508  1.0
  H  H30  1  0.67757414  0.06304947  0.84090717  1.0
  H  H31  1  0.93694341  0.32242726  0.65909281  1.0
  H  H32  1  0.17434336  0.89443507  0.33150673  1.0
  H  H33  1  0.10556412  0.82566404  0.16849468  1.0
  H  H34  1  0.82565656  0.10556058  0.66849462  1.0
  H  H35  1  0.89443996  0.17434170  0.83150612  1.0
  H  H36  1  0.16917731  0.86697122  0.42767686  1.0
  H  H37  1  0.13303298  0.83083160  0.07232358  1.0
  H  H38  1  0.83082523  0.13302731  0.57232437  1.0
  H  H39  1  0.86697475  0.16917345  0.92767619  1.0
  H  H40  1  0.58467053  0.90959292  0.48859176  1.0
  H  H41  1  0.09040682  0.41533434  0.01140923  1.0
  H  H42  1  0.41533584  0.09041140  0.51140706  1.0
  H  H43  1  0.90959149  0.58466346  0.98859094  1.0
  H  H44  1  0.75920997  0.91331406  0.48791877  1.0
  H  H45  1  0.08668312  0.24079497  0.01208251  1.0
  H  H46  1  0.24079500  0.08668952  0.51208291  1.0
  H  H47  1  0.91331729  0.75920358  0.98791625  1.0
  H  H48  1  0.71586574  0.75550453  0.64636309  1.0
  H  H49  1  0.24448807  0.28413667  0.85363771  1.0
  H  H50  1  0.28413160  0.24449614  0.35363880  1.0
  H  H51  1  0.75550697  0.71586618  0.14636001  1.0
  H  H52  1  0.54274566  0.76265242  0.64096019  1.0
  H  H53  1  0.23734291  0.45725735  0.85904023  1.0
  H  H54  1  0.45725164  0.23734899  0.35903859  1.0
  H  H55  1  0.76265284  0.54274549  0.14095895  1.0
  H  H56  1  0.90707628  0.87616835  0.48785714  1.0
  H  H57  1  0.12382268  0.09292904  0.01214285  1.0
  H  H58  1  0.09292537  0.12382370  0.51214515  1.0
  H  H59  1  0.87617612  0.90707166  0.98785472  1.0
  H  H60  1  0.07448699  0.89068517  0.50005413  1.0
  H  H61  1  0.10930207  0.92551437  0.99994544  1.0
  H  H62  1  0.92551582  0.10930187  0.49994548  1.0
  H  H63  1  0.89069034  0.07448558  0.00005317  1.0
  H  H64  1  0.00761204  0.82676487  0.66094071  1.0
  H  H65  1  0.17323438  0.99239516  0.83905682  1.0
  H  H66  1  0.99239397  0.17323514  0.33905891  1.0
  H  H67  1  0.82676247  0.00760338  0.16093999  1.0
  H  H68  1  0.83470635  0.81519983  0.65736626  1.0
  H  H69  1  0.18479284  0.16530097  0.84263258  1.0
  H  H70  1  0.16529749  0.18480014  0.34263624  1.0
  H  H71  1  0.81520179  0.83469828  0.15736475  1.0
  H  H72  1  0.40578964  0.53551473  0.60441139  1.0
  H  H73  1  0.46448493  0.59421031  0.89558704  1.0
  H  H74  1  0.59421279  0.46448526  0.39558857  1.0
  H  H75  1  0.53551607  0.40578968  0.10441191  1.0
  H  H76  1  0.38063143  0.36656664  0.64768909  1.0
  H  H77  1  0.63343352  0.61936953  0.85231078  1.0
  H  H78  1  0.61936891  0.63343261  0.35231113  1.0
  H  H79  1  0.36656801  0.38063261  0.14768830  1.0
  H  H80  1  0.24173856  0.28625816  0.62898181  1.0
  H  H81  1  0.71374104  0.75826502  0.87101941  1.0
  H  H82  1  0.75826192  0.71373968  0.37101587  1.0
  H  H83  1  0.28626227  0.24174144  0.12898025  1.0
  H  H84  1  0.28836433  0.13569433  0.59107680  1.0
  H  H85  1  0.86430446  0.71163774  0.90892658  1.0
  H  H86  1  0.71163483  0.86430204  0.40892304  1.0
  H  H87  1  0.13569706  0.28836439  0.09107441  1.0
  H  H88  1  0.36998652  0.99168566  0.73652769  1.0
  H  H89  1  0.00831435  0.63001115  0.76347568  1.0
  H  H90  1  0.63001180  0.00831216  0.26347172  1.0
  H  H91  1  0.99168377  0.36998016  0.23652777  1.0
  H  H92  1  0.31927677  0.14107071  0.77589246  1.0
  H  H93  1  0.85892953  0.68072114  0.72410966  1.0
  H  H94  1  0.68072090  0.85892640  0.22410517  1.0
  H  H95  1  0.14107127  0.31927234  0.27589372  1.0
  H  H96  1  0.13773205  0.46953377  0.75279928  1.0
  H  H97  1  0.53046851  0.86227075  0.74720237  1.0
  H  H98  1  0.86226674  0.53046692  0.24720019  1.0
  H  H99  1  0.46953151  0.13773209  0.25279945  1.0
  H  H100  1  0.15952195  0.63806612  0.70639067  1.0
  H  H101  1  0.36193615  0.84048050  0.79360943  1.0
  H  H102  1  0.84047827  0.36193458  0.29360867  1.0
  H  H103  1  0.63806335  0.15952020  0.20638997  1.0
  C  C104  1  0.29565463  0.69646295  0.62450842  1.0
  C  C105  1  0.30353782  0.70434399  0.87548879  1.0
  C  C106  1  0.70434709  0.30353704  0.37549047  1.0
  C  C107  1  0.69646409  0.29565385  0.12450952  1.0
  C  C108  1  0.31402495  0.88912334  0.48076690  1.0
  C  C109  1  0.11088210  0.68598418  0.01923268  1.0
  C  C110  1  0.68597795  0.11087952  0.51923275  1.0
  C  C111  1  0.88911769  0.31402154  0.98076737  1.0
  C  C112  1  0.31326757  0.90783141  0.42307161  1.0
  C  C113  1  0.09217225  0.68674235  0.07692844  1.0
  C  C114  1  0.68673330  0.09217000  0.57692874  1.0
  C  C115  1  0.90782885  0.31326482  0.92307174  1.0
  C  C116  1  0.39618443  0.93982287  0.38963573  1.0
  C  C117  1  0.06018066  0.60382221  0.11036352  1.0
  C  C118  1  0.60381495  0.06017926  0.61036432  1.0
  C  C119  1  0.93982187  0.39618496  0.88963653  1.0
  C  C120  1  0.39852858  0.95756072  0.33593971  1.0
  C  C121  1  0.04244691  0.60147623  0.16406046  1.0
  C  C122  1  0.60146943  0.04244068  0.66406015  1.0
  C  C123  1  0.95755938  0.39852880  0.83594058  1.0
  C  C124  1  0.31865147  0.94255689  0.31426247  1.0
  C  C125  1  0.05744673  0.68135510  0.18573788  1.0
  C  C126  1  0.68134767  0.05743948  0.68573813  1.0
  C  C127  1  0.94256099  0.31864993  0.81426303  1.0
  C  C128  1  0.33005441  0.95756284  0.25585992  1.0
  C  C129  1  0.04243757  0.66995173  0.24413925  1.0
  C  C130  1  0.66994576  0.04242994  0.74414054  1.0
  C  C131  1  0.95756837  0.33004899  0.75586070  1.0
  C  C132  1  0.24574498  0.98860316  0.22817905  1.0
  C  C133  1  0.01139566  0.75426194  0.27181977  1.0
  C  C134  1  0.75425418  0.01139322  0.77182041  1.0
  C  C135  1  0.98860414  0.24574379  0.72817915  1.0
  C  C136  1  0.16126389  0.03759739  0.25038801  1.0
  C  C137  1  0.96240134  0.83874079  0.24961098  1.0
  C  C138  1  0.83873603  0.96239826  0.74961296  1.0
  C  C139  1  0.03759480  0.16126563  0.75038935  1.0
  C  C140  1  0.08939368  0.07339917  0.22056114  1.0
  C  C141  1  0.92659943  0.91060829  0.27943770  1.0
  C  C142  1  0.91060475  0.92659719  0.77943991  1.0
  C  C143  1  0.07339858  0.08939311  0.72056254  1.0
  C  C144  1  0.10182322  0.06230565  0.16787269  1.0
  C  C145  1  0.93769524  0.89817981  0.33212736  1.0
  C  C146  1  0.89817627  0.93769503  0.83212862  1.0
  C  C147  1  0.06229965  0.10182445  0.66787329  1.0
  C  C148  1  0.02926055  0.10836733  0.13441558  1.0
  C  C149  1  0.89163432  0.97074120  0.36558448  1.0
  C  C150  1  0.97073489  0.89163046  0.86558523  1.0
  C  C151  1  0.10836415  0.02926308  0.63441583  1.0
  C  C152  1  0.18532197  0.01185238  0.14576817  1.0
  C  C153  1  0.98815192  0.81468262  0.35423034  1.0
  C  C154  1  0.81467741  0.98814975  0.85423150  1.0
  C  C155  1  0.01184010  0.18532162  0.64577095  1.0
  C  C156  1  0.25631231  0.97497976  0.17567599  1.0
  C  C157  1  0.02502126  0.74369107  0.32432296  1.0
  C  C158  1  0.74368594  0.02501877  0.82432373  1.0
  C  C159  1  0.97497721  0.25631321  0.67567735  1.0
  C  C160  1  0.23587144  0.90957240  0.34766689  1.0
  C  C161  1  0.09042870  0.76413637  0.15233280  1.0
  C  C162  1  0.76412783  0.09042253  0.65233383  1.0
  C  C163  1  0.90957545  0.23586866  0.84766654  1.0
  C  C164  1  0.23307704  0.89318135  0.40177214  1.0
  C  C165  1  0.10682301  0.76693041  0.09822881  1.0
  C  C166  1  0.76692478  0.10681718  0.59822915  1.0
  C  C167  1  0.89318042  0.23307461  0.90177212  1.0
  C  C168  1  0.61715320  0.87613384  0.52268975  1.0
  C  C169  1  0.12386777  0.38285019  0.97731118  1.0
  C  C170  1  0.38285018  0.12387191  0.47730959  1.0
  C  C171  1  0.87613126  0.61714762  0.02268892  1.0
  C  C172  1  0.71508307  0.87724808  0.52261644  1.0
  C  C173  1  0.12274865  0.28492164  0.97738409  1.0
  C  C174  1  0.28492053  0.12275478  0.47738505  1.0
  C  C175  1  0.87725158  0.71507907  0.02261410  1.0
  C  C176  1  0.75371837  0.83554520  0.56786598  1.0
  C  C177  1  0.16444781  0.24628743  0.93213331  1.0
  C  C178  1  0.24628249  0.16445620  0.43213514  1.0
  C  C179  1  0.83554806  0.75371397  0.06786484  1.0
  C  C180  1  0.69107754  0.79014439  0.61030134  1.0
  C  C181  1  0.20984989  0.30892577  0.88969843  1.0
  C  C182  1  0.30892105  0.20985844  0.38969985  1.0
  C  C183  1  0.79014723  0.69107780  0.11029903  1.0
  C  C184  1  0.59402687  0.79302654  0.60777187  1.0
  C  C185  1  0.20697119  0.40597510  0.89222881  1.0
  C  C186  1  0.40597401  0.20697488  0.39222696  1.0
  C  C187  1  0.79302908  0.59402488  0.10777136  1.0
  C  C188  1  0.85544470  0.84181791  0.57193386  1.0
  C  C189  1  0.15817309  0.14455782  0.92806443  1.0
  C  C190  1  0.14455503  0.15817989  0.42806769  1.0
  C  C191  1  0.84182155  0.85544143  0.07193213  1.0
  C  C192  1  0.92478989  0.86361670  0.52733177  1.0
  C  C193  1  0.13637650  0.07521028  0.97266694  1.0
  C  C194  1  0.07521146  0.13637895  0.47266984  1.0
  C  C195  1  0.86362178  0.92478827  0.02732936  1.0
  C  C196  1  0.01882259  0.87153576  0.53348540  1.0
  C  C197  1  0.12845770  0.98118003  0.96651383  1.0
  C  C198  1  0.98118050  0.12845632  0.46651485  1.0
  C  C199  1  0.87153985  0.01881851  0.03348443  1.0
  C  C200  1  0.98151206  0.83617850  0.62359025  1.0
  C  C201  1  0.16381727  0.01849624  0.87640788  1.0
  C  C202  1  0.01849395  0.16382150  0.37640938  1.0
  C  C203  1  0.83618010  0.98150446  0.12358982  1.0
  C  C204  1  0.88557829  0.82867361  0.62106382  1.0
  C  C205  1  0.17132076  0.11442826  0.87893380  1.0
  C  C206  1  0.11442568  0.17132493  0.37893765  1.0
  C  C207  1  0.82867597  0.88557173  0.12106212  1.0
  C  C208  1  0.28275428  0.59589723  0.65216944  1.0
  C  C209  1  0.40410151  0.71724503  0.84782944  1.0
  C  C210  1  0.71724809  0.40410347  0.34783008  1.0
  C  C211  1  0.59589752  0.28275279  0.15217065  1.0
  C  C212  1  0.34608390  0.51982268  0.63611435  1.0
  C  C213  1  0.48017713  0.65391869  0.86388533  1.0
  C  C214  1  0.65391716  0.48017659  0.36388504  1.0
  C  C215  1  0.51982362  0.34608416  0.13611452  1.0
  C  C216  1  0.33161717  0.42581363  0.66030885  1.0
  C  C217  1  0.57418642  0.66838534  0.83969123  1.0
  C  C218  1  0.66838377  0.57418707  0.33969042  1.0
  C  C219  1  0.42581230  0.33161607  0.16030857  1.0
  C  C220  1  0.25555779  0.40731192  0.70208536  1.0
  C  C221  1  0.59268905  0.74444024  0.79791426  1.0
  C  C222  1  0.74444178  0.59268806  0.29791372  1.0
  C  C223  1  0.40731279  0.25555830  0.20208589  1.0
  C  C224  1  0.24140492  0.30851289  0.73089922  1.0
  C  C225  1  0.69148741  0.75859370  0.76910120  1.0
  C  C226  1  0.75859335  0.69148565  0.26909898  1.0
  C  C227  1  0.30851429  0.24140628  0.23089959  1.0
  C  C228  1  0.27771584  0.22334255  0.70497539  1.0
  C  C229  1  0.77665593  0.72228292  0.79502752  1.0
  C  C230  1  0.72228248  0.77665526  0.29502401  1.0
  C  C231  1  0.22334577  0.27771704  0.20497442  1.0
  C  C232  1  0.27083854  0.22217516  0.65250294  1.0
  C  C233  1  0.77782403  0.72916205  0.84750011  1.0
  C  C234  1  0.72915912  0.77782193  0.34749659  1.0
  C  C235  1  0.22217750  0.27084008  0.15250050  1.0
  C  C236  1  0.29673098  0.13796869  0.63118099  1.0
  C  C237  1  0.86202920  0.70326863  0.86882117  1.0
  C  C238  1  0.70326740  0.86202841  0.36881733  1.0
  C  C239  1  0.13797184  0.29673061  0.13118051  1.0
  C  C240  1  0.33193634  0.05459034  0.66151488  1.0
  C  C241  1  0.94540779  0.66806040  0.83848909  1.0
  C  C242  1  0.66805995  0.94540603  0.33848446  1.0
  C  C243  1  0.05459290  0.33193453  0.16151226  1.0
  C  C244  1  0.36267540  0.96392136  0.63918057  1.0
  C  C245  1  0.03607463  0.63731831  0.86082392  1.0
  C  C246  1  0.63732293  0.03607647  0.36081693  1.0
  C  C247  1  0.96392330  0.36267514  0.13918048  1.0
  C  C248  1  0.34090191  0.05645892  0.71363568  1.0
  C  C249  1  0.94354250  0.65909263  0.78636820  1.0
  C  C250  1  0.65909486  0.94354033  0.28636298  1.0
  C  C251  1  0.05645603  0.34090228  0.21363563  1.0
  C  C252  1  0.31290940  0.13950788  0.73534917  1.0
  C  C253  1  0.86049302  0.68708859  0.76465439  1.0
  C  C254  1  0.68708742  0.86049065  0.26465030  1.0
  C  C255  1  0.13950683  0.31290777  0.23534767  1.0
  C  C256  1  0.19455080  0.48434090  0.71937997  1.0
  C  C257  1  0.51566014  0.80545262  0.78062061  1.0
  C  C258  1  0.80545084  0.51565980  0.28061999  1.0
  C  C259  1  0.48433942  0.19454735  0.21937886  1.0
  C  C260  1  0.20694494  0.57775202  0.69393396  1.0
  C  C261  1  0.42224780  0.79305584  0.80606657  1.0
  C  C262  1  0.79305677  0.42224796  0.30606569  1.0
  C  C263  1  0.57774903  0.20694268  0.19393290  1.0
  N  N264  1  0.55719931  0.83630435  0.56485855  1.0
  N  N265  1  0.16369382  0.44280386  0.93514119  1.0
  N  N266  1  0.44280367  0.16369781  0.43513888  1.0
  N  N267  1  0.83630448  0.55719394  0.06486011  1.0
  N  N268  1  0.04745008  0.85762474  0.58056330  1.0
  N  N269  1  0.14237085  0.95255674  0.91943538  1.0
  N  N270  1  0.95255487  0.14237095  0.41943607  1.0
  N  N271  1  0.85762514  0.04744323  0.08056328  1.0
  O  O272  1  0.22276966  0.75671757  0.62792147  1.0
  O  O273  1  0.24328233  0.77722654  0.87207751  1.0
  O  O274  1  0.77722995  0.24328167  0.37207958  1.0
  O  O275  1  0.75671678  0.22277057  0.12792036  1.0
  O  O276  1  0.37946238  0.71359949  0.59915350  1.0
  O  O277  1  0.28640286  0.62053611  0.90084550  1.0
  O  O278  1  0.62053784  0.28640121  0.40084545  1.0
  O  O279  1  0.71359885  0.37946387  0.09915491  1.0
  O  O280  1  0.39683351  0.87229503  0.49469066  1.0
  O  O281  1  0.12770998  0.60317455  0.00530987  1.0
  O  O282  1  0.60317017  0.12770713  0.50530861  1.0
  O  O283  1  0.87229124  0.39683118  0.99469043  1.0
  O  O284  1  0.23369230  0.89188134  0.51143245  1.0
  O  O285  1  0.10812791  0.76631316  0.98856819  1.0
  O  O286  1  0.76631047  0.10812295  0.48856861  1.0
  O  O287  1  0.89187356  0.23368970  0.01143160  1.0
  O  O288  1  0.41131000  0.94601291  0.23013146  1.0
  O  O289  1  0.05398648  0.58869730  0.26986773  1.0
  O  O290  1  0.58868988  0.05397484  0.76986797  1.0
  O  O291  1  0.94602178  0.41130990  0.73013254  1.0
  O  O292  1  0.94588086  0.13755197  0.15688717  1.0
  O  O293  1  0.86244615  0.05411936  0.34311256  1.0
  O  O294  1  0.05411464  0.86244510  0.84311371  1.0
  O  O295  1  0.13755240  0.94588421  0.65688705  1.0
  O  O296  1  0.05108941  0.11910004  0.08486404  1.0
  O  O297  1  0.88090320  0.94891008  0.41513532  1.0
  O  O298  1  0.94890556  0.88089487  0.91513632  1.0
  O  O299  1  0.11909677  0.05109348  0.58486492  1.0
  O  O300  1  0.19931739  0.29614500  0.77688596  1.0
  O  O301  1  0.70385496  0.80067998  0.72311460  1.0
  O  O302  1  0.80067860  0.70385497  0.22311155  1.0
  O  O303  1  0.29614477  0.19931782  0.27688658  1.0
  O  O304  1  0.34042585  0.96162867  0.59284672  1.0
  O  O305  1  0.03836778  0.65957270  0.90715690  1.0
  O  O306  1  0.65957386  0.03836989  0.40715021  1.0
  O  O307  1  0.96163068  0.34042292  0.09284688  1.0
  O  O308  1  0.40979015  0.89621932  0.66294217  1.0
  O  O309  1  0.10377600  0.59020099  0.83706571  1.0
  O  O310  1  0.59020884  0.10377923  0.33705558  1.0
  O  O311  1  0.89622210  0.40979030  0.16293926  1.0
