# generated using pymatgen
data_MgHC6O7
_symmetry_space_group_name_H-M   'P 1'
_cell_length_a   7.04137574
_cell_length_b   15.11011537
_cell_length_c   15.11275906
_cell_angle_alpha   117.60181249
_cell_angle_beta   98.92785764
_cell_angle_gamma   98.94033842
_symmetry_Int_Tables_number   1
_chemical_formula_structural   MgHC6O7
_chemical_formula_sum   'Mg6 H6 C36 O42'
_cell_volume   1359.39378019
_cell_formula_units_Z   6
loop_
 _symmetry_equiv_pos_site_id
 _symmetry_equiv_pos_as_xyz
  1  'x, y, z'
loop_
 _atom_site_type_symbol
 _atom_site_label
 _atom_site_symmetry_multiplicity
 _atom_site_fract_x
 _atom_site_fract_y
 _atom_site_fract_z
 _atom_site_occupancy
  Mg  Mg0  1  0.52163539  0.73544911  0.41065765  1.0
  Mg  Mg1  1  0.78621657  0.67539055  0.26448199  1.0
  Mg  Mg2  1  0.11085901  0.58923962  0.32460192  1.0
  Mg  Mg3  1  0.47836536  0.26455106  0.58934086  1.0
  Mg  Mg4  1  0.21378455  0.32460868  0.73551730  1.0
  Mg  Mg5  1  0.88914106  0.41075923  0.67539814  1.0
  H  H6  1  0.18558629  0.54763967  0.52674903  1.0
  H  H7  1  0.63799355  0.97919763  0.45226367  1.0
  H  H8  1  0.65889626  0.47321684  0.02096925  1.0
  H  H9  1  0.81441754  0.45236293  0.47325567  1.0
  H  H10  1  0.36200624  0.02080096  0.54773872  1.0
  H  H11  1  0.34110735  0.52678089  0.97902927  1.0
  C  C12  1  0.74080949  0.56765605  0.39248096  1.0
  C  C13  1  0.17309487  0.82485730  0.43225462  1.0
  C  C14  1  0.34828460  0.60754008  0.17506418  1.0
  C  C15  1  0.25919280  0.43234501  0.60752065  1.0
  C  C16  1  0.82690664  0.17514166  0.56774544  1.0
  C  C17  1  0.65171756  0.39245688  0.82493433  1.0
  C  C18  1  0.43356747  0.56699466  0.46559381  1.0
  C  C19  1  0.86656719  0.89866641  0.43290147  1.0
  C  C20  1  0.96798033  0.53439225  0.10135335  1.0
  C  C21  1  0.56643376  0.43300667  0.53440857  1.0
  C  C22  1  0.13342884  0.10133175  0.56709628  1.0
  C  C23  1  0.03202586  0.46560542  0.89864749  1.0
  C  C24  1  0.77068675  0.79717262  0.65065883  1.0
  C  C25  1  0.97442223  0.85409703  0.20285401  1.0
  C  C26  1  0.12073491  0.34926899  0.14654717  1.0
  C  C27  1  0.22930285  0.20282495  0.34931727  1.0
  C  C28  1  0.02559615  0.14590409  0.79714528  1.0
  C  C29  1  0.87924064  0.65073189  0.85343820  1.0
  C  C30  1  0.61482803  0.53742660  0.44945710  1.0
  C  C31  1  0.07735818  0.91205175  0.46253258  1.0
  C  C32  1  0.16535940  0.55056576  0.08792732  1.0
  C  C33  1  0.38517427  0.46257578  0.55054451  1.0
  C  C34  1  0.92263680  0.08794602  0.53746594  1.0
  C  C35  1  0.83464276  0.44943054  0.91207120  1.0
  C  C36  1  0.32508272  0.52725251  0.51528156  1.0
  C  C37  1  0.79786219  0.98807578  0.47268711  1.0
  C  C38  1  0.80981777  0.48466881  0.01197916  1.0
  C  C39  1  0.67491852  0.47274882  0.48472082  1.0
  C  C40  1  0.20213827  0.01192412  0.52731373  1.0
  C  C41  1  0.19018007  0.51532652  0.98801936  1.0
  C  C42  1  0.26040883  0.78143468  0.64768058  1.0
  C  C43  1  0.47958997  0.86628909  0.21838097  1.0
  C  C44  1  0.61379474  0.35200997  0.13369107  1.0
  C  C45  1  0.73961382  0.21858655  0.35233572  1.0
  C  C46  1  0.52042299  0.13370283  0.78163069  1.0
  C  C47  1  0.38617543  0.64798578  0.86631828  1.0
  O  O48  1  0.68878447  0.62801671  0.36063527  1.0
  O  O49  1  0.06071936  0.73271817  0.37190219  1.0
  O  O50  1  0.32807229  0.63939521  0.26722301  1.0
  O  O51  1  0.31121377  0.37198099  0.63936402  1.0
  O  O52  1  0.93927965  0.26727964  0.62809865  1.0
  O  O53  1  0.67192949  0.36060070  0.73277474  1.0
  O  O54  1  0.36166122  0.62980584  0.43688981  1.0
  O  O55  1  0.73187844  0.80722449  0.37004866  1.0
  O  O56  1  0.92470432  0.56308464  0.19282771  1.0
  O  O57  1  0.63833818  0.37019368  0.56311180  1.0
  O  O58  1  0.26812219  0.19277291  0.62994677  1.0
  O  O59  1  0.07529642  0.43691486  0.80717081  1.0
  O  O60  1  0.71529113  0.81118485  0.58163091  1.0
  O  O61  1  0.90466448  0.77111775  0.18891855  1.0
  O  O62  1  0.13406874  0.41835673  0.22946161  1.0
  O  O63  1  0.28471022  0.18882172  0.41835137  1.0
  O  O64  1  0.09535611  0.22888491  0.81108228  1.0
  O  O65  1  0.86590978  0.58164447  0.77052685  1.0
  O  O66  1  0.35961872  0.84173772  0.46664989  1.0
  O  O67  1  0.51795265  0.62502151  0.15815754  1.0
  O  O68  1  0.89295244  0.53324416  0.37499691  1.0
  O  O69  1  0.64038281  0.15826388  0.53335017  1.0
  O  O70  1  0.48204742  0.37497668  0.84184252  1.0
  O  O71  1  0.10704918  0.46675690  0.62500624  1.0
  O  O72  1  0.82778167  0.78522551  0.72033416  1.0
  O  O73  1  0.04381904  0.93565599  0.21473960  1.0
  O  O74  1  0.10844775  0.27955022  0.06507270  1.0
  O  O75  1  0.17219560  0.21476253  0.27964039  1.0
  O  O76  1  0.95620001  0.06434512  0.78525814  1.0
  O  O77  1  0.89152024  0.72045241  0.93491189  1.0
  O  O78  1  0.10673730  0.75623115  0.58813818  1.0
  O  O79  1  0.35109813  0.83203616  0.24368642  1.0
  O  O80  1  0.51973618  0.41161183  0.16801199  1.0
  O  O81  1  0.89329169  0.24379178  0.41188507  1.0
  O  O82  1  0.64890328  0.16794823  0.75631365  1.0
  O  O83  1  0.48022956  0.58838217  0.83199426  1.0
  O  O84  1  0.41275568  0.80738498  0.70875002  1.0
  O  O85  1  0.60595818  0.90133346  0.19232375  1.0
  O  O86  1  0.70499050  0.29088387  0.09859735  1.0
  O  O87  1  0.58728343  0.19263405  0.29126472  1.0
  O  O88  1  0.39406232  0.09866595  0.80769719  1.0
  O  O89  1  0.29498514  0.70911400  0.90141431  1.0
