# generated using pymatgen
data_Al2H13C24S2N2O10F
_symmetry_space_group_name_H-M   'P 1'
_cell_length_a   6.66475231
_cell_length_b   12.74722094
_cell_length_c   17.76683277
_cell_angle_alpha   82.73065848
_cell_angle_beta   79.99445790
_cell_angle_gamma   75.34074933
_symmetry_Int_Tables_number   1
_chemical_formula_structural   Al2H13C24S2N2O10F
_chemical_formula_sum   'Al2 H13 C24 S2 N2 O10 F1'
_cell_volume   1432.66373622
_cell_formula_units_Z   1
loop_
 _symmetry_equiv_pos_site_id
 _symmetry_equiv_pos_as_xyz
  1  'x, y, z'
loop_
 _atom_site_type_symbol
 _atom_site_label
 _atom_site_symmetry_multiplicity
 _atom_site_fract_x
 _atom_site_fract_y
 _atom_site_fract_z
 _atom_site_occupancy
  Al  Al0  1  0.49668983  0.50915657  0.50022990  1.0
  Al  Al1  1  0.99692785  0.50769095  0.49972957  1.0
  H  H2  1  0.29321147  0.37724447  0.54362712  1.0
  H  H3  1  0.70863185  0.63535894  0.44748246  1.0
  H  H4  1  0.63994276  0.55197482  0.26716772  1.0
  H  H5  1  0.72143205  0.55000128  0.12435818  1.0
  H  H6  1  0.15712145  0.44159277  0.12612670  1.0
  H  H7  1  0.89243762  0.44813526  0.88184712  1.0
  H  H8  1  0.31312225  0.56545157  0.72569933  1.0
  H  H9  1  0.23114680  0.56273171  0.86870604  1.0
  H  H10  1  0.60399308  0.14988970  0.53057936  1.0
  H  H11  1  0.98547843  0.45620365  0.32957648  1.0
  H  H12  1  0.93716256  0.42184704  0.24387383  1.0
  H  H13  1  0.05619787  0.45661001  0.67663743  1.0
  H  H14  1  0.13247296  0.43137801  0.76801778  1.0
  C  C15  1  0.84699422  0.31219768  0.49712804  1.0
  C  C16  1  0.67630967  0.50777623  0.63865345  1.0
  C  C17  1  0.14576770  0.70318863  0.50227328  1.0
  C  C18  1  0.31970168  0.50439278  0.36112226  1.0
  C  C19  1  0.35655128  0.49837584  0.27734874  1.0
  C  C20  1  0.53762149  0.52637197  0.23522010  1.0
  C  C21  1  0.58365979  0.52512500  0.15634408  1.0
  C  C22  1  0.44351582  0.49443199  0.11646061  1.0
  C  C23  1  0.26348346  0.46546049  0.15733754  1.0
  C  C24  1  0.21449697  0.46708858  0.23782652  1.0
  C  C25  1  0.48305636  0.49574469  0.03539677  1.0
  C  C26  1  0.51763508  0.49921778  0.96546446  1.0
  C  C27  1  0.55874265  0.50299074  0.88430851  1.0
  C  C28  1  0.76520652  0.47386728  0.84736855  1.0
  C  C29  1  0.81450560  0.47569901  0.76661404  1.0
  C  C30  1  0.64470810  0.50772402  0.72263988  1.0
  C  C31  1  0.43786507  0.53873442  0.76113290  1.0
  C  C32  1  0.39174611  0.53697480  0.84006792  1.0
  C  C33  1  0.21560816  0.89470846  0.48341925  1.0
  C  C34  1  0.77285684  0.12243443  0.51507308  1.0
  C  C35  1  0.08761668  0.82188503  0.50184833  1.0
  C  C36  1  0.90425929  0.19315331  0.49718389  1.0
  C  C37  1  0.88789011  0.01334902  0.51045301  1.0
  C  C38  1  0.10496997  0.00408886  0.48832047  1.0
  S  S39  1  0.82560897  0.88832870  0.52491245  1.0
  S  S40  1  0.16784002  0.12860063  0.47387732  1.0
  N  N41  1  0.03998854  0.43519996  0.27518046  1.0
  N  N42  1  0.01880729  0.44449588  0.73451348  1.0
  O  O43  1  0.65254387  0.35897911  0.50758446  1.0
  O  O44  1  0.86604227  0.49071213  0.60329998  1.0
  O  O45  1  0.99487109  0.65544788  0.51187312  1.0
  O  O46  1  0.47764522  0.49783256  0.39468940  1.0
  O  O47  1  0.34022037  0.65707573  0.49279654  1.0
  O  O48  1  0.12943407  0.51796852  0.39536527  1.0
  O  O49  1  0.99898921  0.35909803  0.48700570  1.0
  O  O50  1  0.51539159  0.52234928  0.60499577  1.0
  O  O51  1  0.25579301  0.45602626  0.53492789  1.0
  O  O52  1  0.73956773  0.55841942  0.46464926  1.0
  F  F53  1  0.42448341  0.86607289  0.46154494  1.0
