# generated using pymatgen
data_Zn3H18(C14O5)2
_symmetry_space_group_name_H-M   'P 1'
_cell_length_a   11.96840118
_cell_length_b   15.59530395
_cell_length_c   15.59531135
_cell_angle_alpha   84.36406494
_cell_angle_beta   74.90941704
_cell_angle_gamma   74.90945247
_symmetry_Int_Tables_number   1
_chemical_formula_structural   Zn3H18(C14O5)2
_chemical_formula_sum   'Zn6 H36 C56 O20'
_cell_volume   2712.13363780
_cell_formula_units_Z   2
loop_
 _symmetry_equiv_pos_site_id
 _symmetry_equiv_pos_as_xyz
  1  'x, y, z'
loop_
 _atom_site_type_symbol
 _atom_site_label
 _atom_site_symmetry_multiplicity
 _atom_site_fract_x
 _atom_site_fract_y
 _atom_site_fract_z
 _atom_site_occupancy
  Zn  Zn0  1  0.99999921  0.00000042  0.99999932  1.0
  Zn  Zn1  1  0.49999984  0.99999983  0.00000036  1.0
  Zn  Zn2  1  0.25000062  0.07454853  0.92545050  1.0
  Zn  Zn3  1  0.24999978  0.92936990  0.07063021  1.0
  Zn  Zn4  1  0.74999996  0.92545085  0.07454962  1.0
  Zn  Zn5  1  0.74999948  0.07063080  0.92936877  1.0
  H  H6  1  0.09224928  0.35436134  0.92298691  1.0
  H  H7  1  0.95816456  0.50618519  0.93444540  1.0
  H  H8  1  0.65265003  0.39255524  0.00299912  1.0
  H  H9  1  0.78705088  0.24225789  0.98721564  1.0
  H  H10  1  0.82896624  0.61274623  0.87610172  1.0
  H  H11  1  0.68898363  0.76206212  0.89077752  1.0
  H  H12  1  0.43964202  0.66077379  0.10017160  1.0
  H  H13  1  0.57872500  0.51089585  0.08660222  1.0
  H  H14  1  0.20582082  0.92151528  0.91434406  1.0
  H  H15  1  0.40775079  0.07701378  0.64564017  1.0
  H  H16  1  0.54183385  0.06555714  0.49381470  1.0
  H  H17  1  0.84735025  0.99700263  0.60744310  1.0
  H  H18  1  0.71295071  0.01278517  0.75774153  1.0
  H  H19  1  0.67103429  0.12389865  0.38725339  1.0
  H  H20  1  0.81101673  0.10922189  0.23793682  1.0
  H  H21  1  0.06035751  0.89982628  0.33922656  1.0
  H  H22  1  0.92127346  0.91339840  0.48910480  1.0
  H  H23  1  0.29418008  0.08565544  0.07848515  1.0
  H  H24  1  0.90775000  0.64563936  0.07701399  1.0
  H  H25  1  0.04183496  0.49381484  0.06555679  1.0
  H  H26  1  0.34734992  0.60744347  0.99700184  1.0
  H  H27  1  0.21294970  0.75774149  0.01278384  1.0
  H  H28  1  0.17103436  0.38725314  0.12389968  1.0
  H  H29  1  0.31101719  0.23793659  0.10922326  1.0
  H  H30  1  0.56035723  0.33922691  0.89982674  1.0
  H  H31  1  0.42127340  0.48910485  0.91339822  1.0
  H  H32  1  0.79417909  0.07848609  0.08565536  1.0
  H  H33  1  0.59225022  0.92298692  0.35436101  1.0
  H  H34  1  0.45816411  0.93444488  0.50618570  1.0
  H  H35  1  0.15265052  0.00299874  0.39255614  1.0
  H  H36  1  0.28705094  0.98721621  0.24225817  1.0
  H  H37  1  0.32896694  0.87610140  0.61274781  1.0
  H  H38  1  0.18898191  0.89077814  0.76206428  1.0
  H  H39  1  0.93964111  0.10017376  0.66077262  1.0
  H  H40  1  0.07872583  0.08659964  0.51089443  1.0
  H  H41  1  0.70582051  0.91434394  0.92151498  1.0
  C  C42  1  0.02757784  0.19690346  0.94847659  1.0
  C  C43  1  0.94828252  0.28856503  0.95554117  1.0
  C  C44  1  0.99570538  0.36360628  0.94003028  1.0
  C  C45  1  0.92003048  0.44850739  0.94646041  1.0
  C  C46  1  0.79522576  0.46079122  0.97082861  1.0
  C  C47  1  0.74887384  0.38495057  0.98632714  1.0
  C  C48  1  0.82417361  0.30020326  0.97775225  1.0
  C  C49  1  0.71394012  0.55047568  0.97990577  1.0
  C  C50  1  0.74425417  0.62289143  0.92602551  1.0
  C  C51  1  0.66597582  0.70665151  0.93385976  1.0
  C  C52  1  0.55509157  0.72073959  0.99590062  1.0
  C  C53  1  0.52486498  0.64928330  0.05088523  1.0
  C  C54  1  0.60299915  0.56552086  0.04276466  1.0
  C  C55  1  0.47074464  0.81044253  0.00325382  1.0
  C  C56  1  0.47242340  0.05152264  0.80309723  1.0
  C  C57  1  0.55171840  0.04445831  0.71143583  1.0
  C  C58  1  0.50429442  0.05997006  0.63639337  1.0
  C  C59  1  0.57996927  0.05354097  0.55149379  1.0
  C  C60  1  0.70477183  0.02917282  0.53920789  1.0
  C  C61  1  0.75112697  0.01367290  0.61504936  1.0
  C  C62  1  0.67582724  0.02224764  0.69979641  1.0
  C  C63  1  0.78606015  0.02009395  0.44952411  1.0
  C  C64  1  0.75574643  0.07397505  0.37710690  1.0
  C  C65  1  0.83402578  0.06613902  0.29334800  1.0
  C  C66  1  0.94490774  0.00409884  0.27926034  1.0
  C  C67  1  0.97513481  0.94911331  0.35071670  1.0
  C  C68  1  0.89699958  0.95723489  0.43447872  1.0
  C  C69  1  0.02925655  0.99674441  0.18955715  1.0
  C  C70  1  0.97242252  0.80309658  0.05152287  1.0
  C  C71  1  0.05171849  0.71143568  0.04445874  1.0
  C  C72  1  0.00429521  0.63639310  0.05997048  1.0
  C  C73  1  0.07996966  0.55149331  0.05354031  1.0
  C  C74  1  0.20477310  0.53920814  0.02917250  1.0
  C  C75  1  0.25112567  0.61504946  0.01367378  1.0
  C  C76  1  0.17582525  0.69979610  0.02224822  1.0
  C  C77  1  0.28606046  0.44952370  0.02009435  1.0
  C  C78  1  0.25574665  0.37710728  0.07397591  1.0
  C  C79  1  0.33402628  0.29334853  0.06614063  1.0
  C  C80  1  0.44490792  0.27926045  0.00409966  1.0
  C  C81  1  0.47513451  0.35071674  0.94911441  1.0
  C  C82  1  0.39699884  0.43447850  0.95723599  1.0
  C  C83  1  0.52925743  0.18955752  0.99674465  1.0
  C  C84  1  0.52757783  0.94847741  0.19690398  1.0
  C  C85  1  0.44828174  0.95554239  0.28856489  1.0
  C  C86  1  0.49570571  0.94003065  0.36360671  1.0
  C  C87  1  0.42003066  0.94646040  0.44850756  1.0
  C  C88  1  0.29522680  0.97082721  0.46079192  1.0
  C  C89  1  0.24887448  0.98632647  0.38495058  1.0
  C  C90  1  0.32417486  0.97775241  0.30020397  1.0
  C  C91  1  0.21394175  0.97990410  0.55047651  1.0
  C  C92  1  0.24425308  0.92602498  0.62289402  1.0
  C  C93  1  0.16597369  0.93386102  0.70665036  1.0
  C  C94  1  0.05509110  0.99590053  0.72073886  1.0
  C  C95  1  0.02486685  0.05088540  0.64928198  1.0
  C  C96  1  0.10299927  0.04276448  0.56552048  1.0
  C  C97  1  0.97074185  0.00325628  0.81044264  1.0
  O  O98  1  0.18552350  0.96502789  0.96002255  1.0
  O  O99  1  0.13913778  0.19023050  0.94234142  1.0
  O  O100  1  0.98201974  0.13230055  0.94824947  1.0
  O  O101  1  0.36721365  0.81599808  0.05714829  1.0
  O  O102  1  0.50359894  0.87487721  0.95647273  1.0
  O  O103  1  0.31447723  0.03997663  0.03497153  1.0
  O  O104  1  0.36086340  0.05765722  0.80976914  1.0
  O  O105  1  0.51798035  0.05174920  0.86769983  1.0
  O  O106  1  0.13278789  0.94285097  0.18400296  1.0
  O  O107  1  0.99640375  0.04352468  0.12512242  1.0
  O  O108  1  0.81447597  0.03497214  0.03997581  1.0
  O  O109  1  0.86086279  0.80976888  0.05765742  1.0
  O  O110  1  0.01797952  0.86770015  0.05174951  1.0
  O  O111  1  0.63278713  0.18400329  0.94285159  1.0
  O  O112  1  0.49640336  0.12512217  0.04352640  1.0
  O  O113  1  0.68552421  0.96002275  0.96502777  1.0
  O  O114  1  0.63913783  0.94234282  0.19023142  1.0
  O  O115  1  0.48202002  0.94825083  0.13230091  1.0
  O  O116  1  0.86721223  0.05714973  0.81599584  1.0
  O  O117  1  0.00359464  0.95647602  0.87487674  1.0
