# generated using pymatgen
data_MgHC6O5
_symmetry_space_group_name_H-M   'P 1'
_cell_length_a   6.97495620
_cell_length_b   15.10921968
_cell_length_c   15.11093312
_cell_angle_alpha   117.68061171
_cell_angle_beta   98.84627910
_cell_angle_gamma   98.84766271
_symmetry_Int_Tables_number   1
_chemical_formula_structural   MgHC6O5
_chemical_formula_sum   'Mg6 H6 C36 O30'
_cell_volume   1346.48948430
_cell_formula_units_Z   6
loop_
 _symmetry_equiv_pos_site_id
 _symmetry_equiv_pos_as_xyz
  1  'x, y, z'
loop_
 _atom_site_type_symbol
 _atom_site_label
 _atom_site_symmetry_multiplicity
 _atom_site_fract_x
 _atom_site_fract_y
 _atom_site_fract_z
 _atom_site_occupancy
  Mg  Mg0  1  0.61986590  0.59005370  0.32689022  1.0
  Mg  Mg1  1  0.02974183  0.73675535  0.40985323  1.0
  Mg  Mg2  1  0.29293301  0.67304613  0.26314793  1.0
  Mg  Mg3  1  0.38013545  0.40994400  0.67311053  1.0
  Mg  Mg4  1  0.97025913  0.26324394  0.59014675  1.0
  Mg  Mg5  1  0.70706727  0.32695384  0.73685360  1.0
  H  H6  1  0.86499437  0.02215893  0.55083659  1.0
  H  H7  1  0.84277761  0.52860777  0.97774783  1.0
  H  H8  1  0.31470822  0.44950897  0.47184710  1.0
  H  H9  1  0.13500253  0.97783900  0.44916108  1.0
  H  H10  1  0.15722374  0.47139323  0.02225292  1.0
  H  H11  1  0.68529487  0.55048976  0.52815134  1.0
  C  C12  1  0.67891012  0.82638509  0.43017690  1.0
  C  C13  1  0.85246214  0.60371954  0.17353887  1.0
  C  C14  1  0.24891111  0.56990017  0.39635171  1.0
  C  C15  1  0.32109191  0.17361325  0.56982231  1.0
  C  C16  1  0.14754617  0.39628105  0.82646420  1.0
  C  C17  1  0.75109063  0.43010320  0.60364982  1.0
  C  C18  1  0.58053209  0.91299169  0.46097782  1.0
  C  C19  1  0.66752707  0.54795375  0.08695764  1.0
  C  C20  1  0.11983561  0.53915384  0.45221003  1.0
  C  C21  1  0.41946626  0.08700634  0.53901984  1.0
  C  C22  1  0.33247109  0.45204679  0.91304544  1.0
  C  C23  1  0.88016573  0.46084584  0.54779073  1.0
  C  C24  1  0.70404055  0.01287771  0.52882831  1.0
  C  C25  1  0.69114097  0.51590265  0.98708124  1.0
  C  C26  1  0.17556679  0.47139487  0.48436549  1.0
  C  C27  1  0.29595635  0.98712221  0.47116935  1.0
  C  C28  1  0.30885932  0.48409864  0.01292029  1.0
  C  C29  1  0.82443640  0.52860398  0.51563604  1.0
  C  C30  1  0.63196246  0.10167434  0.57045068  1.0
  C  C31  1  0.53027494  0.46878009  0.89834287  1.0
  C  C32  1  0.06147115  0.42956160  0.53124782  1.0
  C  C33  1  0.36803193  0.89832509  0.42954776  1.0
  C  C34  1  0.46972312  0.53122098  0.10165712  1.0
  C  C35  1  0.93853097  0.57043885  0.46875448  1.0
  C  C36  1  0.65395521  0.41182681  0.25621392  1.0
  C  C37  1  0.24190136  0.84434625  0.58804545  1.0
  C  C38  1  0.39763259  0.74368961  0.15555542  1.0
  C  C39  1  0.34603559  0.58817110  0.74378606  1.0
  C  C40  1  0.75808857  0.15564944  0.41194989  1.0
  C  C41  1  0.60236963  0.25631427  0.84444998  1.0
  C  C42  1  0.16408948  0.34576819  0.12928330  1.0
  C  C43  1  0.81610454  0.78302350  0.65455677  1.0
  C  C44  1  0.03445360  0.87088323  0.21708813  1.0
  C  C45  1  0.83591991  0.65424337  0.87071900  1.0
  C  C46  1  0.18389816  0.21697683  0.34544089  1.0
  C  C47  1  0.96551882  0.12910847  0.78290412  1.0
  O  O48  1  0.56637350  0.73338222  0.37363362  1.0
  O  O49  1  0.83287433  0.64017286  0.26653477  1.0
  O  O50  1  0.19272262  0.62630459  0.35975107  1.0
  O  O51  1  0.43362601  0.26661565  0.62636637  1.0
  O  O52  1  0.16712488  0.35982474  0.73346753  1.0
  O  O53  1  0.80727883  0.37369588  0.64025278  1.0
  O  O54  1  0.86811323  0.84444308  0.46099088  1.0
  O  O55  1  0.02366579  0.61646772  0.15551601  1.0
  O  O56  1  0.40734260  0.53908901  0.38360468  1.0
  O  O57  1  0.13188628  0.15555611  0.53900910  1.0
  O  O58  1  0.97633701  0.38353140  0.84448475  1.0
  O  O59  1  0.59265913  0.46091040  0.61639685  1.0
  O  O60  1  0.76422540  0.19349687  0.63606069  1.0
  O  O61  1  0.57072837  0.44264061  0.80653324  1.0
  O  O62  1  0.12808271  0.36390455  0.55740032  1.0
  O  O63  1  0.23577373  0.80650260  0.36393852  1.0
  O  O64  1  0.42927192  0.55736068  0.19346829  1.0
  O  O65  1  0.87192018  0.63609667  0.44260353  1.0
  O  O66  1  0.65516165  0.32743367  0.22604996  1.0
  O  O67  1  0.32686460  0.89868590  0.67249491  1.0
  O  O68  1  0.42905872  0.77377746  0.10126809  1.0
  O  O69  1  0.34484086  0.67256452  0.77395312  1.0
  O  O70  1  0.67311596  0.10131515  0.32750198  1.0
  O  O71  1  0.57094254  0.22622342  0.89872957  1.0
  O  O72  1  0.00784260  0.36045710  0.12188114  1.0
  O  O73  1  0.64498391  0.76086991  0.63894667  1.0
  O  O74  1  0.88486544  0.87776000  0.23845396  1.0
  O  O75  1  0.99218670  0.63954293  0.87812039  1.0
  O  O76  1  0.35501561  0.23913127  0.36105332  1.0
  O  O77  1  0.11512790  0.12224965  0.76154525  1.0
