# generated using pymatgen
data_ZnH28C26N3O7
_symmetry_space_group_name_H-M   'P 1'
_cell_length_a   14.60342622
_cell_length_b   16.02822403
_cell_length_c   19.29075343
_cell_angle_alpha   89.88669781
_cell_angle_beta   89.82293988
_cell_angle_gamma   89.57217001
_symmetry_Int_Tables_number   1
_chemical_formula_structural   ZnH28C26N3O7
_chemical_formula_sum   'Zn2 H56 C52 N6 O14'
_cell_volume   4515.17247037
_cell_formula_units_Z   2
loop_
 _symmetry_equiv_pos_site_id
 _symmetry_equiv_pos_as_xyz
  1  'x, y, z'
loop_
 _atom_site_type_symbol
 _atom_site_label
 _atom_site_symmetry_multiplicity
 _atom_site_fract_x
 _atom_site_fract_y
 _atom_site_fract_z
 _atom_site_occupancy
  Zn  Zn0  1  0.40720567  0.50192301  0.49756920  1.0
  Zn  Zn1  1  0.59710270  0.50149257  0.49859522  1.0
  H  H2  1  0.36066708  0.52795260  0.27941418  1.0
  H  H3  1  0.64347919  0.45450156  0.27818432  1.0
  H  H4  1  0.43890928  0.93036376  0.40094855  1.0
  H  H5  1  0.56015290  0.92960455  0.40051235  1.0
  H  H6  1  0.08264099  0.42820607  0.59398949  1.0
  H  H7  1  0.92553449  0.42905195  0.59579605  1.0
  H  H8  1  0.92116263  0.63208753  0.50218620  1.0
  H  H9  1  0.08117185  0.63208519  0.50158903  1.0
  H  H10  1  0.92199808  0.58397740  0.58451618  1.0
  H  H11  1  0.08181501  0.58367451  0.58380538  1.0
  H  H12  1  0.92338150  0.43008184  0.40157431  1.0
  H  H13  1  0.08255093  0.43283637  0.39897980  1.0
  H  H14  1  0.92017803  0.53999379  0.39188391  1.0
  H  H15  1  0.08055690  0.54310703  0.39180887  1.0
  H  H16  1  0.35615436  0.51696569  0.14953590  1.0
  H  H17  1  0.63899703  0.43993051  0.14850564  1.0
  H  H18  1  0.35774430  0.45642960  0.71342675  1.0
  H  H19  1  0.64379542  0.51518273  0.72148413  1.0
  H  H20  1  0.41649704  0.92788091  0.59503675  1.0
  H  H21  1  0.58457824  0.92617057  0.59402676  1.0
  H  H22  1  0.41558345  0.07407720  0.59651950  1.0
  H  H23  1  0.58890052  0.07235135  0.59459356  1.0
  H  H24  1  0.64843029  0.06955099  0.51427541  1.0
  H  H25  1  0.35354682  0.07378546  0.51760662  1.0
  H  H26  1  0.43841613  0.07638187  0.40296521  1.0
  H  H27  1  0.55940149  0.07562574  0.40120855  1.0
  H  H28  1  0.79080379  0.34507716  0.56956462  1.0
  H  H29  1  0.88248999  0.28474412  0.60625881  1.0
  H  H30  1  0.87389428  0.18674461  0.50363112  1.0
  H  H31  1  0.76796262  0.19222064  0.54997602  1.0
  H  H32  1  0.78014810  0.24673760  0.47034902  1.0
  H  H33  1  0.04237895  0.26279087  0.57946584  1.0
  H  H34  1  0.15461372  0.30055196  0.59922132  1.0
  H  H35  1  0.21615706  0.22738801  0.49290542  1.0
  H  H36  1  0.16374008  0.15583852  0.55139513  1.0
  H  H37  1  0.10438445  0.18844320  0.47530730  1.0
  H  H38  1  0.23455341  0.48902115  0.79310668  1.0
  H  H39  1  0.28408103  0.55159952  0.85986736  1.0
  H  H40  1  0.21846383  0.45940708  0.95069887  1.0
  H  H41  1  0.12914660  0.49667168  0.89565041  1.0
  H  H42  1  0.17154407  0.39258026  0.88622957  1.0
  H  H43  1  0.75604198  0.45142252  0.79858442  1.0
  H  H44  1  0.70397468  0.38670371  0.86321858  1.0
  H  H45  1  0.77670931  0.46952002  0.95696847  1.0
  H  H46  1  0.86247434  0.43130881  0.89898329  1.0
  H  H47  1  0.82656138  0.53786704  0.89445149  1.0
  H  H48  1  0.72829361  0.87355104  0.59429243  1.0
  H  H49  1  0.76197186  0.97577257  0.56806994  1.0
  H  H50  1  0.83752953  0.91649503  0.46179184  1.0
  H  H51  1  0.88304441  0.86934207  0.53819441  1.0
  H  H52  1  0.80206197  0.81451969  0.48635648  1.0
  H  H53  1  0.23847243  0.97968502  0.57189359  1.0
  H  H54  1  0.27363931  0.87695209  0.59655776  1.0
  H  H55  1  0.19856302  0.81958590  0.48943384  1.0
  H  H56  1  0.11795520  0.87444169  0.54268037  1.0
  H  H57  1  0.16182797  0.92207839  0.46596127  1.0
  C  C58  1  0.50415894  0.33937163  0.49946007  1.0
  C  C59  1  0.49421773  0.47051794  0.06546350  1.0
  C  C60  1  0.41692789  0.45911502  0.81617600  1.0
  C  C61  1  0.57908958  0.49121833  0.82060566  1.0
  C  C62  1  0.41879877  0.46713459  0.74431434  1.0
  C  C63  1  0.58100444  0.49862091  0.74863017  1.0
  C  C64  1  0.50071793  0.48707708  0.71064675  1.0
  C  C65  1  0.49691777  0.47192078  0.85555996  1.0
  C  C66  1  0.41571467  0.05009899  0.54317805  1.0
  C  C67  1  0.58669856  0.04787729  0.54143825  1.0
  C  C68  1  0.58618567  0.95136839  0.54059874  1.0
  C  C69  1  0.41467640  0.95350913  0.54176809  1.0
  C  C70  1  0.49984774  0.75328175  0.50190697  1.0
  C  C71  1  0.50098734  0.08307682  0.50441479  1.0
  C  C72  1  0.49987943  0.91953090  0.50233168  1.0
  C  C73  1  0.50396088  0.49874674  0.36357968  1.0
  C  C74  1  0.49958326  0.95433936  0.42736795  1.0
  C  C75  1  0.49947855  0.05068285  0.42864856  1.0
  C  C76  1  0.49956855  0.82902378  0.50204896  1.0
  C  C77  1  0.50192142  0.17348393  0.50403465  1.0
  C  C78  1  0.50338706  0.24925184  0.50225655  1.0
  C  C79  1  0.94895093  0.42081515  0.54179512  1.0
  C  C80  1  0.05746181  0.42106050  0.54030467  1.0
  C  C81  1  0.94882568  0.57878542  0.53143363  1.0
  C  C82  1  0.05456910  0.57873947  0.53098002  1.0
  C  C83  1  0.91415205  0.49703070  0.49844321  1.0
  C  C84  1  0.09028080  0.49724067  0.49728763  1.0
  C  C85  1  0.05471223  0.49009818  0.42201557  1.0
  C  C86  1  0.94905861  0.48874499  0.42286727  1.0
  C  C87  1  0.18943346  0.49734972  0.49710145  1.0
  C  C88  1  0.81515680  0.49783247  0.49875627  1.0
  C  C89  1  0.49989131  0.66317140  0.50063240  1.0
  C  C90  1  0.50215650  0.49522831  0.63304405  1.0
  C  C91  1  0.42120513  0.50959197  0.24986326  1.0
  C  C92  1  0.58099098  0.46749175  0.24924766  1.0
  C  C93  1  0.41865699  0.50315814  0.17811419  1.0
  C  C94  1  0.57851583  0.45972817  0.17748353  1.0
  C  C95  1  0.49728777  0.47772111  0.14129320  1.0
  C  C96  1  0.50231816  0.49208366  0.28598926  1.0
  C  C97  1  0.49397357  0.46752166  0.93159404  1.0
  C  C98  1  0.84885595  0.30321853  0.55717197  1.0
  C  C99  1  0.81611965  0.22767295  0.51772045  1.0
  C  C100  1  0.10894263  0.28057344  0.55679718  1.0
  C  C101  1  0.15083197  0.20886940  0.51648390  1.0
  C  C102  1  0.26151510  0.48815682  0.84655817  1.0
  C  C103  1  0.19090964  0.45714895  0.89786446  1.0
  C  C104  1  0.73006775  0.44980122  0.85242044  1.0
  C  C105  1  0.80334681  0.47377407  0.90380263  1.0
  C  C106  1  0.74352238  0.91311552  0.54859953  1.0
  C  C107  1  0.82129002  0.87613177  0.50617611  1.0
  C  C108  1  0.25723553  0.91723511  0.55149972  1.0
  C  C109  1  0.17913330  0.88117315  0.50984412  1.0
  N  N110  1  0.55977602  0.42460143  0.03319969  1.0
  N  N111  1  0.42334220  0.50803028  0.03214784  1.0
  N  N112  1  0.55908795  0.42232563  0.96473714  1.0
  N  N113  1  0.42374326  0.50746327  0.96391722  1.0
  N  N114  1  0.26859401  0.49980622  0.49736162  1.0
  N  N115  1  0.73592648  0.50023889  0.49922131  1.0
  O  O116  1  0.42849004  0.37507706  0.48473743  1.0
  O  O117  1  0.58041010  0.37446266  0.51195198  1.0
  O  O118  1  0.42849329  0.51702656  0.39340466  1.0
  O  O119  1  0.58018449  0.48519113  0.39362168  1.0
  O  O120  1  0.42344746  0.62776260  0.51217476  1.0
  O  O121  1  0.57640818  0.62735500  0.48802153  1.0
  O  O122  1  0.42656458  0.48326165  0.60196601  1.0
  O  O123  1  0.57835117  0.51287572  0.60460817  1.0
  O  O124  1  0.91469806  0.34609282  0.51398734  1.0
  O  O125  1  0.09629513  0.34956563  0.50982957  1.0
  O  O126  1  0.33972116  0.43263182  0.85047769  1.0
  O  O127  1  0.65520881  0.50864591  0.85984760  1.0
  O  O128  1  0.66442578  0.91808446  0.50560917  1.0
  O  O129  1  0.33556528  0.92247264  0.50744218  1.0
