# generated using pymatgen
data_ZnH38C31(N2O)4
_symmetry_space_group_name_H-M   'P 1'
_cell_length_a   16.83655635
_cell_length_b   17.05805664
_cell_length_c   17.72282466
_cell_angle_alpha   92.70503214
_cell_angle_beta   90.31924769
_cell_angle_gamma   95.50659827
_symmetry_Int_Tables_number   1
_chemical_formula_structural   ZnH38C31(N2O)4
_chemical_formula_sum   'Zn2 H76 C62 N16 O8'
_cell_volume   5060.58029015
_cell_formula_units_Z   2
loop_
 _symmetry_equiv_pos_site_id
 _symmetry_equiv_pos_as_xyz
  1  'x, y, z'
loop_
 _atom_site_type_symbol
 _atom_site_label
 _atom_site_symmetry_multiplicity
 _atom_site_fract_x
 _atom_site_fract_y
 _atom_site_fract_z
 _atom_site_occupancy
  Zn  Zn0  1  0.59074539  0.49870784  0.49640176  1.0
  Zn  Zn1  1  0.41091677  0.50952159  0.50333406  1.0
  H  H2  1  0.60076638  0.88801534  0.64903687  1.0
  H  H3  1  0.39294971  0.08630667  0.48537166  1.0
  H  H4  1  0.55617237  0.15955987  0.66863311  1.0
  H  H5  1  0.47905873  0.91129920  0.43835827  1.0
  H  H6  1  0.60185543  0.42419359  0.26220634  1.0
  H  H7  1  0.37596768  0.50134747  0.72972834  1.0
  H  H8  1  0.44851030  0.79527864  0.35861737  1.0
  H  H9  1  0.44757183  0.70140694  0.39171663  1.0
  H  H10  1  0.56535434  0.36884796  0.63243602  1.0
  H  H11  1  0.58300186  0.29996303  0.69574581  1.0
  H  H12  1  0.92740282  0.75555794  0.65760486  1.0
  H  H13  1  0.01889702  0.71796749  0.63353352  1.0
  H  H14  1  0.98355224  0.79390702  0.58094998  1.0
  H  H15  1  0.95662569  0.66607016  0.50603870  1.0
  H  H16  1  0.86624731  0.70116049  0.53398862  1.0
  H  H17  1  0.86495754  0.61101317  0.64654429  1.0
  H  H18  1  0.95032341  0.57265438  0.61046134  1.0
  H  H19  1  0.06474070  0.30104780  0.24982881  1.0
  H  H20  1  0.05497378  0.22648909  0.31665011  1.0
  H  H21  1  0.96942328  0.27050042  0.28656625  1.0
  H  H22  1  0.01446546  0.32579650  0.41559828  1.0
  H  H23  1  0.02346099  0.40008978  0.34830831  1.0
  H  H24  1  0.16875908  0.37155905  0.33218893  1.0
  H  H25  1  0.15611162  0.30703184  0.40565179  1.0
  H  H26  1  0.76280695  0.64462068  0.60663442  1.0
  H  H27  1  0.67333146  0.61682835  0.56413438  1.0
  H  H28  1  0.27938340  0.34148217  0.39435554  1.0
  H  H29  1  0.35395140  0.41743154  0.39472749  1.0
  H  H30  1  0.56882381  0.26152841  0.37246339  1.0
  H  H31  1  0.65340038  0.23453518  0.32129805  1.0
  H  H32  1  0.61861209  0.18010259  0.39968246  1.0
  H  H33  1  0.73885402  0.27030562  0.43948875  1.0
  H  H34  1  0.65383289  0.29872930  0.48718049  1.0
  H  H35  1  0.63540450  0.40044068  0.39379277  1.0
  H  H36  1  0.72063981  0.37584435  0.34475099  1.0
  H  H37  1  0.28806031  0.76877324  0.65251201  1.0
  H  H38  1  0.38479172  0.75508102  0.61738091  1.0
  H  H39  1  0.32706632  0.82319182  0.57573373  1.0
  H  H40  1  0.32494760  0.69917813  0.49398614  1.0
  H  H41  1  0.22836894  0.71339756  0.52651993  1.0
  H  H42  1  0.25328505  0.62065555  0.63367849  1.0
  H  H43  1  0.34524947  0.60538273  0.59254912  1.0
  H  H44  1  0.82746993  0.32860197  0.38472163  1.0
  H  H45  1  0.91965071  0.37167021  0.40802578  1.0
  H  H46  1  0.05682874  0.59033896  0.55706511  1.0
  H  H47  1  0.14130706  0.64682168  0.58452721  1.0
  H  H48  1  0.37061578  0.18335103  0.39825244  1.0
  H  H49  1  0.40070733  0.27933210  0.41180272  1.0
  H  H50  1  0.60485913  0.75884368  0.69066839  1.0
  H  H51  1  0.58307661  0.67560525  0.63537578  1.0
  H  H52  1  0.28513927  0.96098180  0.72554140  1.0
  H  H53  1  0.35318985  0.89190907  0.74724647  1.0
  H  H54  1  0.33967368  0.97202191  0.81211695  1.0
  H  H55  1  0.46807355  0.99767653  0.74037571  1.0
  H  H56  1  0.40121307  0.06780967  0.72081763  1.0
  H  H57  1  0.35747247  0.99155658  0.60182479  1.0
  H  H58  1  0.42262319  0.91924667  0.62133479  1.0
  H  H59  1  0.76152739  0.07258710  0.45494095  1.0
  H  H60  1  0.74344704  0.15528845  0.51474429  1.0
  H  H61  1  0.81484223  0.09136216  0.54176095  1.0
  H  H62  1  0.68569557  0.06572323  0.61307158  1.0
  H  H63  1  0.70629227  0.98208851  0.55685638  1.0
  H  H64  1  0.61387471  0.01822772  0.45638990  1.0
  H  H65  1  0.59483109  0.10427071  0.51087560  1.0
  H  H66  1  0.60201241  0.39155995  0.05580796  1.0
  H  H67  1  0.65662762  0.38628652  0.13627207  1.0
  H  H68  1  0.34156327  0.43975313  0.92072893  1.0
  H  H69  1  0.29818583  0.46362040  0.84031271  1.0
  H  H70  1  0.37175812  0.54723339  0.32338112  1.0
  H  H71  1  0.33021308  0.57196996  0.24204606  1.0
  H  H72  1  0.68641876  0.46091977  0.76438651  1.0
  H  H73  1  0.65129382  0.50088533  0.68678719  1.0
  H  H74  1  0.31986306  0.54563338  0.13241065  1.0
  H  H75  1  0.37364325  0.52997987  0.05394492  1.0
  H  H76  1  0.68204113  0.51100696  0.87620929  1.0
  H  H77  1  0.62544662  0.48278327  0.95026409  1.0
  C  C78  1  0.50510234  0.50862265  0.64718067  1.0
  C  C79  1  0.50485121  0.49578867  0.35271587  1.0
  C  C80  1  0.51807377  0.65662681  0.50558918  1.0
  C  C81  1  0.47550855  0.35532276  0.51716794  1.0
  C  C82  1  0.52778119  0.74330796  0.51865498  1.0
  C  C83  1  0.47211982  0.27206015  0.54082560  1.0
  C  C84  1  0.49490992  0.79178757  0.46562781  1.0
  C  C85  1  0.51910373  0.25364400  0.60283391  1.0
  C  C86  1  0.50453826  0.87397442  0.47863260  1.0
  C  C87  1  0.51801342  0.17441574  0.62249060  1.0
  C  C88  1  0.54133901  0.90855864  0.54447400  1.0
  C  C89  1  0.47365183  0.11465826  0.57991246  1.0
  C  C90  1  0.57273985  0.86130998  0.59715683  1.0
  C  C91  1  0.42583720  0.13356526  0.51971898  1.0
  C  C92  1  0.56742619  0.77891823  0.58440233  1.0
  C  C93  1  0.42530586  0.21182562  0.49947445  1.0
  C  C94  1  0.54243063  0.99604484  0.55426201  1.0
  C  C95  1  0.48150821  0.02916144  0.58880720  1.0
  C  C96  1  0.55029411  0.43458181  0.15175385  1.0
  C  C97  1  0.41953970  0.48047368  0.84105578  1.0
  C  C98  1  0.55468697  0.44710894  0.22986052  1.0
  C  C99  1  0.42803070  0.49546097  0.76509588  1.0
  C  C100  1  0.49764452  0.48764305  0.26884527  1.0
  C  C101  1  0.50328976  0.50038241  0.73032983  1.0
  C  C102  1  0.43454838  0.51863438  0.23082339  1.0
  C  C103  1  0.57315185  0.49227831  0.77286191  1.0
  C  C104  1  0.43132428  0.50928239  0.15126631  1.0
  C  C105  1  0.56537405  0.48098006  0.85101210  1.0
  C  C106  1  0.48870199  0.46743198  0.11204975  1.0
  C  C107  1  0.48945899  0.47390817  0.88499338  1.0
  C  C108  1  0.48647872  0.46255256  0.03258288  1.0
  C  C109  1  0.48481380  0.46484105  0.96345412  1.0
  C  C110  1  0.84559222  0.54127071  0.54294197  1.0
  C  C111  1  0.16486573  0.42939125  0.43927311  1.0
  C  C112  1  0.76206393  0.54434137  0.53947779  1.0
  C  C113  1  0.24916937  0.44500460  0.44316092  1.0
  C  C114  1  0.74629137  0.43649405  0.45047113  1.0
  C  C115  1  0.24281234  0.55301815  0.52975812  1.0
  C  C116  1  0.82904201  0.43200570  0.44824713  1.0
  C  C117  1  0.15907543  0.54282415  0.52802635  1.0
  C  C118  1  0.87945083  0.48509696  0.49578608  1.0
  C  C119  1  0.11901069  0.47909898  0.48275858  1.0
  C  C120  1  0.96313449  0.48106534  0.49289009  1.0
  C  C121  1  0.03438648  0.47373975  0.48436734  1.0
  C  C122  1  0.89640338  0.59935446  0.59337030  1.0
  C  C123  1  0.92018348  0.67788785  0.55601959  1.0
  C  C124  1  0.96503368  0.73966108  0.60977810  1.0
  C  C125  1  0.13534483  0.36194089  0.38498415  1.0
  C  C126  1  0.04708913  0.34555035  0.36514001  1.0
  C  C127  1  0.03312794  0.28235367  0.30109521  1.0
  C  C128  1  0.69375530  0.37862269  0.40143653  1.0
  C  C129  1  0.68129075  0.29491069  0.43121746  1.0
  C  C130  1  0.62775819  0.23956476  0.37815731  1.0
  C  C131  1  0.28442766  0.61857772  0.57905466  1.0
  C  C132  1  0.28823648  0.70029324  0.54501155  1.0
  C  C133  1  0.32377598  0.76540661  0.60079965  1.0
  C  C134  1  0.41514627  0.98240453  0.62851653  1.0
  C  C135  1  0.41027351  0.00486759  0.71327058  1.0
  C  C136  1  0.34351329  0.95483520  0.75179578  1.0
  C  C137  1  0.60907568  0.04304088  0.51470151  1.0
  C  C138  1  0.69065684  0.04312979  0.55414844  1.0
  C  C139  1  0.75636664  0.09325392  0.51435036  1.0
  N  N140  1  0.71410746  0.49194322  0.49523903  1.0
  N  N141  1  0.28655820  0.50409807  0.48830136  1.0
  N  N142  1  0.45276393  0.76051355  0.40276440  1.0
  N  N143  1  0.56895078  0.31091965  0.64191811  1.0
  N  N144  1  0.72632595  0.59943434  0.58307392  1.0
  N  N145  1  0.29410871  0.40063301  0.39626410  1.0
  N  N146  1  0.86169104  0.37962883  0.39775697  1.0
  N  N147  1  0.11511948  0.59160005  0.57265579  1.0
  N  N148  1  0.37954386  0.22929920  0.43694346  1.0
  N  N149  1  0.60124802  0.73413935  0.63745153  1.0
  N  N150  1  0.60190999  0.38849170  0.11285614  1.0
  N  N151  1  0.34522071  0.47579517  0.87648758  1.0
  N  N152  1  0.38149121  0.56410740  0.26960082  1.0
  N  N153  1  0.65070577  0.50034261  0.74437345  1.0
  N  N154  1  0.37527263  0.54513995  0.11022224  1.0
  N  N155  1  0.63437019  0.47520246  0.89367301  1.0
  O  O156  1  0.56757326  0.48924045  0.61218231  1.0
  O  O157  1  0.43982975  0.48645005  0.39013827  1.0
  O  O158  1  0.44441124  0.53228986  0.61495011  1.0
  O  O159  1  0.57378040  0.50986661  0.38246775  1.0
  O  O160  1  0.57706720  0.61743193  0.52080262  1.0
  O  O161  1  0.41292240  0.39125074  0.52382950  1.0
  O  O162  1  0.45106282  0.62441881  0.47987949  1.0
  O  O163  1  0.54217034  0.38428477  0.49158969  1.0
