# generated using pymatgen
data_CdH26(C11O4)3
_symmetry_space_group_name_H-M   'P 1'
_cell_length_a   16.23096616
_cell_length_b   16.23135641
_cell_length_c   27.39672712
_cell_angle_alpha   83.89472153
_cell_angle_beta   83.89592958
_cell_angle_gamma   72.86693617
_symmetry_Int_Tables_number   1
_chemical_formula_structural   CdH26(C11O4)3
_chemical_formula_sum   'Cd4 H104 C132 O48'
_cell_volume   6836.86646457
_cell_formula_units_Z   4
loop_
 _symmetry_equiv_pos_site_id
 _symmetry_equiv_pos_as_xyz
  1  'x, y, z'
loop_
 _atom_site_type_symbol
 _atom_site_label
 _atom_site_symmetry_multiplicity
 _atom_site_fract_x
 _atom_site_fract_y
 _atom_site_fract_z
 _atom_site_occupancy
  Cd  Cd0  1  0.34650869  0.92627628  0.18240044  1.0
  Cd  Cd1  1  0.07371443  0.65350969  0.31759575  1.0
  Cd  Cd2  1  0.65348723  0.07372060  0.81759627  1.0
  Cd  Cd3  1  0.92628544  0.34649236  0.68240448  1.0
  H  H4  1  0.32678033  0.67566661  0.09257943  1.0
  H  H5  1  0.32571096  0.61290918  0.01364026  1.0
  H  H6  1  0.39617334  0.82906822  0.93371791  1.0
  H  H7  1  0.39297062  0.89302747  0.01369186  1.0
  H  H8  1  0.25917113  0.63522102  0.94174906  1.0
  H  H9  1  0.36327727  0.56145498  0.92613014  1.0
  H  H10  1  0.36954743  0.64521286  0.79115415  1.0
  H  H11  1  0.41444847  0.67777786  0.84049149  1.0
  H  H12  1  0.51294561  0.65089457  0.77865325  1.0
  H  H13  1  0.65864524  0.60566527  0.74082968  1.0
  H  H14  1  0.68930713  0.34405250  0.80695670  1.0
  H  H15  1  0.54075882  0.39106296  0.84614847  1.0
  H  H16  1  0.26175333  0.77911816  0.86010826  1.0
  H  H17  1  0.22003944  0.73538478  0.81349420  1.0
  H  H18  1  0.12330508  0.86453634  0.81241275  1.0
  H  H19  1  0.97349486  0.95292157  0.79639140  1.0
  H  H20  1  0.87185404  0.80300331  0.91411684  1.0
  H  H21  1  0.02032933  0.71577588  0.93024346  1.0
  H  H22  1  0.30495137  0.50320903  0.85854647  1.0
  H  H23  1  0.19856115  0.57193629  0.87500014  1.0
  H  H24  1  0.18393172  0.62526204  0.71677126  1.0
  H  H25  1  0.09358994  0.55163927  0.67785432  1.0
  H  H26  1  0.10465719  0.37235877  0.80501414  1.0
  H  H27  1  0.19491814  0.44332790  0.84442826  1.0
  H  H28  1  0.77066731  0.55603408  0.72087161  1.0
  H  H29  1  0.77709039  0.84506452  0.87162578  1.0
  H  H30  1  0.32434556  0.67321613  0.40741982  1.0
  H  H31  1  0.38709807  0.67428633  0.48636110  1.0
  H  H32  1  0.17092756  0.60383104  0.56627659  1.0
  H  H33  1  0.10697173  0.60703646  0.48629955  1.0
  H  H34  1  0.36478919  0.74082150  0.55824824  1.0
  H  H35  1  0.43854833  0.63671450  0.57387208  1.0
  H  H36  1  0.35478363  0.63045662  0.70884506  1.0
  H  H37  1  0.32221691  0.58555647  0.65950894  1.0
  H  H38  1  0.34910321  0.48705664  0.72135167  1.0
  H  H39  1  0.39433529  0.34135355  0.75917038  1.0
  H  H40  1  0.65595073  0.31069474  0.69304175  1.0
  H  H41  1  0.60893805  0.45924578  0.65385555  1.0
  H  H42  1  0.22088205  0.73824443  0.63989053  1.0
  H  H43  1  0.26461905  0.77997260  0.68649816  1.0
  H  H44  1  0.13545969  0.87669430  0.68757187  1.0
  H  H45  1  0.04708234  0.02650136  0.70359343  1.0
  H  H46  1  0.19700862  0.12813894  0.58587206  1.0
  H  H47  1  0.28422925  0.97966497  0.56974345  1.0
  H  H48  1  0.49679920  0.69504010  0.64145112  1.0
  H  H49  1  0.42807103  0.80143447  0.62500155  1.0
  H  H50  1  0.37474475  0.81605021  0.78322745  1.0
  H  H51  1  0.44835905  0.90640000  0.82214358  1.0
  H  H52  1  0.62764226  0.89534053  0.69498558  1.0
  H  H53  1  0.55668493  0.80506756  0.65557307  1.0
  H  H54  1  0.44396958  0.22932611  0.77911981  1.0
  H  H55  1  0.15493962  0.22290582  0.62836792  1.0
  H  H56  1  0.67321536  0.32434974  0.90741696  1.0
  H  H57  1  0.67428655  0.38709678  0.98635806  1.0
  H  H58  1  0.60382602  0.17093204  0.06627441  1.0
  H  H59  1  0.60702614  0.10698384  0.98629708  1.0
  H  H60  1  0.74082772  0.36478040  0.05824980  1.0
  H  H61  1  0.63672070  0.43854319  0.07386858  1.0
  H  H62  1  0.63045179  0.35478534  0.20884377  1.0
  H  H63  1  0.58555216  0.32221969  0.15950712  1.0
  H  H64  1  0.48705899  0.34909780  0.22134725  1.0
  H  H65  1  0.34136355  0.39432702  0.25917754  1.0
  H  H66  1  0.31068897  0.65594098  0.19304895  1.0
  H  H67  1  0.45923352  0.60893316  0.15385249  1.0
  H  H68  1  0.73825250  0.22088079  0.13988853  1.0
  H  H69  1  0.77995963  0.26461793  0.18650495  1.0
  H  H70  1  0.87669813  0.13546517  0.18758404  1.0
  H  H71  1  0.02650893  0.04707418  0.20360130  1.0
  H  H72  1  0.12814860  0.19700396  0.08588332  1.0
  H  H73  1  0.97967335  0.28423525  0.06975832  1.0
  H  H74  1  0.69504130  0.49679231  0.14145309  1.0
  H  H75  1  0.80143301  0.42806829  0.12499990  1.0
  H  H76  1  0.81605830  0.37474184  0.28322940  1.0
  H  H77  1  0.90640152  0.44836399  0.32214594  1.0
  H  H78  1  0.89534143  0.62764135  0.19498481  1.0
  H  H79  1  0.80507865  0.55667413  0.15557141  1.0
  H  H80  1  0.22933937  0.44394542  0.27912546  1.0
  H  H81  1  0.22291071  0.15493945  0.12837611  1.0
  H  H82  1  0.67565567  0.32678523  0.59258329  1.0
  H  H83  1  0.61289809  0.32571950  0.51364278  1.0
  H  H84  1  0.82906838  0.39616968  0.43372320  1.0
  H  H85  1  0.89302925  0.39295786  0.51369885  1.0
  H  H86  1  0.63521004  0.25918244  0.44175448  1.0
  H  H87  1  0.56144386  0.36328422  0.42612839  1.0
  H  H88  1  0.64521289  0.36954407  0.29115653  1.0
  H  H89  1  0.67778066  0.41444488  0.34049255  1.0
  H  H90  1  0.65090157  0.51293889  0.27865340  1.0
  H  H91  1  0.60567466  0.65863762  0.24082844  1.0
  H  H92  1  0.34405664  0.68930940  0.30695504  1.0
  H  H93  1  0.39106311  0.54076399  0.34614894  1.0
  H  H94  1  0.77911637  0.26177052  0.36011237  1.0
  H  H95  1  0.73538807  0.22002748  0.31350763  1.0
  H  H96  1  0.86454567  0.12330776  0.31243098  1.0
  H  H97  1  0.95291442  0.97349873  0.29640598  1.0
  H  H98  1  0.80297842  0.87186691  0.41412537  1.0
  H  H99  1  0.71577209  0.02034222  0.43026008  1.0
  H  H100  1  0.50320586  0.30495105  0.35854577  1.0
  H  H101  1  0.57193528  0.19856244  0.37500043  1.0
  H  H102  1  0.62526176  0.18393377  0.21677231  1.0
  H  H103  1  0.55164034  0.09358906  0.17785775  1.0
  H  H104  1  0.37235390  0.10466339  0.30501657  1.0
  H  H105  1  0.44332098  0.19492872  0.34442752  1.0
  H  H106  1  0.55604841  0.77066517  0.22087783  1.0
  H  H107  1  0.84504928  0.77709731  0.37163723  1.0
  C  C108  1  0.35559037  0.82867720  0.10513986  1.0
  C  C109  1  0.35918852  0.78849503  0.05803159  1.0
  C  C110  1  0.34134226  0.70934630  0.05762708  1.0
  C  C111  1  0.34057525  0.67418725  0.01331415  1.0
  C  C112  1  0.35947863  0.71865576  0.96892699  1.0
  C  C113  1  0.38043089  0.79655577  0.96884694  1.0
  C  C114  1  0.37913226  0.83144467  0.01306285  1.0
  C  C115  1  0.31918087  0.62630517  0.91746637  1.0
  C  C116  1  0.29893936  0.63788150  0.86312915  1.0
  C  C117  1  0.38261263  0.63166041  0.83028286  1.0
  C  C118  1  0.51774120  0.52406953  0.81561077  1.0
  C  C119  1  0.55120204  0.58408288  0.78559159  1.0
  C  C120  1  0.63528263  0.55702197  0.76427426  1.0
  C  C121  1  0.68634953  0.47116459  0.77188616  1.0
  C  C122  1  0.65112488  0.41148556  0.80156534  1.0
  C  C123  1  0.56776177  0.43760790  0.82339154  1.0
  C  C124  1  0.77407060  0.43971606  0.74822153  1.0
  C  C125  1  0.23507118  0.72741190  0.85220571  1.0
  C  C126  1  0.08050160  0.78287879  0.87173800  1.0
  C  C127  1  0.06826959  0.85010578  0.83404860  1.0
  C  C128  1  0.98457613  0.89962248  0.82500037  1.0
  C  C129  1  0.91257319  0.88240907  0.85234021  1.0
  C  C130  1  0.92610191  0.81578584  0.89053824  1.0
  C  C131  1  0.00892051  0.76692010  0.90045873  1.0
  C  C132  1  0.82509065  0.93557782  0.84068505  1.0
  C  C133  1  0.25926970  0.56778386  0.85192191  1.0
  C  C134  1  0.19451151  0.53905964  0.78268788  1.0
  C  C135  1  0.16695582  0.56905327  0.73547307  1.0
  C  C136  1  0.11698737  0.52861427  0.71411625  1.0
  C  C137  1  0.09389793  0.45768296  0.73924953  1.0
  C  C138  1  0.12301633  0.42751319  0.78591152  1.0
  C  C139  1  0.17330256  0.46749024  0.80794389  1.0
  C  C140  1  0.03647043  0.41727487  0.71693956  1.0
  C  C141  1  0.17132611  0.64441989  0.39485500  1.0
  C  C142  1  0.21151156  0.64081649  0.44196331  1.0
  C  C143  1  0.29066108  0.65865883  0.44237022  1.0
  C  C144  1  0.32581738  0.65942577  0.48668573  1.0
  C  C145  1  0.28134613  0.64052448  0.53107067  1.0
  C  C146  1  0.20344191  0.61957354  0.53114757  1.0
  C  C147  1  0.16855670  0.62087260  0.48693218  1.0
  C  C148  1  0.37370052  0.68081410  0.58253261  1.0
  C  C149  1  0.36211854  0.70106264  0.63687027  1.0
  C  C150  1  0.36833713  0.61738903  0.66971879  1.0
  C  C151  1  0.47592978  0.48226095  0.68439169  1.0
  C  C152  1  0.41591854  0.44879835  0.71441066  1.0
  C  C153  1  0.44297838  0.36471622  0.73572597  1.0
  C  C154  1  0.52883475  0.31365116  0.72811204  1.0
  C  C155  1  0.58851507  0.34887992  0.69843311  1.0
  C  C156  1  0.56239296  0.43224385  0.67660975  1.0
  C  C157  1  0.56028943  0.22592825  0.75177361  1.0
  C  C158  1  0.27259250  0.76493060  0.64778623  1.0
  C  C159  1  0.21711887  0.91949484  0.62824622  1.0
  C  C160  1  0.14988914  0.93172706  0.66593559  1.0
  C  C161  1  0.10037605  0.01541652  0.67498465  1.0
  C  C162  1  0.11759436  0.08741963  0.64764452  1.0
  C  C163  1  0.18421735  0.07389180  0.60944773  1.0
  C  C164  1  0.23308041  0.99107213  0.59952663  1.0
  C  C165  1  0.06443086  0.17489702  0.65930748  1.0
  C  C166  1  0.43222575  0.74071834  0.64807759  1.0
  C  C167  1  0.46094943  0.80547200  0.71731311  1.0
  C  C168  1  0.43095387  0.83302688  0.76452659  1.0
  C  C169  1  0.47138718  0.88300177  0.78588184  1.0
  C  C170  1  0.54231653  0.90609807  0.76074898  1.0
  C  C171  1  0.57249015  0.87697732  0.71408768  1.0
  C  C172  1  0.53251776  0.82668471  0.69205767  1.0
  C  C173  1  0.58271650  0.96353133  0.78305604  1.0
  C  C174  1  0.64440813  0.17133212  0.89485239  1.0
  C  C175  1  0.64081128  0.21151818  0.94196147  1.0
  C  C176  1  0.65865563  0.29066491  0.94236765  1.0
  C  C177  1  0.65942210  0.32581939  0.98668232  1.0
  C  C178  1  0.64051959  0.28135220  0.03106826  1.0
  C  C179  1  0.61956669  0.20344836  0.03114527  1.0
  C  C180  1  0.62086459  0.16856397  0.98692989  1.0
  C  C181  1  0.68081737  0.37369434  0.08253007  1.0
  C  C182  1  0.70106066  0.36211796  0.13687121  1.0
  C  C183  1  0.61738473  0.36833776  0.16971553  1.0
  C  C184  1  0.48225690  0.47592603  0.18438881  1.0
  C  C185  1  0.44879951  0.41591140  0.21440897  1.0
  C  C186  1  0.36472147  0.44296967  0.23573032  1.0
  C  C187  1  0.31365512  0.52882507  0.22812032  1.0
  C  C188  1  0.34887162  0.58850664  0.19843963  1.0
  C  C189  1  0.43223240  0.56238823  0.17661005  1.0
  C  C190  1  0.22593516  0.56027159  0.25178902  1.0
  C  C191  1  0.76493060  0.27259215  0.14779285  1.0
  C  C192  1  0.91950122  0.21712784  0.12826218  1.0
  C  C193  1  0.93173197  0.14989698  0.16594968  1.0
  C  C194  1  0.01542478  0.10037642  0.17499596  1.0
  C  C195  1  0.08743126  0.11759246  0.14765615  1.0
  C  C196  1  0.07390033  0.18422080  0.10946088  1.0
  C  C197  1  0.99108134  0.23308974  0.09954207  1.0
  C  C198  1  0.17491189  0.06442172  0.15931226  1.0
  C  C199  1  0.74072425  0.43221945  0.14807711  1.0
  C  C200  1  0.80548283  0.46094238  0.21731083  1.0
  C  C201  1  0.83303671  0.43095066  0.26452600  1.0
  C  C202  1  0.88300614  0.47138836  0.28588393  1.0
  C  C203  1  0.90609799  0.54231774  0.26075135  1.0
  C  C204  1  0.87698044  0.57248691  0.21408752  1.0
  C  C205  1  0.82669402  0.53251050  0.19205513  1.0
  C  C206  1  0.96352574  0.58272714  0.28306051  1.0
  C  C207  1  0.82867856  0.35557638  0.60514565  1.0
  C  C208  1  0.78849026  0.35918104  0.55803743  1.0
  C  C209  1  0.70933691  0.34134317  0.55763121  1.0
  C  C210  1  0.67417774  0.34057939  0.51331824  1.0
  C  C211  1  0.71864659  0.35948263  0.46893186  1.0
  C  C212  1  0.79655407  0.38042912  0.46885211  1.0
  C  C213  1  0.83144389  0.37912492  0.51306825  1.0
  C  C214  1  0.62629381  0.31918981  0.41746892  1.0
  C  C215  1  0.63788043  0.29893805  0.36313264  1.0
  C  C216  1  0.63166056  0.38260971  0.33028393  1.0
  C  C217  1  0.52407227  0.51773978  0.31561105  1.0
  C  C218  1  0.58408733  0.55119788  0.28559248  1.0
  C  C219  1  0.55702955  0.63527750  0.26427354  1.0
  C  C220  1  0.47117410  0.68634394  0.27188406  1.0
  C  C221  1  0.41149105  0.65112419  0.30156448  1.0
  C  C222  1  0.43760946  0.56776404  0.32339149  1.0
  C  C223  1  0.43972214  0.77406439  0.24821737  1.0
  C  C224  1  0.72741538  0.23507536  0.35221774  1.0
  C  C225  1  0.78288532  0.08051110  0.37175685  1.0
  C  C226  1  0.85011335  0.06827434  0.33406636  1.0
  C  C227  1  0.89961905  0.98458482  0.32501625  1.0
  C  C228  1  0.88239583  0.91258167  0.35235554  1.0
  C  C229  1  0.81577351  0.92611147  0.39055146  1.0
  C  C230  1  0.76691747  0.00893441  0.40047456  1.0
  C  C231  1  0.93556171  0.82510230  0.34069548  1.0
  C  C232  1  0.56777966  0.25927339  0.35192327  1.0
  C  C233  1  0.53905716  0.19451778  0.28268815  1.0
  C  C234  1  0.56905164  0.16696029  0.23547524  1.0
  C  C235  1  0.52861408  0.11698924  0.21412001  1.0
  C  C236  1  0.45768173  0.09389680  0.23925282  1.0
  C  C237  1  0.42750982  0.12302019  0.28591279  1.0
  C  C238  1  0.46748750  0.17330962  0.30794269  1.0
  C  C239  1  0.41727649  0.03646674  0.21694478  1.0
  O  O240  1  0.34887882  0.91009606  0.10177021  1.0
  O  O241  1  0.35882687  0.78347475  0.14600324  1.0
  O  O242  1  0.35958208  0.69158027  0.92314418  1.0
  O  O243  1  0.43668797  0.54470266  0.83854025  1.0
  O  O244  1  0.81759169  0.36326905  0.75066457  1.0
  O  O245  1  0.80985202  0.49746231  0.72113571  1.0
  O  O246  1  0.15830080  0.72969435  0.88404444  1.0
  O  O247  1  0.75754266  0.90415422  0.85673170  1.0
  O  O248  1  0.80997469  0.00684429  0.81725650  1.0
  O  O249  1  0.24204451  0.58430097  0.80099446  1.0
  O  O250  1  0.01899158  0.35097659  0.74029894  1.0
  O  O251  1  0.00598407  0.45091868  0.67614664  1.0
  O  O252  1  0.08990499  0.65112929  0.39822209  1.0
  O  O253  1  0.21653047  0.64118852  0.35399157  1.0
  O  O254  1  0.30841687  0.64042148  0.57685426  1.0
  O  O255  1  0.45529582  0.56331255  0.66146310  1.0
  O  O256  1  0.63673830  0.18240937  0.74933043  1.0
  O  O257  1  0.50254371  0.19014467  0.77885790  1.0
  O  O258  1  0.27030182  0.84169246  0.61594276  1.0
  O  O259  1  0.09585221  0.24244687  0.64326608  1.0
  O  O260  1  0.99316788  0.19000555  0.68274285  1.0
  O  O261  1  0.41571299  0.75793731  0.69900637  1.0
  O  O262  1  0.64901200  0.98101620  0.75969609  1.0
  O  O263  1  0.54907061  0.99401615  0.82384909  1.0
  O  O264  1  0.65110985  0.08991508  0.89822283  1.0
  O  O265  1  0.64117554  0.21653398  0.85398846  1.0
  O  O266  1  0.64041961  0.30841797  0.07685287  1.0
  O  O267  1  0.56330893  0.45529291  0.16145830  1.0
  O  O268  1  0.18241333  0.63671849  0.24935187  1.0
  O  O269  1  0.19015750  0.50251889  0.27887572  1.0
  O  O270  1  0.84170017  0.27031224  0.11595621  1.0
  O  O271  1  0.24245616  0.09585100  0.14327206  1.0
  O  O272  1  0.19002484  0.99315529  0.18273731  1.0
  O  O273  1  0.75794922  0.41570296  0.19900563  1.0
  O  O274  1  0.98100624  0.64902418  0.25969928  1.0
  O  O275  1  0.99401194  0.54908592  0.32385367  1.0
  O  O276  1  0.91010120  0.34885796  0.60177642  1.0
  O  O277  1  0.78347483  0.35881814  0.64600849  1.0
  O  O278  1  0.69156977  0.35958947  0.42314766  1.0
  O  O279  1  0.54470192  0.43668814  0.33853914  1.0
  O  O280  1  0.36327624  0.81758211  0.25065461  1.0
  O  O281  1  0.49747377  0.80984480  0.22113256  1.0
  O  O282  1  0.72971196  0.15831413  0.38406523  1.0
  O  O283  1  0.90413790  0.75755625  0.35674047  1.0
  O  O284  1  0.00682336  0.80999176  0.31726285  1.0
  O  O285  1  0.58429929  0.24204801  0.30099446  1.0
  O  O286  1  0.35098139  0.01898059  0.24030442  1.0
  O  O287  1  0.45091954  0.00598320  0.17615108  1.0
