# generated using pymatgen
data_AlH12C24(BrO2)3
_symmetry_space_group_name_H-M   'P 1'
_cell_length_a   4.01213780
_cell_length_b   28.62584018
_cell_length_c   28.62579406
_cell_angle_alpha   59.99952232
_cell_angle_beta   89.99959141
_cell_angle_gamma   90.00030562
_symmetry_Int_Tables_number   1
_chemical_formula_structural   AlH12C24(BrO2)3
_chemical_formula_sum   'Al2 H24 C48 Br6 O12'
_cell_volume   2847.21436962
_cell_formula_units_Z   2
loop_
 _symmetry_equiv_pos_site_id
 _symmetry_equiv_pos_as_xyz
  1  'x, y, z'
loop_
 _atom_site_type_symbol
 _atom_site_label
 _atom_site_symmetry_multiplicity
 _atom_site_fract_x
 _atom_site_fract_y
 _atom_site_fract_z
 _atom_site_occupancy
  Al  Al0  1  0.01302546  0.99999824  0.50000042  1.0
  Al  Al1  1  0.01303588  0.66666584  0.16666779  1.0
  H  H2  1  0.47226109  0.51433185  0.30777240  1.0
  H  H3  1  0.48466794  0.41476142  0.35534182  1.0
  H  H4  1  0.50392346  0.42084882  0.20154070  1.0
  H  H5  1  0.50391871  0.24580966  0.46514623  1.0
  H  H6  1  0.48467107  0.25190429  0.31134046  1.0
  H  H7  1  0.47223830  0.15233343  0.35890732  1.0
  H  H8  1  0.50413688  0.33676954  0.27796051  1.0
  H  H9  1  0.50417886  0.32989177  0.38872570  1.0
  H  H10  1  0.47224970  0.80777058  0.17789436  1.0
  H  H11  1  0.48466341  0.85534073  0.22989465  1.0
  H  H12  1  0.50391351  0.70153884  0.37761065  1.0
  H  H13  1  0.50389308  0.96514513  0.28904193  1.0
  H  H14  1  0.48469984  0.81133877  0.43675391  1.0
  H  H15  1  0.47226464  0.85890358  0.48875821  1.0
  H  H16  1  0.50412906  0.77796035  0.38526732  1.0
  H  H17  1  0.50416855  0.88872483  0.28137943  1.0
  H  H18  1  0.47226637  0.67789387  0.01433931  1.0
  H  H19  1  0.48466652  0.72989221  0.91476809  1.0
  H  H20  1  0.50389570  0.87761037  0.92084820  1.0
  H  H21  1  0.50389846  0.78903961  0.74581321  1.0
  H  H22  1  0.48467682  0.93675048  0.75190886  1.0
  H  H23  1  0.47224796  0.98875609  0.65233863  1.0
  H  H24  1  0.50413223  0.88526612  0.83677239  1.0
  H  H25  1  0.50416291  0.78137660  0.82989754  1.0
  C  C26  1  0.50972535  0.95361866  0.58245278  1.0
  C  C27  1  0.50973063  0.08245092  0.46392864  1.0
  C  C28  1  0.50973123  0.96392767  0.45361957  1.0
  C  C29  1  0.50973626  0.58421404  0.20274666  1.0
  C  C30  1  0.50974314  0.70274495  0.21304072  1.0
  C  C31  1  0.50974404  0.71304145  0.08421621  1.0
  C  C32  1  0.49994176  0.52424773  0.22834765  1.0
  C  C33  1  0.48485556  0.49322120  0.28492960  1.0
  C  C34  1  0.49046187  0.43735686  0.31139688  1.0
  C  C35  1  0.50101010  0.40995074  0.28195574  1.0
  C  C36  1  0.50497754  0.44102001  0.22530456  1.0
  C  C37  1  0.50807481  0.49710501  0.19904205  1.0
  C  C38  1  0.50304225  0.35146848  0.30665365  1.0
  C  C39  1  0.50305522  0.31519646  0.36003075  1.0
  C  C40  1  0.50498071  0.22564211  0.44137705  1.0
  C  C41  1  0.50100725  0.25671016  0.38472928  1.0
  C  C42  1  0.49045950  0.22930563  0.35528666  1.0
  C  C43  1  0.48483987  0.17344128  0.38175220  1.0
  C  C44  1  0.49994207  0.14241518  0.43833357  1.0
  C  C45  1  0.50808213  0.16955591  0.46763981  1.0
  C  C46  1  0.49993750  0.72834675  0.24740383  1.0
  C  C47  1  0.48485675  0.78492795  0.22184837  1.0
  C  C48  1  0.49046199  0.81139624  0.25124350  1.0
  C  C49  1  0.50100803  0.78195461  0.30809182  1.0
  C  C50  1  0.50497931  0.72530368  0.33367383  1.0
  C  C51  1  0.50807767  0.69904153  0.30385179  1.0
  C  C52  1  0.50302651  0.80665365  0.34187612  1.0
  C  C53  1  0.50304535  0.86003193  0.32477008  1.0
  C  C54  1  0.50497078  0.94137626  0.33297902  1.0
  C  C55  1  0.50100864  0.88472775  0.35855738  1.0
  C  C56  1  0.49047614  0.85528529  0.41540613  1.0
  C  C57  1  0.48486292  0.88174873  0.44480509  1.0
  C  C58  1  0.49993884  0.93833150  0.41925121  1.0
  C  C59  1  0.50806861  0.96763842  0.36280350  1.0
  C  C60  1  0.49994590  0.74740472  0.02425030  1.0
  C  C61  1  0.48486880  0.72184682  0.99322683  1.0
  C  C62  1  0.49047123  0.75124167  0.93736292  1.0
  C  C63  1  0.50100847  0.80808947  0.90995500  1.0
  C  C64  1  0.50497114  0.83367313  0.94102141  1.0
  C  C65  1  0.50806730  0.80385071  0.99710714  1.0
  C  C66  1  0.50303191  0.84187267  0.85147175  1.0
  C  C67  1  0.50303998  0.82476884  0.81519843  1.0
  C  C68  1  0.50496901  0.83297725  0.72564503  1.0
  C  C69  1  0.50099825  0.85855487  0.75671552  1.0
  C  C70  1  0.49046942  0.91540506  0.72930921  1.0
  C  C71  1  0.48484840  0.94480313  0.67344649  1.0
  C  C72  1  0.49993543  0.91925014  0.64241713  1.0
  C  C73  1  0.50806905  0.86280331  0.66955713  1.0
  Br  Br74  1  0.49874573  0.53522018  0.12230941  1.0
  Br  Br75  1  0.49880268  0.13143427  0.54437639  1.0
  Br  Br76  1  0.49874432  0.62230869  0.34246998  1.0
  Br  Br77  1  0.49873430  0.04437400  0.32418668  1.0
  Br  Br78  1  0.49869365  0.84247234  0.03521929  1.0
  Br  Br79  1  0.49877001  0.82418815  0.63143694  1.0
  O  O80  1  0.75047895  0.99570239  0.44649818  1.0
  O  O81  1  0.75047529  0.94649816  0.55779817  1.0
  O  O82  1  0.75047636  0.05779650  0.49570367  1.0
  O  O83  1  0.27940404  0.95094739  0.48865476  1.0
  O  O84  1  0.27941693  0.06039449  0.45094899  1.0
  O  O85  1  0.27940044  0.98865316  0.56039799  1.0
  O  O86  1  0.75050049  0.72016478  0.10886706  1.0
  O  O87  1  0.75049195  0.60886523  0.17097055  1.0
  O  O88  1  0.75049185  0.67096862  0.22016442  1.0
  O  O89  1  0.27942674  0.67800414  0.10627473  1.0
  O  O90  1  0.27942315  0.71572241  0.17800542  1.0
  O  O91  1  0.27941773  0.60627046  0.21572480  1.0
