# generated using pymatgen
data_ZnH8C14SO10
_symmetry_space_group_name_H-M   'P 1'
_cell_length_a   8.16696333
_cell_length_b   13.12409478
_cell_length_c   35.17938973
_cell_angle_alpha   90.90160395
_cell_angle_beta   89.75051924
_cell_angle_gamma   89.56317173
_symmetry_Int_Tables_number   1
_chemical_formula_structural   ZnH8C14SO10
_chemical_formula_sum   'Zn4 H32 C56 S4 O40'
_cell_volume   3770.05357787
_cell_formula_units_Z   4
loop_
 _symmetry_equiv_pos_site_id
 _symmetry_equiv_pos_as_xyz
  1  'x, y, z'
loop_
 _atom_site_type_symbol
 _atom_site_label
 _atom_site_symmetry_multiplicity
 _atom_site_fract_x
 _atom_site_fract_y
 _atom_site_fract_z
 _atom_site_occupancy
  Zn  Zn0  1  0.33136390  0.98896892  0.50067999  1.0
  Zn  Zn1  1  0.65060234  0.01086885  0.49981435  1.0
  Zn  Zn2  1  0.76249205  0.98400892  0.99913928  1.0
  Zn  Zn3  1  0.44106076  0.00797082  0.00028387  1.0
  H  H4  1  0.31848325  0.01000248  0.12223177  1.0
  H  H5  1  0.32004918  0.00360116  0.19137835  1.0
  H  H6  1  0.84897730  0.98420912  0.18860111  1.0
  H  H7  1  0.23004903  0.98472044  0.31089288  1.0
  H  H8  1  0.75861048  0.00384395  0.30844182  1.0
  H  H9  1  0.75967773  0.01120857  0.37763620  1.0
  H  H10  1  0.72778664  0.99294746  0.24749161  1.0
  H  H11  1  0.35134804  0.99213284  0.25211974  1.0
  H  H12  1  0.33606626  0.99658363  0.87922662  1.0
  H  H13  1  0.33049682  0.00810377  0.81032720  1.0
  H  H14  1  0.86042597  0.01132495  0.80883305  1.0
  H  H15  1  0.22703534  0.01395298  0.69176499  1.0
  H  H16  1  0.75705104  0.00946455  0.68976519  1.0
  H  H17  1  0.75051553  0.99996817  0.62069713  1.0
  H  H18  1  0.73245981  0.01254140  0.75094298  1.0
  H  H19  1  0.35567552  0.01259600  0.74946360  1.0
  H  H20  1  0.85986377  0.08198788  0.07267524  1.0
  H  H21  1  0.21732978  0.08462503  0.42781590  1.0
  H  H22  1  0.87007379  0.89855406  0.92175494  1.0
  H  H23  1  0.21819093  0.90386728  0.57708410  1.0
  H  H24  1  0.06820756  0.32046101  0.47419062  1.0
  H  H25  1  0.09179766  0.54544751  0.47477623  1.0
  H  H26  1  0.20303991  0.73433488  0.48446903  1.0
  H  H27  1  0.86810883  0.67564706  0.51596756  1.0
  H  H28  1  0.84405350  0.45345337  0.51536702  1.0
  H  H29  1  0.72924824  0.26521992  0.50607490  1.0
  H  H30  1  0.03687818  0.31882722  0.02653595  1.0
  H  H31  1  0.00878039  0.54344832  0.02524290  1.0
  H  H32  1  0.89421911  0.73132610  0.01503715  1.0
  H  H33  1  0.22948323  0.67065794  0.98421889  1.0
  H  H34  1  0.25766376  0.44854742  0.98546747  1.0
  H  H35  1  0.37719102  0.26090936  0.99469723  1.0
  C  C36  1  0.45348139  0.80447388  0.49411769  1.0
  C  C37  1  0.51504011  0.01224224  0.42663778  1.0
  C  C38  1  0.47332430  0.19548247  0.50415493  1.0
  C  C39  1  0.49990268  0.98746505  0.57389908  1.0
  C  C40  1  0.64203069  0.80102461  0.00513266  1.0
  C  C41  1  0.56351666  0.01034272  0.07319830  1.0
  C  C42  1  0.63428393  0.19074563  0.99721264  1.0
  C  C43  1  0.58639476  0.98260696  0.92604966  1.0
  C  C44  1  0.57963005  0.00164115  0.11512525  1.0
  C  C45  1  0.43502289  0.00439480  0.13692420  1.0
  C  C46  1  0.43680004  0.00073479  0.17628994  1.0
  C  C47  1  0.58621077  0.99453153  0.19595362  1.0
  C  C48  1  0.73144807  0.99017720  0.17425863  1.0
  C  C49  1  0.73046256  0.99319251  0.13482181  1.0
  C  C50  1  0.60179656  0.99340038  0.23709523  1.0
  C  C51  1  0.47726499  0.99319325  0.26255129  1.0
  C  C52  1  0.34734658  0.99087038  0.32533664  1.0
  C  C53  1  0.49261698  0.99482297  0.30371379  1.0
  C  C54  1  0.64181996  0.00125278  0.32347341  1.0
  C  C55  1  0.64331700  0.00549432  0.36286863  1.0
  C  C56  1  0.49867624  0.00319435  0.38461473  1.0
  C  C57  1  0.34816845  0.99452523  0.36481872  1.0
  C  C58  1  0.59827359  0.99526782  0.88419038  1.0
  C  C59  1  0.45125446  0.99970155  0.86367332  1.0
  C  C60  1  0.44902364  0.00620653  0.82437896  1.0
  C  C61  1  0.59652108  0.00917091  0.80356056  1.0
  C  C62  1  0.74421321  0.00743610  0.82403365  1.0
  C  C63  1  0.74706226  0.00054264  0.86335320  1.0
  C  C64  1  0.60773696  0.01223058  0.76236304  1.0
  C  C65  1  0.48029576  0.01271701  0.73798013  1.0
  C  C66  1  0.34304021  0.01036636  0.67638526  1.0
  C  C67  1  0.49105207  0.01108857  0.69674501  1.0
  C  C68  1  0.63832820  0.00834124  0.67577525  1.0
  C  C69  1  0.63551695  0.00295247  0.63639437  1.0
  C  C70  1  0.48819169  0.99935990  0.61593739  1.0
  C  C71  1  0.33965813  0.00444422  0.63697140  1.0
  C  C72  1  0.35741211  0.62481141  0.49081421  1.0
  C  C73  1  0.64611451  0.65708185  0.50398394  1.0
  C  C74  1  0.67381351  0.55300399  0.50700126  1.0
  C  C75  1  0.54720047  0.48125233  0.50069115  1.0
  C  C76  1  0.57428506  0.37439235  0.50237400  1.0
  C  C77  1  0.28608591  0.34221743  0.48933442  1.0
  C  C78  1  0.25897951  0.44594262  0.48525171  1.0
  C  C79  1  0.38492179  0.51795289  0.49219685  1.0
  C  C80  1  0.48570137  0.69505639  0.49601088  1.0
  C  C81  1  0.44449973  0.30466566  0.49875509  1.0
  C  C82  1  0.74157082  0.62156318  0.00907157  1.0
  C  C83  1  0.45218695  0.65289999  0.99592607  1.0
  C  C84  1  0.42637155  0.54854623  0.99331842  1.0
  C  C85  1  0.55449134  0.47721253  0.99974870  1.0
  C  C86  1  0.52962050  0.37021222  0.99837561  1.0
  C  C87  1  0.81839120  0.33905389  0.01149007  1.0
  C  C88  1  0.84337855  0.44318260  0.01521245  1.0
  C  C89  1  0.71605728  0.51464105  0.00808043  1.0
  C  C90  1  0.61201026  0.69147514  0.00360505  1.0
  C  C91  1  0.66079016  0.30057647  0.00225622  1.0
  S  S92  1  0.93178443  0.98011581  0.11396048  1.0
  S  S93  1  0.14739544  0.98187721  0.38563855  1.0
  S  S94  1  0.94957358  0.00444960  0.88322429  1.0
  S  S95  1  0.13672514  0.00860406  0.61732660  1.0
  O  O96  1  0.30226563  0.83778994  0.49122509  1.0
  O  O97  1  0.57180625  0.86665013  0.49557474  1.0
  O  O98  1  0.65612608  0.00485867  0.44165139  1.0
  O  O99  1  0.38309250  0.02931121  0.44622286  1.0
  O  O100  1  0.62449153  0.16302832  0.50077716  1.0
  O  O101  1  0.35471442  0.13730313  0.51227607  1.0
  O  O102  1  0.37311253  0.95383958  0.55598710  1.0
  O  O103  1  0.63417198  0.00920458  0.55741586  1.0
  O  O104  1  0.79300813  0.83433670  0.00759032  1.0
  O  O105  1  0.52258306  0.86322233  0.00388644  1.0
  O  O106  1  0.42256884  0.00364004  0.05789271  1.0
  O  O107  1  0.69507256  0.02637172  0.05381961  1.0
  O  O108  1  0.48372807  0.15907955  0.00001356  1.0
  O  O109  1  0.75539889  0.13175499  0.98987806  1.0
  O  O110  1  0.71312463  0.94788290  0.94350817  1.0
  O  O111  1  0.45176539  0.00508643  0.94285507  1.0
  O  O112  1  0.95244419  0.08354937  0.09147804  1.0
  O  O113  1  0.04964213  0.98550777  0.14423723  1.0
  O  O114  1  0.93405668  0.89377356  0.08819450  1.0
  O  O115  1  0.12457659  0.08583688  0.40905929  1.0
  O  O116  1  0.02926251  0.98674061  0.35544044  1.0
  O  O117  1  0.14739776  0.89610519  0.41065964  1.0
  O  O118  1  0.96436262  0.89654739  0.90288394  1.0
  O  O119  1  0.06572578  0.00183293  0.85230235  1.0
  O  O120  1  0.95678182  0.08526404  0.91131495  1.0
  O  O121  1  0.12465784  0.90113132  0.59610627  1.0
  O  O122  1  0.02111354  0.00510744  0.64829421  1.0
  O  O123  1  0.12678216  0.08995853  0.59041864  1.0
  O  O124  1  0.16027401  0.27708061  0.48188812  1.0
  O  O125  1  0.10461726  0.47071178  0.47336347  1.0
  O  O126  1  0.20105922  0.65746427  0.48430140  1.0
  O  O127  1  0.77511959  0.72054086  0.51005751  1.0
  O  O128  1  0.83059267  0.52808837  0.51708180  1.0
  O  O129  1  0.73139802  0.34176478  0.50815634  1.0
  O  O130  1  0.94577353  0.27469454  0.01900696  1.0
  O  O131  1  0.99743523  0.46890133  0.02689777  1.0
  O  O132  1  0.89735203  0.65454044  0.01546915  1.0
  O  O133  1  0.32185127  0.71597473  0.98978391  1.0
  O  O134  1  0.26973582  0.52296048  0.98356481  1.0
  O  O135  1  0.37318675  0.33730042  0.99263909  1.0
