# generated using pymatgen
data_CuH15C16N3O5
_symmetry_space_group_name_H-M   'P 1'
_cell_length_a   9.97985008
_cell_length_b   20.56454571
_cell_length_c   21.32063719
_cell_angle_alpha   86.97082808
_cell_angle_beta   76.45985868
_cell_angle_gamma   75.94817045
_symmetry_Int_Tables_number   1
_chemical_formula_structural   CuH15C16N3O5
_chemical_formula_sum   'Cu8 H120 C128 N24 O40'
_cell_volume   4126.70801995
_cell_formula_units_Z   8
loop_
 _symmetry_equiv_pos_site_id
 _symmetry_equiv_pos_as_xyz
  1  'x, y, z'
loop_
 _atom_site_type_symbol
 _atom_site_label
 _atom_site_symmetry_multiplicity
 _atom_site_fract_x
 _atom_site_fract_y
 _atom_site_fract_z
 _atom_site_occupancy
  Cu  Cu0  1  0.51860130  0.76731247  0.91489644  1.0
  Cu  Cu1  1  0.71921540  0.57822353  0.76625168  1.0
  Cu  Cu2  1  0.70090582  0.73266585  0.58508023  1.0
  Cu  Cu3  1  0.56365397  0.92173325  0.73373902  1.0
  Cu  Cu4  1  0.48140194  0.23268713  0.08510289  1.0
  Cu  Cu5  1  0.28079400  0.42177406  0.23375083  1.0
  Cu  Cu6  1  0.29910287  0.26733726  0.41492161  1.0
  Cu  Cu7  1  0.43634750  0.07826986  0.26625939  1.0
  H  H8  1  0.80936020  0.90351083  0.02754371  1.0
  H  H9  1  0.23329979  0.85354333  0.88908664  1.0
  H  H10  1  0.99480265  0.91530259  0.94909887  1.0
  H  H11  1  0.15475931  0.88405518  0.12267240  1.0
  H  H12  1  0.38887348  0.82078100  0.05414531  1.0
  H  H13  1  0.69842293  0.30769550  0.03062401  1.0
  H  H14  1  0.71324937  0.41067872  0.96319416  1.0
  H  H15  1  0.50376697  0.46869922  0.91798028  1.0
  H  H16  1  0.28787988  0.31940460  0.01295424  1.0
  H  H17  1  0.28803745  0.46760184  0.90236000  1.0
  H  H18  1  0.91877690  0.60802445  0.84525888  1.0
  H  H19  1  0.08788242  0.55126828  0.91178885  1.0
  H  H20  1  0.96583953  0.36778926  0.88870252  1.0
  H  H21  1  0.80147438  0.43343971  0.82115508  1.0
  H  H22  1  0.14569859  0.60740007  0.65921535  1.0
  H  H23  1  0.09487597  0.67450145  0.71565912  1.0
  H  H24  1  0.19918826  0.68311483  0.63691309  1.0
  H  H25  1  0.02290914  0.78851060  0.61256871  1.0
  H  H26  1  0.93488549  0.78331424  0.69520883  1.0
  H  H27  1  0.83735447  0.79119978  0.63491775  1.0
  H  H28  1  0.27331670  0.02336347  0.19291668  1.0
  H  H29  1  0.32341000  0.96250388  0.08793473  1.0
  H  H30  1  0.57728136  0.92001155  0.02825308  1.0
  H  H31  1  0.70211534  0.00507988  0.18038277  1.0
  H  H32  1  0.20110562  0.65566098  0.88649870  1.0
  H  H33  1  0.16891498  0.63276513  0.81335069  1.0
  H  H34  1  0.19290162  0.71453455  0.82262132  1.0
  H  H35  1  0.37224033  0.69403343  0.71792850  1.0
  H  H36  1  0.36850668  0.60830801  0.71147899  1.0
  H  H37  1  0.53120227  0.63127720  0.70958834  1.0
  H  H38  1  0.24034780  0.59648901  0.47245412  1.0
  H  H39  1  0.47571105  0.64647417  0.61088656  1.0
  H  H40  1  0.35907304  0.58469967  0.55088757  1.0
  H  H41  1  0.66138031  0.61592965  0.37730771  1.0
  H  H42  1  0.76374208  0.67913541  0.44583399  1.0
  H  H43  1  0.53657199  0.19230329  0.46940454  1.0
  H  H44  1  0.58698023  0.08931936  0.53679109  1.0
  H  H45  1  0.39036741  0.03129148  0.58202243  1.0
  H  H46  1  0.12005692  0.18061796  0.48710100  1.0
  H  H47  1  0.15797436  0.03237998  0.59766127  1.0
  H  H48  1  0.87218557  0.89191080  0.65475873  1.0
  H  H49  1  0.05099282  0.94867425  0.58813626  1.0
  H  H50  1  0.72228013  0.13214794  0.61135812  1.0
  H  H51  1  0.55605496  0.06649348  0.67889360  1.0
  H  H52  1  0.91223343  0.89253367  0.84078491  1.0
  H  H53  1  0.98503379  0.82543443  0.78434343  1.0
  H  H54  1  0.01912750  0.81682011  0.86309736  1.0
  H  H55  1  0.92392118  0.71144708  0.88746077  1.0
  H  H56  1  0.91341393  0.71662777  0.80481612  1.0
  H  H57  1  0.76342707  0.70874547  0.86509107  1.0
  H  H58  1  0.98957493  0.47668133  0.30711380  1.0
  H  H59  1  0.87384201  0.53753662  0.41209214  1.0
  H  H60  1  0.02557973  0.58003349  0.47173648  1.0
  H  H61  1  0.38760827  0.49491724  0.31959673  1.0
  H  H62  1  0.24334407  0.84433201  0.61345124  1.0
  H  H63  1  0.11510045  0.86723285  0.68660680  1.0
  H  H64  1  0.23016076  0.78546480  0.67733478  1.0
  H  H65  1  0.28417900  0.80599566  0.78203145  1.0
  H  H66  1  0.18822740  0.89171965  0.78847223  1.0
  H  H67  1  0.37200822  0.86874466  0.79036165  1.0
  H  H68  1  0.19063867  0.09648927  0.97245514  1.0
  H  H69  1  0.76670011  0.14645677  0.11091256  1.0
  H  H70  1  0.00519646  0.08469701  0.05090092  1.0
  H  H71  1  0.84523903  0.11594392  0.87732749  1.0
  H  H72  1  0.61112461  0.17921859  0.94585459  1.0
  H  H73  1  0.30157878  0.69230510  0.96937591  1.0
  H  H74  1  0.28674950  0.58932138  0.03680562  1.0
  H  H75  1  0.49623215  0.53130038  0.08201950  1.0
  H  H76  1  0.71212027  0.68059500  0.98704543  1.0
  H  H77  1  0.71196142  0.53239826  0.09764025  1.0
  H  H78  1  0.08122197  0.39197565  0.15474231  1.0
  H  H79  1  0.91211772  0.44873132  0.08821223  1.0
  H  H80  1  0.03416140  0.63221084  0.11129798  1.0
  H  H81  1  0.19852449  0.56656039  0.17884611  1.0
  H  H82  1  0.85430131  0.39260003  0.34078385  1.0
  H  H83  1  0.90512290  0.32549865  0.28433972  1.0
  H  H84  1  0.80081292  0.31688477  0.36308600  1.0
  H  H85  1  0.97709050  0.21149000  0.38743143  1.0
  H  H86  1  0.06511466  0.21668536  0.30479084  1.0
  H  H87  1  0.16264620  0.20880082  0.36508228  1.0
  H  H88  1  0.72668344  0.97663613  0.80708300  1.0
  H  H89  1  0.67658733  0.03749722  0.91206423  1.0
  H  H90  1  0.42271676  0.07999006  0.97174530  1.0
  H  H91  1  0.29788533  0.99492071  0.81961492  1.0
  H  H92  1  0.79889300  0.34433962  0.11350155  1.0
  H  H93  1  0.83108570  0.36723547  0.18664981  1.0
  H  H94  1  0.80709674  0.28546655  0.17737894  1.0
  H  H95  1  0.62775981  0.30596617  0.28207164  1.0
  H  H96  1  0.63149425  0.39169209  0.28852150  1.0
  H  H97  1  0.46879840  0.36872340  0.29041216  1.0
  H  H98  1  0.75965131  0.40351059  0.52754754  1.0
  H  H99  1  0.52428910  0.35352542  0.38911358  1.0
  H  H100  1  0.64092377  0.41530043  0.44911291  1.0
  H  H101  1  0.33861830  0.38407095  0.62269255  1.0
  H  H102  1  0.23625447  0.32086519  0.55416743  1.0
  H  H103  1  0.46343072  0.80769531  0.53059537  1.0
  H  H104  1  0.41302043  0.91067924  0.46320998  1.0
  H  H105  1  0.60963043  0.96870862  0.41798075  1.0
  H  H106  1  0.87994297  0.81938214  0.51290149  1.0
  H  H107  1  0.84202245  0.96762012  0.40234061  1.0
  H  H108  1  0.12781407  0.10808980  0.34524142  1.0
  H  H109  1  0.94900555  0.05132685  0.41186446  1.0
  H  H110  1  0.27771642  0.86785266  0.38864283  1.0
  H  H111  1  0.44394287  0.93350662  0.32110677  1.0
  H  H112  1  0.08776441  0.10746643  0.15921546  1.0
  H  H113  1  0.01496508  0.17456567  0.21565682  1.0
  H  H114  1  0.98087215  0.18318050  0.13690278  1.0
  H  H115  1  0.07607872  0.28855302  0.11253843  1.0
  H  H116  1  0.08658597  0.28337232  0.19518308  1.0
  H  H117  1  0.23657307  0.29125413  0.13490767  1.0
  H  H118  1  0.01042729  0.52331826  0.69288470  1.0
  H  H119  1  0.12616020  0.46246298  0.58790731  1.0
  H  H120  1  0.97442091  0.41996511  0.52826460  1.0
  H  H121  1  0.61239471  0.50508285  0.68040308  1.0
  H  H122  1  0.75665633  0.15566708  0.38654843  1.0
  H  H123  1  0.88489970  0.13276675  0.31339287  1.0
  H  H124  1  0.76983963  0.21453430  0.32266489  1.0
  H  H125  1  0.71582218  0.19400394  0.21796905  1.0
  H  H126  1  0.81177378  0.10827995  0.21152780  1.0
  H  H127  1  0.62799373  0.13125544  0.20963733  1.0
  C  C128  1  0.00176987  0.67272562  0.56798389  1.0
  C  C129  1  0.97813399  0.69136454  0.64011562  1.0
  C  C130  1  0.85142258  0.66513333  0.67896064  1.0
  C  C131  1  0.21138186  0.86107913  0.94098661  1.0
  C  C132  1  0.07814857  0.89569393  0.97487240  1.0
  C  C133  1  0.05613591  0.90379540  0.04147888  1.0
  C  C134  1  0.91923528  0.94106132  0.08360346  1.0
  C  C135  1  0.65939980  0.95909872  0.09985138  1.0
  C  C136  1  0.16940650  0.87743556  0.07091996  1.0
  C  C137  1  0.29800868  0.84285108  0.03330422  1.0
  C  C138  1  0.61052171  0.33480644  0.01025193  1.0
  C  C139  1  0.61725515  0.39196771  0.97288738  1.0
  C  C140  1  0.50134026  0.42443917  0.94837800  1.0
  C  C141  1  0.37939436  0.39862136  0.96221690  1.0
  C  C142  1  0.37943462  0.34114928  0.00099991  1.0
  C  C143  1  0.47393419  0.67571414  0.83186737  1.0
  C  C144  1  0.93269841  0.55479435  0.85590844  1.0
  C  C145  1  0.02722068  0.52273326  0.89293857  1.0
  C  C146  1  0.04097643  0.45419752  0.90465197  1.0
  C  C147  1  0.13756295  0.41411431  0.94438224  1.0
  C  C148  1  0.95781822  0.42107499  0.87943486  1.0
  C  C149  1  0.86742512  0.45710294  0.84239922  1.0
  C  C150  1  0.11229680  0.66205884  0.66456538  1.0
  C  C151  1  0.94077720  0.76843679  0.64578339  1.0
  C  C152  1  0.38117034  0.00421447  0.16522034  1.0
  C  C153  1  0.41042995  0.97035117  0.10699741  1.0
  C  C154  1  0.55031160  0.94749811  0.07364251  1.0
  C  C155  1  0.62186232  0.99456422  0.15846015  1.0
  C  C156  1  0.43637676  0.56068034  0.82229862  1.0
  C  C157  1  0.38659646  0.63587824  0.80556722  1.0
  C  C158  1  0.22792236  0.66137966  0.83394642  1.0
  C  C159  1  0.41703632  0.64252497  0.73147712  1.0
  C  C160  1  0.74229814  0.82725958  0.93198984  1.0
  C  C161  1  0.80951477  0.80857684  0.85987157  1.0
  C  C162  1  0.69548365  0.83477943  0.82099507  1.0
  C  C163  1  0.51320816  0.63893625  0.55898260  1.0
  C  C164  1  0.44857668  0.60429633  0.52509749  1.0
  C  C165  1  0.50127018  0.59619778  0.45849100  1.0
  C  C166  1  0.44379576  0.55895655  0.41634781  1.0
  C  C167  1  0.21832586  0.54091441  0.40012472  1.0
  C  C168  1  0.61757476  0.62256294  0.42904952  1.0
  C  C169  1  0.67404372  0.65709952  0.46666511  1.0
  C  C170  1  0.45538870  0.16521070  0.48977721  1.0
  C  C171  1  0.48193686  0.10804081  0.52712870  1.0
  C  C172  1  0.37402684  0.07557033  0.55165761  1.0
  C  C173  1  0.24007102  0.10139975  0.53784779  1.0
  C  C174  1  0.22139885  0.15886567  0.49905790  1.0
  C  C175  1  0.48151579  0.82422950  0.66815620  1.0
  C  C176  1  0.84348878  0.94513697  0.64409707  1.0
  C  C177  1  0.94291634  0.97719288  0.60700689  1.0
  C  C178  1  0.89978746  0.04573921  0.59534134  1.0
  C  C179  1  0.99594847  0.08587383  0.55566744  1.0
  C  C180  1  0.75829853  0.07885609  0.62060953  1.0
  C  C181  1  0.66692748  0.04282578  0.65764920  1.0
  C  C182  1  0.93884479  0.83787516  0.83543333  1.0
  C  C183  1  0.85495065  0.73150378  0.85423805  1.0
  C  C184  1  0.05058793  0.49583319  0.33479282  1.0
  C  C185  1  0.98777663  0.52967588  0.39301962  1.0
  C  C186  1  0.07143459  0.55255419  0.42634164  1.0
  C  C187  1  0.27489941  0.50543262  0.34152897  1.0
  C  C188  1  0.31942236  0.93929533  0.67759775  1.0
  C  C189  1  0.32807689  0.86411295  0.69438153  1.0
  C  C190  1  0.22333527  0.83861306  0.66600127  1.0
  C  C191  1  0.29099415  0.85750108  0.76847183  1.0
  C  C192  1  0.99824134  0.32727247  0.43201558  1.0
  C  C193  1  0.02187313  0.30863556  0.35988279  1.0
  C  C194  1  0.14858503  0.33486577  0.32104152  1.0
  C  C195  1  0.78861803  0.13892097  0.05901307  1.0
  C  C196  1  0.92184977  0.10430517  0.02512796  1.0
  C  C197  1  0.94386192  0.09620470  0.95852102  1.0
  C  C198  1  0.08076202  0.05893777  0.91639608  1.0
  C  C199  1  0.34059882  0.04090188  0.90014653  1.0
  C  C200  1  0.83059337  0.12256254  0.92907982  1.0
  C  C201  1  0.70198991  0.15714752  0.96669520  1.0
  C  C202  1  0.38947947  0.66519315  0.98974716  1.0
  C  C203  1  0.38274372  0.60803239  0.02711240  1.0
  C  C204  1  0.49865886  0.57556043  0.05162225  1.0
  C  C205  1  0.62060501  0.60137773  0.03778288  1.0
  C  C206  1  0.62056528  0.65885082  0.99899976  1.0
  C  C207  1  0.52606698  0.32428546  0.16813266  1.0
  C  C208  1  0.06729839  0.44520575  0.14409251  1.0
  C  C209  1  0.97277946  0.47726634  0.10706204  1.0
  C  C210  1  0.95902500  0.54580158  0.09534759  1.0
  C  C211  1  0.86243848  0.58588479  0.05561685  1.0
  C  C212  1  0.04218167  0.57892511  0.12056528  1.0
  C  C213  1  0.13257297  0.54289666  0.15760161  1.0
  C  C214  1  0.88770541  0.33794076  0.33543359  1.0
  C  C215  1  0.05922450  0.23156381  0.35421606  1.0
  C  C216  1  0.61882955  0.99578563  0.83477840  1.0
  C  C217  1  0.58956841  0.02964993  0.89300144  1.0
  C  C218  1  0.44968574  0.05250299  0.92635551  1.0
  C  C219  1  0.37813733  0.00543638  0.84153718  1.0
  C  C220  1  0.56362313  0.43931976  0.17770152  1.0
  C  C221  1  0.61340422  0.36412236  0.19443281  1.0
  C  C222  1  0.77207831  0.33862094  0.16605361  1.0
  C  C223  1  0.58296383  0.35747463  0.26852255  1.0
  C  C224  1  0.25770022  0.17274152  0.06801042  1.0
  C  C225  1  0.19048513  0.19142326  0.14012763  1.0
  C  C226  1  0.30451392  0.16522117  0.17900249  1.0
  C  C227  1  0.48678837  0.36106234  0.44101752  1.0
  C  C228  1  0.55142038  0.39570327  0.47490299  1.0
  C  C229  1  0.49872766  0.40380232  0.54151030  1.0
  C  C230  1  0.55620235  0.44104505  0.58365292  1.0
  C  C231  1  0.78167584  0.45908619  0.59987567  1.0
  C  C232  1  0.38242333  0.37743665  0.57095037  1.0
  C  C233  1  0.32595334  0.34290008  0.53333443  1.0
  C  C234  1  0.54461016  0.83478940  0.51022258  1.0
  C  C235  1  0.51806227  0.89195878  0.47287014  1.0
  C  C236  1  0.62597306  0.92442977  0.44834488  1.0
  C  C237  1  0.75992941  0.89860135  0.46215365  1.0
  C  C238  1  0.77860210  0.84113643  0.50094296  1.0
  C  C239  1  0.51847873  0.17577311  0.33184487  1.0
  C  C240  1  0.15650881  0.05486363  0.35590283  1.0
  C  C241  1  0.05708227  0.02280772  0.39299384  1.0
  C  C242  1  0.10021090  0.95426190  0.40466173  1.0
  C  C243  1  0.00405168  0.91412576  0.44433317  1.0
  C  C244  1  0.24169852  0.92114351  0.37939095  1.0
  C  C245  1  0.33306906  0.95717482  0.34235129  1.0
  C  C246  1  0.06115486  0.16212544  0.16456634  1.0
  C  C247  1  0.14504925  0.26849631  0.14576162  1.0
  C  C248  1  0.94941197  0.50416691  0.66520591  1.0
  C  C249  1  0.01222584  0.47032321  0.60697982  1.0
  C  C250  1  0.92856787  0.44744490  0.57365874  1.0
  C  C251  1  0.72510229  0.49456798  0.65847095  1.0
  C  C252  1  0.68057472  0.06070627  0.32240122  1.0
  C  C253  1  0.67192019  0.13588865  0.30561884  1.0
  C  C254  1  0.77666487  0.16138653  0.33399887  1.0
  C  C255  1  0.70900575  0.14249902  0.23152831  1.0
  N  N256  1  0.79948020  0.93384566  0.06663432  1.0
  N  N257  1  0.48559510  0.01645739  0.18950334  1.0
  N  N258  1  0.31895749  0.83454447  0.96928457  1.0
  N  N259  1  0.49304831  0.31070677  0.02402878  1.0
  N  N260  1  0.26558830  0.43068258  0.93555463  1.0
  N  N261  1  0.85509918  0.52295028  0.83059561  1.0
  N  N262  1  0.29988829  0.56615221  0.43334969  1.0
  N  N263  1  0.19154717  0.48356504  0.31049657  1.0
  N  N264  1  0.62262825  0.66542826  0.53068439  1.0
  N  N265  1  0.32758863  0.18931253  0.47600736  1.0
  N  N266  1  0.13170572  0.06933075  0.56450642  1.0
  N  N267  1  0.70870191  0.97697589  0.66943333  1.0
  N  N268  1  0.20051867  0.06615444  0.93336453  1.0
  N  N269  1  0.51440533  0.98354371  0.81049434  1.0
  N  N270  1  0.68104162  0.16545513  0.03071522  1.0
  N  N271  1  0.50695261  0.68929332  0.97597078  1.0
  N  N272  1  0.73441057  0.56931752  0.06444562  1.0
  N  N273  1  0.14489891  0.47704932  0.16940522  1.0
  N  N274  1  0.70011161  0.43384788  0.56665092  1.0
  N  N275  1  0.80845504  0.51643455  0.68950428  1.0
  N  N276  1  0.37737085  0.33456933  0.46931550  1.0
  N  N277  1  0.67241079  0.81069058  0.52399268  1.0
  N  N278  1  0.86829263  0.93067035  0.43549525  1.0
  N  N279  1  0.29129696  0.02302421  0.33056645  1.0
  O  O280  1  0.90108528  0.69636064  0.53865261  1.0
  O  O281  1  0.73605440  0.67618894  0.65989435  1.0
  O  O282  1  0.92060101  0.97432651  0.13020931  1.0
  O  O283  1  0.40675097  0.72839149  0.86473592  1.0
  O  O284  1  0.60847698  0.65559472  0.82170287  1.0
  O  O285  1  0.86722612  0.63131544  0.72959209  1.0
  O  O286  1  0.34633186  0.53206273  0.85549486  1.0
  O  O287  1  0.11944984  0.63667618  0.54062844  1.0
  O  O288  1  0.10012776  0.36947774  0.98069443  1.0
  O  O289  1  0.56708542  0.53020671  0.80019996  1.0
  O  O290  1  0.63590420  0.80364927  0.96131721  1.0
  O  O291  1  0.57210593  0.82372371  0.84005052  1.0
  O  O292  1  0.52507137  0.52574022  0.36971022  1.0
  O  O293  1  0.49991971  0.77156860  0.63526271  1.0
  O  O294  1  0.58574091  0.84431547  0.67837588  1.0
  O  O295  1  0.72812367  0.86860293  0.77037780  1.0
  O  O296  1  0.23400534  0.96789728  0.64436889  1.0
  O  O297  1  0.79650954  0.86333732  0.95932795  1.0
  O  O298  1  0.95018552  0.13052972  0.51936434  1.0
  O  O299  1  0.39749802  0.96977311  0.69971875  1.0
  O  O300  1  0.09892980  0.30363795  0.46134407  1.0
  O  O301  1  0.26395268  0.32380915  0.34010980  1.0
  O  O302  1  0.07939786  0.02567359  0.86978954  1.0
  O  O303  1  0.59324868  0.27160911  0.13526422  1.0
  O  O304  1  0.39152341  0.34440438  0.17829821  1.0
  O  O305  1  0.13277944  0.36868366  0.27041076  1.0
  O  O306  1  0.65366828  0.46793686  0.14450575  1.0
  O  O307  1  0.88056085  0.36332091  0.45936926  1.0
  O  O308  1  0.89987366  0.63052135  0.01930466  1.0
  O  O309  1  0.43291654  0.46979339  0.19980042  1.0
  O  O310  1  0.36409287  0.19635234  0.03868223  1.0
  O  O311  1  0.42789343  0.17627539  0.15994833  1.0
  O  O312  1  0.47492803  0.47426088  0.63029039  1.0
  O  O313  1  0.50006577  0.22843350  0.36473985  1.0
  O  O314  1  0.41425283  0.15568663  0.32162624  1.0
  O  O315  1  0.27187597  0.13139766  0.22961953  1.0
  O  O316  1  0.76599303  0.03210382  0.35562949  1.0
  O  O317  1  0.20348804  0.13666329  0.04067289  1.0
  O  O318  1  0.04981360  0.86946987  0.48063638  1.0
  O  O319  1  0.60250240  0.03022799  0.30027988  1.0
