# generated using pymatgen
data_Zn4H30C54O13
_symmetry_space_group_name_H-M   'P 1'
_cell_length_a   19.51048789
_cell_length_b   19.51047668
_cell_length_c   31.79845257
_cell_angle_alpha   105.86076148
_cell_angle_beta   105.86082876
_cell_angle_gamma   94.22329511
_symmetry_Int_Tables_number   1
_chemical_formula_structural   Zn4H30C54O13
_chemical_formula_sum   'Zn16 H120 C216 O52'
_cell_volume   11055.38900889
_cell_formula_units_Z   4
loop_
 _symmetry_equiv_pos_site_id
 _symmetry_equiv_pos_as_xyz
  1  'x, y, z'
loop_
 _atom_site_type_symbol
 _atom_site_label
 _atom_site_symmetry_multiplicity
 _atom_site_fract_x
 _atom_site_fract_y
 _atom_site_fract_z
 _atom_site_occupancy
  Zn  Zn0  1  0.75452941  0.53156882  0.65117119  1.0
  Zn  Zn1  1  0.60732566  0.44610951  0.57322810  1.0
  Zn  Zn2  1  0.68314503  0.37993015  0.65248846  1.0
  Zn  Zn3  1  0.75600178  0.38704966  0.57386881  1.0
  Zn  Zn4  1  0.53156809  0.75452898  0.15117112  1.0
  Zn  Zn5  1  0.44611079  0.60732719  0.07322872  1.0
  Zn  Zn6  1  0.37993013  0.68314420  0.15248778  1.0
  Zn  Zn7  1  0.38705022  0.75600102  0.07386916  1.0
  Zn  Zn8  1  0.46843076  0.24546913  0.84882869  1.0
  Zn  Zn9  1  0.55388965  0.39267416  0.92677127  1.0
  Zn  Zn10  1  0.62006996  0.31685499  0.84751178  1.0
  Zn  Zn11  1  0.61295058  0.24399926  0.92613134  1.0
  Zn  Zn12  1  0.24546926  0.46843145  0.34882864  1.0
  Zn  Zn13  1  0.39267238  0.55389022  0.42677090  1.0
  Zn  Zn14  1  0.31685453  0.62006905  0.34751196  1.0
  Zn  Zn15  1  0.24399848  0.61295061  0.42613097  1.0
  H  H16  1  0.51507248  0.38281822  0.70714791  1.0
  H  H17  1  0.42347034  0.42278897  0.74520813  1.0
  H  H18  1  0.32392218  0.50647843  0.63480168  1.0
  H  H19  1  0.41393832  0.46263079  0.59599938  1.0
  H  H20  1  0.39458603  0.52478323  0.78445647  1.0
  H  H21  1  0.17993427  0.56254524  0.78326883  1.0
  H  H22  1  0.22498249  0.47307956  0.65587820  1.0
  H  H23  1  0.37779901  0.48782058  0.84737245  1.0
  H  H24  1  0.41491670  0.52768682  0.93206913  1.0
  H  H25  1  0.29535297  0.70440874  0.93098884  1.0
  H  H26  1  0.25622980  0.66344324  0.84548539  1.0
  H  H27  1  0.11072126  0.41412620  0.63931210  1.0
  H  H28  1  0.97924846  0.40254989  0.60088016  1.0
  H  H29  1  0.97153175  0.59997267  0.69949733  1.0
  H  H30  1  0.10343262  0.61368108  0.73743828  1.0
  H  H31  1  0.54704061  0.60459400  0.52439690  1.0
  H  H32  1  0.53684374  0.69670669  0.48409314  1.0
  H  H33  1  0.73418354  0.82356120  0.58387781  1.0
  H  H34  1  0.74347021  0.73028625  0.62419310  1.0
  H  H35  1  0.58428749  0.74355221  0.43908487  1.0
  H  H36  1  0.62689712  0.96384680  0.44088990  1.0
  H  H37  1  0.67501921  0.91222921  0.56800272  1.0
  H  H38  1  0.73310691  0.04667482  0.48698645  1.0
  H  H39  1  0.76305096  0.17909113  0.52705799  1.0
  H  H40  1  0.65645858  0.15265757  0.62459312  1.0
  H  H41  1  0.62603645  0.02031060  0.58488562  1.0
  H  H42  1  0.47286083  0.77045154  0.38007424  1.0
  H  H43  1  0.42641189  0.73350109  0.29486013  1.0
  H  H44  1  0.62395215  0.84073840  0.29071465  1.0
  H  H45  1  0.66946836  0.88178151  0.37642242  1.0
  H  H46  1  0.38281820  0.51507119  0.20714628  1.0
  H  H47  1  0.42279005  0.42347027  0.24520820  1.0
  H  H48  1  0.50647980  0.32392189  0.13480183  1.0
  H  H49  1  0.46263072  0.41393645  0.09599834  1.0
  H  H50  1  0.52478300  0.39458536  0.28445627  1.0
  H  H51  1  0.56254589  0.17993346  0.28326916  1.0
  H  H52  1  0.47307890  0.22498150  0.15587761  1.0
  H  H53  1  0.48782084  0.37779905  0.34737213  1.0
  H  H54  1  0.52768587  0.41491740  0.43206904  1.0
  H  H55  1  0.70440864  0.29535362  0.43098931  1.0
  H  H56  1  0.66344314  0.25622940  0.34548600  1.0
  H  H57  1  0.41412588  0.11072040  0.13931223  1.0
  H  H58  1  0.40254894  0.97924786  0.10088020  1.0
  H  H59  1  0.59997244  0.97153169  0.19949703  1.0
  H  H60  1  0.61368072  0.10343204  0.23743853  1.0
  H  H61  1  0.60459405  0.54704063  0.02439714  1.0
  H  H62  1  0.69670630  0.53684488  0.98409280  1.0
  H  H63  1  0.82356180  0.73418305  0.08387808  1.0
  H  H64  1  0.73028751  0.74346976  0.12419407  1.0
  H  H65  1  0.74355272  0.58428798  0.93908489  1.0
  H  H66  1  0.96384809  0.62689766  0.94089044  1.0
  H  H67  1  0.91222961  0.67501914  0.06800308  1.0
  H  H68  1  0.04667451  0.73310890  0.98698750  1.0
  H  H69  1  0.17909100  0.76305172  0.02705808  1.0
  H  H70  1  0.15265903  0.65645810  0.12459298  1.0
  H  H71  1  0.02031182  0.62603638  0.08488610  1.0
  H  H72  1  0.77045127  0.47286161  0.88007361  1.0
  H  H73  1  0.73349953  0.42641410  0.79485983  1.0
  H  H74  1  0.84074022  0.62395356  0.79071569  1.0
  H  H75  1  0.88178441  0.66946826  0.87642338  1.0
  H  H76  1  0.61718243  0.48492800  0.79285307  1.0
  H  H77  1  0.57721182  0.57653000  0.75479184  1.0
  H  H78  1  0.49352136  0.67607731  0.86519855  1.0
  H  H79  1  0.53737035  0.58606220  0.90400130  1.0
  H  H80  1  0.47521603  0.60541383  0.71554343  1.0
  H  H81  1  0.43745482  0.82006628  0.71673123  1.0
  H  H82  1  0.52691996  0.77501662  0.84412157  1.0
  H  H83  1  0.51217942  0.62220123  0.65262765  1.0
  H  H84  1  0.47231403  0.58508395  0.56793118  1.0
  H  H85  1  0.29559100  0.70464611  0.56901028  1.0
  H  H86  1  0.33655597  0.74377034  0.65451381  1.0
  H  H87  1  0.58587547  0.88927664  0.86068844  1.0
  H  H88  1  0.59745232  0.02074864  0.89911911  1.0
  H  H89  1  0.40003040  0.02846805  0.80050372  1.0
  H  H90  1  0.38632114  0.89656824  0.76256182  1.0
  H  H91  1  0.39540622  0.45295965  0.97560326  1.0
  H  H92  1  0.30329307  0.46315647  0.01590701  1.0
  H  H93  1  0.17643846  0.26581722  0.91612265  1.0
  H  H94  1  0.26971320  0.25652998  0.87580695  1.0
  H  H95  1  0.25644799  0.41571175  0.06091519  1.0
  H  H96  1  0.03615271  0.37310261  0.05911037  1.0
  H  H97  1  0.08777012  0.32498114  0.93199755  1.0
  H  H98  1  0.95332584  0.26689192  0.01301332  1.0
  H  H99  1  0.82090943  0.23694964  0.97294285  1.0
  H  H100  1  0.84734205  0.34354055  0.87540666  1.0
  H  H101  1  0.97968853  0.37396444  0.91511441  1.0
  H  H102  1  0.22954829  0.52713758  0.11992713  1.0
  H  H103  1  0.26650021  0.57358617  0.20514080  1.0
  H  H104  1  0.15926041  0.37604563  0.20928522  1.0
  H  H105  1  0.11821826  0.33053039  0.12357747  1.0
  H  H106  1  0.48492832  0.61718206  0.29285290  1.0
  H  H107  1  0.57652976  0.57721022  0.25479175  1.0
  H  H108  1  0.67607792  0.49352076  0.36519852  1.0
  H  H109  1  0.58606363  0.53737002  0.40400171  1.0
  H  H110  1  0.60541344  0.47521542  0.21554322  1.0
  H  H111  1  0.82006644  0.43745450  0.21673125  1.0
  H  H112  1  0.77501707  0.52691963  0.34412159  1.0
  H  H113  1  0.62220072  0.51217969  0.15262787  1.0
  H  H114  1  0.58508321  0.47231453  0.06793139  1.0
  H  H115  1  0.70464578  0.29559207  0.06901014  1.0
  H  H116  1  0.74376984  0.33655649  0.15451356  1.0
  H  H117  1  0.88927598  0.58587515  0.36068798  1.0
  H  H118  1  0.02074834  0.59745200  0.39911962  1.0
  H  H119  1  0.02846912  0.40003138  0.30050350  1.0
  H  H120  1  0.89656861  0.38632190  0.26256211  1.0
  H  H121  1  0.45296019  0.39540627  0.47560329  1.0
  H  H122  1  0.46315644  0.30329304  0.51590717  1.0
  H  H123  1  0.26581656  0.17643799  0.41612208  1.0
  H  H124  1  0.25652997  0.26971349  0.37580689  1.0
  H  H125  1  0.41571207  0.25644698  0.56091492  1.0
  H  H126  1  0.37310146  0.03615293  0.55910982  1.0
  H  H127  1  0.32498035  0.08776998  0.43199676  1.0
  H  H128  1  0.26689265  0.95332437  0.51301334  1.0
  H  H129  1  0.23694967  0.82090806  0.47294198  1.0
  H  H130  1  0.34354160  0.84734217  0.37540655  1.0
  H  H131  1  0.37396320  0.97968914  0.41511428  1.0
  H  H132  1  0.52713784  0.22954873  0.61992652  1.0
  H  H133  1  0.57358579  0.26649972  0.70513993  1.0
  H  H134  1  0.37604707  0.15925864  0.70928441  1.0
  H  H135  1  0.33053254  0.11821606  0.62357733  1.0
  C  C136  1  0.52963386  0.40220951  0.62932620  1.0
  C  C137  1  0.47025397  0.42029551  0.64930550  1.0
  C  C138  1  0.47249576  0.40925532  0.69140701  1.0
  C  C139  1  0.42143969  0.43237686  0.71271648  1.0
  C  C140  1  0.36715246  0.46799114  0.69296769  1.0
  C  C141  1  0.36449000  0.47763915  0.65028998  1.0
  C  C142  1  0.41513407  0.45376400  0.62854464  1.0
  C  C143  1  0.31535757  0.49502887  0.71732229  1.0
  C  C144  1  0.33809525  0.52160814  0.76545809  1.0
  C  C145  1  0.29005459  0.54708416  0.78950833  1.0
  C  C146  1  0.21830794  0.54593773  0.76464662  1.0
  C  C147  1  0.19385791  0.51913682  0.71649519  1.0
  C  C148  1  0.24320293  0.49423791  0.69327384  1.0
  C  C149  1  0.31402508  0.57259775  0.84024863  1.0
  C  C150  1  0.35980517  0.53564794  0.86543755  1.0
  C  C151  1  0.38070280  0.55786338  0.91316145  1.0
  C  C152  1  0.35736682  0.61873386  0.93702718  1.0
  C  C153  1  0.31272932  0.65679001  0.91225406  1.0
  C  C154  1  0.29085283  0.63350664  0.86449756  1.0
  C  C155  1  0.11673132  0.51434664  0.69156158  1.0
  C  C156  1  0.08086002  0.45592144  0.65216008  1.0
  C  C157  1  0.00712436  0.44882575  0.63068586  1.0
  C  C158  1  0.96713912  0.50023130  0.64807811  1.0
  C  C159  1  0.00280039  0.55988449  0.68647646  1.0
  C  C160  1  0.07644579  0.56682983  0.70774533  1.0
  C  C161  1  0.65443657  0.60291279  0.59827537  1.0
  C  C162  1  0.64584466  0.66181028  0.57689322  1.0
  C  C163  1  0.58763609  0.65287647  0.53742475  1.0
  C  C164  1  0.58222354  0.70487875  0.51486568  1.0
  C  C165  1  0.63455590  0.76729561  0.53123040  1.0
  C  C166  1  0.69222223  0.77629254  0.57126468  1.0
  C  C167  1  0.69801884  0.72423326  0.59381870  1.0
  C  C168  1  0.63017784  0.82157740  0.50651610  1.0
  C  C169  1  0.60267567  0.80053266  0.45842104  1.0
  C  C170  1  0.60236602  0.85126346  0.43461189  1.0
  C  C171  1  0.62913923  0.92399829  0.45932964  1.0
  C  C172  1  0.65429078  0.94673300  0.50746765  1.0
  C  C173  1  0.65488362  0.89498634  0.53058159  1.0
  C  C174  1  0.67680937  0.02432826  0.53289870  1.0
  C  C175  1  0.71594157  0.06975672  0.51703100  1.0
  C  C176  1  0.73317836  0.14351532  0.53933736  1.0
  C  C177  1  0.71112058  0.17378909  0.57790404  1.0
  C  C178  1  0.67363942  0.12877565  0.59470793  1.0
  C  C179  1  0.65711616  0.05482012  0.57253640  1.0
  C  C180  1  0.57439687  0.82859760  0.38397027  1.0
  C  C181  1  0.50603851  0.78625433  0.36062780  1.0
  C  C182  1  0.47983836  0.76548767  0.31293448  1.0
  C  C183  1  0.52256616  0.78478826  0.28766923  1.0
  C  C184  1  0.59107891  0.82664453  0.31077209  1.0
  C  C185  1  0.61615131  0.84927711  0.35846027  1.0
  C  C186  1  0.49635721  0.76031067  0.23658564  1.0
  C  C187  1  0.72343046  0.25361616  0.59821916  1.0
  C  C188  1  0.88701418  0.48956809  0.62852979  1.0
  C  C189  1  0.37919113  0.64226271  0.98816618  1.0
  C  C190  1  0.40220855  0.52963333  0.12932454  1.0
  C  C191  1  0.42029483  0.47025268  0.14930348  1.0
  C  C192  1  0.40925479  0.47249348  0.19140516  1.0
  C  C193  1  0.43237805  0.42143885  0.21271613  1.0
  C  C194  1  0.46799164  0.36715385  0.19296763  1.0
  C  C195  1  0.47763898  0.36448843  0.15029026  1.0
  C  C196  1  0.45376417  0.41513247  0.12854400  1.0
  C  C197  1  0.49502834  0.31535774  0.21732157  1.0
  C  C198  1  0.52160796  0.33809482  0.26545796  1.0
  C  C199  1  0.54708336  0.29005318  0.28950859  1.0
  C  C200  1  0.54593591  0.21830685  0.26464616  1.0
  C  C201  1  0.51913459  0.19385742  0.21649539  1.0
  C  C202  1  0.49423813  0.24320266  0.19327383  1.0
  C  C203  1  0.57259714  0.31402536  0.34024921  1.0
  C  C204  1  0.53564722  0.35980497  0.36543768  1.0
  C  C205  1  0.55786330  0.38070283  0.41316110  1.0
  C  C206  1  0.61873362  0.35736666  0.43702711  1.0
  C  C207  1  0.65678920  0.31272899  0.41225422  1.0
  C  C208  1  0.63350623  0.29085273  0.36449751  1.0
  C  C209  1  0.51434465  0.11673016  0.19156237  1.0
  C  C210  1  0.45592069  0.08085866  0.15216072  1.0
  C  C211  1  0.44882535  0.00712391  0.13068642  1.0
  C  C212  1  0.50023064  0.96713844  0.14807823  1.0
  C  C213  1  0.55988474  0.00280004  0.18647657  1.0
  C  C214  1  0.56682921  0.07644539  0.20774619  1.0
  C  C215  1  0.60291287  0.65443510  0.09827596  1.0
  C  C216  1  0.66181096  0.64584409  0.07689377  1.0
  C  C217  1  0.65287679  0.58763657  0.03742543  1.0
  C  C218  1  0.70487873  0.58222395  0.01486601  1.0
  C  C219  1  0.76729569  0.63455750  0.03123032  1.0
  C  C220  1  0.77629371  0.69222194  0.07126539  1.0
  C  C221  1  0.72423453  0.69801764  0.09381957  1.0
  C  C222  1  0.82157731  0.63017855  0.00651618  1.0
  C  C223  1  0.80053229  0.60267561  0.95842178  1.0
  C  C224  1  0.85126403  0.60236692  0.93461296  1.0
  C  C225  1  0.92399955  0.62914061  0.95933029  1.0
  C  C226  1  0.94673325  0.65429232  0.00746828  1.0
  C  C227  1  0.89498685  0.65488492  0.03058157  1.0
  C  C228  1  0.02432881  0.67681178  0.03289946  1.0
  C  C229  1  0.06975715  0.71594357  0.01703199  1.0
  C  C230  1  0.14351565  0.73318040  0.03933774  1.0
  C  C231  1  0.17378900  0.71112084  0.07790407  1.0
  C  C232  1  0.12877669  0.67364022  0.09470855  1.0
  C  C233  1  0.05482091  0.65711685  0.07253694  1.0
  C  C234  1  0.82859880  0.57439891  0.88397008  1.0
  C  C235  1  0.78625515  0.50604053  0.86062818  1.0
  C  C236  1  0.76548712  0.47984013  0.81293489  1.0
  C  C237  1  0.78478831  0.52256866  0.78767080  1.0
  C  C238  1  0.82664625  0.59108023  0.81077280  1.0
  C  C239  1  0.84927979  0.61615328  0.85846124  1.0
  C  C240  1  0.76031073  0.49635928  0.73658620  1.0
  C  C241  1  0.25361619  0.72343028  0.09821917  1.0
  C  C242  1  0.48956657  0.88701278  0.12853030  1.0
  C  C243  1  0.64226075  0.37919177  0.48816565  1.0
  C  C244  1  0.59779225  0.47036695  0.87067469  1.0
  C  C245  1  0.57970570  0.52974597  0.85069544  1.0
  C  C246  1  0.59074566  0.52750463  0.80859335  1.0
  C  C247  1  0.56762257  0.57856035  0.78728321  1.0
  C  C248  1  0.53200871  0.63284696  0.80703194  1.0
  C  C249  1  0.52236209  0.63551023  0.84971001  1.0
  C  C250  1  0.54623691  0.58486618  0.87145564  1.0
  C  C251  1  0.50497113  0.68464092  0.78267749  1.0
  C  C252  1  0.47839106  0.66190437  0.73454174  1.0
  C  C253  1  0.45291736  0.70994656  0.71049212  1.0
  C  C254  1  0.45406259  0.78169234  0.73535377  1.0
  C  C255  1  0.48086399  0.80614231  0.78350464  1.0
  C  C256  1  0.50576188  0.75679600  0.80672594  1.0
  C  C257  1  0.42740152  0.68597491  0.65975156  1.0
  C  C258  1  0.46435206  0.64019584  0.63456265  1.0
  C  C259  1  0.44213820  0.61929852  0.58683907  1.0
  C  C260  1  0.38126709  0.64263307  0.56297202  1.0
  C  C261  1  0.34321151  0.68727074  0.58774491  1.0
  C  C262  1  0.36649271  0.70914593  0.63550146  1.0
  C  C263  1  0.48565589  0.88326849  0.80843813  1.0
  C  C264  1  0.54408137  0.91913945  0.84783963  1.0
  C  C265  1  0.55117572  0.99287474  0.86931385  1.0
  C  C266  1  0.49977291  0.03286238  0.85192219  1.0
  C  C267  1  0.44011748  0.99719915  0.81352493  1.0
  C  C268  1  0.43317231  0.92355273  0.79225406  1.0
  C  C269  1  0.39708677  0.34556464  0.90172457  1.0
  C  C270  1  0.33818878  0.35415618  0.92310623  1.0
  C  C271  1  0.34712241  0.41236371  0.96257448  1.0
  C  C272  1  0.29512055  0.41777686  0.98513401  1.0
  C  C273  1  0.23270421  0.36544385  0.96876989  1.0
  C  C274  1  0.22370656  0.30777833  0.92873565  1.0
  C  C275  1  0.27576556  0.30198155  0.90618094  1.0
  C  C276  1  0.17842251  0.36982227  0.99348393  1.0
  C  C277  1  0.19946798  0.39732467  0.04157894  1.0
  C  C278  1  0.14873685  0.39763389  0.06538795  1.0
  C  C279  1  0.07600134  0.37086021  0.04067062  1.0
  C  C280  1  0.05326728  0.34570958  0.99253276  1.0
  C  C281  1  0.10501314  0.34511697  0.96941875  1.0
  C  C282  1  0.97567216  0.32318957  0.96710124  1.0
  C  C283  1  0.93024346  0.28405886  0.98296884  1.0
  C  C284  1  0.85648372  0.26682095  0.96066207  1.0
  C  C285  1  0.82621101  0.28887781  0.92209571  1.0
  C  C286  1  0.87122411  0.32636005  0.90529164  1.0
  C  C287  1  0.94517989  0.34288343  0.92746324  1.0
  C  C288  1  0.17140129  0.42560028  0.11602981  1.0
  C  C289  1  0.21374556  0.49395920  0.13937253  1.0
  C  C290  1  0.23451306  0.52015961  0.18706509  1.0
  C  C291  1  0.21521258  0.47743215  0.21233011  1.0
  C  C292  1  0.17335429  0.40891842  0.18922833  1.0
  C  C293  1  0.15072314  0.38384699  0.14153993  1.0
  C  C294  1  0.23968802  0.50364153  0.26341372  1.0
  C  C295  1  0.74638354  0.27656999  0.90178083  1.0
  C  C296  1  0.51043459  0.11298642  0.87147039  1.0
  C  C297  1  0.35773870  0.62081012  0.51183332  1.0
  C  C298  1  0.47036605  0.59779184  0.37067527  1.0
  C  C299  1  0.52974540  0.57970585  0.35069619  1.0
  C  C300  1  0.52750504  0.59074496  0.30859443  1.0
  C  C301  1  0.57856031  0.56762179  0.28728361  1.0
  C  C302  1  0.63284710  0.53200805  0.30703210  1.0
  C  C303  1  0.63551072  0.52236058  0.34971041  1.0
  C  C304  1  0.58486673  0.54623628  0.37145586  1.0
  C  C305  1  0.68464155  0.50497087  0.28267752  1.0
  C  C306  1  0.66190484  0.47839105  0.23454210  1.0
  C  C307  1  0.70994602  0.45291827  0.21049155  1.0
  C  C308  1  0.78169171  0.45406200  0.23535296  1.0
  C  C309  1  0.80614137  0.48086399  0.28350357  1.0
  C  C310  1  0.75679663  0.50576128  0.30672563  1.0
  C  C311  1  0.68597457  0.42740198  0.15975095  1.0
  C  C312  1  0.64019464  0.46435288  0.13456224  1.0
  C  C313  1  0.61929711  0.44213797  0.08683908  1.0
  C  C314  1  0.64263255  0.38126749  0.06297263  1.0
  C  C315  1  0.68727058  0.34321134  0.08774520  1.0
  C  C316  1  0.70914619  0.36649256  0.13550151  1.0
  C  C317  1  0.88326814  0.48565525  0.30843739  1.0
  C  C318  1  0.91913952  0.54408099  0.34783994  1.0
  C  C319  1  0.99287473  0.55117723  0.36931417  1.0
  C  C320  1  0.03286192  0.49977383  0.35192229  1.0
  C  C321  1  0.99719862  0.44011795  0.31352472  1.0
  C  C322  1  0.92355331  0.43317314  0.29225376  1.0
  C  C323  1  0.34556476  0.39708749  0.40172427  1.0
  C  C324  1  0.35415535  0.33818837  0.42310593  1.0
  C  C325  1  0.41236391  0.34712219  0.46257409  1.0
  C  C326  1  0.41777708  0.29512044  0.48513398  1.0
  C  C327  1  0.36544420  0.23270358  0.46876948  1.0
  C  C328  1  0.30777848  0.22370719  0.42873508  1.0
  C  C329  1  0.30198240  0.27576648  0.40618083  1.0
  C  C330  1  0.36982136  0.17842287  0.49348350  1.0
  C  C331  1  0.39732353  0.19946761  0.54157824  1.0
  C  C332  1  0.39763264  0.14873682  0.56538731  1.0
  C  C333  1  0.37085811  0.07600036  0.54067001  1.0
  C  C334  1  0.34570718  0.05326619  0.49253156  1.0
  C  C335  1  0.34511496  0.10501339  0.46941845  1.0
  C  C336  1  0.32318859  0.97567094  0.46710051  1.0
  C  C337  1  0.28405799  0.93024247  0.48296848  1.0
  C  C338  1  0.26682120  0.85648387  0.46066243  1.0
  C  C339  1  0.28887960  0.82621064  0.42209563  1.0
  C  C340  1  0.32635969  0.87122408  0.40529157  1.0
  C  C341  1  0.34288348  0.94517961  0.42746318  1.0
  C  C342  1  0.42560233  0.17140268  0.61602964  1.0
  C  C343  1  0.49396007  0.21374540  0.63937223  1.0
  C  C344  1  0.52015978  0.23451260  0.68706557  1.0
  C  C345  1  0.47743278  0.21521039  0.71232943  1.0
  C  C346  1  0.40891995  0.17335358  0.68922709  1.0
  C  C347  1  0.38384807  0.15072100  0.64153900  1.0
  C  C348  1  0.50364084  0.23968906  0.76341336  1.0
  C  C349  1  0.27656964  0.74638304  0.40178040  1.0
  C  C350  1  0.11298652  0.51043488  0.37147051  1.0
  C  C351  1  0.62080948  0.35773972  0.01183402  1.0
  O  O352  1  0.70001591  0.43596050  0.61245240  1.0
  O  O353  1  0.71355320  0.60904463  0.63003172  1.0
  O  O354  1  0.60273306  0.54957455  0.58288721  1.0
  O  O355  1  0.52499195  0.41182722  0.59034585  1.0
  O  O356  1  0.58199277  0.37973029  0.65298707  1.0
  O  O357  1  0.42902907  0.73595488  0.21732053  1.0
  O  O358  1  0.54358837  0.76522988  0.21602627  1.0
  O  O359  1  0.69538959  0.27941942  0.63010181  1.0
  O  O360  1  0.75972027  0.29043101  0.58172585  1.0
  O  O361  1  0.85677183  0.43351430  0.59406103  1.0
  O  O362  1  0.85442813  0.53650037  0.64835737  1.0
  O  O363  1  0.40644101  0.59716081  0.00791528  1.0
  O  O364  1  0.36893481  0.70522443  0.00827469  1.0
  O  O365  1  0.43596194  0.70001706  0.11245294  1.0
  O  O366  1  0.60904420  0.71355232  0.13003261  1.0
  O  O367  1  0.54957492  0.60273156  0.08288721  1.0
  O  O368  1  0.41182978  0.52499062  0.09034560  1.0
  O  O369  1  0.37973071  0.58199205  0.15298652  1.0
  O  O370  1  0.73595354  0.42903077  0.71732050  1.0
  O  O371  1  0.76522997  0.54358945  0.71602603  1.0
  O  O372  1  0.27941924  0.69538793  0.13010092  1.0
  O  O373  1  0.29043245  0.75972091  0.08172591  1.0
  O  O374  1  0.43351320  0.85677132  0.09406112  1.0
  O  O375  1  0.53650012  0.85442735  0.14835823  1.0
  O  O376  1  0.59716003  0.40644124  0.50791505  1.0
  O  O377  1  0.70522356  0.36893705  0.50827453  1.0
  O  O378  1  0.56403725  0.29998321  0.88754665  1.0
  O  O379  1  0.39095589  0.28644687  0.86996853  1.0
  O  O380  1  0.45042464  0.39726763  0.91711227  1.0
  O  O381  1  0.58817368  0.47500966  0.90965503  1.0
  O  O382  1  0.62027000  0.41800768  0.84701387  1.0
  O  O383  1  0.26404459  0.57096950  0.28268018  1.0
  O  O384  1  0.23476878  0.45641136  0.28397390  1.0
  O  O385  1  0.72058094  0.30461180  0.86989907  1.0
  O  O386  1  0.70956736  0.24027990  0.91827451  1.0
  O  O387  1  0.56648600  0.14322896  0.90593942  1.0
  O  O388  1  0.46349955  0.14556914  0.85164113  1.0
  O  O389  1  0.40284120  0.59356173  0.49208471  1.0
  O  O390  1  0.29477590  0.63106484  0.49172507  1.0
  O  O391  1  0.29998250  0.56403815  0.38754711  1.0
  O  O392  1  0.28644662  0.39095618  0.36996776  1.0
  O  O393  1  0.39726765  0.45042519  0.41711161  1.0
  O  O394  1  0.47500904  0.58817089  0.40965463  1.0
  O  O395  1  0.41800696  0.62026998  0.34701419  1.0
  O  O396  1  0.57096942  0.26404431  0.78268003  1.0
  O  O397  1  0.45641155  0.23476824  0.78397403  1.0
  O  O398  1  0.30461165  0.72058031  0.36989836  1.0
  O  O399  1  0.24027822  0.70956818  0.41827314  1.0
  O  O400  1  0.14322905  0.56648651  0.40593989  1.0
  O  O401  1  0.14557026  0.46350151  0.35164047  1.0
  O  O402  1  0.59356111  0.40284108  0.99208477  1.0
  O  O403  1  0.63106510  0.29477692  0.99172583  1.0
