# generated using pymatgen
data_TbZnH20C24N4ClO12
_symmetry_space_group_name_H-M   'P 1'
_cell_length_a   13.07567809
_cell_length_b   15.72060665
_cell_length_c   23.22875282
_cell_angle_alpha   79.82512621
_cell_angle_beta   90.02035610
_cell_angle_gamma   65.42275800
_symmetry_Int_Tables_number   1
_chemical_formula_structural   TbZnH20C24N4ClO12
_chemical_formula_sum   'Tb4 Zn4 H80 C96 N16 Cl4 O48'
_cell_volume   4259.39918688
_cell_formula_units_Z   4
loop_
 _symmetry_equiv_pos_site_id
 _symmetry_equiv_pos_as_xyz
  1  'x, y, z'
loop_
 _atom_site_type_symbol
 _atom_site_label
 _atom_site_symmetry_multiplicity
 _atom_site_fract_x
 _atom_site_fract_y
 _atom_site_fract_z
 _atom_site_occupancy
  Tb  Tb0  1  0.84391651  0.06083590  0.95330423  1.0
  Tb  Tb1  1  0.90518999  0.93869761  0.54664786  1.0
  Tb  Tb2  1  0.15610970  0.93914688  0.04667992  1.0
  Tb  Tb3  1  0.09481683  0.06129491  0.45337568  1.0
  Zn  Zn4  1  0.62749225  0.49964475  0.64119330  1.0
  Zn  Zn5  1  0.12736801  0.50057153  0.85892516  1.0
  Zn  Zn6  1  0.37249185  0.50034274  0.35883251  1.0
  Zn  Zn7  1  0.87264216  0.49941273  0.14105667  1.0
  H  H8  1  0.97837751  0.40546070  0.78029813  1.0
  H  H9  1  0.38380056  0.59385713  0.71922940  1.0
  H  H10  1  0.02166143  0.59449357  0.21968875  1.0
  H  H11  1  0.61617319  0.40619385  0.28075793  1.0
  H  H12  1  0.98014677  0.25198410  0.83626696  1.0
  H  H13  1  0.23205741  0.74766427  0.66345831  1.0
  H  H14  1  0.01989580  0.74796750  0.16371247  1.0
  H  H15  1  0.76789976  0.25239542  0.33655173  1.0
  H  H16  1  0.81276774  0.34512015  0.42989876  1.0
  H  H17  1  0.15856406  0.65532816  0.07010016  1.0
  H  H18  1  0.18724799  0.65488361  0.57013084  1.0
  H  H19  1  0.84141125  0.34469983  0.92986648  1.0
  H  H20  1  0.59793278  0.65239830  0.72010477  1.0
  H  H21  1  0.25037395  0.34698056  0.78016925  1.0
  H  H22  1  0.40208490  0.34757709  0.27989096  1.0
  H  H23  1  0.74963312  0.65302366  0.21981079  1.0
  H  H24  1  0.48454841  0.69811260  0.74740990  1.0
  H  H25  1  0.18419201  0.30032563  0.75256390  1.0
  H  H26  1  0.51547913  0.30188893  0.25259370  1.0
  H  H27  1  0.81584627  0.69965441  0.24741581  1.0
  H  H28  1  0.85913854  0.93868487  0.86588262  1.0
  H  H29  1  0.79772671  0.06116917  0.63378543  1.0
  H  H30  1  0.14085626  0.06131025  0.13409068  1.0
  H  H31  1  0.20219773  0.93881525  0.36621962  1.0
  H  H32  1  0.79096713  0.04943957  0.83551746  1.0
  H  H33  1  0.84045452  0.95052205  0.66440801  1.0
  H  H34  1  0.20900930  0.95056017  0.16447125  1.0
  H  H35  1  0.15949484  0.04946914  0.33561222  1.0
  H  H36  1  0.34895767  0.78469212  0.43110715  1.0
  H  H37  1  0.13301536  0.21608783  0.06908601  1.0
  H  H38  1  0.65105492  0.21531488  0.56893587  1.0
  H  H39  1  0.86693133  0.78395151  0.93091251  1.0
  H  H40  1  0.72394975  0.00723861  0.05532326  1.0
  H  H41  1  0.73184836  0.99202653  0.44456466  1.0
  H  H42  1  0.27602764  0.99279898  0.94465867  1.0
  H  H43  1  0.26816483  0.00800220  0.55546131  1.0
  H  H44  1  0.63108521  0.10220313  0.00986624  1.0
  H  H45  1  0.73382115  0.89723198  0.49006020  1.0
  H  H46  1  0.36891739  0.89780085  0.99009316  1.0
  H  H47  1  0.26616598  0.10279837  0.50995784  1.0
  H  H48  1  0.64007673  0.69785521  0.58693622  1.0
  H  H49  1  0.33771332  0.30233991  0.91313324  1.0
  H  H50  1  0.35990679  0.30215791  0.41308847  1.0
  H  H51  1  0.66232432  0.69763834  0.08683204  1.0
  H  H52  1  0.82129021  0.31496539  0.61720852  1.0
  H  H53  1  0.13694548  0.68510376  0.88281469  1.0
  H  H54  1  0.17871600  0.68501918  0.38282063  1.0
  H  H55  1  0.86298604  0.31492002  0.11714982  1.0
  H  H56  1  0.68792042  0.30558456  0.72503909  1.0
  H  H57  1  0.99382227  0.69471036  0.77512431  1.0
  H  H58  1  0.31205843  0.69442107  0.27497136  1.0
  H  H59  1  0.00616279  0.30525376  0.22486750  1.0
  H  H60  1  0.42146762  0.70596482  0.61835867  1.0
  H  H61  1  0.12749239  0.29433340  0.88185038  1.0
  H  H62  1  0.57855934  0.29400732  0.38168521  1.0
  H  H63  1  0.87254535  0.70563550  0.11814952  1.0
  H  H64  1  0.64845493  0.50451730  0.42170555  1.0
  H  H65  1  0.15332449  0.49601860  0.07840016  1.0
  H  H66  1  0.35154673  0.49547789  0.57832544  1.0
  H  H67  1  0.84666222  0.50400494  0.92157429  1.0
  H  H68  1  0.50991779  0.63106150  0.42221125  1.0
  H  H69  1  0.14048120  0.36966584  0.07793269  1.0
  H  H70  1  0.49008431  0.36893433  0.57782311  1.0
  H  H71  1  0.85945866  0.63037950  0.92205268  1.0
  H  H72  1  0.98956309  0.51143282  0.71561790  1.0
  H  H73  1  0.50133829  0.48781411  0.78414619  1.0
  H  H74  1  0.01046466  0.48853160  0.28436053  1.0
  H  H75  1  0.49865999  0.51222758  0.21584260  1.0
  H  H76  1  0.96332708  0.66673199  0.65109282  1.0
  H  H77  1  0.63016970  0.33243936  0.84876864  1.0
  H  H78  1  0.03669301  0.33323855  0.34889785  1.0
  H  H79  1  0.36984722  0.66761094  0.15121705  1.0
  H  H80  1  0.08055746  0.93450547  0.92815146  1.0
  H  H81  1  0.01447376  0.06577372  0.57178654  1.0
  H  H82  1  0.91943349  0.06550959  0.07182091  1.0
  H  H83  1  0.98553439  0.93422836  0.42822344  1.0
  H  H84  1  0.07419856  0.04360764  0.92542277  1.0
  H  H85  1  0.11765763  0.95679055  0.57457573  1.0
  H  H86  1  0.92580914  0.95639841  0.07456955  1.0
  H  H87  1  0.88234207  0.04320549  0.42544957  1.0
  C  C88  1  0.91666532  0.38052948  0.76842577  1.0
  C  C89  1  0.29728642  0.61909739  0.73130337  1.0
  C  C90  1  0.08335963  0.61943900  0.23156169  1.0
  C  C91  1  0.70269418  0.38093073  0.26868822  1.0
  C  C92  1  0.91739367  0.29607828  0.79968035  1.0
  C  C93  1  0.21357387  0.70364572  0.70014359  1.0
  C  C94  1  0.08263615  0.70387741  0.20030637  1.0
  C  C95  1  0.78640593  0.29638707  0.29986082  1.0
  C  C96  1  0.82922340  0.31847881  0.52412525  1.0
  C  C97  1  0.14840020  0.68177234  0.97589018  1.0
  C  C98  1  0.17079138  0.68152073  0.47590268  1.0
  C  C99  1  0.85155737  0.31825135  0.02407822  1.0
  C  C100  1  0.65033515  0.49556791  0.51613396  1.0
  C  C101  1  0.14604839  0.50485255  0.98398481  1.0
  C  C102  1  0.34966760  0.50441594  0.48389527  1.0
  C  C103  1  0.85391691  0.49517096  0.01599093  1.0
  C  C104  1  0.55285675  0.58791627  0.51649395  1.0
  C  C105  1  0.14072109  0.41255076  0.98367360  1.0
  C  C106  1  0.44715406  0.41206675  0.48354053  1.0
  C  C107  1  0.85926318  0.58745472  0.01631319  1.0
  C  C108  1  0.78029731  0.37384985  0.46887903  1.0
  C  C109  1  0.15471454  0.62653394  0.03115716  1.0
  C  C110  1  0.21971253  0.62615041  0.53114795  1.0
  C  C111  1  0.84524949  0.37348906  0.96881046  1.0
  C  C112  1  0.39980240  0.73474294  0.46991016  1.0
  C  C113  1  0.13408463  0.26588852  0.03025988  1.0
  C  C114  1  0.60021196  0.26526051  0.53013283  1.0
  C  C115  1  0.86588652  0.73413096  0.96973655  1.0
  C  C116  1  0.92121207  0.21891142  0.53109451  1.0
  C  C117  1  0.14094472  0.78132304  0.96881863  1.0
  C  C118  1  0.07880766  0.78108129  0.46892082  1.0
  C  C119  1  0.85905334  0.21869308  0.03113856  1.0
  C  C120  1  0.27485631  0.84911753  0.53153665  1.0
  C  C121  1  0.12348658  0.15148666  0.96858563  1.0
  C  C122  1  0.72516885  0.15086737  0.46850883  1.0
  C  C123  1  0.87651902  0.84851136  0.03141576  1.0
  C  C124  1  0.78177694  0.78501480  0.57343778  1.0
  C  C125  1  0.56674584  0.21456360  0.92649979  1.0
  C  C126  1  0.21821801  0.21499074  0.42657655  1.0
  C  C127  1  0.43328568  0.78544372  0.07346914  1.0
  C  C128  1  0.71734167  0.65840727  0.61577538  1.0
  C  C129  1  0.37571075  0.34152269  0.88423043  1.0
  C  C130  1  0.28265209  0.34159607  0.38424178  1.0
  C  C131  1  0.62432221  0.65847107  0.11574001  1.0
  C  C132  1  0.37251437  0.75725369  0.52519342  1.0
  C  C133  1  0.12943900  0.24328212  0.97498979  1.0
  C  C134  1  0.62750503  0.24274272  0.47484647  1.0
  C  C135  1  0.87055377  0.75672317  0.02500520  1.0
  C  C136  1  0.78587259  0.35626713  0.57337066  1.0
  C  C137  1  0.14268589  0.64393811  0.92667342  1.0
  C  C138  1  0.21413413  0.64372101  0.42665809  1.0
  C  C139  1  0.85725768  0.35607993  0.07329302  1.0
  C  C140  1  0.75443112  0.32476328  0.73811771  1.0
  C  C141  1  0.07948247  0.67534810  0.76197225  1.0
  C  C142  1  0.24556309  0.67522539  0.26188817  1.0
  C  C143  1  0.92050801  0.32463732  0.23802107  1.0
  C  C144  1  0.43863058  0.69178118  0.57423731  1.0
  C  C145  1  0.13036241  0.30862949  0.92595581  1.0
  C  C146  1  0.56138841  0.30820384  0.42580298  1.0
  C  C147  1  0.86966106  0.69135726  0.07404081  1.0
  C  C148  1  0.68985806  0.46278300  0.46459924  1.0
  C  C149  1  0.15295919  0.53768445  0.03548921  1.0
  C  C150  1  0.31015031  0.53720795  0.53543049  1.0
  C  C151  1  0.84700477  0.46234481  0.96448417  1.0
  C  C152  1  0.83276403  0.17589231  0.81613835  1.0
  C  C153  1  0.00881778  0.82413075  0.68391144  1.0
  C  C154  1  0.16723696  0.82409045  0.18384665  1.0
  C  C155  1  0.99114470  0.17589232  0.31611386  1.0
  C  C156  1  0.82527390  0.52494738  0.68669989  1.0
  C  C157  1  0.35038245  0.47476954  0.81318088  1.0
  C  C158  1  0.17473448  0.47504354  0.31330100  1.0
  C  C159  1  0.64962599  0.52524113  0.18679672  1.0
  C  C160  1  0.83605282  0.26644443  0.78387186  1.0
  C  C161  1  0.10271383  0.73354073  0.71613490  1.0
  C  C162  1  0.16395854  0.73352828  0.21611727  1.0
  C  C163  1  0.89726641  0.26647129  0.28387613  1.0
  C  C164  1  0.49018939  0.64972807  0.46518922  1.0
  C  C165  1  0.13954963  0.35089119  0.03496665  1.0
  C  C166  1  0.50982375  0.35026558  0.53484711  1.0
  C  C167  1  0.86040989  0.64913779  0.96501838  1.0
  C  C168  1  0.83267308  0.43490183  0.72275390  1.0
  C  C169  1  0.26776969  0.56490205  0.77712420  1.0
  C  C170  1  0.16733659  0.56508345  0.27724504  1.0
  C  C171  1  0.73222920  0.43510784  0.22285607  1.0
  C  C172  1  0.79950594  0.69339086  0.61454922  1.0
  C  C173  1  0.49288324  0.30623881  0.88541149  1.0
  C  C174  1  0.20049674  0.30659770  0.38546140  1.0
  C  C175  1  0.50715115  0.69377044  0.11456584  1.0
  C  C176  1  0.91235053  0.55475449  0.68737809  1.0
  C  C177  1  0.46729382  0.44470372  0.81246424  1.0
  C  C178  1  0.08767224  0.44521529  0.31261439  1.0
  C  C179  1  0.53271087  0.55532669  0.18752064  1.0
  C  C180  1  0.89839792  0.64025315  0.65151434  1.0
  C  C181  1  0.53873947  0.35916219  0.84836778  1.0
  C  C182  1  0.10162294  0.35972504  0.34848366  1.0
  C  C183  1  0.46128094  0.64087042  0.15161428  1.0
  N  N184  1  0.69986310  0.44209533  0.56938959  1.0
  N  N185  1  0.14221683  0.55820409  0.93070061  1.0
  N  N186  1  0.30013512  0.55788991  0.43064120  1.0
  N  N187  1  0.85773569  0.44181593  0.06927251  1.0
  N  N188  1  0.75218193  0.40710602  0.70901599  1.0
  N  N189  1  0.15957891  0.59294789  0.79102630  1.0
  N  N190  1  0.24781069  0.59288890  0.29099608  1.0
  N  N191  1  0.84042016  0.40703715  0.20895242  1.0
  N  N192  1  0.52587758  0.60989849  0.56990365  1.0
  N  N193  1  0.13586728  0.39045961  0.93027558  1.0
  N  N194  1  0.47413016  0.39008454  0.43013084  1.0
  N  N195  1  0.86414649  0.60952817  0.06970757  1.0
  N  N196  1  0.72880386  0.57726489  0.65128737  1.0
  N  N197  1  0.30611358  0.42267792  0.84868665  1.0
  N  N198  1  0.27119602  0.42272925  0.34872823  1.0
  N  N199  1  0.69390801  0.57731716  0.15128838  1.0
  Cl  Cl200  1  0.49239127  0.44643180  0.66751487  1.0
  Cl  Cl201  1  0.93925651  0.55335522  0.83229827  1.0
  Cl  Cl202  1  0.50759553  0.55354571  0.33251205  1.0
  Cl  Cl203  1  0.06074756  0.44662596  0.16769337  1.0
  O  O204  1  0.88148103  0.14545923  0.86793893  1.0
  O  O205  1  0.02707641  0.85454980  0.63211402  1.0
  O  O206  1  0.11856048  0.85448684  0.13203379  1.0
  O  O207  1  0.97289082  0.14548823  0.36791005  1.0
  O  O208  1  0.94880230  0.16837428  0.58227989  1.0
  O  O209  1  0.11789426  0.83180808  0.91763221  1.0
  O  O210  1  0.05122848  0.83161620  0.41774000  1.0
  O  O211  1  0.88203650  0.16821721  0.08232869  1.0
  O  O212  1  0.04810979  0.99546711  0.94586548  1.0
  O  O213  1  0.04331554  0.00475237  0.55410934  1.0
  O  O214  1  0.95190793  0.00453265  0.05412238  1.0
  O  O215  1  0.95669269  0.99524957  0.44590669  1.0
  O  O216  1  0.26037298  0.87032998  0.58193151  1.0
  O  O217  1  0.13040893  0.13028110  0.91818531  1.0
  O  O218  1  0.73963286  0.12964922  0.41811417  1.0
  O  O219  1  0.86959190  0.86972338  0.08181364  1.0
  O  O220  1  0.78168352  0.13917975  0.78983833  1.0
  O  O221  1  0.92106568  0.86085443  0.71020947  1.0
  O  O222  1  0.21826543  0.86082908  0.21015712  1.0
  O  O223  1  0.07891164  0.13915579  0.28981769  1.0
  O  O224  1  0.70791580  0.81494032  0.53071678  1.0
  O  O225  1  0.52293293  0.18480301  0.96931770  1.0
  O  O226  1  0.29206480  0.18507862  0.46930252  1.0
  O  O227  1  0.47709691  0.81516636  0.03063220  1.0
  O  O228  1  0.21472583  0.89881501  0.48404939  1.0
  O  O229  1  0.11275636  0.10183370  0.01599836  1.0
  O  O230  1  0.78529646  0.10117412  0.51599734  1.0
  O  O231  1  0.88725097  0.89816084  0.98399998  1.0
  O  O232  1  0.52792033  0.64612435  0.72769157  1.0
  O  O233  1  0.17450077  0.35242903  0.77239577  1.0
  O  O234  1  0.47208270  0.35388031  0.27229962  1.0
  O  O235  1  0.82551851  0.64753856  0.22759910  1.0
  O  O236  1  0.80254889  0.99910835  0.87275542  1.0
  O  O237  1  0.80171905  0.00061052  0.62708602  1.0
  O  O238  1  0.19745197  0.00088078  0.12723103  1.0
  O  O239  1  0.19822731  0.99936373  0.37292877  1.0
  O  O240  1  0.71329448  0.06213063  0.02487730  1.0
  O  O241  1  0.77614503  0.93704973  0.47494702  1.0
  O  O242  1  0.28668901  0.93788863  0.97509762  1.0
  O  O243  1  0.22385569  0.06296418  0.52507413  1.0
  O  O244  1  0.84579179  0.82322988  0.58585994  1.0
  O  O245  1  0.66885270  0.17608938  0.91395465  1.0
  O  O246  1  0.15421979  0.17675925  0.41415665  1.0
  O  O247  1  0.33119469  0.82394739  0.08603212  1.0
  O  O248  1  0.96115025  0.19379308  0.48375247  1.0
  O  O249  1  0.15596417  0.80647366  0.01613333  1.0
  O  O250  1  0.03884921  0.80621108  0.51626030  1.0
  O  O251  1  0.84414261  0.19350551  0.98382238  1.0
