# generated using pymatgen
data_Zn2H7C22(N4F5)2
_symmetry_space_group_name_H-M   'P 1'
_cell_length_a   14.78922230
_cell_length_b   14.93338329
_cell_length_c   22.87893268
_cell_angle_alpha   89.27024892
_cell_angle_beta   89.50504305
_cell_angle_gamma   80.50677314
_symmetry_Int_Tables_number   1
_chemical_formula_structural   Zn2H7C22(N4F5)2
_chemical_formula_sum   'Zn8 H28 C88 N32 F40'
_cell_volume   4983.17135062
_cell_formula_units_Z   4
loop_
 _symmetry_equiv_pos_site_id
 _symmetry_equiv_pos_as_xyz
  1  'x, y, z'
loop_
 _atom_site_type_symbol
 _atom_site_label
 _atom_site_symmetry_multiplicity
 _atom_site_fract_x
 _atom_site_fract_y
 _atom_site_fract_z
 _atom_site_occupancy
  Zn  Zn0  1  0.06552484  0.07167790  0.57299885  1.0
  Zn  Zn1  1  0.93369766  0.90579901  0.57645259  1.0
  Zn  Zn2  1  0.58237340  0.56755422  0.07047153  1.0
  Zn  Zn3  1  0.43696584  0.41501139  0.07140555  1.0
  Zn  Zn4  1  0.92987685  0.91126734  0.43313562  1.0
  Zn  Zn5  1  0.07101203  0.06288622  0.42999559  1.0
  Zn  Zn6  1  0.43460993  0.42420022  0.92839416  1.0
  Zn  Zn7  1  0.58927154  0.56449773  0.92669381  1.0
  H  H8  1  0.03420631  0.14160743  0.29435146  1.0
  H  H9  1  0.87756053  0.17961256  0.78741595  1.0
  H  H10  1  0.75180887  0.16011888  0.12515014  1.0
  H  H11  1  0.40384118  0.68020182  0.28866881  1.0
  H  H12  1  0.57039441  0.10277386  0.54727973  1.0
  H  H13  1  0.42004449  0.18737437  0.54492759  1.0
  H  H14  1  0.08770979  0.63548599  0.04681857  1.0
  H  H15  1  0.93632727  0.68627226  0.04607918  1.0
  H  H16  1  0.73810563  0.04073476  0.60009458  1.0
  H  H17  1  0.25059924  0.16829350  0.59378382  1.0
  H  H18  1  0.25393857  0.56475430  0.09680663  1.0
  H  H19  1  0.07745457  0.72613047  0.41986937  1.0
  H  H20  1  0.77116415  0.65605430  0.09369270  1.0
  H  H21  1  0.75118135  0.06444015  0.41111900  1.0
  H  H22  1  0.26606666  0.13337820  0.40618323  1.0
  H  H23  1  0.26127827  0.58560776  0.90756631  1.0
  H  H24  1  0.78281542  0.64326040  0.90470702  1.0
  H  H25  1  0.90089709  0.23555084  0.59464095  1.0
  H  H26  1  0.88405003  0.69615853  0.59963402  1.0
  H  H27  1  0.42955328  0.74353523  0.09189119  1.0
  H  H28  1  0.38567370  0.20762431  0.09238791  1.0
  H  H29  1  0.55474381  0.64942813  0.79177813  1.0
  H  H30  1  0.57087488  0.23222910  0.92100968  1.0
  H  H31  1  0.77886043  0.43246655  0.41780170  1.0
  H  H32  1  0.93216717  0.52635226  0.41156711  1.0
  H  H33  1  0.28753477  0.93391320  0.92074946  1.0
  H  H34  1  0.43173039  0.03639630  0.90038787  1.0
  H  H35  1  0.26963837  0.67179599  0.62045810  1.0
  C  C36  1  0.97391051  0.09751423  0.69580131  1.0
  C  C37  1  0.29842387  0.16185913  0.49975576  1.0
  C  C38  1  0.21791604  0.59961901  0.00249602  1.0
  C  C39  1  0.81579739  0.66327416  0.99938747  1.0
  C  C40  1  0.89162528  0.28122256  0.50054756  1.0
  C  C41  1  0.86873031  0.66200523  0.50510897  1.0
  C  C42  1  0.41917481  0.78863381  0.99759242  1.0
  C  C43  1  0.37734982  0.17238185  0.99752445  1.0
  C  C44  1  0.81818119  0.45038886  0.45479283  1.0
  C  C45  1  0.90272982  0.50161157  0.45131863  1.0
  C  C46  1  0.33211336  0.95482941  0.95394708  1.0
  C  C47  1  0.12726336  0.79615923  0.58124321  1.0
  C  C48  1  0.41157108  0.01115353  0.94270168  1.0
  C  C49  1  0.77777420  0.51307297  0.50623825  1.0
  C  C50  1  0.95424219  0.43417535  0.49686058  1.0
  C  C51  1  0.29868394  0.01671265  0.00714724  1.0
  C  C52  1  0.47471954  0.94638268  0.98459914  1.0
  C  C53  1  0.86256300  0.56554664  0.50321265  1.0
  C  C54  1  0.87014450  0.38039907  0.50062589  1.0
  C  C55  1  0.37819334  0.07440882  0.99619851  1.0
  C  C56  1  0.39587399  0.88776285  0.99638737  1.0
  C  C57  1  0.91375247  0.49528873  0.54889294  1.0
  C  C58  1  0.49257838  0.59676710  0.19441787  1.0
  C  C59  1  0.82933843  0.44343473  0.55214318  1.0
  C  C60  1  0.44144696  0.00701767  0.03846042  1.0
  C  C61  1  0.36211359  0.95036270  0.04951055  1.0
  C  C62  1  0.36594059  0.75080144  0.64368851  1.0
  C  C63  1  0.80967269  0.08063951  0.82245712  1.0
  C  C64  1  0.86264363  0.22511613  0.14047467  1.0
  C  C65  1  0.32199607  0.58831529  0.31848688  1.0
  C  C66  1  0.28754331  0.73949172  0.61692699  1.0
  C  C67  1  0.86598749  0.10998141  0.78232405  1.0
  C  C68  1  0.77897993  0.22277546  0.11774991  1.0
  C  C69  1  0.62358999  0.29140833  0.07976686  1.0
  C  C70  1  0.38455399  0.61412058  0.28106095  1.0
  C  C71  1  0.91161744  0.16280453  0.18271289  1.0
  C  C72  1  0.26808869  0.64297463  0.36229476  1.0
  C  C73  1  0.41861605  0.68956972  0.68488652  1.0
  C  C74  1  0.75705900  0.13623478  0.86628669  1.0
  C  C75  1  0.89293040  0.99676093  0.30883094  1.0
  C  C76  1  0.20592770  0.88417728  0.41972179  1.0
  C  C77  1  0.40315124  0.51511365  0.80642586  1.0
  C  C78  1  0.71269644  0.37806466  0.92281732  1.0
  C  C79  1  0.87759892  0.10601875  0.22089375  1.0
  C  C80  1  0.92062732  0.06424809  0.27263412  1.0
  C  C81  1  0.27332684  0.72844709  0.38027052  1.0
  C  C82  1  0.38834406  0.62778754  0.72106133  1.0
  C  C83  1  0.77107211  0.21704557  0.88805987  1.0
  C  C84  1  0.55384182  0.14169501  0.46017859  1.0
  C  C85  1  0.45431623  0.15915784  0.45782096  1.0
  C  C86  1  0.06731521  0.66611861  0.95861550  1.0
  C  C87  1  0.96773572  0.67932469  0.95714200  1.0
  C  C88  1  0.60681106  0.11000707  0.50629587  1.0
  C  C89  1  0.39311057  0.17380259  0.50231135  1.0
  C  C90  1  0.12215958  0.63878849  0.00471849  1.0
  C  C91  1  0.20357464  0.79192566  0.40857897  1.0
  C  C92  1  0.90842323  0.68079498  0.00256701  1.0
  C  C93  1  0.75644435  0.03844050  0.55397420  1.0
  C  C94  1  0.23906363  0.15718469  0.54780749  1.0
  C  C95  1  0.27053374  0.56088447  0.05044795  1.0
  C  C96  1  0.75915319  0.64918999  0.04731624  1.0
  C  C97  1  0.92621170  0.22677571  0.45342368  1.0
  C  C98  1  0.87505535  0.72212134  0.45845230  1.0
  C  C99  1  0.44998979  0.73269969  0.95043719  1.0
  C  C100  1  0.38099615  0.23390417  0.95124932  1.0
  C  C101  1  0.76317082  0.05109105  0.45734879  1.0
  C  C102  1  0.43335742  0.58218190  0.77103215  1.0
  C  C103  1  0.24739481  0.13869767  0.45205441  1.0
  C  C104  1  0.27431846  0.57195801  0.95365850  1.0
  C  C105  1  0.76539744  0.64224663  0.95079097  1.0
  C  C106  1  0.91359196  0.22212547  0.54848380  1.0
  C  C107  1  0.88132513  0.71532405  0.55368118  1.0
  C  C108  1  0.44054889  0.72954534  0.04566788  1.0
  C  C109  1  0.38365599  0.22700261  0.04646181  1.0
  C  C110  1  0.99297915  0.08986580  0.30488261  1.0
  C  C111  1  0.11128020  0.78511289  0.42169689  1.0
  C  C112  1  0.51012712  0.60061963  0.80215596  1.0
  C  C113  1  0.70397531  0.28678498  0.91327538  1.0
  C  C114  1  0.60927284  0.28791909  0.92296286  1.0
  C  C115  1  0.89632723  0.98749044  0.69975934  1.0
  C  C116  1  0.21023754  0.90231065  0.58115974  1.0
  C  C117  1  0.40341125  0.49632341  0.19543111  1.0
  C  C118  1  0.71555402  0.38959641  0.08163435  1.0
  C  C119  1  0.90933821  0.06409466  0.73214755  1.0
  C  C120  1  0.21828140  0.80810031  0.59192063  1.0
  C  C121  1  0.42407975  0.56805788  0.22983363  1.0
  C  C122  1  0.71597388  0.29609661  0.09192595  1.0
  C  C123  1  0.70363100  0.07439878  0.50539535  1.0
  N  N124  1  0.99727002  0.04797327  0.64859777  1.0
  N  N125  1  0.16048215  0.13198492  0.53044079  1.0
  N  N126  1  0.34987590  0.51278117  0.03124010  1.0
  N  N127  1  0.68254469  0.62130042  0.02894136  1.0
  N  N128  1  0.96525445  0.14354263  0.47045818  1.0
  N  N129  1  0.88955775  0.80321654  0.47603204  1.0
  N  N130  1  0.48646085  0.64864107  0.96747185  1.0
  N  N131  1  0.38874890  0.31682031  0.96938454  1.0
  N  N132  1  0.84293239  0.00358127  0.47648219  1.0
  N  N133  1  0.16594901  0.12073856  0.47065412  1.0
  N  N134  1  0.35190226  0.51929342  0.97182928  1.0
  N  N135  1  0.07169205  0.87296599  0.56735550  1.0
  N  N136  1  0.68661653  0.61708346  0.96878855  1.0
  N  N137  1  0.95749363  0.14060514  0.53015443  1.0
  N  N138  1  0.89365945  0.79874446  0.53636402  1.0
  N  N139  1  0.48054210  0.64668551  0.02727622  1.0
  N  N140  1  0.39053891  0.31222040  0.02983750  1.0
  N  N141  1  0.00548067  0.04186460  0.35476152  1.0
  N  N142  1  0.06550413  0.86640825  0.43779943  1.0
  N  N143  1  0.52246812  0.54929428  0.85080644  1.0
  N  N144  1  0.56807106  0.37234456  0.93581957  1.0
  N  N145  1  0.94686798  0.97710564  0.65109297  1.0
  N  N146  1  0.51107201  0.54909400  0.14588588  1.0
  N  N147  1  0.12498461  0.94062915  0.56703289  1.0
  N  N148  1  0.45341598  0.48431844  0.14663604  1.0
  N  N149  1  0.63303139  0.43378951  0.06615635  1.0
  N  N150  1  0.57400542  0.37123155  0.06519370  1.0
  N  N151  1  0.94249069  0.98296973  0.35742371  1.0
  N  N152  1  0.12407798  0.92838191  0.43655954  1.0
  N  N153  1  0.45497396  0.49527293  0.85356896  1.0
  N  N154  1  0.63200476  0.42885742  0.93559699  1.0
  N  N155  1  0.83907443  0.99628609  0.53582945  1.0
  F  F156  1  0.01113087  0.17247418  0.70442779  1.0
  F  F157  1  0.79130281  0.99414050  0.82084621  1.0
  F  F158  1  0.90513734  0.29861065  0.13054458  1.0
  F  F159  1  0.29730266  0.50474699  0.31329965  1.0
  F  F160  1  0.00139714  0.17175830  0.19034809  1.0
  F  F161  1  0.19406396  0.60727149  0.38240956  1.0
  F  F162  1  0.50639537  0.70440258  0.69381409  1.0
  F  F163  1  0.67497703  0.10962020  0.88012243  1.0
  F  F164  1  0.78892933  0.09328744  0.21373640  1.0
  F  F165  1  0.34917209  0.76372597  0.36309780  1.0
  F  F166  1  0.30107339  0.61136559  0.71312954  1.0
  F  F167  1  0.09463772  0.71768910  0.58567320  1.0
  F  F168  1  0.85487458  0.24179813  0.87779379  1.0
  F  F169  1  0.59470140  0.14987587  0.40678717  1.0
  F  F170  1  0.42283429  0.14674429  0.40270425  1.0
  F  F171  1  0.10632886  0.67081686  0.90440818  1.0
  F  F172  1  0.93497712  0.67630252  0.90146795  1.0
  F  F173  1  0.82589189  0.94803645  0.30022459  1.0
  F  F174  1  0.27697313  0.92880382  0.41416674  1.0
  F  F175  1  0.33179786  0.47179054  0.79844584  1.0
  F  F176  1  0.78824118  0.41636957  0.91922262  1.0
  F  F177  1  0.92491392  0.25082014  0.39643959  1.0
  F  F178  1  0.53759414  0.66598092  0.20501170  1.0
  F  F179  1  0.86984368  0.70650200  0.40078041  1.0
  F  F180  1  0.44693765  0.75615770  0.89334863  1.0
  F  F181  1  0.37912502  0.21818490  0.89340507  1.0
  F  F182  1  0.83901618  0.92842047  0.71057963  1.0
  F  F183  1  0.27542582  0.95445218  0.58327308  1.0
  F  F184  1  0.33991162  0.44302522  0.20445868  1.0
  F  F185  1  0.78482987  0.43643331  0.08603854  1.0
  F  F186  1  0.68858421  0.55412228  0.51120404  1.0
  F  F187  1  0.04238792  0.39012964  0.49213016  1.0
  F  F188  1  0.20971275  0.05335472  0.01869951  1.0
  F  F189  1  0.58464275  0.21654286  0.08333459  1.0
  F  F190  1  0.56293572  0.90719821  0.97311794  1.0
  F  F191  1  0.96072058  0.51995132  0.59555017  1.0
  F  F192  1  0.79156405  0.41412389  0.60212448  1.0
  F  F193  1  0.49502613  0.03536768  0.08037361  1.0
  F  F194  1  0.33652710  0.91958124  0.10268179  1.0
  F  F195  1  0.39709135  0.83206969  0.63975162  1.0
