# generated using pymatgen
data_Zn2H19C40N2O8F3
_symmetry_space_group_name_H-M   'P 1'
_cell_length_a   9.70589006
_cell_length_b   11.05789000
_cell_length_c   14.38624525
_cell_angle_alpha   91.61324194
_cell_angle_beta   100.53071077
_cell_angle_gamma   91.08362788
_symmetry_Int_Tables_number   1
_chemical_formula_structural   Zn2H19C40N2O8F3
_chemical_formula_sum   'Zn2 H19 C40 N2 O8 F3'
_cell_volume   1516.96540768
_cell_formula_units_Z   1
loop_
 _symmetry_equiv_pos_site_id
 _symmetry_equiv_pos_as_xyz
  1  'x, y, z'
loop_
 _atom_site_type_symbol
 _atom_site_label
 _atom_site_symmetry_multiplicity
 _atom_site_fract_x
 _atom_site_fract_y
 _atom_site_fract_z
 _atom_site_occupancy
  Zn  Zn0  1  0.86927162  0.52681348  0.52311473  1.0
  Zn  Zn1  1  0.14725477  0.52650635  0.49374073  1.0
  H  H2  1  0.23666671  0.30476151  0.10467855  1.0
  H  H3  1  0.61773023  0.41427089  0.40654086  1.0
  H  H4  1  0.07294799  0.55946326  0.18907137  1.0
  H  H5  1  0.79741959  0.51444040  0.87886232  1.0
  H  H6  1  0.33559112  0.50170397  0.77045863  1.0
  H  H7  1  0.98543684  0.55181082  0.01430378  1.0
  H  H8  1  0.21850022  0.14397830  0.51097767  1.0
  H  H9  1  0.35349508  0.41794282  0.39434026  1.0
  H  H10  1  0.03763283  0.30897459  0.97366266  1.0
  H  H11  1  0.93489135  0.36878951  0.80916868  1.0
  H  H12  1  0.47843605  0.35866428  0.17390223  1.0
  H  H13  1  0.74105498  0.79403706  0.48472569  1.0
  H  H14  1  0.51828034  0.89752252  0.48404482  1.0
  H  H15  1  0.51806666  0.12282353  0.50511787  1.0
  H  H16  1  0.73774710  0.24175995  0.51086538  1.0
  H  H17  1  0.28042354  0.70028767  0.62569010  1.0
  H  H18  1  0.43757393  0.81771110  0.75277935  1.0
  H  H19  1  0.69655312  0.79434821  0.77625448  1.0
  H  H20  1  0.80007669  0.65808497  0.66895665  1.0
  C  C21  1  0.01294435  0.76067326  0.51409463  1.0
  C  C22  1  0.77458318  0.49700311  0.02600023  1.0
  C  C23  1  0.67928612  0.46434437  0.08706277  1.0
  C  C24  1  0.07087101  0.48479103  0.68711250  1.0
  C  C25  1  0.91595852  0.52988261  0.06329279  1.0
  C  C26  1  0.96443720  0.53455349  0.15928506  1.0
  C  C27  1  0.73537642  0.47474405  0.18531126  1.0
  C  C28  1  0.74058069  0.89191785  0.49087765  1.0
  C  C29  1  0.61612733  0.94994616  0.49081391  1.0
  C  C30  1  0.61559248  0.07702468  0.50112666  1.0
  C  C31  1  0.73798951  0.14382094  0.50526230  1.0
  C  C32  1  0.33734511  0.42304715  0.90805456  1.0
  C  C33  1  0.86805810  0.08777803  0.50230046  1.0
  C  C34  1  0.87064174  0.95702023  0.50064569  1.0
  C  C35  1  0.00197230  0.89582533  0.50826029  1.0
  C  C36  1  0.00825940  0.29064939  0.49620640  1.0
  C  C37  1  0.12191266  0.96761020  0.51317809  1.0
  C  C38  1  0.12055212  0.09352790  0.50868494  1.0
  C  C39  1  0.99661108  0.15493696  0.50266007  1.0
  C  C40  1  0.39313131  0.69121126  0.63566843  1.0
  C  C41  1  0.48169227  0.75584525  0.70627480  1.0
  C  C42  1  0.62868430  0.74285145  0.71946309  1.0
  C  C43  1  0.24735232  0.37217851  0.96609216  1.0
  C  C44  1  0.68726522  0.66715962  0.66063373  1.0
  C  C45  1  0.59921729  0.60139531  0.58634381  1.0
  C  C46  1  0.44958152  0.61094183  0.57494074  1.0
  C  C47  1  0.42329886  0.47227256  0.44838094  1.0
  C  C48  1  0.92800749  0.52475159  0.32704231  1.0
  C  C49  1  0.57004142  0.46803498  0.45629385  1.0
  C  C50  1  0.13182879  0.44180341  0.78312818  1.0
  C  C51  1  0.87304209  0.50991610  0.22276040  1.0
  C  C52  1  0.10317366  0.35061295  0.92869132  1.0
  C  C53  1  0.04566240  0.38435365  0.83866675  1.0
  C  C54  1  0.48515298  0.44173750  0.94705177  1.0
  C  C55  1  0.27454897  0.45816380  0.81658371  1.0
  C  C56  1  0.53554388  0.42884097  0.04595091  1.0
  C  C57  1  0.44071500  0.37707882  0.10022448  1.0
  C  C58  1  0.30459417  0.34660586  0.06137391  1.0
  C  C59  1  0.58778270  0.47017010  0.89093579  1.0
  C  C60  1  0.72549828  0.49532198  0.92685854  1.0
  N  N61  1  0.36455908  0.54238065  0.50572589  1.0
  N  N62  1  0.65540269  0.53029217  0.52415283  1.0
  O  O63  1  0.92518328  0.70485961  0.55470480  1.0
  O  O64  1  0.10970415  0.71022848  0.47957656  1.0
  O  O65  1  0.93819295  0.47564689  0.66019533  1.0
  O  O66  1  0.15589319  0.52795161  0.63806648  1.0
  O  O67  1  0.89580616  0.35074306  0.48293808  1.0
  O  O68  1  0.13095552  0.33753725  0.50365784  1.0
  O  O69  1  0.84408678  0.56021176  0.37985466  1.0
  O  O70  1  0.05761809  0.50261713  0.35380382  1.0
  F  F71  1  0.25147117  0.91802228  0.52522287  1.0
  F  F72  1  0.64935917  0.44940939  0.24780859  1.0
  F  F73  1  0.55015722  0.46718379  0.79450621  1.0
