# generated using pymatgen
data_Zn6H41C78NO26
_symmetry_space_group_name_H-M   'P 1'
_cell_length_a   18.58820042
_cell_length_b   18.69805972
_cell_length_c   18.77966994
_cell_angle_alpha   109.24198459
_cell_angle_beta   109.65609673
_cell_angle_gamma   109.17764665
_symmetry_Int_Tables_number   1
_chemical_formula_structural   Zn6H41C78NO26
_chemical_formula_sum   'Zn6 H41 C78 N1 O26'
_cell_volume   5045.35076842
_cell_formula_units_Z   1
loop_
 _symmetry_equiv_pos_site_id
 _symmetry_equiv_pos_as_xyz
  1  'x, y, z'
loop_
 _atom_site_type_symbol
 _atom_site_label
 _atom_site_symmetry_multiplicity
 _atom_site_fract_x
 _atom_site_fract_y
 _atom_site_fract_z
 _atom_site_occupancy
  Zn  Zn0  1  0.93749991  0.94444164  0.50123698  1.0
  Zn  Zn1  1  0.06396840  0.06490183  0.49843927  1.0
  Zn  Zn2  1  0.05948488  0.50037868  0.06035372  1.0
  Zn  Zn3  1  0.93544677  0.50559653  0.93904634  1.0
  Zn  Zn4  1  0.49443656  0.93253466  0.93239409  1.0
  Zn  Zn5  1  0.50888545  0.06218680  0.06472882  1.0
  H  H6  1  0.01522720  0.64068855  0.44753273  1.0
  H  H7  1  0.94650899  0.92374614  0.28179110  1.0
  H  H8  1  0.91482575  0.93678773  0.15112882  1.0
  H  H9  1  0.90621811  0.82697749  0.02275299  1.0
  H  H10  1  0.92491141  0.70454073  0.02661169  1.0
  H  H11  1  0.97323709  0.53828000  0.18736685  1.0
  H  H12  1  0.99961585  0.52616975  0.31830914  1.0
  H  H13  1  0.99605137  0.76292458  0.44075187  1.0
  H  H14  1  0.28458370  0.02919521  0.62848485  1.0
  H  H15  1  0.07474792  0.02865410  0.72550574  1.0
  H  H16  1  0.05087190  0.00397342  0.83812007  1.0
  H  H17  1  0.14727724  0.96576712  0.93010684  1.0
  H  H18  1  0.27264224  0.96305983  0.91490139  1.0
  H  H19  1  0.38714604  0.00183802  0.72800523  1.0
  H  H20  1  0.94451952  0.11235972  0.73734014  1.0
  H  H21  1  0.97521230  0.20337535  0.53115581  1.0
  H  H22  1  0.98171368  0.44932692  0.62033866  1.0
  H  H23  1  0.97100187  0.44189455  0.74656104  1.0
  H  H24  1  0.95294846  0.23719679  0.84982675  1.0
  H  H25  1  0.90029499  0.12881651  0.31876919  1.0
  H  H26  1  0.80627866  0.84234544  0.29240396  1.0
  H  H27  1  0.68198042  0.69736864  0.18244697  1.0
  H  H28  1  0.56051392  0.67634857  0.05277852  1.0
  H  H29  1  0.56772791  0.80314386  0.03466473  1.0
  H  H30  1  0.77317517  0.10905597  0.19612187  1.0
  H  H31  1  0.89730290  0.37868545  0.16106027  1.0
  H  H32  1  0.81502887  0.27294670  0.85924171  1.0
  H  H33  1  0.68449830  0.15352460  0.72044698  1.0
  H  H34  1  0.55196633  0.05799778  0.71854593  1.0
  H  H35  1  0.55578730  0.07687776  0.85576454  1.0
  H  H36  1  0.76867990  0.27694384  0.15948617  1.0
  H  H37  1  0.11508193  0.74133986  0.11212129  1.0
  H  H38  1  0.12245325  0.88337084  0.17512793  1.0
  H  H39  1  0.22335529  0.00890515  0.17272994  1.0
  H  H40  1  0.31793923  0.99200073  0.11034846  1.0
  H  H41  1  0.35819161  0.75181633  0.97268836  1.0
  H  H42  1  0.17739893  0.56297756  0.82288394  1.0
  H  H43  1  0.29238605  0.61421905  0.86314706  1.0
  H  H44  1  0.23501945  0.50541490  0.83983806  1.0
  H  H45  1  0.31757429  0.60745592  0.00076990  1.0
  H  H46  1  0.20401128  0.55151779  0.96012542  1.0
  C  C47  1  0.13833683  0.02674158  0.61878436  1.0
  C  C48  1  0.97283941  0.86180010  0.38206264  1.0
  C  C49  1  0.90707146  0.01491567  0.37118501  1.0
  C  C50  1  0.96978360  0.10320767  0.60508009  1.0
  C  C51  1  0.93976338  0.87419572  0.22581055  1.0
  C  C52  1  0.92350371  0.88236417  0.15292020  1.0
  C  C53  1  0.91840146  0.82020364  0.08055542  1.0
  C  C54  1  0.92912583  0.75156724  0.08269026  1.0
  C  C55  1  0.94404060  0.73928576  0.15660797  1.0
  C  C56  1  0.94986885  0.80320852  0.23072585  1.0
  C  C57  1  0.95632336  0.66970789  0.16157705  1.0
  C  C58  1  0.96972353  0.65944659  0.23589416  1.0
  C  C59  1  0.97379857  0.72275000  0.30904219  1.0
  C  C60  1  0.96432397  0.79331100  0.30498167  1.0
  C  C61  1  0.97794513  0.58792033  0.24189921  1.0
  C  C62  1  0.99311861  0.58126996  0.31560889  1.0
  C  C63  1  0.00134861  0.64584939  0.38876005  1.0
  C  C64  1  0.99123304  0.71420505  0.38514911  1.0
  C  C65  1  0.11848041  0.01436093  0.76642012  1.0
  C  C66  1  0.10483290  0.99999998  0.82936908  1.0
  C  C67  1  0.15966266  0.97937209  0.88190605  1.0
  C  C68  1  0.22955897  0.97712929  0.87294961  1.0
  C  C69  1  0.24695599  0.99365939  0.81014178  1.0
  C  C70  1  0.18808098  0.00950126  0.75312183  1.0
  C  C71  1  0.20342735  0.02157785  0.68688552  1.0
  C  C72  1  0.27462472  0.01998754  0.67948430  1.0
  C  C73  1  0.33196469  0.00407754  0.73515406  1.0
  C  C74  1  0.31941490  0.99210896  0.79982468  1.0
  C  C75  1  0.97379214  0.25400669  0.57909399  1.0
  C  C76  1  0.97832551  0.32545932  0.57041820  1.0
  C  C77  1  0.97795827  0.39443261  0.63041746  1.0
  C  C78  1  0.97242438  0.38982433  0.70009503  1.0
  C  C79  1  0.96673810  0.31724084  0.71213330  1.0
  C  C80  1  0.96806149  0.24775926  0.65043780  1.0
  C  C81  1  0.96109269  0.17405120  0.66191396  1.0
  C  C82  1  0.95172987  0.16968152  0.73067164  1.0
  C  C83  1  0.95535497  0.23959759  0.79340414  1.0
  C  C84  1  0.96279634  0.31225272  0.78510243  1.0
  C  C85  1  0.75520570  0.83514273  0.23644635  1.0
  C  C86  1  0.68452871  0.75326348  0.17460147  1.0
  C  C87  1  0.61609053  0.74145536  0.10152100  1.0
  C  C88  1  0.61978663  0.81204042  0.09142409  1.0
  C  C89  1  0.69250299  0.89721772  0.15325603  1.0
  C  C90  1  0.76225119  0.90966254  0.22814727  1.0
  C  C91  1  0.83665423  0.99570645  0.28831989  1.0
  C  C92  1  0.84231775  0.06458205  0.27324024  1.0
  C  C93  1  0.77126105  0.05314983  0.20352825  1.0
  C  C94  1  0.69735367  0.97173695  0.14526434  1.0
  C  C95  1  0.90907597  0.38395382  0.02519570  1.0
  C  C96  1  0.96241633  0.61000208  0.09091913  1.0
  C  C97  1  0.13665893  0.62398455  0.02672592  1.0
  C  C98  1  0.96925491  0.38498977  0.85650491  1.0
  C  C99  1  0.62275771  0.13645312  0.02383077  1.0
  C  C100  1  0.38624313  0.98380948  0.86303391  1.0
  C  C101  1  0.38821493  0.90927742  0.02929643  1.0
  C  C102  1  0.62063887  0.96722504  0.07954359  1.0
  C  C103  1  0.75895092  0.23024229  0.85934524  1.0
  C  C104  1  0.68537364  0.16363723  0.78141295  1.0
  C  C105  1  0.61094633  0.10936770  0.78043862  1.0
  C  C106  1  0.61271873  0.12036563  0.85735347  1.0
  C  C107  1  0.68848865  0.18693430  0.93911969  1.0
  C  C108  1  0.76226432  0.24526271  0.93997363  1.0
  C  C109  1  0.83714846  0.31508544  0.02210654  1.0
  C  C110  1  0.83964423  0.32509585  0.09942646  1.0
  C  C111  1  0.76717334  0.26827052  0.09859500  1.0
  C  C112  1  0.69349285  0.20015501  0.02068942  1.0
  C  C113  1  0.15902209  0.79572860  0.11075625  1.0
  C  C114  1  0.16336221  0.87534602  0.14640929  1.0
  C  C115  1  0.22035097  0.94605187  0.14502920  1.0
  C  C116  1  0.27313857  0.93681811  0.10973304  1.0
  C  C117  1  0.27143026  0.85607968  0.07354238  1.0
  C  C118  1  0.21144670  0.78332999  0.07274179  1.0
  C  C119  1  0.20595391  0.70037311  0.03446417  1.0
  C  C120  1  0.25878283  0.68797419  0.99962310  1.0
  C  C121  1  0.31700513  0.76002118  0.00087190  1.0
  C  C122  1  0.32416936  0.84160538  0.03557354  1.0
  C  C123  1  0.25500403  0.60125975  0.95924438  1.0
  C  C124  1  0.23912512  0.56940660  0.86604685  1.0
  N  N125  1  0.98364960  0.32993276  0.49518488  1.0
  O  O126  1  0.05770610  0.97614331  0.59014406  1.0
  O  O127  1  0.16599403  0.07861414  0.59112168  1.0
  O  O128  1  0.91843470  0.83874682  0.40904503  1.0
  O  O129  1  0.03291830  0.93923239  0.41514543  1.0
  O  O130  1  0.88315454  0.97647819  0.41041117  1.0
  O  O131  1  0.98777799  0.06935968  0.39955554  1.0
  O  O132  1  0.92104025  0.02462810  0.58539050  1.0
  O  O133  1  0.02696792  0.12619863  0.58262276  1.0
  O  O134  1  0.98996955  0.41337280  0.08063359  1.0
  O  O135  1  0.88600733  0.41223115  0.97366635  1.0
  O  O136  1  0.02434361  0.59260859  0.11351522  1.0
  O  O137  1  0.90701211  0.58035508  0.01053290  1.0
  O  O138  1  0.16105103  0.59217733  0.07550673  1.0
  O  O139  1  0.05784947  0.59565598  0.97111195  1.0
  O  O140  1  0.02350251  0.40928663  0.93370222  1.0
  O  O141  1  0.91858942  0.41647889  0.83481805  1.0
  O  O142  1  0.59025574  0.05643900  0.97109981  1.0
  O  O143  1  0.60044974  0.16517291  0.08064893  1.0
  O  O144  1  0.40992265  0.92849240  0.83282506  1.0
  O  O145  1  0.41679400  0.03356001  0.94322414  1.0
  O  O146  1  0.40771942  0.88181981  0.97069079  1.0
  O  O147  1  0.42132740  0.99091016  0.08268359  1.0
  O  O148  1  0.58436794  0.91203028  0.99819848  1.0
  O  O149  1  0.59663616  0.02040392  0.11034099  1.0
  O  O150  1  0.98904333  0.27130225  0.44556534  1.0
  O  O151  1  0.98248633  0.39242283  0.48601640  1.0
