# generated using pymatgen
data_Al2H56C49O11
_symmetry_space_group_name_H-M   'P 1'
_cell_length_a   6.84464973
_cell_length_b   21.43493883
_cell_length_c   21.65535857
_cell_angle_alpha   93.05999808
_cell_angle_beta   89.99981708
_cell_angle_gamma   89.99951159
_symmetry_Int_Tables_number   1
_chemical_formula_structural   Al2H56C49O11
_chemical_formula_sum   'Al4 H112 C98 O22'
_cell_volume   3172.62826911
_cell_formula_units_Z   2
loop_
 _symmetry_equiv_pos_site_id
 _symmetry_equiv_pos_as_xyz
  1  'x, y, z'
loop_
 _atom_site_type_symbol
 _atom_site_label
 _atom_site_symmetry_multiplicity
 _atom_site_fract_x
 _atom_site_fract_y
 _atom_site_fract_z
 _atom_site_occupancy
  Al  Al0  1  0.12976188  0.50261791  0.49911252  1.0
  Al  Al1  1  0.62975392  0.49738546  0.50089152  1.0
  Al  Al2  1  0.66002497  0.00143010  0.00005222  1.0
  Al  Al3  1  0.16001839  0.99857087  0.99994889  1.0
  H  H4  1  0.83978670  0.07079639  0.19631768  1.0
  H  H5  1  0.33982948  0.92921950  0.80368508  1.0
  H  H6  1  0.78261114  0.09829132  0.30538571  1.0
  H  H7  1  0.28264857  0.90169716  0.69461546  1.0
  H  H8  1  0.76486872  0.17765055  0.39284998  1.0
  H  H9  1  0.26481429  0.82234961  0.60715791  1.0
  H  H10  1  0.79258210  0.28838139  0.43185557  1.0
  H  H11  1  0.29253254  0.71161924  0.56814216  1.0
  H  H12  1  0.98023841  0.42894545  0.30974489  1.0
  H  H13  1  0.48021756  0.57106069  0.69025901  1.0
  H  H14  1  0.01102544  0.40300361  0.19856303  1.0
  H  H15  1  0.51103774  0.59699168  0.80144063  1.0
  H  H16  1  0.81717242  0.71135298  0.14424905  1.0
  H  H17  1  0.31714853  0.28863828  0.85574209  1.0
  H  H18  1  0.13439824  0.66977342  0.24829666  1.0
  H  H19  1  0.63438465  0.33022434  0.75170520  1.0
  H  H20  1  0.65130055  0.82815768  0.25310129  1.0
  H  H21  1  0.15129853  0.17184052  0.74689827  1.0
  H  H22  1  0.86421365  0.86526022  0.27954502  1.0
  H  H23  1  0.36421731  0.13473735  0.72045893  1.0
  H  H24  1  0.66977365  0.77039901  0.34140062  1.0
  H  H25  1  0.16974916  0.22959637  0.65859368  1.0
  H  H26  1  0.62363948  0.75439748  0.17674022  1.0
  H  H27  1  0.12362441  0.24560451  0.82326421  1.0
  H  H28  1  0.59646971  0.69348833  0.25853020  1.0
  H  H29  1  0.09643785  0.30650488  0.74146911  1.0
  H  H30  1  0.91330216  0.79301191  0.35577975  1.0
  H  H31  1  0.41330620  0.20698135  0.64422113  1.0
  H  H32  1  0.90383859  0.14313288  0.99598590  1.0
  H  H33  1  0.15437389  0.15140287  0.01893467  1.0
  H  H34  1  0.18368664  0.24524812  0.95671854  1.0
  H  H35  1  0.08430647  0.18193176  0.91045084  1.0
  H  H36  1  0.92830924  0.24212094  0.94093747  1.0
  H  H37  1  0.40384843  0.85687392  0.00402088  1.0
  H  H38  1  0.65438474  0.84859023  0.98105811  1.0
  H  H39  1  0.68368274  0.75475234  0.04327882  1.0
  H  H40  1  0.58431205  0.81806661  0.08955156  1.0
  H  H41  1  0.42829774  0.75788581  0.05906651  1.0
  H  H42  1  0.49832888  0.87547253  0.33415500  1.0
  H  H43  1  0.47319797  0.92621036  0.27244828  1.0
  H  H44  1  0.35528772  0.94416777  0.34423690  1.0
  H  H45  1  0.10727889  0.90379067  0.27260089  1.0
  H  H46  1  0.14750198  0.84806599  0.32836746  1.0
  H  H47  1  0.39864671  0.79951610  0.24449480  1.0
  H  H48  1  0.27545088  0.84550565  0.19304577  1.0
  H  H49  1  0.99831009  0.12452562  0.66584703  1.0
  H  H50  1  0.97319154  0.07378742  0.72755097  1.0
  H  H51  1  0.85526796  0.05582611  0.65576407  1.0
  H  H52  1  0.60727770  0.09620289  0.72741136  1.0
  H  H53  1  0.64746778  0.15192658  0.67163638  1.0
  H  H54  1  0.89862634  0.20047861  0.75550525  1.0
  H  H55  1  0.77544724  0.15448983  0.80695998  1.0
  H  H56  1  0.21259315  0.68421545  0.03545764  1.0
  H  H57  1  0.42162224  0.65827740  0.07471004  1.0
  H  H58  1  0.23238183  0.60489830  0.05415712  1.0
  H  H59  1  0.20808300  0.63419297  0.16600632  1.0
  H  H60  1  0.00432958  0.65987213  0.12558992  1.0
  H  H61  1  0.17123370  0.76752519  0.12206795  1.0
  H  H62  1  0.36353590  0.73735945  0.16398594  1.0
  H  H63  1  0.71257758  0.31579099  0.96454282  1.0
  H  H64  1  0.92159326  0.34172147  0.92528748  1.0
  H  H65  1  0.73236287  0.39509970  0.94583867  1.0
  H  H66  1  0.70808215  0.36580372  0.83398710  1.0
  H  H67  1  0.50432605  0.34013118  0.87440638  1.0
  H  H68  1  0.67122133  0.23247153  0.87793566  1.0
  H  H69  1  0.86352756  0.26263487  0.83601689  1.0
  H  H70  1  0.49890630  0.70482188  0.42408291  1.0
  H  H71  1  0.26128880  0.68024635  0.44636737  1.0
  H  H72  1  0.44998591  0.62438742  0.43228589  1.0
  H  H73  1  0.21418180  0.62384515  0.34443924  1.0
  H  H74  1  0.44860708  0.64518699  0.32026989  1.0
  H  H75  1  0.36611788  0.75255496  0.31608581  1.0
  H  H76  1  0.16805202  0.74707214  0.36614195  1.0
  H  H77  1  0.99888540  0.29516228  0.57591596  1.0
  H  H78  1  0.76127041  0.31974784  0.55362862  1.0
  H  H79  1  0.94996587  0.37560860  0.56770820  1.0
  H  H80  1  0.71417098  0.37614636  0.65555663  1.0
  H  H81  1  0.94860387  0.35480899  0.67973020  1.0
  H  H82  1  0.86611166  0.24744263  0.68391583  1.0
  H  H83  1  0.66804622  0.25292129  0.63386423  1.0
  H  H84  1  0.21477069  0.35130306  0.97851276  1.0
  H  H85  1  0.26623866  0.41864079  0.02677355  1.0
  H  H86  1  0.45466404  0.36416336  0.00768917  1.0
  H  H87  1  0.33915736  0.34933520  0.11547107  1.0
  H  H88  1  0.28152811  0.28276780  0.06776673  1.0
  H  H89  1  0.93935386  0.32198174  0.05609218  1.0
  H  H90  1  0.00114544  0.39102055  0.09982267  1.0
  H  H91  1  0.71479472  0.64869915  0.02148930  1.0
  H  H92  1  0.76627722  0.58136881  0.97322151  1.0
  H  H93  1  0.95469362  0.63584619  0.99230619  1.0
  H  H94  1  0.83917168  0.65067792  0.88452691  1.0
  H  H95  1  0.78154449  0.71724263  0.93223668  1.0
  H  H96  1  0.43937697  0.67802222  0.94390609  1.0
  H  H97  1  0.50117385  0.60898322  0.90017597  1.0
  H  H98  1  0.80708397  0.52148184  0.12726458  1.0
  H  H99  1  0.65407980  0.49641272  0.18734937  1.0
  H  H100  1  0.55266503  0.51133132  0.11410805  1.0
  H  H101  1  0.47805184  0.60111901  0.18870292  1.0
  H  H102  1  0.63594598  0.62491002  0.13026309  1.0
  H  H103  1  0.92122845  0.60979648  0.20392487  1.0
  H  H104  1  0.75190488  0.59183694  0.26122264  1.0
  H  H105  1  0.30706648  0.47851878  0.87272852  1.0
  H  H106  1  0.15405353  0.50358505  0.81264416  1.0
  H  H107  1  0.05266465  0.48866061  0.88589076  1.0
  H  H108  1  0.97803867  0.39887027  0.81130690  1.0
  H  H109  1  0.13596490  0.37508306  0.86973988  1.0
  H  H110  1  0.42121710  0.39020340  0.79606208  1.0
  H  H111  1  0.25186593  0.40815774  0.73877246  1.0
  H  H112  1  0.37874552  0.47065470  0.42358618  1.0
  H  H113  1  0.87874901  0.52934615  0.57641333  1.0
  H  H114  1  0.40932205  0.00770095  0.08087639  1.0
  H  H115  1  0.90932389  0.99229648  0.91913120  1.0
  C  C116  1  0.37320231  0.42155500  0.57526956  1.0
  C  C117  1  0.87322225  0.57843879  0.42473832  1.0
  C  C118  1  0.38155407  0.58750318  0.57313126  1.0
  C  C119  1  0.88157844  0.41249386  0.42687496  1.0
  C  C120  1  0.94290686  0.19907199  0.11492275  1.0
  C  C121  1  0.44292441  0.80093995  0.88506906  1.0
  C  C122  1  0.91103164  0.13589428  0.12756805  1.0
  C  C123  1  0.41105640  0.86411169  0.87242159  1.0
  C  C124  1  0.86841137  0.11970124  0.18763756  1.0
  C  C125  1  0.36847582  0.88031135  0.81235759  1.0
  C  C126  1  0.85991043  0.16443763  0.23688133  1.0
  C  C127  1  0.35992549  0.83556419  0.76311965  1.0
  C  C128  1  0.89896204  0.22833732  0.22515347  1.0
  C  C129  1  0.39894362  0.77166443  0.77484285  1.0
  C  C130  1  0.94172254  0.24675914  0.16369455  1.0
  C  C131  1  0.44174337  0.75324386  0.83630550  1.0
  C  C132  1  0.81243674  0.14743899  0.29821451  1.0
  C  C133  1  0.31243888  0.85255316  0.70178455  1.0
  C  C134  1  0.80276848  0.19099355  0.34640382  1.0
  C  C135  1  0.30275480  0.80900284  0.65359319  1.0
  C  C136  1  0.84363462  0.25532343  0.33702779  1.0
  C  C137  1  0.34361672  0.74466909  0.66297265  1.0
  C  C138  1  0.89378777  0.27313158  0.27620953  1.0
  C  C139  1  0.39376820  0.72687435  0.72379074  1.0
  C  C140  1  0.93873594  0.33672105  0.26658501  1.0
  C  C141  1  0.43873843  0.66327957  0.73342229  1.0
  C  C142  1  0.97973450  0.35380835  0.20540308  1.0
  C  C143  1  0.47970608  0.64618845  0.79459981  1.0
  C  C144  1  0.98054327  0.31246274  0.15469502  1.0
  C  C145  1  0.48054239  0.68753732  0.84530898  1.0
  C  C146  1  0.83535427  0.30129224  0.38570445  1.0
  C  C147  1  0.33530162  0.69870220  0.61429149  1.0
  C  C148  1  0.88621805  0.36301814  0.37570732  1.0
  C  C149  1  0.38617425  0.63698594  0.62429377  1.0
  C  C150  1  0.94021506  0.38058922  0.31702496  1.0
  C  C151  1  0.44021783  0.61941659  0.68297481  1.0
  C  C152  1  0.76633362  0.73448016  0.18740703  1.0
  C  C153  1  0.26632252  0.26550837  0.81259277  1.0
  C  C154  1  0.11491767  0.76493808  0.21996877  1.0
  C  C155  1  0.61489025  0.23505698  0.78002648  1.0
  C  C156  1  0.10068941  0.71536803  0.27136119  1.0
  C  C157  1  0.60069631  0.28462985  0.72863839  1.0
  C  C158  1  0.86457712  0.62810408  0.38249646  1.0
  C  C159  1  0.36456242  0.37188787  0.61751038  1.0
  C  C160  1  0.90279410  0.78960119  0.20733014  1.0
  C  C161  1  0.40276863  0.21039208  0.79267445  1.0
  C  C162  1  0.74573830  0.68850177  0.23992123  1.0
  C  C163  1  0.24572216  0.31148964  0.76007738  1.0
  C  C164  1  0.88397122  0.71018753  0.29436065  1.0
  C  C165  1  0.38398111  0.28981046  0.70564377  1.0
  C  C166  1  0.81317477  0.77523257  0.31933633  1.0
  C  C167  1  0.31316477  0.22476562  0.68066678  1.0
  C  C168  1  0.80291682  0.81958765  0.26606864  1.0
  C  C169  1  0.30292203  0.18040681  0.73393795  1.0
  C  C170  1  0.87092777  0.66638366  0.34310905  1.0
  C  C171  1  0.37094142  0.33361067  0.65688916  1.0
  C  C172  1  0.90630745  0.83524923  0.15995205  1.0
  C  C173  1  0.40630458  0.16474138  0.84003113  1.0
  C  C174  1  0.90925398  0.87359009  0.12042838  1.0
  C  C175  1  0.40922833  0.12641297  0.87957632  1.0
  C  C176  1  0.41024749  0.91773504  0.92010932  1.0
  C  C177  1  0.91024515  0.08227136  0.07988497  1.0
  C  C178  1  0.41122291  0.08222996  0.92756219  1.0
  C  C179  1  0.91123915  0.91777966  0.07243967  1.0
  C  C180  1  0.02266345  0.17669079  0.00616072  1.0
  C  C181  1  0.05701589  0.21419314  0.95044301  1.0
  C  C182  1  0.52266315  0.82331197  0.99383876  1.0
  C  C183  1  0.55701109  0.78580719  0.04955768  1.0
  C  C184  1  0.25577576  0.82064029  0.23587263  1.0
  C  C185  1  0.21353743  0.86978100  0.28857645  1.0
  C  C186  1  0.39529339  0.90579146  0.31094823  1.0
  C  C187  1  0.75575439  0.17935339  0.76412980  1.0
  C  C188  1  0.71352090  0.13021139  0.71142687  1.0
  C  C189  1  0.89527807  0.09420466  0.68905099  1.0
  C  C190  1  0.20400990  0.73503171  0.15844446  1.0
  C  C191  1  0.16051419  0.66824836  0.13286176  1.0
  C  C192  1  0.26261638  0.65317720  0.07108645  1.0
  C  C193  1  0.70399706  0.26496682  0.84155415  1.0
  C  C194  1  0.66050804  0.33175543  0.86713813  1.0
  C  C195  1  0.76259891  0.34682396  0.92891273  1.0
  C  C196  1  0.24232810  0.72247841  0.32682360  1.0
  C  C197  1  0.32426726  0.66093949  0.34939537  1.0
  C  C198  1  0.38794280  0.66797520  0.41688346  1.0
  C  C199  1  0.74231681  0.27751390  0.67318015  1.0
  C  C200  1  0.82425311  0.33904979  0.65060812  1.0
  C  C201  1  0.88792813  0.33201674  0.58311597  1.0
  C  C202  1  0.03164442  0.34055115  0.09405143  1.0
  C  C203  1  0.24772581  0.33270707  0.07606175  1.0
  C  C204  1  0.29906063  0.36853741  0.01919418  1.0
  C  C205  1  0.53167288  0.65945440  0.90594637  1.0
  C  C206  1  0.74773486  0.66730678  0.92393405  1.0
  C  C207  1  0.79907877  0.63147351  0.98079955  1.0
  C  C208  1  0.77131114  0.61919598  0.22004191  1.0
  C  C209  1  0.62753666  0.59556256  0.17037104  1.0
  C  C210  1  0.66187547  0.52749733  0.14860992  1.0
  C  C211  1  0.27129292  0.38080330  0.77995577  1.0
  C  C212  1  0.12753040  0.40443429  0.82963123  1.0
  C  C213  1  0.16185983  0.47250135  0.85138458  1.0
  O  O214  1  0.54539778  0.56377220  0.55688764  1.0
  O  O215  1  0.04538330  0.43623516  0.44311395  1.0
  O  O216  1  0.21075257  0.44506293  0.55963250  1.0
  O  O217  1  0.71074229  0.55493184  0.44036634  1.0
  O  O218  1  0.21468684  0.57176287  0.55157955  1.0
  O  O219  1  0.71470032  0.42823371  0.44842540  1.0
  O  O220  1  0.04395132  0.56192799  0.44089909  1.0
  O  O221  1  0.54394138  0.43807045  0.55910796  1.0
  O  O222  1  0.38047040  0.49536852  0.46244345  1.0
  O  O223  1  0.88046623  0.50462951  0.53755636  1.0
  O  O224  1  0.24518244  0.06227793  0.94505788  1.0
  O  O225  1  0.74517351  0.93772604  0.05494794  1.0
  O  O226  1  0.57401878  0.94216208  0.93576000  1.0
  O  O227  1  0.07400555  0.05784291  0.06423541  1.0
  O  O228  1  0.57888972  0.06709600  0.94778801  1.0
  O  O229  1  0.07891451  0.93290843  0.05221800  1.0
  O  O230  1  0.74255249  0.06330265  0.06150714  1.0
  O  O231  1  0.24256287  0.93670134  0.93849684  1.0
  O  O232  1  0.41017975  0.99876268  0.03651800  1.0
  O  O233  1  0.91017555  0.00124413  0.96348508  1.0
  O  O234  1  0.96771607  0.21924997  0.05704269  1.0
  O  O235  1  0.46768530  0.78076090  0.94295827  1.0
