# generated using pymatgen
data_AlH27(C5O)9
_symmetry_space_group_name_H-M   'P 1'
_cell_length_a   3.97869510
_cell_length_b   23.55085359
_cell_length_c   23.55569687
_cell_angle_alpha   60.04324614
_cell_angle_beta   87.66940982
_cell_angle_gamma   87.54553880
_symmetry_Int_Tables_number   1
_chemical_formula_structural   AlH27(C5O)9
_chemical_formula_sum   'Al1 H27 C45 O9'
_cell_volume   1910.10224247
_cell_formula_units_Z   1
loop_
 _symmetry_equiv_pos_site_id
 _symmetry_equiv_pos_as_xyz
  1  'x, y, z'
loop_
 _atom_site_type_symbol
 _atom_site_label
 _atom_site_symmetry_multiplicity
 _atom_site_fract_x
 _atom_site_fract_y
 _atom_site_fract_z
 _atom_site_occupancy
  Al  Al0  1  0.94959807  0.50036299  0.49996992  1.0
  H  H1  1  0.14466171  0.32027264  0.66456815  1.0
  H  H2  1  0.15217674  0.20009419  0.72698611  1.0
  H  H3  1  0.18264734  0.10598947  0.77688245  1.0
  H  H4  1  0.17301721  0.98678865  0.83541054  1.0
  H  H5  1  0.77981005  0.72525307  0.19739740  1.0
  H  H6  1  0.70854134  0.77922569  0.10339787  1.0
  H  H7  1  0.71511023  0.83801120  0.98432376  1.0
  H  H8  1  0.47184843  0.89455051  0.89427870  1.0
  H  H9  1  0.17612891  0.51637882  0.31959566  1.0
  H  H10  1  0.18288810  0.57454278  0.19927673  1.0
  H  H11  1  0.25017875  0.61551267  0.10511805  1.0
  H  H12  1  0.23401645  0.67658802  0.98629358  1.0
  H  H13  1  0.74951956  0.57456559  0.72427001  1.0
  H  H14  1  0.71118154  0.61728296  0.77597439  1.0
  H  H15  1  0.73186503  0.67794894  0.83416118  1.0
  H  H16  1  0.46644588  0.71236815  0.89349438  1.0
  H  H17  1  0.11151451  0.66640466  0.51919183  1.0
  H  H18  1  0.11864082  0.72844043  0.57754005  1.0
  H  H19  1  0.17567392  0.78026972  0.61980505  1.0
  H  H20  1  0.17998491  0.83898398  0.68036976  1.0
  H  H21  1  0.80880565  0.19698810  0.57697528  1.0
  H  H22  1  0.77438156  0.10248393  0.62082719  1.0
  H  H23  1  0.77497557  0.98314614  0.68116699  1.0
  H  H24  1  0.46615976  0.89518609  0.71172213  1.0
  H  H25  1  0.78523427  0.48975451  0.63873718  1.0
  H  H26  1  0.84361568  0.36729859  0.49208896  1.0
  H  H27  1  0.80821787  0.64053910  0.36778743  1.0
  C  C28  1  0.45904435  0.39854813  0.55067019  1.0
  C  C29  1  0.42372288  0.55119211  0.55110759  1.0
  C  C30  1  0.45788104  0.55125751  0.39833698  1.0
  C  C31  1  0.29367760  0.29227292  0.64671201  1.0
  C  C32  1  0.29966610  0.22458346  0.68159640  1.0
  C  C33  1  0.31611049  0.08000992  0.75505868  1.0
  C  C34  1  0.31294055  0.01194250  0.78895720  1.0
  C  C35  1  0.64687230  0.64610094  0.29088647  1.0
  C  C36  1  0.64191293  0.67993570  0.22241783  1.0
  C  C37  1  0.60522508  0.75559921  0.07854660  1.0
  C  C38  1  0.60487419  0.78967404  0.01051063  1.0
  C  C39  1  0.47658355  0.32697094  0.58730828  1.0
  C  C40  1  0.48035498  0.18781386  0.65720026  1.0
  C  C41  1  0.47912909  0.11521057  0.69340721  1.0
  C  C42  1  0.47394989  0.97525040  0.76315804  1.0
  C  C43  1  0.47055257  0.90296783  0.79904356  1.0
  C  C44  1  0.47063026  0.86769269  0.86771814  1.0
  C  C45  1  0.31183264  0.56183400  0.29182088  1.0
  C  C46  1  0.31801411  0.59469600  0.22414985  1.0
  C  C47  1  0.35220801  0.66450524  0.07952929  1.0
  C  C48  1  0.34705714  0.69897087  0.01151472  1.0
  C  C49  1  0.61002994  0.56167232  0.64580851  1.0
  C  C50  1  0.60367735  0.59614945  0.67987144  1.0
  C  C51  1  0.59291416  0.66596991  0.75398260  1.0
  C  C52  1  0.60121616  0.70011684  0.78780838  1.0
  C  C53  1  0.47622612  0.58612454  0.32683277  1.0
  C  C54  1  0.48109497  0.65535128  0.18776040  1.0
  C  C55  1  0.48009593  0.69181937  0.11522616  1.0
  C  C56  1  0.47426342  0.76242302  0.97509495  1.0
  C  C57  1  0.47067711  0.79894270  0.90273498  1.0
  C  C58  1  0.46710644  0.76575556  0.86718728  1.0
  C  C59  1  0.25461862  0.64752064  0.56384739  1.0
  C  C60  1  0.26048717  0.68223952  0.59685745  1.0
  C  C61  1  0.29935975  0.75688697  0.66684182  1.0
  C  C62  1  0.30460548  0.79084314  0.70095670  1.0
  C  C63  1  0.66592890  0.29066657  0.56326337  1.0
  C  C64  1  0.65906726  0.22218477  0.59775045  1.0
  C  C65  1  0.63959842  0.07807562  0.66779687  1.0
  C  C66  1  0.63780102  0.01002360  0.70175780  1.0
  C  C67  1  0.43081740  0.58717713  0.58667979  1.0
  C  C68  1  0.43507910  0.65684480  0.65626900  1.0
  C  C69  1  0.44225512  0.69329265  0.69237541  1.0
  C  C70  1  0.45631689  0.76339327  0.76227269  1.0
  C  C71  1  0.46354583  0.79946852  0.79850272  1.0
  C  C72  1  0.46695574  0.86817053  0.76513704  1.0
  O  O73  1  0.67780337  0.56467627  0.42909943  1.0
  O  O74  1  0.69323697  0.42903450  0.50664538  1.0
  O  O75  1  0.65859292  0.50643328  0.56369191  1.0
  O  O76  1  0.22627437  0.50986016  0.42811036  1.0
  O  O77  1  0.19159511  0.56338546  0.51038053  1.0
  O  O78  1  0.21414182  0.42846405  0.56233842  1.0
  O  O79  1  0.78583646  0.50415508  0.67191209  1.0
  O  O80  1  0.84969527  0.31966830  0.50682217  1.0
  O  O81  1  0.81112929  0.67325506  0.32016925  1.0
