# generated using pymatgen
data_Zn4H8C58O13F24
_symmetry_space_group_name_H-M   'P 1'
_cell_length_a   21.61592756
_cell_length_b   21.61593714
_cell_length_c   34.45589929
_cell_angle_alpha   89.99969093
_cell_angle_beta   89.99976312
_cell_angle_gamma   89.99956922
_symmetry_Int_Tables_number   1
_chemical_formula_structural   Zn4H8C58O13F24
_chemical_formula_sum   'Zn8 H16 C116 O26 F48'
_cell_volume   16099.46833911
_cell_formula_units_Z   2
loop_
 _symmetry_equiv_pos_site_id
 _symmetry_equiv_pos_as_xyz
  1  'x, y, z'
loop_
 _atom_site_type_symbol
 _atom_site_label
 _atom_site_symmetry_multiplicity
 _atom_site_fract_x
 _atom_site_fract_y
 _atom_site_fract_z
 _atom_site_occupancy
  Zn  Zn0  1  0.44836174  0.44775320  0.96660215  1.0
  Zn  Zn1  1  0.44835887  0.55224493  0.03339573  1.0
  Zn  Zn2  1  0.55164213  0.55224655  0.96660387  1.0
  Zn  Zn3  1  0.55164005  0.44775590  0.03339781  1.0
  Zn  Zn4  1  0.55224682  0.55164145  0.53339619  1.0
  Zn  Zn5  1  0.44775465  0.55164120  0.46660341  1.0
  Zn  Zn6  1  0.44775528  0.44835925  0.53339824  1.0
  Zn  Zn7  1  0.55224789  0.44836423  0.46660374  1.0
  H  H8  1  0.42869521  0.43082461  0.84842534  1.0
  H  H9  1  0.38823421  0.38874080  0.78592441  1.0
  H  H10  1  0.57130157  0.56918032  0.84842637  1.0
  H  H11  1  0.61176160  0.61126883  0.78592519  1.0
  H  H12  1  0.56918572  0.57130276  0.65157706  1.0
  H  H13  1  0.61126544  0.61176461  0.71407828  1.0
  H  H14  1  0.43082485  0.42869877  0.65157777  1.0
  H  H15  1  0.38873685  0.38823916  0.71407692  1.0
  H  H16  1  0.42868958  0.56917876  0.15157578  1.0
  H  H17  1  0.38823387  0.61126380  0.21407653  1.0
  H  H18  1  0.57129745  0.43082013  0.15157380  1.0
  H  H19  1  0.61176108  0.38873594  0.21407371  1.0
  H  H20  1  0.56918586  0.42869909  0.34842225  1.0
  H  H21  1  0.61126677  0.38823832  0.28592092  1.0
  H  H22  1  0.43082485  0.57130412  0.34842393  1.0
  H  H23  1  0.38873789  0.61176404  0.28592344  1.0
  C  C24  1  0.33562049  0.50000012  0.99999735  1.0
  C  C25  1  0.50000375  0.66524517  0.99999947  1.0
  C  C26  1  0.50000055  0.50000180  0.89529519  1.0
  C  C27  1  0.66438223  0.50000258  0.00000099  1.0
  C  C28  1  0.49999990  0.33475152  0.99999945  1.0
  C  C29  1  0.49999760  0.50000103  0.10470720  1.0
  C  C30  1  0.49999661  0.66438175  0.49999917  1.0
  C  C31  1  0.33475565  0.49999903  0.50000257  1.0
  C  C32  1  0.50000336  0.50000120  0.60470750  1.0
  C  C33  1  0.49999322  0.33561923  0.49999799  1.0
  C  C34  1  0.66524898  0.50000241  0.50000156  1.0
  C  C35  1  0.50000636  0.50000117  0.39529169  1.0
  C  C36  1  0.49999938  0.73460385  0.00000137  1.0
  C  C37  1  0.55087284  0.76818575  0.98608289  1.0
  C  C38  1  0.55071345  0.83262987  0.98614634  1.0
  C  C39  1  0.44912653  0.76818661  0.01391975  1.0
  C  C40  1  0.44928497  0.83263073  0.01385666  1.0
  C  C41  1  0.49999888  0.86608878  0.00000173  1.0
  C  C42  1  0.49999909  0.93439903  0.00000132  1.0
  C  C43  1  0.49975459  0.96779600  0.03476077  1.0
  C  C44  1  0.50024190  0.96779662  0.96524323  1.0
  C  C45  1  0.49999970  0.26539158  0.99999957  1.0
  C  C46  1  0.44912535  0.23180920  0.98608219  1.0
  C  C47  1  0.44928519  0.16736370  0.98614499  1.0
  C  C48  1  0.55087343  0.23180930  0.01391791  1.0
  C  C49  1  0.55071407  0.16736333  0.01385591  1.0
  C  C50  1  0.49999979  0.13390586  0.00000180  1.0
  C  C51  1  0.49999958  0.06559561  0.00000134  1.0
  C  C52  1  0.49975550  0.03219759  0.96524249  1.0
  C  C53  1  0.50024339  0.03219696  0.03476119  1.0
  C  C54  1  0.45965057  0.46077006  0.83200019  1.0
  C  C55  1  0.45922232  0.45964514  0.79133633  1.0
  C  C56  1  0.41910074  0.41936122  0.76980661  1.0
  C  C57  1  0.54034493  0.53924010  0.83200054  1.0
  C  C58  1  0.54077484  0.54036491  0.79133696  1.0
  C  C59  1  0.58089795  0.58064763  0.76980816  1.0
  C  C60  1  0.53923980  0.54034740  0.66800162  1.0
  C  C61  1  0.54036199  0.54077838  0.70866578  1.0
  C  C62  1  0.58064641  0.58090085  0.73019550  1.0
  C  C63  1  0.46076973  0.45965492  0.66800157  1.0
  C  C64  1  0.45964173  0.45922682  0.70866660  1.0
  C  C65  1  0.41935623  0.41910509  0.73019569  1.0
  C  C66  1  0.49999699  0.50000384  0.85209359  1.0
  C  C67  1  0.49999772  0.50000326  0.77061784  1.0
  C  C68  1  0.50000645  0.50000009  0.64791026  1.0
  C  C69  1  0.49999925  0.50000205  0.72938427  1.0
  C  C70  1  0.45964783  0.53923447  0.16800085  1.0
  C  C71  1  0.45922255  0.54036124  0.20866413  1.0
  C  C72  1  0.41910144  0.58064546  0.23019308  1.0
  C  C73  1  0.54034418  0.46076474  0.16799856  1.0
  C  C74  1  0.54077475  0.45964132  0.20866387  1.0
  C  C75  1  0.58089895  0.41935553  0.23019112  1.0
  C  C76  1  0.53923983  0.45965560  0.33199921  1.0
  C  C77  1  0.54036460  0.45922553  0.29133244  1.0
  C  C78  1  0.58064576  0.41910415  0.26980465  1.0
  C  C79  1  0.46076915  0.54035053  0.33199918  1.0
  C  C80  1  0.45964372  0.54077817  0.29133444  1.0
  C  C81  1  0.41935622  0.58090020  0.26980720  1.0
  C  C82  1  0.49999468  0.50000038  0.14790764  1.0
  C  C83  1  0.50000228  0.50000189  0.22938222  1.0
  C  C84  1  0.50000789  0.50000182  0.35209038  1.0
  C  C85  1  0.50000353  0.50000448  0.27061667  1.0
  C  C86  1  0.73384860  0.50000556  0.00000003  1.0
  C  C87  1  0.76759735  0.52230254  0.96815954  1.0
  C  C88  1  0.83208729  0.52218803  0.96825233  1.0
  C  C89  1  0.76759875  0.47770614  0.03184013  1.0
  C  C90  1  0.83208962  0.47782109  0.03174340  1.0
  C  C91  1  0.86573237  0.50000090  0.99999754  1.0
  C  C92  1  0.93417819  0.50000064  0.99999803  1.0
  C  C93  1  0.96777221  0.44466971  0.00015565  1.0
  C  C94  1  0.96777312  0.55533145  0.99984088  1.0
  C  C95  1  0.26615458  0.50000408  0.99999890  1.0
  C  C96  1  0.23240480  0.52230256  0.03183784  1.0
  C  C97  1  0.16791300  0.52218345  0.03174534  1.0
  C  C98  1  0.23240605  0.47770182  0.96816002  1.0
  C  C99  1  0.16791286  0.47781540  0.96825588  1.0
  C  C100  1  0.13427174  0.49999856  0.00000023  1.0
  C  C101  1  0.06582412  0.49999895  0.00000030  1.0
  C  C102  1  0.03223063  0.55533140  0.00015639  1.0
  C  C103  1  0.03223053  0.44466940  0.99984228  1.0
  C  C104  1  0.26539614  0.49999975  0.50000092  1.0
  C  C105  1  0.23181411  0.44912578  0.51391826  1.0
  C  C106  1  0.16736904  0.44928609  0.51385536  1.0
  C  C107  1  0.23181520  0.55087305  0.48608338  1.0
  C  C108  1  0.16736967  0.55071369  0.48614673  1.0
  C  C109  1  0.13391254  0.49999886  0.50000080  1.0
  C  C110  1  0.06560319  0.50000004  0.50000002  1.0
  C  C111  1  0.03220525  0.50024597  0.46524055  1.0
  C  C112  1  0.03220271  0.49975298  0.53475840  1.0
  C  C113  1  0.73460802  0.49999938  0.50000002  1.0
  C  C114  1  0.76819135  0.55087416  0.51391768  1.0
  C  C115  1  0.83263458  0.55071523  0.51385346  1.0
  C  C116  1  0.76819044  0.44912527  0.48608111  1.0
  C  C117  1  0.83263459  0.44928325  0.48614401  1.0
  C  C118  1  0.86609347  0.49999842  0.49999782  1.0
  C  C119  1  0.93440468  0.50000002  0.49999860  1.0
  C  C120  1  0.96780262  0.50023938  0.53475777  1.0
  C  C121  1  0.96780470  0.49976179  0.46523934  1.0
  C  C122  1  0.49999255  0.26615382  0.49999724  1.0
  C  C123  1  0.47769513  0.23240413  0.53183977  1.0
  C  C124  1  0.47781288  0.16791282  0.53174381  1.0
  C  C125  1  0.52229208  0.23240424  0.46816005  1.0
  C  C126  1  0.52218268  0.16791339  0.46825448  1.0
  C  C127  1  0.49999953  0.13426918  0.50000065  1.0
  C  C128  1  0.49999701  0.06582292  0.49999932  1.0
  C  C129  1  0.55532763  0.03222760  0.49984461  1.0
  C  C130  1  0.44466664  0.03222894  0.50015414  1.0
  C  C131  1  0.49999218  0.73384763  0.49999935  1.0
  C  C132  1  0.47769656  0.76759610  0.46815833  1.0
  C  C133  1  0.47781568  0.83208879  0.46825486  1.0
  C  C134  1  0.52229264  0.76759473  0.53183880  1.0
  C  C135  1  0.52218229  0.83208280  0.53174553  1.0
  C  C136  1  0.49999863  0.86572810  0.49999912  1.0
  C  C137  1  0.49999744  0.93417528  0.50000046  1.0
  C  C138  1  0.44466682  0.96776922  0.49984259  1.0
  C  C139  1  0.55532828  0.96776881  0.50015821  1.0
  O  O140  1  0.50000113  0.49999904  0.00000004  1.0
  O  O141  1  0.36162006  0.45353483  0.98431242  1.0
  O  O142  1  0.47504906  0.63928850  0.02915883  1.0
  O  O143  1  0.54421269  0.52871186  0.91218827  1.0
  O  O144  1  0.36162383  0.54647089  0.01568568  1.0
  O  O145  1  0.45578506  0.47128651  0.91218761  1.0
  O  O146  1  0.52495267  0.63929213  0.97084715  1.0
  O  O147  1  0.63837860  0.54646569  0.98431162  1.0
  O  O148  1  0.52495497  0.36070635  0.02915402  1.0
  O  O149  1  0.63838121  0.45353472  0.01569128  1.0
  O  O150  1  0.47504608  0.36070666  0.97084478  1.0
  O  O151  1  0.45578201  0.52871620  0.08781141  1.0
  O  O152  1  0.54421007  0.47128555  0.08781284  1.0
  O  O153  1  0.50000046  0.50000026  0.50000119  1.0
  O  O154  1  0.54646193  0.63838171  0.51568994  1.0
  O  O155  1  0.36071058  0.52495102  0.47084522  1.0
  O  O156  1  0.47128633  0.45578909  0.58781443  1.0
  O  O157  1  0.45353241  0.63837850  0.48430821  1.0
  O  O158  1  0.52871680  0.54421437  0.58781304  1.0
  O  O159  1  0.36070873  0.47504962  0.52915753  1.0
  O  O160  1  0.45353334  0.36162237  0.51569111  1.0
  O  O161  1  0.63929424  0.47504328  0.47084814  1.0
  O  O162  1  0.54645983  0.36162170  0.48430536  1.0
  O  O163  1  0.63929524  0.52496129  0.52915389  1.0
  O  O164  1  0.47128519  0.54421118  0.41218630  1.0
  O  O165  1  0.52873020  0.45579379  0.41218579  1.0
  F  F166  1  0.39785376  0.73909479  0.02654121  1.0
  F  F167  1  0.39880537  0.86313382  0.02682049  1.0
  F  F168  1  0.60214352  0.73909550  0.97345978  1.0
  F  F169  1  0.60119375  0.86313316  0.97318328  1.0
  F  F170  1  0.49982861  0.93737385  0.06898166  1.0
  F  F171  1  0.50016868  0.06261834  0.06898111  1.0
  F  F172  1  0.50017181  0.93737292  0.93102186  1.0
  F  F173  1  0.49983229  0.06261973  0.93102189  1.0
  F  F174  1  0.60119266  0.13685920  0.02681914  1.0
  F  F175  1  0.60214288  0.26090147  0.02653944  1.0
  F  F176  1  0.39880683  0.13686145  0.97318216  1.0
  F  F177  1  0.39785614  0.26090049  0.97345767  1.0
  F  F178  1  0.73863582  0.45743958  0.06402830  1.0
  F  F179  1  0.86244545  0.45705052  0.06343666  1.0
  F  F180  1  0.73863447  0.54256840  0.93597028  1.0
  F  F181  1  0.86244179  0.54296717  0.93656131  1.0
  F  F182  1  0.93746929  0.39005226  0.00012241  1.0
  F  F183  1  0.06253246  0.39005079  0.99987687  1.0
  F  F184  1  0.93747072  0.60994868  0.99987333  1.0
  F  F185  1  0.06253169  0.60994978  0.00012317  1.0
  F  F186  1  0.13755996  0.45704625  0.93656268  1.0
  F  F187  1  0.26136821  0.45743162  0.93597278  1.0
  F  F188  1  0.13756067  0.54295745  0.06343716  1.0
  F  F189  1  0.26136567  0.54256700  0.06402761  1.0
  F  F190  1  0.26090518  0.60214535  0.47346074  1.0
  F  F191  1  0.13686655  0.60119606  0.47318548  1.0
  F  F192  1  0.26090392  0.39785373  0.52654169  1.0
  F  F193  1  0.13686991  0.39880395  0.52682018  1.0
  F  F194  1  0.06263200  0.50017291  0.43102170  1.0
  F  F195  1  0.93738558  0.49984440  0.43101912  1.0
  F  F196  1  0.06262692  0.49982489  0.56897863  1.0
  F  F197  1  0.93738096  0.50015654  0.56897837  1.0
  F  F198  1  0.86313964  0.39880516  0.47318110  1.0
  F  F199  1  0.73909546  0.39785632  0.47345698  1.0
  F  F200  1  0.86314102  0.60119217  0.52681570  1.0
  F  F201  1  0.73909637  0.60214425  0.52653927  1.0
  F  F202  1  0.54255908  0.26136626  0.43597100  1.0
  F  F203  1  0.54295601  0.13755946  0.43656182  1.0
  F  F204  1  0.45743393  0.26136511  0.56402901  1.0
  F  F205  1  0.45703423  0.13755877  0.56343512  1.0
  F  F206  1  0.60994604  0.06253003  0.49988106  1.0
  F  F207  1  0.60994552  0.93746735  0.50012540  1.0
  F  F208  1  0.39004754  0.06252855  0.50011701  1.0
  F  F209  1  0.39004841  0.93746864  0.49987754  1.0
  F  F210  1  0.54295796  0.86243889  0.56343756  1.0
  F  F211  1  0.54256195  0.73862792  0.56402635  1.0
  F  F212  1  0.45704302  0.86244623  0.43656215  1.0
  F  F213  1  0.45743209  0.73863666  0.43596914  1.0
