# generated using pymatgen
data_Zn4H36C60N3O13
_symmetry_space_group_name_H-M   'P 1'
_cell_length_a   25.84069457
_cell_length_b   25.84066530
_cell_length_c   41.28640622
_cell_angle_alpha   108.25094063
_cell_angle_beta   108.25091216
_cell_angle_gamma   59.98324360
_symmetry_Int_Tables_number   1
_chemical_formula_structural   Zn4H36C60N3O13
_chemical_formula_sum   'Zn16 H144 C240 N12 O52'
_cell_volume   22255.83392771
_cell_formula_units_Z   4
loop_
 _symmetry_equiv_pos_site_id
 _symmetry_equiv_pos_as_xyz
  1  'x, y, z'
loop_
 _atom_site_type_symbol
 _atom_site_label
 _atom_site_symmetry_multiplicity
 _atom_site_fract_x
 _atom_site_fract_y
 _atom_site_fract_z
 _atom_site_occupancy
  Zn  Zn0  1  0.35417901  0.35424435  0.06256260  1.0
  Zn  Zn1  1  0.14575591  0.14582098  0.43743719  1.0
  Zn  Zn2  1  0.64582103  0.64575617  0.93743742  1.0
  Zn  Zn3  1  0.85424312  0.85417909  0.56256254  1.0
  Zn  Zn4  1  0.31355459  0.40970996  0.99384243  1.0
  Zn  Zn5  1  0.27060588  0.31355083  0.99382795  1.0
  Zn  Zn6  1  0.40967999  0.27064492  0.99380812  1.0
  Zn  Zn7  1  0.18644996  0.22939335  0.50617176  1.0
  Zn  Zn8  1  0.22935495  0.09032021  0.50619184  1.0
  Zn  Zn9  1  0.09029012  0.18644548  0.50615683  1.0
  Zn  Zn10  1  0.68644709  0.59028965  0.00615821  1.0
  Zn  Zn11  1  0.72939233  0.68645015  0.00617203  1.0
  Zn  Zn12  1  0.59032108  0.72935606  0.00619339  1.0
  Zn  Zn13  1  0.81354968  0.77060626  0.49382799  1.0
  Zn  Zn14  1  0.77064509  0.90967940  0.49380703  1.0
  Zn  Zn15  1  0.90970932  0.81355459  0.49384225  1.0
  H  H16  1  0.23452253  0.40947791  0.13149201  1.0
  H  H17  1  0.48751880  0.23451939  0.13143202  1.0
  H  H18  1  0.40953634  0.48754086  0.13148915  1.0
  H  H19  1  0.26548179  0.01248060  0.36856879  1.0
  H  H20  1  0.01246010  0.09046340  0.36851122  1.0
  H  H21  1  0.09052216  0.26547755  0.36850753  1.0
  H  H22  1  0.76547853  0.59052216  0.86850763  1.0
  H  H23  1  0.51248145  0.76548159  0.86856861  1.0
  H  H24  1  0.59046431  0.51245921  0.86851114  1.0
  H  H25  1  0.73451785  0.98751901  0.63143072  1.0
  H  H26  1  0.98753933  0.90953667  0.63148907  1.0
  H  H27  1  0.90947809  0.73452161  0.63149226  1.0
  H  H28  1  0.14557214  0.45343651  0.16005002  1.0
  H  H29  1  0.56106235  0.14552699  0.15997279  1.0
  H  H30  1  0.45356317  0.56104590  0.16000875  1.0
  H  H31  1  0.35447353  0.93893740  0.34002742  1.0
  H  H32  1  0.93895448  0.04643745  0.33999160  1.0
  H  H33  1  0.04656348  0.35442828  0.33994957  1.0
  H  H34  1  0.85442770  0.54656356  0.83994986  1.0
  H  H35  1  0.43893749  0.85447308  0.84002734  1.0
  H  H36  1  0.54643708  0.43895417  0.83999146  1.0
  H  H37  1  0.64552692  0.06106221  0.65997225  1.0
  H  H38  1  0.06104515  0.95356307  0.66000882  1.0
  H  H39  1  0.95343657  0.64557224  0.66005045  1.0
  H  H40  1  0.13220692  0.35482291  0.03513916  1.0
  H  H41  1  0.54809208  0.13222912  0.03506871  1.0
  H  H42  1  0.35479802  0.54811023  0.03512616  1.0
  H  H43  1  0.36777229  0.95190702  0.46493180  1.0
  H  H44  1  0.95189068  0.14520178  0.46487437  1.0
  H  H45  1  0.14517796  0.36779233  0.46486060  1.0
  H  H46  1  0.86779109  0.64517853  0.96486014  1.0
  H  H47  1  0.45190796  0.86777231  0.96493173  1.0
  H  H48  1  0.64520244  0.45188939  0.96487400  1.0
  H  H49  1  0.63222734  0.04809259  0.53506772  1.0
  H  H50  1  0.04810977  0.85479783  0.53512603  1.0
  H  H51  1  0.85482250  0.63220819  0.53513998  1.0
  H  H52  1  0.00876691  0.54066969  0.09240034  1.0
  H  H53  1  0.54290521  0.00879123  0.09242466  1.0
  H  H54  1  0.54068998  0.54298598  0.09239949  1.0
  H  H55  1  0.49120823  0.95709463  0.40757584  1.0
  H  H56  1  0.95701497  0.95930957  0.40760046  1.0
  H  H57  1  0.95933044  0.49123356  0.40759969  1.0
  H  H58  1  0.99123212  0.45933129  0.90759981  1.0
  H  H59  1  0.45709463  0.99120884  0.90757595  1.0
  H  H60  1  0.45931027  0.45701409  0.90760023  1.0
  H  H61  1  0.50879080  0.04290543  0.59242437  1.0
  H  H62  1  0.04298670  0.04068913  0.59239904  1.0
  H  H63  1  0.04066941  0.50876651  0.59240019  1.0
  H  H64  1  0.93450736  0.44656027  0.11944019  1.0
  H  H65  1  0.73834505  0.93450494  0.11941761  1.0
  H  H66  1  0.44653198  0.73843057  0.11939920  1.0
  H  H67  1  0.56549524  0.76165523  0.38058283  1.0
  H  H68  1  0.76156959  0.05346795  0.38060145  1.0
  H  H69  1  0.05343967  0.56549301  0.38055978  1.0
  H  H70  1  0.06549330  0.55343980  0.88056009  1.0
  H  H71  1  0.26165479  0.06549513  0.88058252  1.0
  H  H72  1  0.55346847  0.26156904  0.88060120  1.0
  H  H73  1  0.43450541  0.23834483  0.61941746  1.0
  H  H74  1  0.23843107  0.94653121  0.61939914  1.0
  H  H75  1  0.94656058  0.43450706  0.61944018  1.0
  H  H76  1  0.83460697  0.50002390  0.08173308  1.0
  H  H77  1  0.74706382  0.83460352  0.08173265  1.0
  H  H78  1  0.50002173  0.74710488  0.08170872  1.0
  H  H79  1  0.66539655  0.75293657  0.41826754  1.0
  H  H80  1  0.75289613  0.99997749  0.41829191  1.0
  H  H81  1  0.99997564  0.66539356  0.41826653  1.0
  H  H82  1  0.16539307  0.49997572  0.91826724  1.0
  H  H83  1  0.25293561  0.16539655  0.91826716  1.0
  H  H84  1  0.49997872  0.25289474  0.91829168  1.0
  H  H85  1  0.33460370  0.24706441  0.58173260  1.0
  H  H86  1  0.24710534  0.00002076  0.58170866  1.0
  H  H87  1  0.00002380  0.33460651  0.58173327  1.0
  H  H88  1  0.90751265  0.59697753  0.05674649  1.0
  H  H89  1  0.55214917  0.90755204  0.05679415  1.0
  H  H90  1  0.59706456  0.55220119  0.05677721  1.0
  H  H91  1  0.59244802  0.94785084  0.44320549  1.0
  H  H92  1  0.94779881  0.90293492  0.44322303  1.0
  H  H93  1  0.90302282  0.59248743  0.44325319  1.0
  H  H94  1  0.09248577  0.40302300  0.94325320  1.0
  H  H95  1  0.44785046  0.09244848  0.94320579  1.0
  H  H96  1  0.40293610  0.44779797  0.94322290  1.0
  H  H97  1  0.40755121  0.05214969  0.55679436  1.0
  H  H98  1  0.05220164  0.09706378  0.55677671  1.0
  H  H99  1  0.09697661  0.40751263  0.55674661  1.0
  H  H100  1  0.11002053  0.36531294  0.16215835  1.0
  H  H101  1  0.68677234  0.11004611  0.16215751  1.0
  H  H102  1  0.36532150  0.68680812  0.16213455  1.0
  H  H103  1  0.38995444  0.81322705  0.33784263  1.0
  H  H104  1  0.81319115  0.13467801  0.33786512  1.0
  H  H105  1  0.13468733  0.38997933  0.33784093  1.0
  H  H106  1  0.88997992  0.63468759  0.83784125  1.0
  H  H107  1  0.31322750  0.88995396  0.83784262  1.0
  H  H108  1  0.63467854  0.31319149  0.83786504  1.0
  H  H109  1  0.61004622  0.18677211  0.66215699  1.0
  H  H110  1  0.18680829  0.86532115  0.66213499  1.0
  H  H111  1  0.86531291  0.61002074  0.66215879  1.0
  H  H112  1  0.04196531  0.40097214  0.06284337  1.0
  H  H113  1  0.61990655  0.04193242  0.06276303  1.0
  H  H114  1  0.40101478  0.61986702  0.06278833  1.0
  H  H115  1  0.45806933  0.88009194  0.43723693  1.0
  H  H116  1  0.88013459  0.09898484  0.43721182  1.0
  H  H117  1  0.09902821  0.45803428  0.43715660  1.0
  H  H118  1  0.95803270  0.59902929  0.93715618  1.0
  H  H119  1  0.38009186  0.95806902  0.93723685  1.0
  H  H120  1  0.59898547  0.38013305  0.93721164  1.0
  H  H121  1  0.54193051  0.11990812  0.56276295  1.0
  H  H122  1  0.11986667  0.90101386  0.56278856  1.0
  H  H123  1  0.90097164  0.54196670  0.56284370  1.0
  H  H124  1  0.96917424  0.55022434  0.17195406  1.0
  H  H125  1  0.65261739  0.96913870  0.17189706  1.0
  H  H126  1  0.55016994  0.65265831  0.17193485  1.0
  H  H127  1  0.53086168  0.84738235  0.32810307  1.0
  H  H128  1  0.84734159  0.94982947  0.32806536  1.0
  H  H129  1  0.94977607  0.53082586  0.32804588  1.0
  H  H130  1  0.03082560  0.44977573  0.82804607  1.0
  H  H131  1  0.34738224  0.03086182  0.82810311  1.0
  H  H132  1  0.44983010  0.34734131  0.82806474  1.0
  H  H133  1  0.46913878  0.15261726  0.67189660  1.0
  H  H134  1  0.15265866  0.05016969  0.67193491  1.0
  H  H135  1  0.05022438  0.46917466  0.67195422  1.0
  H  H136  1  0.97279938  0.55065483  0.23217751  1.0
  H  H137  1  0.70876009  0.97277791  0.23211792  1.0
  H  H138  1  0.55057523  0.70884592  0.23214832  1.0
  H  H139  1  0.52722186  0.79124027  0.26788198  1.0
  H  H140  1  0.79115350  0.94942399  0.26785176  1.0
  H  H141  1  0.94934541  0.52720078  0.26782241  1.0
  H  H142  1  0.02719985  0.44934569  0.76782307  1.0
  H  H143  1  0.29124016  0.02722216  0.76788205  1.0
  H  H144  1  0.44942501  0.29115415  0.76785140  1.0
  H  H145  1  0.47277859  0.20875934  0.73211770  1.0
  H  H146  1  0.20884634  0.05057517  0.73214795  1.0
  H  H147  1  0.05065403  0.47280019  0.73217733  1.0
  H  H148  1  0.11223240  0.36468468  0.22203084  1.0
  H  H149  1  0.74504360  0.11226097  0.22203011  1.0
  H  H150  1  0.36467671  0.74510329  0.22200934  1.0
  H  H151  1  0.38773975  0.75495688  0.27797004  1.0
  H  H152  1  0.75489692  0.13532223  0.27799065  1.0
  H  H153  1  0.13531500  0.38776765  0.27796837  1.0
  H  H154  1  0.88776826  0.63531539  0.77796872  1.0
  H  H155  1  0.25495705  0.88773909  0.77796994  1.0
  H  H156  1  0.63532375  0.25489632  0.77799058  1.0
  H  H157  1  0.61226111  0.24504273  0.72202971  1.0
  H  H158  1  0.24510353  0.86467647  0.72200957  1.0
  H  H159  1  0.86468443  0.61223242  0.72203119  1.0
  C  C160  1  0.24064776  0.35550245  0.06373542  1.0
  C  C161  1  0.46763136  0.24067659  0.06371375  1.0
  C  C162  1  0.35547790  0.46768671  0.06373942  1.0
  C  C163  1  0.25932547  0.03236860  0.43628686  1.0
  C  C164  1  0.03231356  0.14452244  0.43625996  1.0
  C  C165  1  0.14449924  0.25935042  0.43626405  1.0
  C  C166  1  0.75934903  0.64449989  0.93626383  1.0
  C  C167  1  0.53236931  0.75932712  0.93628749  1.0
  C  C168  1  0.64452418  0.53231108  0.93625973  1.0
  C  C169  1  0.74067315  0.96763055  0.56371213  1.0
  C  C170  1  0.96768628  0.85547763  0.56373993  1.0
  C  C171  1  0.85549959  0.74065010  0.56373621  1.0
  C  C172  1  0.18898412  0.37935288  0.08150936  1.0
  C  C173  1  0.51322542  0.18898959  0.08145190  1.0
  C  C174  1  0.37937770  0.51322029  0.08150434  1.0
  C  C175  1  0.31101173  0.98677436  0.41854848  1.0
  C  C176  1  0.98678030  0.12062194  0.41849585  1.0
  C  C177  1  0.12064776  0.31101510  0.41849011  1.0
  C  C178  1  0.81101429  0.62064856  0.91849027  1.0
  C  C179  1  0.48677564  0.81101230  0.91854907  1.0
  C  C180  1  0.62062418  0.48677796  0.91849559  1.0
  C  C181  1  0.68898790  0.01322434  0.58145061  1.0
  C  C182  1  0.01321994  0.87937631  0.58150448  1.0
  C  C183  1  0.87935127  0.68898497  0.58150961  1.0
  C  C184  1  0.19246283  0.40687362  0.11683335  1.0
  C  C185  1  0.51753181  0.19246396  0.11677315  1.0
  C  C186  1  0.40696554  0.51750650  0.11682055  1.0
  C  C187  1  0.30753809  0.98246777  0.38322758  1.0
  C  C188  1  0.98249351  0.09303395  0.38317901  1.0
  C  C189  1  0.09312679  0.30753639  0.38316632  1.0
  C  C190  1  0.80753579  0.59312736  0.88316550  1.0
  C  C191  1  0.48246885  0.80753793  0.88322774  1.0
  C  C192  1  0.59303552  0.48249265  0.88317915  1.0
  C  C193  1  0.69246195  0.01753093  0.61677160  1.0
  C  C194  1  0.01750592  0.90696521  0.61682086  1.0
  C  C195  1  0.90687325  0.69246413  0.61683442  1.0
  C  C196  1  0.14275249  0.43166463  0.13271344  1.0
  C  C197  1  0.55832681  0.14273182  0.13264220  1.0
  C  C198  1  0.43178870  0.55828038  0.13267208  1.0
  C  C199  1  0.35726989  0.94167293  0.36735824  1.0
  C  C200  1  0.94172015  0.06820980  0.36732787  1.0
  C  C201  1  0.06833559  0.35724660  0.36728617  1.0
  C  C202  1  0.85724694  0.56833543  0.86728612  1.0
  C  C203  1  0.44167324  0.85726962  0.86735823  1.0
  C  C204  1  0.56821175  0.44171924  0.86732783  1.0
  C  C205  1  0.64273015  0.05832577  0.63264117  1.0
  C  C206  1  0.05827989  0.93178891  0.63267251  1.0
  C  C207  1  0.93166446  0.64275392  0.63271408  1.0
  C  C208  1  0.13448060  0.37688161  0.06241266  1.0
  C  C209  1  0.55107692  0.13448800  0.06234117  1.0
  C  C210  1  0.37690237  0.55105683  0.06239112  1.0
  C  C211  1  0.36551300  0.94892290  0.43765915  1.0
  C  C212  1  0.94894402  0.12309630  0.43760941  1.0
  C  C213  1  0.12311908  0.36551849  0.43758680  1.0
  C  C214  1  0.86551823  0.62311983  0.93758681  1.0
  C  C215  1  0.44892333  0.86551388  0.93765939  1.0
  C  C216  1  0.62309889  0.44894187  0.93760853  1.0
  C  C217  1  0.63448643  0.05107625  0.56234023  1.0
  C  C218  1  0.05105643  0.87690150  0.56239087  1.0
  C  C219  1  0.87688137  0.63448112  0.56241336  1.0
  C  C220  1  0.08769310  0.43053881  0.11321641  1.0
  C  C221  1  0.59499318  0.08768034  0.11313684  1.0
  C  C222  1  0.43062153  0.59496807  0.11316740  1.0
  C  C223  1  0.41232044  0.90500692  0.38686349  1.0
  C  C224  1  0.90503203  0.06937822  0.38683272  1.0
  C  C225  1  0.06946155  0.41230710  0.38678297  1.0
  C  C226  1  0.91230695  0.56946171  0.88678361  1.0
  C  C227  1  0.40500748  0.91232064  0.88686338  1.0
  C  C228  1  0.56937953  0.40503109  0.88683255  1.0
  C  C229  1  0.58767960  0.09499178  0.61313617  1.0
  C  C230  1  0.09496802  0.93062049  0.61316742  1.0
  C  C231  1  0.93053911  0.58769297  0.61321684  1.0
  C  C232  1  0.97034766  0.53218323  0.09007476  1.0
  C  C233  1  0.58749051  0.97036220  0.09009183  1.0
  C  C234  1  0.53220486  0.58756400  0.09007059  1.0
  C  C235  1  0.52963685  0.91250949  0.40990858  1.0
  C  C236  1  0.91243621  0.96779439  0.40992940  1.0
  C  C237  1  0.96781710  0.52965210  0.40992461  1.0
  C  C238  1  0.02965076  0.46781820  0.90992560  1.0
  C  C239  1  0.41250872  0.02963741  0.90990809  1.0
  C  C240  1  0.46779580  0.41243516  0.90992928  1.0
  C  C241  1  0.47036177  0.08749058  0.59009179  1.0
  C  C242  1  0.08756444  0.03220295  0.59007011  1.0
  C  C243  1  0.03218213  0.47034842  0.59007452  1.0
  C  C244  1  0.97794009  0.48980969  0.10783277  1.0
  C  C245  1  0.64005039  0.97795178  0.10782122  1.0
  C  C246  1  0.48980588  0.64013326  0.10781083  1.0
  C  C247  1  0.52204838  0.85994939  0.39217960  1.0
  C  C248  1  0.85986696  0.01019408  0.39218935  1.0
  C  C249  1  0.01019101  0.52205921  0.39216738  1.0
  C  C250  1  0.02205934  0.51019129  0.89216769  1.0
  C  C251  1  0.35994884  0.02204875  0.89217936  1.0
  C  C252  1  0.51019498  0.35986635  0.89218917  1.0
  C  C253  1  0.47795105  0.14005068  0.60782093  1.0
  C  C254  1  0.14013389  0.98980371  0.60781028  1.0
  C  C255  1  0.98980944  0.47794132  0.60783319  1.0
  C  C256  1  0.92847770  0.47917416  0.10540615  1.0
  C  C257  1  0.69771690  0.92847220  0.10539864  1.0
  C  C258  1  0.47916728  0.69779392  0.10537739  1.0
  C  C259  1  0.57152827  0.80228257  0.39460218  1.0
  C  C260  1  0.80220685  0.02083168  0.39462295  1.0
  C  C261  1  0.02082767  0.57152193  0.39459478  1.0
  C  C262  1  0.07152133  0.52082682  0.89459448  1.0
  C  C263  1  0.30228294  0.07152786  0.89460197  1.0
  C  C264  1  0.52083317  0.30220569  0.89462326  1.0
  C  C265  1  0.42847198  0.19771750  0.60539851  1.0
  C  C266  1  0.19779380  0.97916657  0.60537674  1.0
  C  C267  1  0.97917258  0.42847813  0.60540591  1.0
  C  C268  1  0.87280647  0.50921562  0.08465452  1.0
  C  C269  1  0.70258161  0.87280344  0.08464896  1.0
  C  C270  1  0.50921955  0.70263629  0.08463068  1.0
  C  C271  1  0.62719668  0.79741898  0.41535177  1.0
  C  C272  1  0.79736447  0.99078001  0.41536997  1.0
  C  C273  1  0.99078474  0.62719287  0.41534575  1.0
  C  C274  1  0.12719256  0.49078445  0.91534618  1.0
  C  C275  1  0.29741823  0.12719663  0.91535141  1.0
  C  C276  1  0.49078090  0.29736424  0.91537014  1.0
  C  C277  1  0.37280398  0.20258200  0.58464870  1.0
  C  C278  1  0.20263598  0.00921961  0.58463067  1.0
  C  C279  1  0.00921469  0.37280720  0.58465430  1.0
  C  C280  1  0.91423846  0.56317331  0.07009207  1.0
  C  C281  1  0.59259328  0.91426681  0.07012269  1.0
  C  C282  1  0.56322804  0.59264695  0.07010118  1.0
  C  C283  1  0.58573313  0.90740693  0.42987793  1.0
  C  C284  1  0.90735326  0.93677140  0.42989885  1.0
  C  C285  1  0.93682687  0.58576177  0.42990785  1.0
  C  C286  1  0.08576016  0.43682767  0.92990848  1.0
  C  C287  1  0.40740636  0.08573281  0.92987779  1.0
  C  C288  1  0.43677261  0.40735221  0.92989893  1.0
  C  C289  1  0.41426691  0.09259360  0.57012233  1.0
  C  C290  1  0.09264780  0.06322684  0.57010043  1.0
  C  C291  1  0.06317236  0.41423875  0.57009152  1.0
  C  C292  1  0.86512210  0.55146076  0.06679112  1.0
  C  C293  1  0.65013625  0.86513594  0.06679981  1.0
  C  C294  1  0.55148868  0.65017988  0.06678999  1.0
  C  C295  1  0.63486366  0.84986442  0.43320083  1.0
  C  C296  1  0.84982164  0.94851099  0.43320986  1.0
  C  C297  1  0.94853950  0.63487882  0.43320920  1.0
  C  C298  1  0.13487815  0.44854022  0.93320999  1.0
  C  C299  1  0.34986359  0.13486412  0.93320080  1.0
  C  C300  1  0.44851238  0.34982019  0.93321062  1.0
  C  C301  1  0.36513618  0.15013656  0.56679971  1.0
  C  C302  1  0.15017963  0.05148680  0.56678864  1.0
  C  C303  1  0.05145953  0.36512125  0.56679029  1.0
  C  C304  1  0.03902036  0.45766496  0.16275649  1.0
  C  C305  1  0.66602110  0.03905505  0.16272042  1.0
  C  C306  1  0.45764872  0.66610206  0.16272632  1.0
  C  C307  1  0.46094630  0.83397790  0.33727980  1.0
  C  C308  1  0.83389708  0.04235067  0.33727378  1.0
  C  C309  1  0.04233563  0.46097923  0.33724306  1.0
  C  C310  1  0.96097968  0.54233556  0.83724353  1.0
  C  C311  1  0.33397956  0.96094502  0.83727963  1.0
  C  C312  1  0.54235194  0.33389710  0.83727379  1.0
  C  C313  1  0.53905476  0.16602126  0.66271990  1.0
  C  C314  1  0.16610316  0.95764758  0.66272607  1.0
  C  C315  1  0.95766564  0.53902221  0.66275713  1.0
  C  C316  1  0.08000451  0.40598588  0.17762649  1.0
  C  C317  1  0.69158079  0.08003318  0.17761555  1.0
  C  C318  1  0.40597618  0.69165168  0.17760128  1.0
  C  C319  1  0.41996790  0.80841819  0.32238462  1.0
  C  C320  1  0.80834734  0.09402293  0.32239874  1.0
  C  C321  1  0.09401363  0.41999524  0.32237287  1.0
  C  C322  1  0.91999533  0.59401510  0.82237333  1.0
  C  C323  1  0.30841986  0.91996689  0.82238449  1.0
  C  C324  1  0.59402387  0.30834793  0.82239855  1.0
  C  C325  1  0.58003296  0.19158051  0.67761520  1.0
  C  C326  1  0.19165230  0.90597577  0.67760132  1.0
  C  C327  1  0.90598601  0.58000620  0.67762724  1.0
  C  C328  1  0.08435600  0.40238715  0.07789496  1.0
  C  C329  1  0.59116657  0.08433608  0.07781727  1.0
  C  C330  1  0.40245599  0.59111848  0.07784900  1.0
  C  C331  1  0.41566497  0.90883285  0.42218298  1.0
  C  C332  1  0.90888254  0.09754255  0.42215106  1.0
  C  C333  1  0.09761303  0.41564369  0.42210476  1.0
  C  C334  1  0.91564343  0.59761292  0.92210484  1.0
  C  C335  1  0.40883306  0.91566535  0.92218308  1.0
  C  C336  1  0.59754507  0.40888068  0.92215071  1.0
  C  C337  1  0.58433446  0.09116631  0.57781665  1.0
  C  C338  1  0.09111832  0.90245524  0.57784906  1.0
  C  C339  1  0.90238763  0.58435638  0.57789553  1.0
  C  C340  1  0.00035959  0.50946789  0.18299391  1.0
  C  C341  1  0.67317259  0.00036214  0.18294473  1.0
  C  C342  1  0.50941174  0.67325326  0.18296711  1.0
  C  C343  1  0.49963842  0.82682708  0.31705523  1.0
  C  C344  1  0.82674492  0.99058817  0.31703310  1.0
  C  C345  1  0.99053294  0.49964029  0.31700614  1.0
  C  C346  1  0.99963984  0.49053218  0.81700614  1.0
  C  C347  1  0.32682746  0.99963747  0.81705486  1.0
  C  C348  1  0.49058851  0.32674590  0.81703243  1.0
  C  C349  1  0.50036244  0.17317253  0.68294453  1.0
  C  C350  1  0.17325492  0.00941099  0.68296733  1.0
  C  C351  1  0.00946792  0.50036115  0.68299421  1.0
  C  C352  1  0.00223324  0.50913374  0.21688771  1.0
  C  C353  1  0.70553923  0.00222849  0.21684294  1.0
  C  C354  1  0.50906146  0.70562673  0.21686870  1.0
  C  C355  1  0.49777134  0.79446123  0.28315702  1.0
  C  C356  1  0.79437263  0.99093817  0.28313120  1.0
  C  C357  1  0.99086685  0.49776686  0.28311210  1.0
  C  C358  1  0.99776579  0.49086542  0.78311208  1.0
  C  C359  1  0.29446143  0.99777067  0.78315692  1.0
  C  C360  1  0.49093899  0.29437289  0.78313121  1.0
  C  C361  1  0.50222891  0.20553884  0.71684294  1.0
  C  C362  1  0.20562823  0.00906053  0.71686789  1.0
  C  C363  1  0.00913442  0.50223457  0.71688809  1.0
  C  C364  1  0.04229672  0.45746134  0.23211262  1.0
  C  C365  1  0.73232333  0.04232991  0.23209995  1.0
  C  C366  1  0.45741509  0.73240737  0.23210120  1.0
  C  C367  1  0.45767011  0.76767673  0.26790022  1.0
  C  C368  1  0.76759207  0.04258401  0.26789867  1.0
  C  C369  1  0.04253872  0.45770281  0.26788681  1.0
  C  C370  1  0.95770251  0.54253827  0.76788681  1.0
  C  C371  1  0.26767753  0.95766970  0.76789932  1.0
  C  C372  1  0.54258557  0.26759178  0.76789818  1.0
  C  C373  1  0.54232993  0.23232288  0.73210010  1.0
  C  C374  1  0.23240899  0.95741424  0.73210134  1.0
  C  C375  1  0.95746133  0.54229771  0.73211296  1.0
  C  C376  1  0.08134831  0.40616849  0.21159790  1.0
  C  C377  1  0.72402079  0.08137699  0.21159029  1.0
  C  C378  1  0.40614781  0.72410567  0.21157528  1.0
  C  C379  1  0.41862302  0.77597939  0.28841014  1.0
  C  C380  1  0.77589412  0.09385171  0.28842498  1.0
  C  C381  1  0.09383107  0.41865215  0.28840161  1.0
  C  C382  1  0.91865235  0.59383158  0.78840166  1.0
  C  C383  1  0.27598068  0.91862216  0.78840973  1.0
  C  C384  1  0.59385264  0.27589394  0.78842439  1.0
  C  C385  1  0.58137763  0.22401977  0.71158997  1.0
  C  C386  1  0.22410612  0.90614745  0.71157529  1.0
  C  C387  1  0.90616898  0.58134837  0.71159840  1.0
  C  C388  1  0.80591495  0.58346511  0.04422208  1.0
  C  C389  1  0.65481656  0.80589894  0.04425582  1.0
  C  C390  1  0.58345298  0.65483763  0.04422359  1.0
  C  C391  1  0.69410051  0.84518326  0.45574438  1.0
  C  C392  1  0.84516406  0.91654833  0.45577782  1.0
  C  C393  1  0.91653559  0.69408615  0.45577836  1.0
  C  C394  1  0.19408285  0.41653678  0.95577921  1.0
  C  C395  1  0.34518247  0.19410112  0.95574439  1.0
  C  C396  1  0.41654951  0.34516289  0.95577787  1.0
  C  C397  1  0.30589893  0.15481772  0.54425512  1.0
  C  C398  1  0.15483659  0.08344901  0.54422120  1.0
  C  C399  1  0.08346262  0.30591574  0.54422132  1.0
  N  N400  1  0.03552660  0.45808315  0.12803469  1.0
  N  N401  1  0.63441073  0.03553991  0.12798697  1.0
  N  N402  1  0.45808614  0.63446468  0.12799597  1.0
  N  N403  1  0.46446156  0.86558829  0.37201352  1.0
  N  N404  1  0.86553520  0.04191332  0.37200429  1.0
  N  N405  1  0.04191669  0.46447357  0.37196507  1.0
  N  N406  1  0.96447406  0.54191691  0.87196536  1.0
  N  N407  1  0.36558972  0.96446062  0.87201337  1.0
  N  N408  1  0.54191411  0.36553448  0.87200381  1.0
  N  N409  1  0.53553869  0.13441086  0.62798650  1.0
  N  N410  1  0.13446484  0.95808538  0.62799561  1.0
  N  N411  1  0.95808478  0.53552650  0.62803514  1.0
  O  O412  1  0.33707448  0.33710673  0.01125225  1.0
  O  O413  1  0.16289319  0.16292537  0.48874744  1.0
  O  O414  1  0.66292475  0.66289379  0.98874833  1.0
  O  O415  1  0.83710604  0.83707516  0.51125218  1.0
  O  O416  1  0.28457757  0.36903209  0.08020843  1.0
  O  O417  1  0.42665312  0.28461175  0.08019446  1.0
  O  O418  1  0.36899731  0.42669410  0.08019932  1.0
  O  O419  1  0.21539007  0.07334883  0.41980674  1.0
  O  O420  1  0.07330586  0.13100174  0.41979998  1.0
  O  O421  1  0.13096849  0.21542143  0.41979075  1.0
  O  O422  1  0.71542023  0.63096980  0.91979020  1.0
  O  O423  1  0.57334775  0.71538968  0.91980638  1.0
  O  O424  1  0.63100456  0.57330415  0.91979988  1.0
  O  O425  1  0.78460977  0.92665215  0.58019284  1.0
  O  O426  1  0.92669378  0.86899787  0.58019953  1.0
  O  O427  1  0.86902931  0.78457954  0.58020964  1.0
  O  O428  1  0.23678999  0.32377937  0.03303162  1.0
  O  O429  1  0.47247483  0.23682987  0.03300742  1.0
  O  O430  1  0.32373309  0.47257150  0.03303357  1.0
  O  O431  1  0.26317104  0.02752433  0.46699305  1.0
  O  O432  1  0.02742798  0.17626820  0.46696535  1.0
  O  O433  1  0.17622287  0.26320724  0.46696777  1.0
  O  O434  1  0.76320680  0.67622206  0.96696793  1.0
  O  O435  1  0.52752746  0.76317384  0.96699414  1.0
  O  O436  1  0.67627062  0.52742720  0.96696583  1.0
  O  O437  1  0.73682595  0.97247392  0.53300544  1.0
  O  O438  1  0.97257064  0.82373278  0.53303399  1.0
  O  O439  1  0.82377636  0.73679237  0.53303263  1.0
  O  O440  1  0.76700245  0.56248781  0.03630993  1.0
  O  O441  1  0.70677697  0.76705180  0.03628242  1.0
  O  O442  1  0.56235894  0.70680396  0.03626438  1.0
  O  O443  1  0.73294719  0.79322298  0.46371796  1.0
  O  O444  1  0.79319828  0.93764186  0.46373729  1.0
  O  O445  1  0.93751225  0.73299904  0.46368901  1.0
  O  O446  1  0.23299719  0.43751362  0.96369212  1.0
  O  O447  1  0.29322185  0.23294690  0.96371773  1.0
  O  O448  1  0.43764335  0.29319793  0.96373804  1.0
  O  O449  1  0.26705347  0.20677800  0.53628178  1.0
  O  O450  1  0.20680135  0.06235593  0.53626138  1.0
  O  O451  1  0.06248718  0.26700103  0.53630983  1.0
  O  O452  1  0.79895790  0.62912536  0.03444321  1.0
  O  O453  1  0.60638634  0.79884756  0.03455904  1.0
  O  O454  1  0.62920864  0.60638542  0.03449412  1.0
  O  O455  1  0.70115287  0.89361359  0.46544138  1.0
  O  O456  1  0.89361764  0.87079412  0.46550881  1.0
  O  O457  1  0.87087524  0.70104396  0.46555688  1.0
  O  O458  1  0.20104113  0.37087471  0.96555725  1.0
  O  O459  1  0.39361187  0.20115342  0.96544143  1.0
  O  O460  1  0.37079365  0.39361647  0.96550805  1.0
  O  O461  1  0.29884718  0.10638784  0.53455809  1.0
  O  O462  1  0.10638301  0.12920413  0.53449039  1.0
  O  O463  1  0.12912419  0.29895702  0.53444189  1.0
