# generated using pymatgen
data_CuH8C8S2IN2
_symmetry_space_group_name_H-M   'P 1'
_cell_length_a   7.19474135
_cell_length_b   10.47026812
_cell_length_c   10.90801931
_cell_angle_alpha   96.95625825
_cell_angle_beta   92.89259329
_cell_angle_gamma   105.08161461
_symmetry_Int_Tables_number   1
_chemical_formula_structural   CuH8C8S2IN2
_chemical_formula_sum   'Cu2 H16 C16 S4 I2 N4'
_cell_volume   784.68139883
_cell_formula_units_Z   2
loop_
 _symmetry_equiv_pos_site_id
 _symmetry_equiv_pos_as_xyz
  1  'x, y, z'
loop_
 _atom_site_type_symbol
 _atom_site_label
 _atom_site_symmetry_multiplicity
 _atom_site_fract_x
 _atom_site_fract_y
 _atom_site_fract_z
 _atom_site_occupancy
  Cu  Cu0  1  0.51001511  0.39317416  0.59692909  1.0
  Cu  Cu1  1  0.48996984  0.60681711  0.40306256  1.0
  H  H2  1  0.84028636  0.51507678  0.79712529  1.0
  H  H3  1  0.15971487  0.48492139  0.20287892  1.0
  H  H4  1  0.32983562  0.46814672  0.01631409  1.0
  H  H5  1  0.67017217  0.53185837  0.98369594  1.0
  H  H6  1  0.05519571  0.21535565  0.63696118  1.0
  H  H7  1  0.94479865  0.78462672  0.36303501  1.0
  H  H8  1  0.70124011  0.90637176  0.35837252  1.0
  H  H9  1  0.29877505  0.09362651  0.64163769  1.0
  H  H10  1  0.05983583  0.58857530  0.68464231  1.0
  H  H11  1  0.94015180  0.41141578  0.31535674  1.0
  H  H12  1  0.22489549  0.52252726  0.60351179  1.0
  H  H13  1  0.77507762  0.47746217  0.39649662  1.0
  H  H14  1  0.59039662  0.05478041  0.32346789  1.0
  H  H15  1  0.40959673  0.94521500  0.67652465  1.0
  H  H16  1  0.49005491  0.18014623  0.38907675  1.0
  H  H17  1  0.50993788  0.81984372  0.61092965  1.0
  C  C18  1  0.20517383  0.47943326  0.78022729  1.0
  C  C19  1  0.79482405  0.52057519  0.21976547  1.0
  C  C20  1  0.10036635  0.49129158  0.89243881  1.0
  C  C21  1  0.89964624  0.50872336  0.10757741  1.0
  C  C22  1  0.91363936  0.51009316  0.88568350  1.0
  C  C23  1  0.08637425  0.48991276  0.11433510  1.0
  C  C24  1  0.18459356  0.48116123  0.00864679  1.0
  C  C25  1  0.81540518  0.51883782  0.99135931  1.0
  C  C26  1  0.71921317  0.15345135  0.49301761  1.0
  C  C27  1  0.28083933  0.84657383  0.50695835  1.0
  C  C28  1  0.86018773  0.07316154  0.49691435  1.0
  C  C29  1  0.13978241  0.92682749  0.50310398  1.0
  C  C30  1  0.02908539  0.11992361  0.57793012  1.0
  C  C31  1  0.97092943  0.88008541  0.42205688  1.0
  C  C32  1  0.83363186  0.95146742  0.41880968  1.0
  C  C33  1  0.16637694  0.04854036  0.58118060  1.0
  S  S34  1  0.36800712  0.38877300  0.77592798  1.0
  S  S35  1  0.63200566  0.61123436  0.22407705  1.0
  S  S36  1  0.72653423  0.27537585  0.61088441  1.0
  S  S37  1  0.27347283  0.72462294  0.38910542  1.0
  I  I38  1  0.27776506  0.34700650  0.39033478  1.0
  I  I39  1  0.72223218  0.65298807  0.60965594  1.0
  N  N40  1  0.16449299  0.53867234  0.68482481  1.0
  N  N41  1  0.83549880  0.46132672  0.31517646  1.0
  N  N42  1  0.58909217  0.12580786  0.39513877  1.0
  N  N43  1  0.41087069  0.87418794  0.60485186  1.0
