# generated using pymatgen
data_Zn8H54C79(O13F3)2
_symmetry_space_group_name_H-M   'P 1'
_cell_length_a   18.44303417
_cell_length_b   18.45235780
_cell_length_c   18.46115201
_cell_angle_alpha   119.76921816
_cell_angle_beta   119.85332906
_cell_angle_gamma   90.15682671
_symmetry_Int_Tables_number   1
_chemical_formula_structural   Zn8H54C79(O13F3)2
_chemical_formula_sum   'Zn8 H54 C79 O26 F6'
_cell_volume   4461.71529204
_cell_formula_units_Z   1
loop_
 _symmetry_equiv_pos_site_id
 _symmetry_equiv_pos_as_xyz
  1  'x, y, z'
loop_
 _atom_site_type_symbol
 _atom_site_label
 _atom_site_symmetry_multiplicity
 _atom_site_fract_x
 _atom_site_fract_y
 _atom_site_fract_z
 _atom_site_occupancy
  Zn  Zn0  1  0.86900751  0.95336641  0.40765075  1.0
  Zn  Zn1  1  0.04141983  0.12821465  0.58263466  1.0
  Zn  Zn2  1  0.04093557  0.95363859  0.41019458  1.0
  Zn  Zn3  1  0.04263186  0.95635390  0.58686237  1.0
  Zn  Zn4  1  0.63051797  0.53965881  0.58420476  1.0
  Zn  Zn5  1  0.45843281  0.54324687  0.58508712  1.0
  Zn  Zn6  1  0.45572865  0.36947900  0.40913880  1.0
  Zn  Zn7  1  0.45864843  0.54485450  0.41215717  1.0
  H  H8  1  0.53370280  0.94294001  0.25875300  1.0
  H  H9  1  0.63023276  0.02956866  0.45039666  1.0
  H  H10  1  0.28499215  0.69024356  0.37270639  1.0
  H  H11  1  0.26262223  0.66918065  0.64122678  1.0
  H  H12  1  0.36249956  0.76144920  0.72678085  1.0
  H  H13  1  0.26880741  0.86231983  0.72763758  1.0
  H  H14  1  0.20220731  0.31923043  0.90168084  1.0
  H  H15  1  0.29631162  0.41471493  0.09160417  1.0
  H  H16  1  0.34438552  0.13132517  0.09624013  1.0
  H  H17  1  0.24610704  0.03258765  0.90108187  1.0
  H  H18  1  0.70967980  0.95520898  0.53270493  1.0
  H  H19  1  0.92627139  0.53583320  0.64893034  1.0
  H  H20  1  0.30457515  0.18227108  0.38873560  1.0
  H  H21  1  0.33445985  0.46582353  0.70989570  1.0
  H  H22  1  0.23866157  0.36947316  0.70724826  1.0
  H  H23  1  0.14183053  0.36211761  0.60448234  1.0
  H  H24  1  0.68717923  0.09011857  0.34452462  1.0
  H  H25  1  0.59162677  0.18518600  0.34380903  1.0
  H  H26  1  0.86979462  0.46746498  0.69494381  1.0
  H  H27  1  0.83149428  0.42519005  0.74238170  1.0
  H  H28  1  0.96837222  0.37212408  0.69349172  1.0
  H  H29  1  0.93060160  0.33156982  0.74278631  1.0
  H  H30  1  0.91387353  0.79354822  0.09179644  1.0
  H  H31  1  0.58858322  0.71419801  0.40238678  1.0
  H  H32  1  0.91447500  0.79853995  0.61030196  1.0
  H  H33  1  0.87779396  0.82591338  0.77128268  1.0
  H  H34  1  0.97274147  0.79323727  0.89601110  1.0
  H  H35  1  0.03153074  0.54269466  0.94088316  1.0
  H  H36  1  0.10362836  0.65339720  0.04191160  1.0
  H  H37  1  0.00822370  0.61257779  0.03002530  1.0
  H  H38  1  0.97980342  0.70838522  0.96593549  1.0
  H  H39  1  0.90965174  0.59832822  0.86503821  1.0
  H  H40  1  0.02107665  0.57626585  0.81826353  1.0
  H  H41  1  0.81923685  0.69946054  0.90189123  1.0
  H  H42  1  0.08182578  0.68997027  0.91311164  1.0
  H  H43  1  0.09179905  0.54076054  0.51006392  1.0
  H  H44  1  0.15798143  0.53247436  0.46383782  1.0
  H  H45  1  0.04912651  0.45604562  0.38138596  1.0
  H  H46  1  0.16188266  0.38597549  0.43883338  1.0
  H  H47  1  0.09433297  0.39115997  0.48170157  1.0
  H  H48  1  0.21369140  0.52904621  0.65383351  1.0
  H  H49  1  0.27962537  0.52347579  0.60839338  1.0
  H  H50  1  0.64227403  0.53320449  0.13592105  1.0
  H  H51  1  0.62044526  0.57134733  0.05806529  1.0
  H  H52  1  0.53350938  0.75297718  0.90007220  1.0
  H  H53  1  0.73024309  0.57845719  0.13980395  1.0
  H  H54  1  0.70916190  0.72770629  0.21381502  1.0
  H  H55  1  0.73698102  0.69186901  0.29340513  1.0
  H  H56  1  0.58382014  0.64558772  0.23665393  1.0
  H  H57  1  0.54420791  0.65883803  0.13659821  1.0
  H  H58  1  0.53059519  0.65624165  0.89959947  1.0
  H  H59  1  0.62935222  0.84810514  0.09292626  1.0
  H  H60  1  0.62601940  0.75119304  0.09146362  1.0
  H  H61  1  0.18710909  0.78272670  0.37055764  1.0
  C  C62  1  0.13888802  0.13948274  0.77409667  1.0
  C  C63  1  0.70919958  0.78963566  0.44593357  1.0
  C  C64  1  0.88790052  0.76181079  0.74482929  1.0
  C  C65  1  0.86135092  0.85858296  0.21932813  1.0
  C  C66  1  0.94137272  0.74312998  0.81496421  1.0
  C  C67  1  0.95645519  0.66173604  0.78285625  1.0
  C  C68  1  0.91580376  0.59965977  0.67817101  1.0
  C  C69  1  0.86189609  0.61936892  0.60962484  1.0
  C  C70  1  0.84594239  0.69977722  0.63974867  1.0
  C  C71  1  0.71239368  0.77611301  0.04967375  1.0
  C  C72  1  0.80464227  0.80258334  0.10605453  1.0
  C  C73  1  0.60765351  0.78054428  0.28343230  1.0
  C  C74  1  0.84187632  0.77361135  0.04980773  1.0
  C  C75  1  0.78894488  0.72095862  0.94355892  1.0
  C  C76  1  0.69550763  0.69414664  0.88707769  1.0
  C  C77  1  0.85870273  0.13346837  0.49446632  1.0
  C  C78  1  0.65933714  0.72344236  0.94312985  1.0
  C  C79  1  0.57370808  0.72187714  0.93588179  1.0
  C  C80  1  0.63378922  0.78145383  0.05641073  1.0
  C  C81  1  0.22553404  0.77803402  0.56642028  1.0
  C  C82  1  0.19054713  0.80031278  0.49665265  1.0
  C  C83  1  0.21334438  0.76688987  0.42646354  1.0
  C  C84  1  0.56383111  0.82540607  0.24138302  1.0
  C  C85  1  0.26852855  0.71529317  0.42796476  1.0
  C  C86  1  0.30428674  0.69388328  0.49950919  1.0
  C  C87  1  0.28056055  0.72629442  0.56799261  1.0
  C  C88  1  0.29396920  0.73152687  0.65872265  1.0
  C  C89  1  0.13377726  0.85758928  0.49638304  1.0
  C  C90  1  0.23532223  0.79333153  0.66000564  1.0
  C  C91  1  0.21971639  0.16110201  0.94516469  1.0
  C  C92  1  0.19389809  0.19634717  0.88786160  1.0
  C  C93  1  0.22227234  0.28922298  0.94373899  1.0
  C  C94  1  0.27506381  0.34289232  0.05049115  1.0
  C  C95  1  0.57030199  0.91325596  0.29788233  1.0
  C  C96  1  0.30236350  0.30684435  0.10758708  1.0
  C  C97  1  0.27213045  0.21448343  0.05142006  1.0
  C  C98  1  0.27788157  0.13659471  0.05952726  1.0
  C  C99  1  0.21715462  0.07566706  0.93811501  1.0
  C  C100  1  0.22082752  0.28508647  0.55877406  1.0
  C  C101  1  0.13806607  0.13662587  0.49902035  1.0
  C  C102  1  0.19575938  0.19271465  0.49867324  1.0
  C  C103  1  0.22906460  0.15940456  0.43811552  1.0
  C  C104  1  0.28211487  0.21303528  0.43804897  1.0
  C  C105  1  0.30632776  0.30576143  0.50000206  1.0
  C  C106  1  0.66048209  0.73210657  0.44651805  1.0
  C  C107  1  0.27408290  0.34015889  0.56009142  1.0
  C  C108  1  0.26986473  0.42457196  0.63550911  1.0
  C  C109  1  0.21009893  0.36139385  0.63430863  1.0
  C  C110  1  0.83157976  0.27658460  0.57940585  1.0
  C  C111  1  0.80139264  0.18987981  0.49571289  1.0
  C  C112  1  0.71290675  0.15789506  0.41096800  1.0
  C  C113  1  0.86146729  0.86630667  0.50364953  1.0
  C  C114  1  0.65934293  0.21105362  0.41067623  1.0
  C  C115  1  0.69086698  0.29922778  0.49542164  1.0
  C  C116  1  0.77757997  0.32946751  0.57937860  1.0
  C  C117  1  0.70039237  0.69818887  0.50467548  1.0
  C  C118  1  0.84794249  0.40729037  0.68735009  1.0
  C  C119  1  0.90964236  0.34792979  0.68718348  1.0
  C  C120  1  0.36265236  0.63836130  0.49971060  1.0
  C  C121  1  0.63447688  0.35656131  0.49425660  1.0
  C  C122  1  0.63941799  0.63728049  0.77384135  1.0
  C  C123  1  0.36013771  0.36430377  0.22134465  1.0
  C  C124  1  0.36332901  0.36222191  0.49927216  1.0
  C  C125  1  0.62360816  0.96038116  0.40392948  1.0
  C  C126  1  0.64068544  0.63801789  0.49976643  1.0
  C  C127  1  0.66815934  0.91870333  0.44978516  1.0
  C  C128  1  0.79381127  0.72375147  0.56728809  1.0
  C  C129  1  0.66115861  0.82999921  0.39093859  1.0
  C  C130  1  0.01437376  0.64125569  0.85862277  1.0
  C  C131  1  0.97948271  0.64129357  0.91890359  1.0
  C  C132  1  0.03365570  0.61092996  0.98673229  1.0
  C  C133  1  0.22902893  0.48276443  0.60064236  1.0
  C  C134  1  0.14595369  0.43234587  0.49111843  1.0
  C  C135  1  0.10914012  0.49368329  0.45996748  1.0
  C  C136  1  0.59999561  0.68628303  0.21544256  1.0
  C  C137  1  0.68439182  0.67714856  0.21875316  1.0
  C  C138  1  0.66852089  0.58504944  0.13359143  1.0
  C  C139  1  0.84247202  0.77932600  0.56454255  1.0
  C  C140  1  0.80236742  0.81155063  0.50474122  1.0
  O  O141  1  0.99916539  0.99848369  0.49849526  1.0
  O  O142  1  0.38126234  0.32358967  0.26412511  1.0
  O  O143  1  0.38455181  0.44573703  0.56026277  1.0
  O  O144  1  0.12109005  0.05634441  0.73190186  1.0
  O  O145  1  0.55724035  0.61822091  0.43810268  1.0
  O  O146  1  0.38617140  0.32274499  0.43848752  1.0
  O  O147  1  0.67715815  0.61138904  0.55696846  1.0
  O  O148  1  0.67894364  0.61404678  0.72962110  1.0
  O  O149  1  0.38345717  0.44785388  0.26525096  1.0
  O  O150  1  0.38520016  0.61673801  0.56194295  1.0
  O  O151  1  0.55137130  0.31871342  0.42457487  1.0
  O  O152  1  0.82042625  0.05044812  0.42561817  1.0
  O  O153  1  0.82075357  0.87725074  0.26240554  1.0
  O  O154  1  0.94188209  0.17369945  0.56309322  1.0
  O  O155  1  0.10895646  0.87620559  0.43150340  1.0
  O  O156  1  0.11362002  0.17841124  0.55806560  1.0
  O  O157  1  0.94469969  0.89295350  0.57090308  1.0
  O  O158  1  0.11773080  0.05312376  0.44171239  1.0
  O  O159  1  0.82434724  0.88007003  0.43440174  1.0
  O  O160  1  0.11577439  0.88332787  0.56190059  1.0
  O  O161  1  0.11516254  0.17884271  0.72974471  1.0
  O  O162  1  0.94520557  0.88344047  0.26428624  1.0
  O  O163  1  0.50002705  0.49926456  0.49663779  1.0
  O  O164  1  0.38483393  0.61698817  0.43825316  1.0
  O  O165  1  0.67461110  0.43946559  0.56374137  1.0
  O  O166  1  0.55557919  0.61619633  0.73024030  1.0
  F  F167  1  0.82303105  0.55694868  0.50795245  1.0
  F  F168  1  0.15732786  0.76091443  0.64608607  1.0
  F  F169  1  0.23822039  0.12532884  0.10233020  1.0
  F  F170  1  0.13437699  0.02317588  0.89631530  1.0
  F  F171  1  0.20962318  0.07088777  0.37546944  1.0
  F  F172  1  0.51044203  0.78009736  0.13690505  1.0
