# generated using pymatgen
data_Al2H8C19O11
_symmetry_space_group_name_H-M   'P 1'
_cell_length_a   6.70286982
_cell_length_b   18.42338931
_cell_length_c   20.60337494
_cell_angle_alpha   107.87927353
_cell_angle_beta   89.63536931
_cell_angle_gamma   89.93228856
_symmetry_Int_Tables_number   1
_chemical_formula_structural   Al2H8C19O11
_chemical_formula_sum   'Al4 H16 C38 O22'
_cell_volume   2421.36421287
_cell_formula_units_Z   2
loop_
 _symmetry_equiv_pos_site_id
 _symmetry_equiv_pos_as_xyz
  1  'x, y, z'
loop_
 _atom_site_type_symbol
 _atom_site_label
 _atom_site_symmetry_multiplicity
 _atom_site_fract_x
 _atom_site_fract_y
 _atom_site_fract_z
 _atom_site_occupancy
  Al  Al0  1  0.13705139  0.49942854  0.49886241  1.0
  Al  Al1  1  0.63720482  0.49901155  0.49860858  1.0
  Al  Al2  1  0.65311376  0.99942534  0.99828124  1.0
  Al  Al3  1  0.15283357  0.99985346  0.99914702  1.0
  H  H4  1  0.20704940  0.30990266  0.72767262  1.0
  H  H5  1  0.20748079  0.22639062  0.80136068  1.0
  H  H6  1  0.71146403  0.71038374  0.29017238  1.0
  H  H7  1  0.71614476  0.79102035  0.21231676  1.0
  H  H8  1  0.07372092  0.78961324  0.20876985  1.0
  H  H9  1  0.06909266  0.70896129  0.28663377  1.0
  H  H10  1  0.59292286  0.08039455  0.79466766  1.0
  H  H11  1  0.59210308  0.06600373  0.70418742  1.0
  H  H12  1  0.36270221  0.08463483  0.75220560  1.0
  H  H13  1  0.47233038  0.16038950  0.62833608  1.0
  H  H14  1  0.60386951  0.21651179  0.58385317  1.0
  H  H15  1  0.34661413  0.23637074  0.60750452  1.0
  H  H16  1  0.38700648  0.40637954  0.50292580  1.0
  H  H17  1  0.88564030  0.59843716  0.51222059  1.0
  H  H18  1  0.40261492  0.09835801  0.01076849  1.0
  H  H19  1  0.90377626  0.90246518  0.99291936  1.0
  C  C20  1  0.38599600  0.60502837  0.60364315  1.0
  C  C21  1  0.38770144  0.57584440  0.42255793  1.0
  C  C22  1  0.88909263  0.39469682  0.39375255  1.0
  C  C23  1  0.88668176  0.42220228  0.57498561  1.0
  C  C24  1  0.07025169  0.23511536  0.77673870  1.0
  C  C25  1  0.89401842  0.19834726  0.78797151  1.0
  C  C26  1  0.71447223  0.20883309  0.75559401  1.0
  C  C27  1  0.71438088  0.25756679  0.71465523  1.0
  C  C28  1  0.89200696  0.29379279  0.70408660  1.0
  C  C29  1  0.07007032  0.28206724  0.73577064  1.0
  C  C30  1  0.89891727  0.15512869  0.83392059  1.0
  C  C31  1  0.88911947  0.33964378  0.66029273  1.0
  C  C32  1  0.88706891  0.37801572  0.62153518  1.0
  C  C33  1  0.90651740  0.11919658  0.87466262  1.0
  C  C34  1  0.89675797  0.16675379  0.16679662  1.0
  C  C35  1  0.89427408  0.22030553  0.21951784  1.0
  C  C36  1  0.89213277  0.27937329  0.27776511  1.0
  C  C37  1  0.89087545  0.33291082  0.33051314  1.0
  C  C38  1  0.38676728  0.66672904  0.66695382  1.0
  C  C39  1  0.39175410  0.72007024  0.71979151  1.0
  C  C40  1  0.39727810  0.77898030  0.77809275  1.0
  C  C41  1  0.40283880  0.83244340  0.83082800  1.0
  C  C42  1  0.57543060  0.77282915  0.22893462  1.0
  C  C43  1  0.39523444  0.79554757  0.20561929  1.0
  C  C44  1  0.21232654  0.77207211  0.22696901  1.0
  C  C45  1  0.20979241  0.72735369  0.27018053  1.0
  C  C46  1  0.39003629  0.70471633  0.29351566  1.0
  C  C47  1  0.57289277  0.72815124  0.27213595  1.0
  C  C48  1  0.39818286  0.84068793  0.16107097  1.0
  C  C49  1  0.38820818  0.65935933  0.33785714  1.0
  C  C50  1  0.38827665  0.62057580  0.37626675  1.0
  C  C51  1  0.40094590  0.87902873  0.12228182  1.0
  C  C52  1  0.40204837  0.92282668  0.07519295  1.0
  C  C53  1  0.40420183  0.89435964  0.89395666  1.0
  C  C54  1  0.90537219  0.07607253  0.92210455  1.0
  C  C55  1  0.89982372  0.10497019  0.10359917  1.0
  C  C56  1  0.52271236  0.09708665  0.75348073  1.0
  C  C57  1  0.48920837  0.21756477  0.62265480  1.0
  O  O58  1  0.55731725  0.55901475  0.44159716  1.0
  O  O59  1  0.21578293  0.58216884  0.57863285  1.0
  O  O60  1  0.05702113  0.44033848  0.55678262  1.0
  O  O61  1  0.21736680  0.55818706  0.44086351  1.0
  O  O62  1  0.05848172  0.41796124  0.41913297  1.0
  O  O63  1  0.55676207  0.58077576  0.57895219  1.0
  O  O64  1  0.38721688  0.45439266  0.49278157  1.0
  O  O65  1  0.71797576  0.41866282  0.41815365  1.0
  O  O66  1  0.71679579  0.43829003  0.55526893  1.0
  O  O67  1  0.88664225  0.54413477  0.50582671  1.0
  O  O68  1  0.23392166  0.91850291  0.91912140  1.0
  O  O69  1  0.57239221  0.93957497  0.05604447  1.0
  O  O70  1  0.73067545  0.08146309  0.07796110  1.0
  O  O71  1  0.57450936  0.91782976  0.91842918  1.0
  O  O72  1  0.73430863  0.05825879  0.94001896  1.0
  O  O73  1  0.23202988  0.93978556  0.05640215  1.0
  O  O74  1  0.40295662  0.04429755  0.00557138  1.0
  O  O75  1  0.07448948  0.06004911  0.94224309  1.0
  O  O76  1  0.07130181  0.08097966  0.07943078  1.0
  O  O77  1  0.90325676  0.95473987  0.99206685  1.0
  O  O78  1  0.53505755  0.17822244  0.76445468  1.0
  O  O79  1  0.54008012  0.27259454  0.68674457  1.0
