# generated using pymatgen
data_AlH9C21N(ClO2)3
_symmetry_space_group_name_H-M   'P 1'
_cell_length_a   4.10734029
_cell_length_b   23.37713148
_cell_length_c   23.37764446
_cell_angle_alpha   59.99988747
_cell_angle_beta   89.99949189
_cell_angle_gamma   89.99854353
_symmetry_Int_Tables_number   1
_chemical_formula_structural   AlH9C21N(ClO2)3
_chemical_formula_sum   'Al3 H27 C63 N3 Cl9 O18'
_cell_volume   1943.93971773
_cell_formula_units_Z   3
loop_
 _symmetry_equiv_pos_site_id
 _symmetry_equiv_pos_as_xyz
  1  'x, y, z'
loop_
 _atom_site_type_symbol
 _atom_site_label
 _atom_site_symmetry_multiplicity
 _atom_site_fract_x
 _atom_site_fract_y
 _atom_site_fract_z
 _atom_site_occupancy
  Al  Al0  1  0.99205179  0.49976416  0.49984851  1.0
  Al  Al1  1  0.99210291  0.83372520  0.83309813  1.0
  Al  Al2  1  0.99207093  0.16651321  0.16706567  1.0
  H  H3  1  0.21140066  0.05245406  0.07875873  1.0
  H  H4  1  0.20576937  0.94780874  0.07729673  1.0
  H  H5  1  0.76574464  0.85606127  0.25748009  1.0
  H  H6  1  0.76574740  0.92414998  0.05312088  1.0
  H  H7  1  0.21146007  0.74541911  0.03546478  1.0
  H  H8  1  0.20580437  0.74396467  0.14156531  1.0
  H  H9  1  0.76577802  0.71978868  0.18939920  1.0
  H  H10  1  0.21134499  0.70213320  0.38577620  1.0
  H  H11  1  0.20573784  0.80823793  0.28112921  1.0
  H  H12  1  0.78054429  0.94705667  0.63275772  1.0
  H  H13  1  0.79283210  0.05134217  0.52628223  1.0
  H  H14  1  0.23390702  0.14523391  0.61267433  1.0
  H  H15  1  0.23384937  0.07543467  0.47857350  1.0
  H  H16  1  0.78044587  0.25352150  0.28039896  1.0
  H  H17  1  0.79277969  0.25571383  0.38468040  1.0
  H  H18  1  0.23383911  0.27933131  0.40877712  1.0
  H  H19  1  0.78054007  0.29942747  0.58684992  1.0
  H  H20  1  0.79286448  0.19294661  0.58904631  1.0
  H  H21  1  0.78163570  0.63292271  0.91996114  1.0
  H  H22  1  0.79345127  0.52643000  0.92229435  1.0
  H  H23  1  0.23388297  0.61270948  0.74210814  1.0
  H  H24  1  0.23386080  0.47852268  0.94603765  1.0
  H  H25  1  0.78157418  0.28044128  0.96626176  1.0
  H  H26  1  0.79340185  0.38459488  0.85977009  1.0
  H  H27  1  0.23383967  0.40877976  0.81185048  1.0
  H  H28  1  0.78163647  0.58662406  0.61378694  1.0
  H  H29  1  0.79347849  0.58895666  0.71794392  1.0
  C  C30  1  0.49092720  0.49785036  0.58838873  1.0
  C  C31  1  0.49621072  0.58741219  0.41268128  1.0
  C  C32  1  0.49096233  0.41354327  0.49793535  1.0
  C  C33  1  0.49625931  0.83324602  0.92074471  1.0
  C  C34  1  0.49098427  0.74709334  0.83118299  1.0
  C  C35  1  0.49100806  0.92185901  0.74687752  1.0
  C  C36  1  0.49623552  0.07934739  0.16658272  1.0
  C  C37  1  0.49093467  0.25505501  0.08043403  1.0
  C  C38  1  0.49095881  0.16459815  0.25520390  1.0
  C  C39  1  0.33795425  0.00948599  0.11738649  1.0
  C  C40  1  0.33180115  0.95030589  0.11686570  1.0
  C  C41  1  0.48867674  0.89399186  0.16683230  1.0
  C  C42  1  0.64491743  0.89873296  0.21762014  1.0
  C  C43  1  0.64142681  0.95778070  0.21859723  1.0
  C  C44  1  0.49487907  0.01457928  0.16779975  1.0
  C  C45  1  0.64492755  0.88429233  0.05031410  1.0
  C  C46  1  0.64143555  0.88526568  0.99028670  1.0
  C  C47  1  0.49489431  0.83446374  0.98429502  1.0
  C  C48  1  0.33798439  0.78405177  0.03979987  1.0
  C  C49  1  0.33182818  0.78353523  0.09949698  1.0
  C  C50  1  0.48868758  0.83350288  0.10584077  1.0
  C  C51  1  0.64493502  0.71698247  0.23206745  1.0
  C  C52  1  0.64143679  0.65695687  0.29111565  1.0
  C  C53  1  0.49487630  0.65096332  0.34790919  1.0
  C  C54  1  0.33791909  0.70647062  0.34280690  1.0
  C  C55  1  0.33177850  0.76616976  0.28362935  1.0
  C  C56  1  0.48867439  0.77251024  0.22732184  1.0
  C  C57  1  0.65679947  0.99049258  0.62794011  1.0
  C  C58  1  0.66639176  0.04944681  0.56804164  1.0
  C  C59  1  0.51179397  0.10625092  0.56102383  1.0
  C  C60  1  0.35380994  0.10223763  0.61607056  1.0
  C  C61  1  0.35398307  0.04343255  0.67629397  1.0
  C  C62  1  0.49876919  0.98624466  0.68298224  1.0
  C  C63  1  0.35379140  0.11503291  0.43557721  1.0
  C  C64  1  0.35392436  0.11360726  0.37677761  1.0
  C  C65  1  0.49873607  0.16410827  0.31958275  1.0
  C  C66  1  0.65673976  0.21490030  0.32383669  1.0
  C  C67  1  0.66633819  0.21584878  0.38278760  1.0
  C  C68  1  0.51176342  0.16606056  0.43959100  1.0
  C  C69  1  0.35376713  0.28273191  0.44837432  1.0
  C  C70  1  0.35393092  0.34295671  0.44694876  1.0
  C  C71  1  0.49873099  0.34964843  0.49744530  1.0
  C  C72  1  0.65678241  0.29460482  0.54823579  1.0
  C  C73  1  0.66638892  0.23470550  0.54918634  1.0
  C  C74  1  0.51177228  0.22768681  0.49940125  1.0
  C  C75  1  0.65724502  0.62808869  0.88141558  1.0
  C  C76  1  0.66677606  0.56814986  0.88243422  1.0
  C  C77  1  0.51198900  0.56105412  0.83270348  1.0
  C  C78  1  0.35390594  0.61609427  0.78170170  1.0
  C  C79  1  0.35397965  0.67633884  0.78027096  1.0
  C  C80  1  0.49890388  0.68315750  0.83069205  1.0
  C  C81  1  0.35387084  0.43553578  0.94942705  1.0
  C  C82  1  0.35393159  0.37672685  0.00966617  1.0
  C  C83  1  0.49884919  0.31948562  0.01649232  1.0
  C  C84  1  0.65720366  0.32381691  0.96142766  1.0
  C  C85  1  0.66666667  0.38274447  0.90148564  1.0
  C  C86  1  0.51198148  0.43956982  0.89438662  1.0
  C  C87  1  0.35386935  0.44837157  0.76887024  1.0
  C  C88  1  0.35392197  0.44694296  0.71005929  1.0
  C  C89  1  0.49886029  0.49735999  0.65282215  1.0
  C  C90  1  0.65723405  0.54808188  0.65716249  1.0
  C  C91  1  0.66677160  0.54910001  0.71608328  1.0
  C  C92  1  0.51198015  0.49937155  0.77290984  1.0
  N  N93  1  0.48677710  0.83333535  0.16666686  1.0
  N  N94  1  0.51686501  0.16665915  0.50000752  1.0
  N  N95  1  0.51712556  0.49999920  0.83333413  1.0
  Cl  Cl96  1  0.81918493  0.95947858  0.28474764  1.0
  Cl  Cl97  1  0.81918744  0.95141429  0.92243894  1.0
  Cl  Cl98  1  0.81922324  0.58910410  0.29282041  1.0
  Cl  Cl99  1  0.17284974  0.04236869  0.74357828  1.0
  Cl  Cl100  1  0.17275828  0.04738789  0.37571668  1.0
  Cl  Cl101  1  0.17277890  0.41024081  0.38072754  1.0
  Cl  Cl102  1  0.17220923  0.74352069  0.71400633  1.0
  Cl  Cl103  1  0.17216280  0.37581661  0.07684500  1.0
  Cl  Cl104  1  0.17212530  0.38067666  0.70914673  1.0
  O  O105  1  0.72463209  0.45345046  0.46985231  1.0
  O  O106  1  0.72432381  0.46974622  0.57652931  1.0
  O  O107  1  0.73169860  0.57819713  0.45194516  1.0
  O  O108  1  0.25245144  0.42218304  0.52766792  1.0
  O  O109  1  0.25944469  0.54839232  0.42397333  1.0
  O  O110  1  0.25243348  0.52761258  0.55003434  1.0
  O  O111  1  0.25250828  0.88348845  0.75551630  1.0
  O  O112  1  0.25947976  0.86097466  0.88172172  1.0
  O  O113  1  0.25249529  0.75569063  0.86094963  1.0
  O  O114  1  0.72466767  0.91003592  0.78678579  1.0
  O  O115  1  0.72437647  0.78706079  0.80308308  1.0
  O  O116  1  0.73177172  0.80319475  0.91152838  1.0
  O  O117  1  0.25245779  0.19433073  0.21682754  1.0
  O  O118  1  0.25945310  0.09063914  0.19431175  1.0
  O  O119  1  0.25242515  0.21669977  0.08903307  1.0
  O  O120  1  0.72464026  0.13651377  0.24337909  1.0
  O  O121  1  0.72429239  0.24319588  0.12040438  1.0
  O  O122  1  0.73172893  0.11861194  0.13653462  1.0
