# generated using pymatgen
data_Zn4H15C30I3O13
_symmetry_space_group_name_H-M   'P 1'
_cell_length_a   18.40943045
_cell_length_b   18.42873425
_cell_length_c   18.42820894
_cell_angle_alpha   90.29560631
_cell_angle_beta   119.58180506
_cell_angle_gamma   119.58008272
_symmetry_Int_Tables_number   1
_chemical_formula_structural   Zn4H15C30I3O13
_chemical_formula_sum   'Zn8 H30 C60 I6 O26'
_cell_volume   4465.14050420
_cell_formula_units_Z   2
loop_
 _symmetry_equiv_pos_site_id
 _symmetry_equiv_pos_as_xyz
  1  'x, y, z'
loop_
 _atom_site_type_symbol
 _atom_site_label
 _atom_site_symmetry_multiplicity
 _atom_site_fract_x
 _atom_site_fract_y
 _atom_site_fract_z
 _atom_site_occupancy
  Zn  Zn0  1  0.40838217  0.54269296  0.95846134  1.0
  Zn  Zn1  1  0.58753095  0.13275330  0.54612928  1.0
  Zn  Zn2  1  0.58755262  0.54613851  0.13276225  1.0
  Zn  Zn3  1  0.41126420  0.37160458  0.96282886  1.0
  Zn  Zn4  1  0.41127820  0.96281815  0.37159724  1.0
  Zn  Zn5  1  0.40839501  0.95847675  0.54270509  1.0
  Zn  Zn6  1  0.58547383  0.54614180  0.96031262  1.0
  Zn  Zn7  1  0.58547540  0.96030663  0.54614374  1.0
  H  H8  1  0.09386442  0.40597552  0.75199381  1.0
  H  H9  1  0.37579734  0.03311634  0.74742839  1.0
  H  H10  1  0.37579320  0.74742710  0.03310987  1.0
  H  H11  1  0.27904087  0.65383869  0.03482124  1.0
  H  H12  1  0.27906047  0.03484418  0.65382880  1.0
  H  H13  1  0.67197980  0.35238575  0.25776706  1.0
  H  H14  1  0.67198677  0.25775358  0.35234974  1.0
  H  H15  1  0.09393399  0.75227954  0.40606730  1.0
  H  H16  1  0.90483479  0.31336469  0.65769715  1.0
  H  H17  1  0.90490166  0.65795413  0.31347957  1.0
  H  H18  1  0.89148781  0.05521184  0.79051563  1.0
  H  H19  1  0.89142486  0.79010595  0.05488915  1.0
  H  H20  1  0.10062425  0.12376276  0.82832438  1.0
  H  H21  1  0.10059865  0.82788925  0.12364859  1.0
  H  H22  1  0.60876968  0.69986216  0.32122915  1.0
  H  H23  1  0.60878588  0.32124242  0.69988708  1.0
  H  H24  1  0.61108950  0.79972966  0.41469695  1.0
  H  H25  1  0.61108631  0.41469775  0.79974410  1.0
  H  H26  1  0.37736772  0.84847845  0.12766410  1.0
  H  H27  1  0.37735095  0.12765925  0.84847358  1.0
  H  H28  1  0.27407618  0.10854602  0.20388822  1.0
  H  H29  1  0.27406293  0.20394241  0.10861023  1.0
  H  H30  1  0.71839052  0.94805020  0.85211365  1.0
  H  H31  1  0.28105030  0.75478619  0.12984816  1.0
  H  H32  1  0.71840137  0.85213326  0.94805141  1.0
  H  H33  1  0.72911576  0.88510231  0.78875400  1.0
  H  H34  1  0.72913154  0.78877376  0.88510659  1.0
  H  H35  1  0.90721973  0.02711465  0.70869992  1.0
  H  H36  1  0.90722225  0.70822817  0.02708505  1.0
  H  H37  1  0.28104686  0.12985688  0.75476934  1.0
  C  C38  1  0.49902399  0.36294664  0.86758784  1.0
  C  C39  1  0.88843098  0.68717954  0.19526843  1.0
  C  C40  1  0.51473108  0.14466965  0.36883896  1.0
  C  C41  1  0.77562638  0.63696855  0.14052658  1.0
  C  C42  1  0.77561065  0.14052058  0.63699766  1.0
  C  C43  1  0.22088230  0.36152920  0.86005968  1.0
  C  C44  1  0.22089182  0.86010030  0.36150133  1.0
  C  C45  1  0.05008895  0.21534864  0.79148421  1.0
  C  C46  1  0.88841088  0.19526348  0.68717811  1.0
  C  C47  1  0.05008371  0.79137823  0.21528172  1.0
  C  C48  1  0.10773396  0.30400292  0.79948442  1.0
  C  C49  1  0.10775081  0.79952021  0.30398189  1.0
  C  C50  1  0.05181596  0.33702600  0.74785821  1.0
  C  C51  1  0.05185738  0.74802835  0.33707464  1.0
  C  C52  1  0.94396136  0.16217629  0.73531427  1.0
  C  C53  1  0.94396372  0.73517879  0.16212196  1.0
  C  C54  1  0.93448498  0.08166948  0.76109980  1.0
  C  C55  1  0.93445333  0.76073475  0.08151573  1.0
  C  C56  1  0.49902977  0.86757438  0.36294349  1.0
  C  C57  1  0.05367075  0.14363742  0.82847050  1.0
  C  C58  1  0.05364098  0.82814181  0.14345712  1.0
  C  C59  1  0.43166171  0.72261945  0.16110815  1.0
  C  C60  1  0.43168289  0.16112150  0.72263714  1.0
  C  C61  1  0.49391025  0.69248133  0.19735157  1.0
  C  C62  1  0.49393434  0.19736425  0.69250255  1.0
  C  C63  1  0.55892038  0.72198473  0.29052373  1.0
  C  C64  1  0.55893680  0.29053366  0.72200913  1.0
  C  C65  1  0.56031401  0.77808205  0.34293924  1.0
  C  C66  1  0.56032238  0.34294490  0.77810079  1.0
  C  C67  1  0.49695994  0.80832745  0.30571055  1.0
  C  C68  1  0.49696234  0.30571495  0.80834604  1.0
  C  C69  1  0.49332137  0.63366603  0.14130350  1.0
  C  C70  1  0.49333420  0.14131264  0.63367742  1.0
  C  C71  1  0.43305559  0.77888836  0.21369463  1.0
  C  C72  1  0.94553230  0.28479219  0.69436222  1.0
  C  C73  1  0.43306875  0.21370162  0.77890641  1.0
  C  C74  1  0.35230460  0.78279123  0.13487165  1.0
  C  C75  1  0.35230227  0.13487621  0.78278774  1.0
  C  C76  1  0.35104287  0.71937415  0.07546006  1.0
  C  C77  1  0.35105642  0.07547526  0.71937363  1.0
  C  C78  1  0.94557796  0.69451592  0.28485686  1.0
  C  C79  1  0.43785436  0.26317941  0.20998405  1.0
  C  C80  1  0.43786051  0.20994674  0.26318259  1.0
  C  C81  1  0.51924868  0.31384810  0.20358979  1.0
  C  C82  1  0.51926896  0.20356463  0.31383153  1.0
  C  C83  1  0.60442441  0.31144912  0.25776227  1.0
  C  C84  1  0.60443419  0.25775806  0.31143184  1.0
  C  C85  1  0.33455314  0.17912404  0.23988021  1.0
  C  C86  1  0.33455394  0.23987357  0.17919400  1.0
  C  C87  1  0.57554499  0.76188617  0.81517753  1.0
  C  C88  1  0.57553793  0.81517321  0.76188173  1.0
  C  C89  1  0.48670918  0.68604937  0.79669887  1.0
  C  C90  1  0.48669807  0.79669232  0.68604137  1.0
  C  C91  1  0.39515309  0.66311820  0.71728645  1.0
  C  C92  1  0.39514873  0.71728680  0.66311339  1.0
  C  C93  1  0.49359326  0.63584886  0.86095143  1.0
  C  C94  1  0.49358301  0.86094218  0.63584068  1.0
  C  C95  1  0.69041227  0.88086036  0.82028072  1.0
  C  C96  1  0.69042227  0.82029583  0.88086011  1.0
  C  C97  1  0.51471922  0.36887054  0.14471282  1.0
  I  I98  1  0.32802754  0.20542379  0.35019848  1.0
  I  I99  1  0.09907027  0.96400426  0.17363368  1.0
  I  I100  1  0.09914417  0.17417910  0.96432740  1.0
  I  I101  1  0.32809665  0.35017388  0.20571035  1.0
  I  I102  1  0.25992185  0.54102002  0.67802692  1.0
  I  I103  1  0.25991259  0.67803538  0.54101685  1.0
  O  O104  1  0.49772850  0.50165501  0.00300128  1.0
  O  O105  1  0.43568744  0.06529298  0.32918869  1.0
  O  O106  1  0.43564966  0.32923113  0.06533797  1.0
  O  O107  1  0.55963129  0.44632416  0.88873240  1.0
  O  O108  1  0.55966968  0.88876244  0.44632745  1.0
  O  O109  1  0.55455412  0.61090804  0.18065978  1.0
  O  O110  1  0.55455520  0.18066494  0.61090723  1.0
  O  O111  1  0.49773041  0.00300057  0.50165536  1.0
  O  O112  1  0.43949901  0.32342911  0.89208029  1.0
  O  O113  1  0.43946115  0.89202352  0.32341169  1.0
  O  O114  1  0.43123196  0.61138469  0.05785709  1.0
  O  O115  1  0.43125421  0.05787496  0.61140428  1.0
  O  O116  1  0.55873451  0.61751919  0.88454755  1.0
  O  O117  1  0.55871396  0.88452338  0.61750432  1.0
  O  O118  1  0.58834882  0.45005691  0.17898901  1.0
  O  O119  1  0.58834347  0.17896269  0.45004452  1.0
  O  O120  1  0.73135936  0.61772298  0.05680653  1.0
  O  O121  1  0.73134994  0.05680949  0.61781278  1.0
  O  O122  1  0.26484059  0.32198388  0.88943824  1.0
  O  O123  1  0.26485590  0.88946454  0.32195857  1.0
  O  O124  1  0.73337707  0.61974556  0.18160634  1.0
  O  O125  1  0.73335681  0.18160295  0.61971808  1.0
  O  O126  1  0.26401285  0.44479529  0.87734068  1.0
  O  O127  1  0.43826946  0.61984649  0.88894750  1.0
  O  O128  1  0.26402975  0.87739059  0.44477788  1.0
  O  O129  1  0.43826695  0.88894896  0.61984393  1.0
