# generated using pymatgen
data_La2H8C11N4O13
_symmetry_space_group_name_H-M   'P 1'
_cell_length_a   8.62361844
_cell_length_b   15.23521885
_cell_length_c   18.01827773
_cell_angle_alpha   89.99989638
_cell_angle_beta   89.99999848
_cell_angle_gamma   89.99991049
_symmetry_Int_Tables_number   1
_chemical_formula_structural   La2H8C11N4O13
_chemical_formula_sum   'La8 H32 C44 N16 O52'
_cell_volume   2367.29023359
_cell_formula_units_Z   4
loop_
 _symmetry_equiv_pos_site_id
 _symmetry_equiv_pos_as_xyz
  1  'x, y, z'
loop_
 _atom_site_type_symbol
 _atom_site_label
 _atom_site_symmetry_multiplicity
 _atom_site_fract_x
 _atom_site_fract_y
 _atom_site_fract_z
 _atom_site_occupancy
  La  La0  1  0.33996053  0.72413799  0.60774997  1.0
  La  La1  1  0.16004256  0.22413892  0.39224974  1.0
  La  La2  1  0.66004259  0.27586127  0.10775025  1.0
  La  La3  1  0.83995706  0.77586170  0.89224715  1.0
  La  La4  1  0.66004142  0.27586096  0.39225136  1.0
  La  La5  1  0.83995707  0.77585938  0.60775048  1.0
  La  La6  1  0.33995936  0.72413834  0.89224997  1.0
  La  La7  1  0.16004373  0.22414119  0.10775196  1.0
  H  H8  1  0.52191279  0.98865091  0.40099971  1.0
  H  H9  1  0.99146285  0.93918959  0.45308075  1.0
  H  H10  1  0.13482986  0.60543410  0.67493739  1.0
  H  H11  1  0.28239909  0.54190624  0.66560248  1.0
  H  H12  1  0.97809322  0.48865111  0.59900348  1.0
  H  H13  1  0.50854097  0.43919032  0.54692085  1.0
  H  H14  1  0.36516892  0.10543434  0.32506194  1.0
  H  H15  1  0.21759870  0.04190790  0.33439862  1.0
  H  H16  1  0.47809030  0.01135166  0.90099941  1.0
  H  H17  1  0.00854139  0.06081090  0.95308038  1.0
  H  H18  1  0.86516861  0.39456501  0.17493694  1.0
  H  H19  1  0.71759938  0.45809223  0.16560248  1.0
  H  H20  1  0.02189946  0.51135341  0.09900173  1.0
  H  H21  1  0.49145519  0.56080972  0.04692124  1.0
  H  H22  1  0.63482838  0.89456643  0.82506140  1.0
  H  H23  1  0.78239976  0.95809219  0.83439742  1.0
  H  H24  1  0.47808683  0.01134871  0.59900329  1.0
  H  H25  1  0.00853793  0.06080937  0.54691836  1.0
  H  H26  1  0.86516744  0.39456354  0.32506338  1.0
  H  H27  1  0.71759821  0.45809009  0.33439830  1.0
  H  H28  1  0.02190525  0.51134653  0.40100119  1.0
  H  H29  1  0.49145981  0.56080798  0.45307660  1.0
  H  H30  1  0.63483071  0.89456330  0.67493773  1.0
  H  H31  1  0.78239861  0.95809105  0.66560105  1.0
  H  H32  1  0.52191164  0.98864795  0.09899915  1.0
  H  H33  1  0.99146171  0.93918937  0.04691818  1.0
  H  H34  1  0.13483101  0.60543460  0.82506273  1.0
  H  H35  1  0.28240141  0.54190869  0.83439774  1.0
  H  H36  1  0.97809437  0.48864817  0.90099571  1.0
  H  H37  1  0.50854444  0.43919054  0.95308009  1.0
  H  H38  1  0.36516892  0.10543384  0.17493882  1.0
  H  H39  1  0.21759987  0.04190808  0.16560113  1.0
  C  C40  1  0.53117595  0.82340014  0.49717329  1.0
  C  C41  1  0.64689875  0.88246984  0.46286697  1.0
  C  C42  1  0.62900941  0.95937197  0.42056708  1.0
  C  C43  1  0.77885945  0.99180138  0.41205848  1.0
  C  C44  1  0.84026883  0.07507940  0.38114779  1.0
  C  C45  1  0.96883052  0.32340581  0.50282626  1.0
  C  C46  1  0.85310755  0.38247291  0.53713360  1.0
  C  C47  1  0.87099552  0.45937166  0.57943448  1.0
  C  C48  1  0.72114423  0.49180249  0.58794415  1.0
  C  C49  1  0.65973601  0.57508058  0.61885547  1.0
  C  C50  1  0.46882597  0.17660157  0.99717218  1.0
  C  C51  1  0.35310433  0.11753195  0.96286651  1.0
  C  C52  1  0.37099368  0.04062990  0.92056730  1.0
  C  C53  1  0.22114480  0.00819920  0.91205763  1.0
  C  C54  1  0.15973891  0.92492124  0.88114665  1.0
  C  C55  1  0.03117028  0.67659892  0.00282427  1.0
  C  C56  1  0.14689325  0.61753044  0.03713225  1.0
  C  C57  1  0.12899716  0.54063095  0.07943214  1.0
  C  C58  1  0.27884845  0.50819878  0.08794241  1.0
  C  C59  1  0.34025666  0.42491997  0.11885442  1.0
  C  C60  1  0.46882599  0.17659882  0.50282971  1.0
  C  C61  1  0.35310319  0.11752846  0.53713436  1.0
  C  C62  1  0.37099022  0.04062633  0.57943536  1.0
  C  C63  1  0.22114133  0.00819758  0.58794175  1.0
  C  C64  1  0.15973080  0.92491955  0.61885243  1.0
  C  C65  1  0.03117143  0.67659249  0.49717562  1.0
  C  C66  1  0.14689439  0.61752473  0.46286939  1.0
  C  C67  1  0.12900410  0.54062533  0.42056741  1.0
  C  C68  1  0.27885308  0.50819581  0.41205552  1.0
  C  C69  1  0.34026129  0.42491838  0.38114419  1.0
  C  C70  1  0.53117481  0.82339738  0.00282415  1.0
  C  C71  1  0.64689645  0.88246963  0.03713205  1.0
  C  C72  1  0.62900710  0.95937102  0.07943237  1.0
  C  C73  1  0.77885598  0.99180041  0.08793871  1.0
  C  C74  1  0.84026536  0.07507837  0.11885191  1.0
  C  C75  1  0.96883398  0.32340660  0.99717540  1.0
  C  C76  1  0.85311101  0.38247246  0.96286630  1.0
  C  C77  1  0.87099435  0.45937195  0.92056475  1.0
  C  C78  1  0.72114538  0.49180149  0.91205448  1.0
  C  C79  1  0.65973948  0.57507964  0.88114469  1.0
  C  C80  1  0.50806044  0.76212934  0.74999994  1.0
  C  C81  1  0.99193344  0.26213225  0.24999859  1.0
  C  C82  1  0.49193803  0.23787027  0.25000139  1.0
  C  C83  1  0.00806038  0.73786801  0.75000107  1.0
  N  N84  1  0.87430670  0.93440993  0.44825565  1.0
  N  N85  1  0.79791543  0.86828157  0.47963051  1.0
  N  N86  1  0.62569830  0.43441252  0.55174650  1.0
  N  N87  1  0.70209440  0.36828416  0.52036897  1.0
  N  N88  1  0.12569870  0.06559057  0.94825527  1.0
  N  N89  1  0.20208766  0.13171952  0.97963059  1.0
  N  N90  1  0.37429786  0.56558752  0.05174690  1.0
  N  N91  1  0.29790525  0.63171922  0.02036871  1.0
  N  N92  1  0.12569524  0.06558771  0.55174401  1.0
  N  N93  1  0.20208420  0.13171672  0.52036860  1.0
  N  N94  1  0.37430249  0.56558841  0.44825316  1.0
  N  N95  1  0.29791219  0.63171348  0.47963125  1.0
  N  N96  1  0.87430440  0.93441232  0.05174384  1.0
  N  N97  1  0.79791544  0.86828075  0.02036575  1.0
  N  N98  1  0.62570060  0.43441144  0.94825277  1.0
  N  N99  1  0.70209322  0.36828367  0.97963151  1.0
  O  O100  1  0.38807707  0.83541710  0.49115717  1.0
  O  O101  1  0.58811849  0.76014532  0.53784371  1.0
  O  O102  1  0.98656123  0.08650024  0.38572091  1.0
  O  O103  1  0.74253136  0.12911480  0.35538280  1.0
  O  O104  1  0.56183945  0.78938334  0.68711655  1.0
  O  O105  1  0.19868941  0.57124163  0.63913822  1.0
  O  O106  1  0.11193034  0.33542242  0.50884348  1.0
  O  O107  1  0.91188815  0.26015047  0.46215428  1.0
  O  O108  1  0.51344474  0.58650287  0.61428011  1.0
  O  O109  1  0.75747681  0.62911321  0.64462038  1.0
  O  O110  1  0.93816015  0.28938682  0.31288194  1.0
  O  O111  1  0.30131178  0.07124250  0.36086117  1.0
  O  O112  1  0.61192486  0.16458725  0.99115608  1.0
  O  O113  1  0.41188463  0.23985737  0.03784460  1.0
  O  O114  1  0.01344650  0.91350040  0.88571813  1.0
  O  O115  1  0.25748101  0.87088721  0.85538285  1.0
  O  O116  1  0.43815902  0.21061575  0.18711804  1.0
  O  O117  1  0.80130790  0.42875625  0.13913882  1.0
  O  O118  1  0.88807046  0.66458296  0.00884039  1.0
  O  O119  1  0.08811377  0.73985591  0.96215398  1.0
  O  O120  1  0.48654794  0.41349769  0.11427796  1.0
  O  O121  1  0.24251470  0.37088860  0.14462163  1.0
  O  O122  1  0.06183715  0.71061594  0.81288280  1.0
  O  O123  1  0.69868668  0.92875819  0.86086058  1.0
  O  O124  1  0.61192487  0.16458382  0.50884971  1.0
  O  O125  1  0.41188577  0.23985233  0.46215707  1.0
  O  O126  1  0.01343840  0.91349806  0.61427598  1.0
  O  O127  1  0.25746827  0.87088350  0.64461909  1.0
  O  O128  1  0.43816365  0.21061495  0.31288256  1.0
  O  O129  1  0.80130905  0.42875601  0.36086200  1.0
  O  O130  1  0.88807160  0.66457720  0.49115674  1.0
  O  O131  1  0.08811495  0.73984783  0.53784816  1.0
  O  O132  1  0.48655373  0.41349675  0.38572066  1.0
  O  O133  1  0.24251933  0.37088509  0.35537984  1.0
  O  O134  1  0.06183599  0.71061148  0.68711828  1.0
  O  O135  1  0.69868669  0.92875646  0.63913794  1.0
  O  O136  1  0.38807709  0.83541630  0.00884414  1.0
  O  O137  1  0.58811731  0.76014355  0.96215562  1.0
  O  O138  1  0.98655892  0.08650119  0.11427655  1.0
  O  O139  1  0.74252441  0.12911437  0.14461793  1.0
  O  O140  1  0.56184061  0.78938387  0.81288107  1.0
  O  O141  1  0.19869057  0.57124336  0.86086141  1.0
  O  O142  1  0.11193264  0.33542518  0.99115928  1.0
  O  O143  1  0.91188933  0.26014961  0.03784735  1.0
  O  O144  1  0.51344589  0.58650258  0.88572170  1.0
  O  O145  1  0.75748144  0.62911430  0.85537915  1.0
  O  O146  1  0.93815900  0.28938630  0.18711798  1.0
  O  O147  1  0.30131294  0.07124142  0.13913909  1.0
  O  O148  1  0.39130326  0.70799890  0.74999998  1.0
  O  O149  1  0.10869407  0.20799952  0.24999919  1.0
  O  O150  1  0.60869636  0.29200137  0.25000079  1.0
  O  O151  1  0.89130208  0.79200010  0.74999936  1.0
