# generated using pymatgen
data_Al2H12C22BrO10F
_symmetry_space_group_name_H-M   'P 1'
_cell_length_a   6.63986205
_cell_length_b   15.85711745
_cell_length_c   17.26724194
_cell_angle_alpha   78.52704531
_cell_angle_beta   86.69873007
_cell_angle_gamma   86.32836234
_symmetry_Int_Tables_number   1
_chemical_formula_structural   Al2H12C22BrO10F
_chemical_formula_sum   'Al4 H24 C44 Br2 O20 F2'
_cell_volume   1776.19724426
_cell_formula_units_Z   2
loop_
 _symmetry_equiv_pos_site_id
 _symmetry_equiv_pos_as_xyz
  1  'x, y, z'
loop_
 _atom_site_type_symbol
 _atom_site_label
 _atom_site_symmetry_multiplicity
 _atom_site_fract_x
 _atom_site_fract_y
 _atom_site_fract_z
 _atom_site_occupancy
  Al  Al0  1  0.88960265  0.49950927  0.49806137  1.0
  Al  Al1  1  0.38932782  0.49763729  0.49793806  1.0
  Al  Al2  1  0.33716117  0.00334629  0.00046578  1.0
  Al  Al3  1  0.83948248  0.99699011  0.99918948  1.0
  H  H4  1  0.87645030  0.80108283  0.86720609  1.0
  H  H5  1  0.43604801  0.91954935  0.78955072  1.0
  H  H6  1  0.76340790  0.68780480  0.80362625  1.0
  H  H7  1  0.48286695  0.83656357  0.68213839  1.0
  H  H8  1  0.81638463  0.59776990  0.70044913  1.0
  H  H9  1  0.94464242  0.79101111  0.36523933  1.0
  H  H10  1  0.26919828  0.87641090  0.27246828  1.0
  H  H11  1  0.47603313  0.71254118  0.27538176  1.0
  H  H12  1  0.28937450  0.70406453  0.13255712  1.0
  H  H13  1  0.96484859  0.61857574  0.22548881  1.0
  H  H14  1  0.75772231  0.78219145  0.22302816  1.0
  H  H15  1  0.26186608  0.22396995  0.79210950  1.0
  H  H16  1  0.46235169  0.38053284  0.78089326  1.0
  H  H17  1  0.79769562  0.28112000  0.85682660  1.0
  H  H18  1  0.97327965  0.26804833  0.70393869  1.0
  H  H19  1  0.25107561  0.11679785  0.19879521  1.0
  H  H20  1  0.01278495  0.29409703  0.19754994  1.0
  H  H21  1  0.22922959  0.20644878  0.30267908  1.0
  H  H22  1  0.99230567  0.38480485  0.30079872  1.0
  H  H23  1  0.38645371  0.31125409  0.36929862  1.0
  H  H24  1  0.61600099  0.60110094  0.52048257  1.0
  H  H25  1  0.14879586  0.38730821  0.53725362  1.0
  H  H26  1  0.58850117  0.89239018  0.04378722  1.0
  H  H27  1  0.05630433  0.09942715  0.02898690  1.0
  C  C28  1  0.63416014  0.38285837  0.61377999  1.0
  C  C29  1  0.67396199  0.40811642  0.40123864  1.0
  C  C30  1  0.14678174  0.61234430  0.38332923  1.0
  C  C31  1  0.10675344  0.59447473  0.59303423  1.0
  C  C32  1  0.15196958  0.86510577  0.83464855  1.0
  C  C33  1  0.09310696  0.65377270  0.65097504  1.0
  C  C34  1  0.89503868  0.69484116  0.76247397  1.0
  C  C35  1  0.92361413  0.64518033  0.70582929  1.0
  C  C36  1  0.23115367  0.71524718  0.65481204  1.0
  C  C37  1  0.20974455  0.76708000  0.71398632  1.0
  C  C38  1  0.03630486  0.75639378  0.76840910  1.0
  C  C39  1  0.00985423  0.80767125  0.82697776  1.0
  C  C40  1  0.32499064  0.87441603  0.78217850  1.0
  C  C41  1  0.35104670  0.82782187  0.72278612  1.0
  C  C42  1  0.20220923  0.81823763  0.26294475  1.0
  C  C43  1  0.02067448  0.77267416  0.31266653  1.0
  C  C44  1  0.13793367  0.68301741  0.31306171  1.0
  C  C45  1  0.31715647  0.72876366  0.26291453  1.0
  C  C46  1  0.21344710  0.72234010  0.18520188  1.0
  C  C47  1  0.03187564  0.67679214  0.23490216  1.0
  C  C48  1  0.91694613  0.76618321  0.23503304  1.0
  C  C49  1  0.09586085  0.81204364  0.18477034  1.0
  C  C50  1  0.51576873  0.22683915  0.68971155  1.0
  C  C51  1  0.70368810  0.17407199  0.72980224  1.0
  C  C52  1  0.60298458  0.18167873  0.81317576  1.0
  C  C53  1  0.41892697  0.23528150  0.77261453  1.0
  C  C54  1  0.53111113  0.32024616  0.76762430  1.0
  C  C55  1  0.71781943  0.26711946  0.80760567  1.0
  C  C56  1  0.81625076  0.25846154  0.72460538  1.0
  C  C57  1  0.63160089  0.31197879  0.68431666  1.0
  C  C58  1  0.55413527  0.14857830  0.15781719  1.0
  C  C59  1  0.68622253  0.35302584  0.34019107  1.0
  C  C60  1  0.87637892  0.29787614  0.23509067  1.0
  C  C61  1  0.86523945  0.34802195  0.29193557  1.0
  C  C62  1  0.52228706  0.30650293  0.33145734  1.0
  C  C63  1  0.52992456  0.25301135  0.27475334  1.0
  C  C64  1  0.71029399  0.24934097  0.22543743  1.0
  C  C65  1  0.71531378  0.19616076  0.16840994  1.0
  C  C66  1  0.37722501  0.15393884  0.20769705  1.0
  C  C67  1  0.36551065  0.20363463  0.26468518  1.0
  C  C68  1  0.55863355  0.09298771  0.09730684  1.0
  C  C69  1  0.59884158  0.11245022  0.88500541  1.0
  C  C70  1  0.12801058  0.91561668  0.89903096  1.0
  C  C71  1  0.08444487  0.88236626  0.11428374  1.0
  Br  Br72  1  0.37401225  0.19844881  0.60553550  1.0
  Br  Br73  1  0.45053142  0.73937133  0.57806014  1.0
  O  O74  1  0.50099770  0.41982176  0.43428254  1.0
  O  O75  1  0.80485440  0.40343492  0.58027369  1.0
  O  O76  1  0.94108631  0.56540117  0.57852132  1.0
  O  O77  1  0.83687370  0.43837780  0.41640580  1.0
  O  O78  1  0.97720172  0.59205054  0.41832505  1.0
  O  O79  1  0.46097664  0.41573836  0.59288965  1.0
  O  O80  1  0.63116295  0.55058054  0.49625372  1.0
  O  O81  1  0.31864283  0.57781349  0.40406010  1.0
  O  O82  1  0.27989691  0.57630586  0.56375266  1.0
  O  O83  1  0.14535972  0.44503620  0.50520566  1.0
  O  O84  1  0.76878623  0.07500467  0.90427760  1.0
  O  O85  1  0.39041398  0.06547013  0.08338098  1.0
  O  O86  1  0.25320555  0.90553551  0.07967351  1.0
  O  O87  1  0.42968867  0.09814378  0.92217554  1.0
  O  O88  1  0.28504723  0.94979358  0.91461192  1.0
  O  O89  1  0.72873633  0.07722634  0.06398543  1.0
  O  O90  1  0.59240676  0.94671922  0.00629332  1.0
  O  O91  1  0.95540592  0.91987085  0.93476126  1.0
  O  O92  1  0.90983996  0.91385987  0.09315006  1.0
  O  O93  1  0.07778483  0.05364377  0.99903242  1.0
  F  F94  1  0.78778327  0.09988466  0.71041206  1.0
  F  F95  1  0.88948855  0.19547882  0.12276014  1.0
