# generated using pymatgen
data_Zn2H8C27N2(Cl5O4)2
_symmetry_space_group_name_H-M   'P 1'
_cell_length_a   10.08061741
_cell_length_b   10.96828005
_cell_length_c   25.90043748
_cell_angle_alpha   90.60898286
_cell_angle_beta   90.83998327
_cell_angle_gamma   90.37356766
_symmetry_Int_Tables_number   1
_chemical_formula_structural   Zn2H8C27N2(Cl5O4)2
_chemical_formula_sum   'Zn4 H16 C54 N4 Cl20 O16'
_cell_volume   2863.20126485
_cell_formula_units_Z   2
loop_
 _symmetry_equiv_pos_site_id
 _symmetry_equiv_pos_as_xyz
  1  'x, y, z'
loop_
 _atom_site_type_symbol
 _atom_site_label
 _atom_site_symmetry_multiplicity
 _atom_site_fract_x
 _atom_site_fract_y
 _atom_site_fract_z
 _atom_site_occupancy
  Zn  Zn0  1  0.36608878  0.48759983  0.49949932  1.0
  Zn  Zn1  1  0.65256091  0.48325715  0.50181756  1.0
  Zn  Zn2  1  0.62187939  0.47992943  0.08043894  1.0
  Zn  Zn3  1  0.33584798  0.47251596  0.07752991  1.0
  H  H4  1  0.73019758  0.47740766  0.66666667  1.0
  H  H5  1  0.32687505  0.58976016  0.65390806  1.0
  H  H6  1  0.27667386  0.58617378  0.91422510  1.0
  H  H7  1  0.67594280  0.46319558  0.92682282  1.0
  H  H8  1  0.86853658  0.52268579  0.89129625  1.0
  H  H9  1  0.83603924  0.36602949  0.88067167  1.0
  H  H10  1  0.94935798  0.44318211  0.84106457  1.0
  H  H11  1  0.96648021  0.45715065  0.77050400  1.0
  H  H12  1  0.87415480  0.37487777  0.72296457  1.0
  H  H13  1  0.90080459  0.53329479  0.71618272  1.0
  H  H14  1  0.18977664  0.75030651  0.86819980  1.0
  H  H15  1  0.08630976  0.72824361  0.81299005  1.0
  H  H16  1  0.10458795  0.61059350  0.85844363  1.0
  H  H17  1  0.22623629  0.74959508  0.69376648  1.0
  H  H18  1  0.13150054  0.61420352  0.69889860  1.0
  H  H19  1  0.10498178  0.73701941  0.74212614  1.0
  C  C20  1  0.48747506  0.25095755  0.50037552  1.0
  C  C21  1  0.53182021  0.50696814  0.59941030  1.0
  C  C22  1  0.48530237  0.72005117  0.50145801  1.0
  C  C23  1  0.52791916  0.46274188  0.40227173  1.0
  C  C24  1  0.49692770  0.24219704  0.07928377  1.0
  C  C25  1  0.45888813  0.49467148  0.98064372  1.0
  C  C26  1  0.49396982  0.71081398  0.07845778  1.0
  C  C27  1  0.46902028  0.45347332  0.17710166  1.0
  C  C28  1  0.07714813  0.55784547  0.46872253  1.0
  C  C29  1  0.94162830  0.40938829  0.53262696  1.0
  C  C30  1  0.93706797  0.56149476  0.47156429  1.0
  C  C31  1  0.08197620  0.41199173  0.53259682  1.0
  C  C32  1  0.48790859  0.85769496  0.50146651  1.0
  C  C33  1  0.48491086  0.11323622  0.50071336  1.0
  C  C34  1  0.48414631  0.91946372  0.45451913  1.0
  C  C35  1  0.48857020  0.05126192  0.54771641  1.0
  C  C36  1  0.48340102  0.04743463  0.45406074  1.0
  C  C37  1  0.49050612  0.92329144  0.54812426  1.0
  C  C38  1  0.64086255  0.50609653  0.68636837  1.0
  C  C39  1  0.63748535  0.51577219  0.74036373  1.0
  C  C40  1  0.75282811  0.48782826  0.77216352  1.0
  C  C41  1  0.41148436  0.57066218  0.67900597  1.0
  C  C42  1  0.40411825  0.58661795  0.73273681  1.0
  C  C43  1  0.28666233  0.63551775  0.75706386  1.0
  C  C44  1  0.36904120  0.56550697  0.89486663  1.0
  C  C45  1  0.38251068  0.58358900  0.84155390  1.0
  C  C46  1  0.27603930  0.63405612  0.81014816  1.0
  C  C47  1  0.59640300  0.49541428  0.90182112  1.0
  C  C48  1  0.61498215  0.51024131  0.84876881  1.0
  C  C49  1  0.74151496  0.48431474  0.82512571  1.0
  C  C50  1  0.52775759  0.52868784  0.65630355  1.0
  C  C51  1  0.51608885  0.55241175  0.76368124  1.0
  C  C52  1  0.47403804  0.51912715  0.92438283  1.0
  C  C53  1  0.50497212  0.55041588  0.81812748  1.0
  C  C54  1  0.51643248  0.43567094  0.34472341  1.0
  C  C55  1  0.48351628  0.42700196  0.23436200  1.0
  C  C56  1  0.39116699  0.41082904  0.32144381  1.0
  C  C57  1  0.61105472  0.42387503  0.25795014  1.0
  C  C58  1  0.37364119  0.41341498  0.26723519  1.0
  C  C59  1  0.62721210  0.43753229  0.31190347  1.0
  C  C60  1  0.91194977  0.55437523  0.11034690  1.0
  C  C61  1  0.04588231  0.39957016  0.04791029  1.0
  C  C62  1  0.05249761  0.54993244  0.11114512  1.0
  C  C63  1  0.90557493  0.40256809  0.04767286  1.0
  C  C64  1  0.49171261  0.84855048  0.07854432  1.0
  C  C65  1  0.49766184  0.10438345  0.07919519  1.0
  C  C66  1  0.49195538  0.91299153  0.12545563  1.0
  C  C67  1  0.49796206  0.03977451  0.03227725  1.0
  C  C68  1  0.49441844  0.04104259  0.12584924  1.0
  C  C69  1  0.49405370  0.91180151  0.03187480  1.0
  C  C70  1  0.85503687  0.45263840  0.86091456  1.0
  C  C71  1  0.88026485  0.46191922  0.74451830  1.0
  C  C72  1  0.15807229  0.68353870  0.83841790  1.0
  C  C73  1  0.18169891  0.68689872  0.72159123  1.0
  N  N74  1  0.14705413  0.48437577  0.49988696  1.0
  N  N75  1  0.87184243  0.48505974  0.50244561  1.0
  N  N76  1  0.84104292  0.47971166  0.07894638  1.0
  N  N77  1  0.11681696  0.47316410  0.07971210  1.0
  Cl  Cl78  1  0.15670234  0.64581251  0.42575814  1.0
  Cl  Cl79  1  0.86047847  0.31039480  0.57086573  1.0
  Cl  Cl80  1  0.85062865  0.66394113  0.43657483  1.0
  Cl  Cl81  1  0.16894414  0.32456132  0.57437807  1.0
  Cl  Cl82  1  0.47948245  0.83666730  0.39755674  1.0
  Cl  Cl83  1  0.49002058  0.13366852  0.60480309  1.0
  Cl  Cl84  1  0.48306449  0.12430701  0.39657502  1.0
  Cl  Cl85  1  0.49584885  0.84507855  0.60540550  1.0
  Cl  Cl86  1  0.25640685  0.37146994  0.35777675  1.0
  Cl  Cl87  1  0.75126652  0.39624943  0.22272236  1.0
  Cl  Cl88  1  0.21384323  0.39863376  0.24376595  1.0
  Cl  Cl89  1  0.78656542  0.45846682  0.33505279  1.0
  Cl  Cl90  1  0.83303748  0.65457049  0.14893354  1.0
  Cl  Cl91  1  0.12578114  0.30256593  0.00803443  1.0
  Cl  Cl92  1  0.14060760  0.64188365  0.15179657  1.0
  Cl  Cl93  1  0.81765781  0.30881821  0.00746867  1.0
  Cl  Cl94  1  0.49133853  0.83347135  0.18248257  1.0
  Cl  Cl95  1  0.50438998  0.11910930  0.97523667  1.0
  Cl  Cl96  1  0.49213202  0.12103195  0.18331091  1.0
  Cl  Cl97  1  0.49132793  0.83094571  0.97453229  1.0
  O  O98  1  0.37790675  0.30357175  0.49088479  1.0
  O  O99  1  0.59895353  0.29991434  0.50965843  1.0
  O  O100  1  0.64593417  0.50831648  0.57854198  1.0
  O  O101  1  0.42170060  0.48734786  0.57590736  1.0
  O  O102  1  0.59511906  0.66666667  0.49619382  1.0
  O  O103  1  0.37124362  0.67249281  0.50633161  1.0
  O  O104  1  0.42623101  0.50682711  0.42350560  1.0
  O  O105  1  0.63805973  0.44295148  0.42510304  1.0
  O  O106  1  0.60608106  0.29532074  0.09046145  1.0
  O  O107  1  0.38680959  0.29027592  0.06809784  1.0
  O  O108  1  0.34378000  0.50407453  0.00018214  1.0
  O  O109  1  0.56360757  0.46430664  0.00546323  1.0
  O  O110  1  0.38481286  0.65658345  0.08578474  1.0
  O  O111  1  0.60699398  0.66411495  0.07131432  1.0
  O  O112  1  0.56870273  0.50264935  0.15607568  1.0
  O  O113  1  0.35905090  0.43095176  0.15439217  1.0
