# generated using pymatgen
data_Zn2H23C28N7O8
_symmetry_space_group_name_H-M   'P 1'
_cell_length_a   9.84625006
_cell_length_b   11.19573382
_cell_length_c   14.79306013
_cell_angle_alpha   88.45803614
_cell_angle_beta   76.36925127
_cell_angle_gamma   85.60995307
_symmetry_Int_Tables_number   1
_chemical_formula_structural   Zn2H23C28N7O8
_chemical_formula_sum   'Zn2 H23 C28 N7 O8'
_cell_volume   1580.08181197
_cell_formula_units_Z   1
loop_
 _symmetry_equiv_pos_site_id
 _symmetry_equiv_pos_as_xyz
  1  'x, y, z'
loop_
 _atom_site_type_symbol
 _atom_site_label
 _atom_site_symmetry_multiplicity
 _atom_site_fract_x
 _atom_site_fract_y
 _atom_site_fract_z
 _atom_site_occupancy
  Zn  Zn0  1  0.85030552  0.50694044  0.49340069  1.0
  Zn  Zn1  1  0.12711474  0.49045465  0.51307379  1.0
  H  H2  1  0.99506978  0.48368516  0.98776738  1.0
  H  H3  1  0.83670296  0.16759720  0.42216717  1.0
  H  H4  1  0.66304142  0.68943174  0.58752717  1.0
  H  H5  1  0.48006878  0.71987288  0.62674689  1.0
  H  H6  1  0.35598772  0.46512138  0.36659073  1.0
  H  H7  1  0.51458970  0.50188039  0.38858574  1.0
  H  H8  1  0.67096386  0.54107793  0.77561297  1.0
  H  H9  1  0.08322785  0.45737270  0.81654490  1.0
  H  H10  1  0.80814195  0.54982952  0.11941647  1.0
  H  H11  1  0.03467258  0.69295005  0.03333811  1.0
  H  H12  1  0.93471481  0.64991666  0.20178955  1.0
  H  H13  1  0.16839429  0.87203215  0.52193180  1.0
  H  H14  1  0.34397333  0.53575804  0.23570238  1.0
  H  H15  1  0.48222801  0.61570379  0.82947554  1.0
  H  H16  1  0.47056894  0.67585908  0.22953365  1.0
  H  H17  1  0.63772179  0.64250263  0.23443269  1.0
  H  H18  1  0.61496129  0.42136119  0.48171910  1.0
  H  H19  1  0.31575798  0.55916931  0.62751969  1.0
  H  H20  1  0.23432672  0.67532443  0.89673609  1.0
  H  H21  1  0.85032962  0.90806732  0.53848870  1.0
  H  H22  1  0.20130728  0.18025413  0.55198025  1.0
  H  H23  1  0.22645689  0.04292925  0.60129545  1.0
  H  H24  1  0.88568477  0.01847838  0.43098278  1.0
  C  C25  1  0.99922078  0.26689966  0.48874379  1.0
  C  C26  1  0.78104333  0.53311713  0.97995631  1.0
  C  C27  1  0.68604066  0.55114842  0.92024701  1.0
  C  C28  1  0.07540432  0.54481958  0.32484379  1.0
  C  C29  1  0.92418458  0.49790305  0.94120728  1.0
  C  C30  1  0.97319412  0.48288229  0.84683014  1.0
  C  C31  1  0.73892465  0.53167699  0.82413448  1.0
  C  C32  1  0.07007535  0.92631101  0.52438879  1.0
  C  C33  1  0.95535607  0.86432967  0.52871613  1.0
  C  C34  1  0.08129805  0.05425854  0.52297777  1.0
  C  C35  1  0.98824270  0.13547626  0.49108061  1.0
  C  C36  1  0.34100735  0.60675071  0.09869099  1.0
  C  C37  1  0.54018956  0.56574549  0.55304566  1.0
  C  C38  1  0.39315834  0.53959925  0.56263021  1.0
  C  C39  1  0.96443980  0.73303015  0.52322099  1.0
  C  C40  1  0.93332203  0.48626630  0.68476133  1.0
  C  C41  1  0.13481282  0.58702313  0.22755099  1.0
  C  C42  1  0.87972434  0.49921172  0.78732683  1.0
  C  C43  1  0.10282344  0.66121591  0.07874674  1.0
  C  C44  1  0.04667256  0.63608109  0.17124937  1.0
  C  C45  1  0.27874329  0.57578349  0.19161909  1.0
  C  C46  1  0.24858728  0.64173086  0.03949405  1.0
  C  C47  1  0.49099965  0.59281340  0.05988125  1.0
  C  C48  1  0.54035030  0.58575862  0.96161475  1.0
  C  C49  1  0.44336890  0.61594874  0.90478328  1.0
  C  C50  1  0.30500079  0.64886078  0.94176520  1.0
  C  C51  1  0.59317146  0.58792547  0.11619145  1.0
  C  C52  1  0.73205502  0.55570019  0.07608800  1.0
  N  N53  1  0.64471009  0.49948498  0.50231043  1.0
  N  N54  1  0.34379868  0.49719590  0.49699189  1.0
  N  N55  1  0.20149717  0.08935633  0.54686934  1.0
  N  N56  1  0.87406973  0.10109872  0.46000959  1.0
  N  N57  1  0.56238001  0.66225411  0.59853819  1.0
  N  N58  1  0.41970454  0.46656406  0.41226439  1.0
  N  N59  1  0.55546412  0.61630176  0.21108516  1.0
  O  O60  1  0.90244765  0.33041672  0.46120851  1.0
  O  O61  1  0.10141343  0.31015263  0.51397838  1.0
  O  O62  1  0.94410814  0.56168275  0.35786775  1.0
  O  O63  1  0.16200156  0.49368011  0.36865554  1.0
  O  O64  1  0.84721646  0.68431836  0.53230009  1.0
  O  O65  1  0.08382724  0.67470831  0.50751726  1.0
  O  O66  1  0.84640405  0.47050765  0.63556816  1.0
  O  O67  1  0.06544147  0.49443908  0.65315438  1.0
