# generated using pymatgen
data_ZnH12C21N(O2F)2
_symmetry_space_group_name_H-M   'P 1'
_cell_length_a   11.30217995
_cell_length_b   18.16030847
_cell_length_c   19.71672255
_cell_angle_alpha   89.33533558
_cell_angle_beta   89.43254954
_cell_angle_gamma   72.77999768
_symmetry_Int_Tables_number   1
_chemical_formula_structural   ZnH12C21N(O2F)2
_chemical_formula_sum   'Zn2 H24 C42 N2 O8 F4'
_cell_volume   3865.12867654
_cell_formula_units_Z   2
loop_
 _symmetry_equiv_pos_site_id
 _symmetry_equiv_pos_as_xyz
  1  'x, y, z'
loop_
 _atom_site_type_symbol
 _atom_site_label
 _atom_site_symmetry_multiplicity
 _atom_site_fract_x
 _atom_site_fract_y
 _atom_site_fract_z
 _atom_site_occupancy
  Zn  Zn0  1  0.93968210  0.57922213  0.49615773  1.0
  Zn  Zn1  1  0.06017765  0.42076276  0.50073474  1.0
  H  H2  1  0.43853175  0.43323366  0.49281984  1.0
  H  H3  1  0.56079243  0.56729297  0.49093220  1.0
  H  H4  1  0.78495370  0.86538700  0.41836082  1.0
  H  H5  1  0.21494170  0.13586863  0.58255873  1.0
  H  H6  1  0.56693533  0.79741599  0.57610271  1.0
  H  H7  1  0.43361558  0.20155367  0.42386658  1.0
  H  H8  1  0.71842878  0.66483262  0.57074754  1.0
  H  H9  1  0.28214002  0.33421665  0.42772646  1.0
  H  H10  1  0.54835717  0.92428905  0.60761826  1.0
  H  H11  1  0.45105067  0.07554931  0.39315480  1.0
  H  H12  1  0.41145240  0.05800675  0.60998292  1.0
  H  H13  1  0.58800798  0.94189108  0.39080477  1.0
  H  H14  1  0.32653227  0.61014651  0.49202686  1.0
  H  H15  1  0.67285659  0.39047119  0.49636411  1.0
  H  H16  1  0.12824557  0.37679508  0.28094310  1.0
  H  H17  1  0.87022098  0.62187475  0.71549966  1.0
  H  H18  1  0.13216539  0.37867539  0.15448243  1.0
  H  H19  1  0.86607615  0.62070610  0.84192444  1.0
  H  H20  1  0.88769438  0.61142894  0.15581414  1.0
  H  H21  1  0.11414466  0.38901086  0.84169445  1.0
  H  H22  1  0.88884891  0.60885741  0.28250895  1.0
  H  H23  1  0.11424213  0.39098129  0.71502446  1.0
  H  H24  1  0.80768426  0.55227581  0.06584043  1.0
  H  H25  1  0.19232080  0.44821396  0.93119927  1.0
  C  C26  1  0.99329013  0.50705452  0.63162195  1.0
  C  C27  1  0.00786239  0.49184992  0.36522941  1.0
  C  C28  1  0.00847911  0.49270479  0.28914093  1.0
  C  C29  1  0.99236475  0.50652483  0.70774386  1.0
  C  C30  1  0.89355917  0.53017790  0.03714163  1.0
  C  C31  1  0.10639469  0.47030036  0.95985725  1.0
  C  C32  1  0.88963877  0.53300804  0.96692411  1.0
  C  C33  1  0.11031220  0.46746091  0.03005152  1.0
  C  C34  1  0.99437619  0.50342411  0.92559379  1.0
  C  C35  1  0.00554697  0.49695845  0.07138911  1.0
  C  C36  1  0.84065729  0.74832957  0.45439325  1.0
  C  C37  1  0.15935501  0.25241907  0.54514870  1.0
  C  C38  1  0.76360439  0.82372321  0.45274650  1.0
  C  C39  1  0.23643450  0.17703499  0.54765902  1.0
  C  C40  1  0.66261811  0.84369499  0.49769243  1.0
  C  C41  1  0.33745917  0.15638092  0.50278548  1.0
  C  C42  1  0.64557340  0.78559328  0.54126316  1.0
  C  C43  1  0.35482915  0.21389877  0.45860884  1.0
  C  C44  1  0.72797609  0.71196049  0.53858578  1.0
  C  C45  1  0.27240348  0.28754370  0.46041385  1.0
  C  C46  1  0.52577488  0.95689047  0.56027496  1.0
  C  C47  1  0.47373707  0.04301208  0.44050339  1.0
  C  C48  1  0.78866836  0.46851314  0.49749934  1.0
  C  C49  1  0.21042697  0.53232261  0.49493456  1.0
  C  C50  1  0.44850826  0.03236688  0.56159223  1.0
  C  C51  1  0.55101008  0.96756028  0.43919455  1.0
  C  C52  1  0.42110206  0.07675328  0.50174688  1.0
  C  C53  1  0.57860541  0.92320797  0.49904101  1.0
  C  C54  1  0.66843488  0.45133819  0.49506756  1.0
  C  C55  1  0.33089521  0.54928731  0.49245374  1.0
  C  C56  1  0.55891174  0.50740599  0.49219343  1.0
  C  C57  1  0.44047751  0.49312454  0.49199859  1.0
  C  C58  1  0.07677021  0.42801782  0.25273924  1.0
  C  C59  1  0.92261379  0.57103569  0.74389592  1.0
  C  C60  1  0.07841244  0.42930734  0.18216742  1.0
  C  C61  1  0.92074059  0.57015263  0.81445420  1.0
  C  C62  1  0.00927796  0.49506730  0.14619206  1.0
  C  C63  1  0.99078339  0.50492718  0.85077822  1.0
  C  C64  1  0.94014452  0.55959368  0.18306857  1.0
  C  C65  1  0.06110143  0.44049295  0.81416508  1.0
  C  C66  1  0.94056796  0.55867901  0.25360246  1.0
  C  C67  1  0.06127481  0.44107785  0.74363477  1.0
  N  N68  1  0.82578419  0.69338081  0.49538332  1.0
  N  N69  1  0.17429895  0.30672619  0.50340440  1.0
  O  O70  1  0.93795289  0.57025276  0.60164137  1.0
  O  O71  1  0.05800521  0.42765947  0.39496877  1.0
  O  O72  1  0.04981733  0.44378875  0.60280823  1.0
  O  O73  1  0.95665122  0.55595218  0.39410692  1.0
  O  O74  1  0.78654688  0.53909564  0.49786965  1.0
  O  O75  1  0.21208750  0.46184267  0.49364014  1.0
  O  O76  1  0.88562848  0.41024519  0.49929685  1.0
  O  O77  1  0.11374856  0.59060214  0.49851825  1.0
  F  F78  1  0.77635053  0.56396074  0.93750671  1.0
  F  F79  1  0.22355787  0.43652278  0.05952121  1.0
  F  F80  1  0.93885205  0.72814887  0.41220584  1.0
  F  F81  1  0.06094561  0.27319688  0.58712597  1.0
