# generated using pymatgen
data_Zn4H3C24S4Br4O13F
_symmetry_space_group_name_H-M   'P 1'
_cell_length_a   19.67851086
_cell_length_b   19.73091285
_cell_length_c   33.38955190
_cell_angle_alpha   78.99873314
_cell_angle_beta   79.15335733
_cell_angle_gamma   63.93137592
_symmetry_Int_Tables_number   1
_chemical_formula_structural   Zn4H3C24S4Br4O13F
_chemical_formula_sum   'Zn16 H12 C96 S16 Br16 O52 F4'
_cell_volume   11351.15067746
_cell_formula_units_Z   4
loop_
 _symmetry_equiv_pos_site_id
 _symmetry_equiv_pos_as_xyz
  1  'x, y, z'
loop_
 _atom_site_type_symbol
 _atom_site_label
 _atom_site_symmetry_multiplicity
 _atom_site_fract_x
 _atom_site_fract_y
 _atom_site_fract_z
 _atom_site_occupancy
  Zn  Zn0  1  0.05573238  0.40014844  0.47785183  1.0
  Zn  Zn1  1  0.98519286  0.48410712  0.56004241  1.0
  Zn  Zn2  1  0.05853348  0.56137276  0.48261664  1.0
  Zn  Zn3  1  0.90058082  0.55440045  0.47931116  1.0
  Zn  Zn4  1  0.69320379  0.34995701  0.27177775  1.0
  Zn  Zn5  1  0.69080079  0.18837577  0.26617349  1.0
  Zn  Zn6  1  0.76859435  0.26591917  0.19003152  1.0
  Zn  Zn7  1  0.84729148  0.19699604  0.27236242  1.0
  Zn  Zn8  1  0.26555178  0.76604652  0.69024164  1.0
  Zn  Zn9  1  0.34941158  0.69684550  0.77153967  1.0
  Zn  Zn10  1  0.19281525  0.84935994  0.77143986  1.0
  Zn  Zn11  1  0.19109517  0.68804666  0.76670137  1.0
  Zn  Zn12  1  0.55892846  0.06161599  0.98339945  1.0
  Zn  Zn13  1  0.40274846  0.05304387  0.97784273  1.0
  Zn  Zn14  1  0.55636840  0.90019973  0.97829802  1.0
  Zn  Zn15  1  0.48236107  0.98482656  0.06039052  1.0
  H  H16  1  0.95376167  0.24914492  0.35143977  1.0
  H  H17  1  0.74661274  0.45520563  0.35066265  1.0
  H  H18  1  0.00004079  0.29871583  0.39945773  1.0
  H  H19  1  0.09702454  0.59687873  0.70006253  1.0
  H  H20  1  0.20133746  0.70118756  0.59736376  1.0
  H  H21  1  0.05014298  0.55030521  0.65081068  1.0
  H  H22  1  0.54996546  0.05024119  0.15301912  1.0
  H  H23  1  0.65268723  0.15291998  0.04868236  1.0
  H  H24  1  0.59932545  0.09899323  0.19987445  1.0
  H  H25  1  0.50168377  0.79521173  0.89854094  1.0
  H  H26  1  0.29589112  0.00263585  0.89917396  1.0
  H  H27  1  0.45106424  0.75003106  0.85052669  1.0
  C  C28  1  0.06151276  0.31649246  0.56146776  1.0
  C  C29  1  0.06932235  0.56997756  0.56899946  1.0
  C  C30  1  0.18346295  0.43920076  0.43852537  1.0
  C  C31  1  0.93739191  0.68401067  0.43877567  1.0
  C  C32  1  0.93060314  0.43059472  0.43086299  1.0
  C  C33  1  0.81682629  0.56120361  0.56202041  1.0
  C  C34  1  0.56621512  0.31053627  0.31120091  1.0
  C  C35  1  0.68172126  0.18020441  0.18057101  1.0
  C  C36  1  0.68938395  0.43369303  0.18857290  1.0
  C  C37  1  0.93460533  0.18862564  0.18938847  1.0
  C  C38  1  0.81878289  0.32026698  0.31944427  1.0
  C  C39  1  0.81200257  0.06638071  0.31127755  1.0
  C  C40  1  0.43328575  0.68921573  0.68835980  1.0
  C  C41  1  0.31876392  0.82001504  0.81908992  1.0
  C  C42  1  0.18840745  0.93333479  0.68827746  1.0
  C  C43  1  0.06584153  0.81015031  0.81104765  1.0
  C  C44  1  0.18068441  0.68006720  0.68065297  1.0
  C  C45  1  0.31239056  0.56618436  0.81106973  1.0
  C  C46  1  0.43787874  0.18378056  0.93867156  1.0
  C  C47  1  0.43123211  0.92989920  0.93048928  1.0
  C  C48  1  0.68349998  0.93961344  0.93871697  1.0
  C  C49  1  0.56095582  0.81674391  0.06159092  1.0
  C  C50  1  0.56879794  0.07017779  0.06946215  1.0
  C  C51  1  0.31601097  0.06162617  0.06091617  1.0
  C  C52  1  0.90044231  0.40387410  0.40207592  1.0
  C  C53  1  0.84747806  0.34890757  0.34805238  1.0
  C  C54  1  0.82893668  0.44681768  0.38762275  1.0
  C  C55  1  0.91911331  0.30467475  0.36182451  1.0
  C  C56  1  0.80230625  0.42032160  0.36107447  1.0
  C  C57  1  0.94466231  0.33220124  0.38839264  1.0
  C  C58  1  0.09884661  0.59904857  0.59689817  1.0
  C  C59  1  0.15202238  0.65179466  0.65186502  1.0
  C  C60  1  0.14186060  0.64190161  0.58274377  1.0
  C  C61  1  0.10929984  0.60918512  0.66700462  1.0
  C  C62  1  0.16827539  0.66817458  0.60950698  1.0
  C  C63  1  0.08338595  0.58348032  0.63971638  1.0
  C  C64  1  0.30481130  0.45405179  0.40072512  1.0
  C  C65  1  0.44505727  0.29555570  0.34926032  1.0
  C  C66  1  0.25847695  0.41542627  0.41381368  1.0
  C  C67  1  0.49140673  0.33413170  0.33610815  1.0
  C  C68  1  0.37704195  0.33918609  0.37278910  1.0
  C  C69  1  0.37281421  0.41038444  0.37718016  1.0
  C  C70  1  0.72559176  0.57600935  0.63000769  1.0
  C  C71  1  0.52443135  0.67377016  0.62035155  1.0
  C  C72  1  0.74262402  0.58534316  0.58751876  1.0
  C  C73  1  0.50742715  0.66463735  0.66286965  1.0
  C  C74  1  0.60393248  0.64149407  0.60833646  1.0
  C  C75  1  0.64609366  0.60820389  0.64200532  1.0
  C  C76  1  0.07636164  0.22524770  0.62957002  1.0
  C  C77  1  0.17386017  0.02455225  0.62024692  1.0
  C  C78  1  0.08562334  0.24233358  0.58705493  1.0
  C  C79  1  0.16455238  0.00745572  0.66276008  1.0
  C  C80  1  0.14174922  0.10390114  0.60812857  1.0
  C  C81  1  0.10851863  0.14588812  0.64171240  1.0
  C  C82  1  0.84312954  0.80144135  0.39700980  1.0
  C  C83  1  0.90644810  0.94873158  0.35282321  1.0
  C  C84  1  0.91146941  0.75857161  0.41365586  1.0
  C  C85  1  0.83805165  0.99167307  0.33621197  1.0
  C  C86  1  0.90842547  0.87935678  0.37495769  1.0
  C  C87  1  0.84129707  0.87074072  0.37482112  1.0
  C  C88  1  0.65335206  0.15284586  0.15120023  1.0
  C  C89  1  0.59805002  0.09847416  0.09800108  1.0
  C  C90  1  0.66733745  0.16719166  0.10819455  1.0
  C  C91  1  0.58302528  0.08321738  0.14072743  1.0
  C  C92  1  0.64050854  0.14067624  0.08175767  1.0
  C  C93  1  0.61044121  0.11020785  0.16663173  1.0
  C  C94  1  0.67371137  0.52474967  0.12039131  1.0
  C  C95  1  0.57612239  0.72550802  0.12967601  1.0
  C  C96  1  0.66468341  0.50776045  0.16292707  1.0
  C  C97  1  0.58526394  0.74262033  0.08716058  1.0
  C  C98  1  0.60830502  0.64615744  0.14180743  1.0
  C  C99  1  0.64144510  0.60411934  0.10824291  1.0
  C  C100  1  0.08214421  0.12362601  0.17780346  1.0
  C  C101  1  0.16845986  0.12600069  0.07241907  1.0
  C  C102  1  0.00994054  0.16281739  0.16503340  1.0
  C  C103  1  0.24067622  0.08700690  0.08522154  1.0
  C  C104  1  0.11061907  0.13931064  0.10613471  1.0
  C  C105  1  0.13993524  0.11012038  0.14407300  1.0
  C  C106  1  0.34600485  0.84981550  0.84780736  1.0
  C  C107  1  0.40219445  0.90159839  0.90185030  1.0
  C  C108  1  0.30347510  0.92108393  0.86222216  1.0
  C  C109  1  0.44601461  0.83019395  0.88812352  1.0
  C  C110  1  0.33055646  0.94712979  0.88876958  1.0
  C  C111  1  0.41789233  0.80525136  0.86154166  1.0
  C  C112  1  0.40667172  0.44867540  0.85286400  1.0
  C  C113  1  0.34338148  0.30136877  0.89709693  1.0
  C  C114  1  0.33838663  0.49156292  0.83617590  1.0
  C  C115  1  0.41176693  0.25849663  0.91373022  1.0
  C  C116  1  0.34144132  0.37071973  0.87491489  1.0
  C  C117  1  0.40855085  0.37936680  0.87505970  1.0
  C  C118  1  0.94472717  0.79539794  0.84935949  1.0
  C  C119  1  0.80486712  0.95420288  0.90070879  1.0
  C  C120  1  0.99114956  0.83385397  0.83608165  1.0
  C  C121  1  0.75836076  0.91579573  0.91389245  1.0
  C  C122  1  0.87279451  0.91038647  0.87717186  1.0
  C  C123  1  0.87680380  0.83921844  0.87288715  1.0
  S  S124  1  0.29819957  0.32559330  0.39738366  1.0
  S  S125  1  0.45167996  0.42394524  0.35259196  1.0
  S  S126  1  0.66128132  0.63349698  0.56219190  1.0
  S  S127  1  0.58879114  0.61639496  0.68817035  1.0
  S  S128  1  0.13371442  0.16122039  0.56190429  1.0
  S  S129  1  0.11648338  0.08856447  0.68794835  1.0
  S  S130  1  0.97363465  0.80294417  0.40207577  1.0
  S  S131  1  0.77607944  0.94709291  0.34770309  1.0
  S  S132  1  0.61647563  0.58890852  0.18806828  1.0
  S  S133  1  0.63332780  0.66143859  0.06200752  1.0
  S  S134  1  0.01273614  0.18309470  0.11169417  1.0
  S  S135  1  0.23780739  0.06657288  0.13856759  1.0
  S  S136  1  0.27630592  0.44707026  0.84772702  1.0
  S  S137  1  0.47375921  0.30304496  0.90221166  1.0
  S  S138  1  0.95171738  0.92372710  0.85246289  1.0
  S  S139  1  0.79782990  0.82591685  0.89752341  1.0
  Br  Br140  1  0.28541150  0.55136654  0.41131986  1.0
  Br  Br141  1  0.46470244  0.19795853  0.33892473  1.0
  Br  Br142  1  0.79470900  0.52788104  0.66919733  1.0
  Br  Br143  1  0.45539354  0.72178213  0.58112409  1.0
  Br  Br144  1  0.02826221  0.29405654  0.66866821  1.0
  Br  Br145  1  0.22170276  0.95576123  0.58113699  1.0
  Br  Br146  1  0.76066756  0.77569060  0.40132701  1.0
  Br  Br147  1  0.98929350  0.97409153  0.34826786  1.0
  Br  Br148  1  0.72115488  0.45572393  0.08142126  1.0
  Br  Br149  1  0.52828144  0.79430963  0.16876372  1.0
  Br  Br150  1  0.10631645  0.09032950  0.23197036  1.0
  Br  Br151  1  0.14438346  0.15954187  0.01825364  1.0
  Br  Br152  1  0.48940172  0.47413646  0.84838019  1.0
  Br  Br153  1  0.26066568  0.27587217  0.90160345  1.0
  Br  Br154  1  0.96414936  0.69781804  0.83912737  1.0
  Br  Br155  1  0.78560765  0.05165890  0.91104725  1.0
  O  O156  1  0.00070474  0.49872680  0.49973219  1.0
  O  O157  1  0.07833635  0.31463717  0.52257479  1.0
  O  O158  1  0.03169463  0.53123912  0.58643925  1.0
  O  O159  1  0.15428013  0.50534046  0.44973817  1.0
  O  O160  1  0.02646097  0.37535150  0.58007553  1.0
  O  O161  1  0.15440986  0.39060919  0.44638495  1.0
  O  O162  1  0.08359346  0.58583855  0.53050333  1.0
  O  O163  1  0.00466549  0.65785208  0.44919389  1.0
  O  O164  1  0.88811638  0.49523405  0.44287980  1.0
  O  O165  1  0.89151996  0.65230443  0.44799185  1.0
  O  O166  1  0.99684440  0.38588456  0.44107567  1.0
  O  O167  1  0.87615952  0.52594377  0.58046688  1.0
  O  O168  1  0.81450077  0.57830281  0.52313754  1.0
  O  O169  1  0.74883531  0.25106169  0.25035355  1.0
  O  O170  1  0.59525399  0.35915145  0.30363889  1.0
  O  O171  1  0.66461762  0.16263092  0.21881399  1.0
  O  O172  1  0.72597897  0.37475579  0.17014889  1.0
  O  O173  1  0.59524156  0.24480012  0.29947302  1.0
  O  O174  1  0.67160161  0.43571517  0.22744052  1.0
  O  O175  1  0.72044010  0.21837877  0.16539449  1.0
  O  O176  1  0.87739423  0.22411900  0.16884039  1.0
  O  O177  1  0.86273339  0.25467210  0.30867694  1.0
  O  O178  1  0.93264849  0.17378320  0.22828954  1.0
  O  O179  1  0.75314613  0.36353737  0.30826542  1.0
  O  O180  1  0.74560780  0.09191859  0.29980433  1.0
  O  O181  1  0.85717594  0.09893871  0.30330156  1.0
  O  O182  1  0.24966337  0.74997013  0.75048766  1.0
  O  O183  1  0.37411935  0.72409094  0.66974474  1.0
  O  O184  1  0.36431835  0.75461887  0.80829485  1.0
  O  O185  1  0.17094258  0.93506964  0.72714986  1.0
  O  O186  1  0.43525383  0.67307941  0.72731146  1.0
  O  O187  1  0.22392877  0.87442576  0.66971557  1.0
  O  O188  1  0.25319079  0.86150153  0.80772499  1.0
  O  O189  1  0.09468461  0.85888178  0.80312127  1.0
  O  O190  1  0.16501232  0.66303470  0.71901808  1.0
  O  O191  1  0.09493970  0.74419564  0.79956111  1.0
  O  O192  1  0.21853679  0.71890004  0.66430999  1.0
  O  O193  1  0.35755832  0.59870969  0.80261962  1.0
  O  O194  1  0.24571929  0.59147560  0.79996019  1.0
  O  O195  1  0.50108936  0.99893379  0.00001652  1.0
  O  O196  1  0.50442268  0.15825374  0.94997943  1.0
  O  O197  1  0.38752656  0.99550476  0.94136274  1.0
  O  O198  1  0.65420003  0.89122578  0.94628690  1.0
  O  O199  1  0.39276800  0.15117565  0.94681631  1.0
  O  O200  1  0.65462300  0.00542240  0.95036158  1.0
  O  O201  1  0.49685746  0.88641914  0.94160545  1.0
  O  O202  1  0.57808932  0.81472576  0.02269412  1.0
  O  O203  1  0.53018680  0.03217516  0.08592928  1.0
  O  O204  1  0.52541990  0.87576525  0.08005226  1.0
  O  O205  1  0.58485539  0.08659202  0.03104023  1.0
  O  O206  1  0.31783921  0.07607319  0.02200374  1.0
  O  O207  1  0.37336386  0.02694961  0.08143766  1.0
  F  F208  1  0.78245335  0.51648225  0.39901833  1.0
  F  F209  1  0.15963794  0.65951849  0.54208835  1.0
  F  F210  1  0.70789084  0.20787426  0.09050973  1.0
  F  F211  1  0.23369877  0.96789927  0.85073315  1.0
