# generated using pymatgen
data_AlH10(C3O)5
_symmetry_space_group_name_H-M   'P 1'
_cell_length_a   6.68420051
_cell_length_b   17.13795839
_cell_length_c   19.45201126
_cell_angle_alpha   108.75435251
_cell_angle_beta   89.99818411
_cell_angle_gamma   89.99760136
_symmetry_Int_Tables_number   1
_chemical_formula_structural   AlH10(C3O)5
_chemical_formula_sum   'Al4 H40 C60 O20'
_cell_volume   2109.98709639
_cell_formula_units_Z   4
loop_
 _symmetry_equiv_pos_site_id
 _symmetry_equiv_pos_as_xyz
  1  'x, y, z'
loop_
 _atom_site_type_symbol
 _atom_site_label
 _atom_site_symmetry_multiplicity
 _atom_site_fract_x
 _atom_site_fract_y
 _atom_site_fract_z
 _atom_site_occupancy
  Al  Al0  1  0.89823706  0.49922627  0.50003916  1.0
  Al  Al1  1  0.39822955  0.50077197  0.49995967  1.0
  Al  Al2  1  0.37465359  0.00038903  0.00071392  1.0
  Al  Al3  1  0.87465405  0.99960846  0.99928647  1.0
  H  H4  1  0.42554327  0.65045590  0.72497538  1.0
  H  H5  1  0.92552374  0.34952428  0.27500220  1.0
  H  H6  1  0.41218290  0.76624247  0.84091571  1.0
  H  H7  1  0.91213596  0.23373961  0.15905511  1.0
  H  H8  1  0.64949468  0.80368509  0.79323852  1.0
  H  H9  1  0.14945095  0.19636642  0.20681775  1.0
  H  H10  1  0.77523105  0.77204644  0.63467158  1.0
  H  H11  1  0.27527047  0.22795501  0.36535745  1.0
  H  H12  1  0.41821627  0.68489450  0.40296469  1.0
  H  H13  1  0.91818631  0.31508626  0.59702226  1.0
  H  H14  1  0.83963889  0.81111466  0.09332029  1.0
  H  H15  1  0.33958707  0.18888257  0.90667432  1.0
  H  H16  1  0.68735960  0.70096958  0.13470007  1.0
  H  H17  1  0.18726898  0.29900901  0.86528515  1.0
  H  H18  1  0.69627302  0.61363281  0.21207154  1.0
  H  H19  1  0.19614826  0.38632840  0.78789824  1.0
  H  H20  1  0.57672453  0.87385791  0.27518429  1.0
  H  H21  1  0.07670781  0.12613642  0.72480655  1.0
  H  H22  1  0.41415334  0.91185486  0.17527141  1.0
  H  H23  1  0.91415403  0.08814784  0.82472765  1.0
  H  H24  1  0.81366836  0.92391126  0.71916131  1.0
  H  H25  1  0.55914701  0.91252291  0.74182485  1.0
  H  H26  1  0.73960267  0.95008108  0.81179865  1.0
  H  H27  1  0.31365161  0.07609970  0.28084096  1.0
  H  H28  1  0.05912181  0.08752392  0.25822026  1.0
  H  H29  1  0.23951259  0.04994136  0.18820900  1.0
  H  H30  1  0.65979679  0.69935479  0.67057298  1.0
  H  H31  1  0.15984390  0.30067520  0.32947755  1.0
  H  H32  1  0.87888876  0.49762737  0.32310028  1.0
  H  H33  1  0.69089072  0.57247070  0.33662587  1.0
  H  H34  1  0.77774289  0.52020540  0.24736199  1.0
  H  H35  1  0.37888362  0.50238346  0.67690659  1.0
  H  H36  1  0.19088007  0.42752416  0.66336423  1.0
  H  H37  1  0.27768816  0.47978780  0.75264257  1.0
  H  H38  1  0.57893371  0.79035428  0.35803134  1.0
  H  H39  1  0.07891202  0.20963161  0.64195399  1.0
  H  H40  1  0.65139780  0.60737683  0.53985295  1.0
  H  H41  1  0.15139272  0.39262744  0.46014344  1.0
  H  H42  1  0.62428521  0.90036350  0.00517079  1.0
  H  H43  1  0.12427743  0.09962550  0.99480278  1.0
  C  C44  1  0.64697531  0.41849985  0.58155871  1.0
  C  C45  1  0.14699291  0.58150006  0.41843666  1.0
  C  C46  1  0.64712121  0.38960961  0.38490363  1.0
  C  C47  1  0.14709536  0.61038718  0.61509281  1.0
  C  C48  1  0.97548933  0.72972324  0.70577685  1.0
  C  C49  1  0.47549538  0.27027689  0.29423610  1.0
  C  C50  1  0.13960942  0.67713994  0.68603586  1.0
  C  C51  1  0.63962854  0.32285841  0.31396779  1.0
  C  C52  1  0.29674467  0.69163297  0.73705840  1.0
  C  C53  1  0.79671038  0.30836050  0.26292842  1.0
  C  C54  1  0.28936373  0.75665000  0.80226508  1.0
  C  C55  1  0.78931168  0.24333937  0.19771158  1.0
  C  C56  1  0.12532595  0.81130755  0.82076041  1.0
  C  C57  1  0.62525488  0.18870247  0.17922950  1.0
  C  C58  1  0.96737832  0.79447292  0.77132584  1.0
  C  C59  1  0.46733070  0.20553580  0.22868298  1.0
  C  C60  1  0.75666733  0.81954406  0.75706363  1.0
  C  C61  1  0.25663302  0.18048496  0.24295996  1.0
  C  C62  1  0.77166239  0.74871152  0.68115053  1.0
  C  C63  1  0.27168494  0.25129374  0.31888401  1.0
  C  C64  1  0.98313413  0.61197345  0.31158066  1.0
  C  C65  1  0.48309998  0.38801926  0.68841692  1.0
  C  C66  1  0.14147241  0.62412177  0.36226190  1.0
  C  C67  1  0.64142193  0.37586951  0.63772705  1.0
  C  C68  1  0.29726252  0.67929044  0.36401081  1.0
  C  C69  1  0.79722630  0.32069192  0.63597595  1.0
  C  C70  1  0.29888212  0.72754060  0.31808724  1.0
  C  C71  1  0.79882923  0.27244151  0.68189894  1.0
  C  C72  1  0.13685143  0.71901377  0.26822190  1.0
  C  C73  1  0.63677479  0.28097276  0.73176333  1.0
  C  C74  1  0.97991245  0.66095108  0.26493714  1.0
  C  C75  1  0.47984070  0.33903841  0.73505616  1.0
  C  C76  1  0.45596921  0.78513133  0.31988793  1.0
  C  C77  1  0.95594277  0.21484591  0.68009768  1.0
  C  C78  1  0.45462219  0.83130102  0.27434837  1.0
  C  C79  1  0.95458939  0.16868523  0.72563948  1.0
  C  C80  1  0.29432987  0.82442761  0.22372085  1.0
  C  C81  1  0.79428690  0.17555287  0.77626704  1.0
  C  C82  1  0.13354145  0.76849321  0.22179920  1.0
  C  C83  1  0.63349311  0.23148795  0.77818227  1.0
  C  C84  1  0.96969430  0.76256690  0.17306496  1.0
  C  C85  1  0.46964654  0.23741895  0.82691932  1.0
  C  C86  1  0.81379062  0.70470021  0.17114099  1.0
  C  C87  1  0.31372235  0.29528152  0.82884650  1.0
  C  C88  1  0.81970682  0.65582698  0.21438418  1.0
  C  C89  1  0.31963254  0.34415848  0.78559292  1.0
  C  C90  1  0.29047703  0.87060173  0.17587962  1.0
  C  C91  1  0.79044548  0.12939151  0.82411275  1.0
  C  C92  1  0.12671507  0.86614473  0.12981520  1.0
  C  C93  1  0.62668285  0.13385552  0.87018168  1.0
  C  C94  1  0.96636920  0.81352325  0.12924539  1.0
  C  C95  1  0.46632013  0.18646503  0.87074710  1.0
  C  C96  1  0.62463226  0.11769132  0.11065876  1.0
  C  C97  1  0.12468290  0.88231054  0.88933763  1.0
  C  C98  1  0.62485684  0.08247040  0.91913271  1.0
  C  C99  1  0.12485328  0.91752716  0.08086149  1.0
  C  C100  1  0.71535540  0.90662175  0.75722879  1.0
  C  C101  1  0.21531278  0.09341225  0.24279677  1.0
  C  C102  1  0.82478938  0.54723906  0.30409720  1.0
  C  C103  1  0.32477259  0.45274901  0.69590690  1.0
  O  O104  1  0.47891786  0.41537250  0.41417802  1.0
  O  O105  1  0.97893529  0.58461331  0.58583262  1.0
  O  O106  1  0.81831075  0.43349163  0.55964235  1.0
  O  O107  1  0.31836711  0.56649914  0.44034780  1.0
  O  O108  1  0.81837066  0.41528399  0.41179215  1.0
  O  O109  1  0.31840146  0.58472470  0.58819429  1.0
  O  O110  1  0.97940050  0.56596531  0.44217562  1.0
  O  O111  1  0.47932934  0.43404349  0.55782916  1.0
  O  O112  1  0.64862782  0.54995188  0.51001789  1.0
  O  O113  1  0.14861977  0.45005207  0.48997584  1.0
  O  O114  1  0.79446768  0.06029712  0.93648930  1.0
  O  O115  1  0.29449917  0.93968667  0.06349318  1.0
  O  O116  1  0.45371050  0.08926595  0.08582185  1.0
  O  O117  1  0.95380305  0.91072345  0.91419259  1.0
  O  O118  1  0.45541708  0.06450362  0.94027378  1.0
  O  O119  1  0.95543269  0.93552568  0.05975598  1.0
  O  O120  1  0.29415944  0.90864600  0.91742276  1.0
  O  O121  1  0.79406087  0.09136507  0.08255932  1.0
  O  O122  1  0.62448300  0.95114124  0.99341184  1.0
  O  O123  1  0.12446712  0.04886023  0.00658184  1.0
