# generated using pymatgen
data_Zn2H19C32Br2N3O10
_symmetry_space_group_name_H-M   'P 1'
_cell_length_a   9.77296416
_cell_length_b   11.01999853
_cell_length_c   17.58469509
_cell_angle_alpha   84.97346056
_cell_angle_beta   87.34243971
_cell_angle_gamma   87.47744441
_symmetry_Int_Tables_number   1
_chemical_formula_structural   Zn2H19C32Br2N3O10
_chemical_formula_sum   'Zn2 H19 C32 Br2 N3 O10'
_cell_volume   1883.00572243
_cell_formula_units_Z   1
loop_
 _symmetry_equiv_pos_site_id
 _symmetry_equiv_pos_as_xyz
  1  'x, y, z'
loop_
 _atom_site_type_symbol
 _atom_site_label
 _atom_site_symmetry_multiplicity
 _atom_site_fract_x
 _atom_site_fract_y
 _atom_site_fract_z
 _atom_site_occupancy
  Zn  Zn0  1  0.36826249  0.50424350  0.50499517  1.0
  Zn  Zn1  1  0.65228489  0.49165386  0.50327351  1.0
  H  H2  1  0.65752521  0.62108952  0.73481678  1.0
  H  H3  1  0.61228313  0.65784991  0.99630754  1.0
  H  H4  1  0.26295110  0.45694672  0.89319320  1.0
  H  H5  1  0.38897295  0.43385158  0.11362648  1.0
  H  H6  1  0.28405560  0.42819839  0.75389310  1.0
  H  H7  1  0.34808755  0.51414359  0.00340346  1.0
  H  H8  1  0.63629624  0.65469655  0.87227130  1.0
  H  H9  1  0.65601364  0.73528211  0.12024578  1.0
  H  H10  1  0.73475092  0.88031174  0.51551602  1.0
  H  H11  1  0.72755614  0.10624965  0.51613933  1.0
  H  H12  1  0.17845785  0.11963090  0.51817219  1.0
  H  H13  1  0.21785801  0.12345634  0.41789649  1.0
  H  H14  1  0.18457913  0.89054791  0.52642081  1.0
  H  H15  1  0.22071236  0.89416186  0.42585861  1.0
  H  H16  1  0.16846271  0.38354608  0.41611873  1.0
  H  H17  1  0.10749625  0.59762145  0.66768780  1.0
  H  H18  1  0.09987761  0.72867859  0.60026896  1.0
  H  H19  1  0.84923314  0.58169657  0.66375886  1.0
  H  H20  1  0.84138588  0.71249824  0.59614655  1.0
  C  C21  1  0.52184940  0.73208755  0.50573435  1.0
  C  C22  1  0.49006151  0.49564060  0.65362799  1.0
  C  C23  1  0.51005829  0.26477283  0.49919294  1.0
  C  C24  1  0.50676972  0.53567326  0.35450372  1.0
  C  C25  1  0.47398488  0.51980682  0.73622155  1.0
  C  C26  1  0.57156170  0.58516386  0.77018787  1.0
  C  C27  1  0.55875511  0.60406734  0.84727084  1.0
  C  C28  1  0.44874724  0.55602784  0.89357169  1.0
  C  C29  1  0.34905192  0.49416274  0.85822699  1.0
  C  C30  1  0.36065512  0.47712889  0.78077451  1.0
  C  C31  1  0.44282969  0.49683640  0.14480137  1.0
  C  C32  1  0.43990861  0.48030342  0.22406771  1.0
  C  C33  1  0.58639936  0.64604473  0.22719328  1.0
  C  C34  1  0.59344501  0.66332009  0.14789254  1.0
  C  C35  1  0.51850909  0.58996916  0.10488243  1.0
  C  C36  1  0.43723093  0.55972136  0.97613501  1.0
  C  C37  1  0.52589244  0.60639947  0.02162140  1.0
  C  C38  1  0.50995281  0.55546546  0.26833491  1.0
  C  C39  1  0.39780113  0.93827833  0.49165373  1.0
  C  C40  1  0.51821272  0.86756442  0.50223979  1.0
  C  C41  1  0.63768638  0.93213661  0.50944050  1.0
  C  C42  1  0.63422978  0.05881599  0.50858558  1.0
  C  C43  1  0.51159449  0.12980439  0.49832688  1.0
  C  C44  1  0.39489840  0.06551547  0.48855713  1.0
  C  C45  1  0.24300343  0.07788918  0.47391659  1.0
  C  C46  1  0.24596989  0.93378538  0.47839807  1.0
  C  C47  1  0.92881823  0.54609937  0.54857784  1.0
  C  C48  1  0.95693043  0.42105928  0.45425360  1.0
  C  C49  1  0.09978487  0.43121177  0.45507805  1.0
  C  C50  1  0.06990335  0.55512904  0.55050367  1.0
  C  C51  1  0.06101113  0.63727957  0.61500331  1.0
  C  C52  1  0.89929571  0.62752311  0.61268425  1.0
  Br  Br53  1  0.89088339  0.31839560  0.38554981  1.0
  Br  Br54  1  0.34352083  0.34472036  0.27112854  1.0
  N  N55  1  0.86747344  0.48013835  0.50091671  1.0
  N  N56  1  0.15805631  0.49953786  0.50392380  1.0
  N  N57  1  0.66094545  0.73202508  0.26845710  1.0
  O  O58  1  0.40662603  0.68174119  0.51705105  1.0
  O  O59  1  0.63835158  0.67684812  0.49775746  1.0
  O  O60  1  0.38174531  0.46981572  0.62141509  1.0
  O  O61  1  0.60952611  0.50287547  0.62185791  1.0
  O  O62  1  0.39676954  0.32360593  0.48682816  1.0
  O  O63  1  0.62225108  0.31205586  0.51291470  1.0
  O  O64  1  0.38996044  0.54878400  0.38753567  1.0
  O  O65  1  0.61963073  0.50479107  0.38472657  1.0
  O  O66  1  0.60430449  0.76824167  0.32712553  1.0
  O  O67  1  0.77360869  0.76430365  0.24016297  1.0
