# generated using pymatgen
data_GaH5C8O5
_symmetry_space_group_name_H-M   'P 1'
_cell_length_a   6.82318722
_cell_length_b   11.72634396
_cell_length_c   17.95390855
_cell_angle_alpha   90.00017848
_cell_angle_beta   89.99989533
_cell_angle_gamma   89.99929806
_symmetry_Int_Tables_number   1
_chemical_formula_structural   GaH5C8O5
_chemical_formula_sum   'Ga4 H20 C32 O20'
_cell_volume   1436.51089944
_cell_formula_units_Z   4
loop_
 _symmetry_equiv_pos_site_id
 _symmetry_equiv_pos_as_xyz
  1  'x, y, z'
loop_
 _atom_site_type_symbol
 _atom_site_label
 _atom_site_symmetry_multiplicity
 _atom_site_fract_x
 _atom_site_fract_y
 _atom_site_fract_z
 _atom_site_occupancy
  Ga  Ga0  1  0.00000041  0.00000755  0.00000185  1.0
  Ga  Ga1  1  0.00000092  0.49998824  0.49999804  1.0
  Ga  Ga2  1  0.50000165  0.00000319  0.99999989  1.0
  Ga  Ga3  1  0.49999453  0.49998477  0.50000064  1.0
  H  H4  1  0.56435956  0.78325433  0.82044756  1.0
  H  H5  1  0.43559984  0.28321454  0.67954575  1.0
  H  H6  1  0.06439683  0.21677962  0.17953993  1.0
  H  H7  1  0.93563361  0.71676477  0.32045372  1.0
  H  H8  1  0.43563389  0.21681071  0.17953255  1.0
  H  H9  1  0.56441267  0.71678058  0.32046332  1.0
  H  H10  1  0.93557464  0.78321976  0.82047415  1.0
  H  H11  1  0.06437303  0.28319879  0.67953920  1.0
  H  H12  1  0.56425100  0.68070630  0.69714060  1.0
  H  H13  1  0.43575454  0.18068074  0.80285250  1.0
  H  H14  1  0.06425477  0.31929525  0.30285413  1.0
  H  H15  1  0.93574272  0.81930538  0.19714529  1.0
  H  H16  1  0.43575271  0.31934339  0.30284452  1.0
  H  H17  1  0.56424478  0.81930670  0.19714989  1.0
  H  H18  1  0.93575920  0.68069134  0.69716441  1.0
  H  H19  1  0.06425660  0.18066500  0.80284985  1.0
  H  H20  1  0.74999201  0.64818773  0.47739559  1.0
  H  H21  1  0.24999592  0.14819711  0.02261129  1.0
  H  H22  1  0.25000144  0.35180823  0.52261126  1.0
  H  H23  1  0.75000487  0.85181506  0.97739778  1.0
  C  C24  1  0.42774044  0.75941526  0.79329138  1.0
  C  C25  1  0.57227223  0.25939595  0.70670856  1.0
  C  C26  1  0.92773498  0.24060247  0.20670586  1.0
  C  C27  1  0.07227297  0.74059275  0.29329730  1.0
  C  C28  1  0.57228379  0.24061652  0.20669820  1.0
  C  C29  1  0.42772269  0.74060343  0.29329383  1.0
  C  C30  1  0.07226433  0.75938412  0.79328817  1.0
  C  C31  1  0.92772928  0.25939640  0.70669896  1.0
  C  C32  1  0.42786429  0.70317592  0.72511341  1.0
  C  C33  1  0.57209241  0.20313050  0.77488085  1.0
  C  C34  1  0.92791011  0.29684352  0.27488940  1.0
  C  C35  1  0.07212157  0.79684370  0.22511610  1.0
  C  C36  1  0.57211597  0.29687207  0.27487561  1.0
  C  C37  1  0.42790691  0.79685524  0.22511096  1.0
  C  C38  1  0.07208481  0.70314307  0.72510686  1.0
  C  C39  1  0.92789680  0.20312497  0.77487236  1.0
  C  C40  1  0.25001373  0.78801995  0.82782546  1.0
  C  C41  1  0.75000712  0.28799239  0.67216396  1.0
  C  C42  1  0.74999731  0.21199819  0.17216467  1.0
  C  C43  1  0.24998780  0.71198652  0.32783676  1.0
  C  C44  1  0.24999968  0.85396480  0.89902896  1.0
  C  C45  1  0.75000218  0.35393775  0.60098119  1.0
  C  C46  1  0.75000110  0.14605164  0.10097899  1.0
  C  C47  1  0.25000153  0.64604031  0.39901785  1.0
  C  C48  1  0.24996393  0.67515835  0.69054883  1.0
  C  C49  1  0.74998603  0.17514681  0.80944537  1.0
  C  C50  1  0.75002366  0.32484529  0.30944632  1.0
  C  C51  1  0.25001622  0.82484490  0.19054922  1.0
  C  C52  1  0.24998378  0.61545159  0.61678712  1.0
  C  C53  1  0.74999236  0.11543016  0.88322980  1.0
  C  C54  1  0.75001260  0.38456058  0.38322585  1.0
  C  C55  1  0.25000256  0.88455984  0.11678094  1.0
  O  O56  1  0.08336754  0.88008528  0.92640248  1.0
  O  O57  1  0.91658980  0.38008165  0.57360272  1.0
  O  O58  1  0.58339894  0.11993063  0.07360449  1.0
  O  O59  1  0.41661889  0.61990973  0.42639119  1.0
  O  O60  1  0.91662591  0.11991922  0.07360715  1.0
  O  O61  1  0.08338753  0.61991262  0.42639466  1.0
  O  O62  1  0.41662822  0.88009092  0.92640013  1.0
  O  O63  1  0.58339508  0.38008538  0.57360507  1.0
  O  O64  1  0.08275725  0.59304445  0.58881219  1.0
  O  O65  1  0.91726627  0.09303647  0.91119020  1.0
  O  O66  1  0.58274443  0.40695441  0.41118865  1.0
  O  O67  1  0.41726146  0.90695661  0.08881373  1.0
  O  O68  1  0.91726991  0.40695664  0.41118741  1.0
  O  O69  1  0.08274770  0.90694842  0.08881664  1.0
  O  O70  1  0.41721238  0.59305094  0.58881095  1.0
  O  O71  1  0.58272467  0.09304277  0.91118754  1.0
  O  O72  1  0.24999890  0.07817506  0.99363265  1.0
  O  O73  1  0.75000441  0.57816513  0.50637305  1.0
  O  O74  1  0.74998283  0.92183455  0.00637753  1.0
  O  O75  1  0.24999783  0.42182828  0.49363324  1.0
