# generated using pymatgen
data_Zn4H8C40Br4O13F8
_symmetry_space_group_name_H-M   'P 1'
_cell_length_a   23.95571642
_cell_length_b   23.95595132
_cell_length_c   23.95426488
_cell_angle_alpha   66.65826278
_cell_angle_beta   72.42609268
_cell_angle_gamma   107.57085773
_symmetry_Int_Tables_number   1
_chemical_formula_structural   Zn4H8C40Br4O13F8
_chemical_formula_sum   'Zn8 H16 C80 Br8 O26 F16'
_cell_volume   10545.64037359
_cell_formula_units_Z   2
loop_
 _symmetry_equiv_pos_site_id
 _symmetry_equiv_pos_as_xyz
  1  'x, y, z'
loop_
 _atom_site_type_symbol
 _atom_site_label
 _atom_site_symmetry_multiplicity
 _atom_site_fract_x
 _atom_site_fract_y
 _atom_site_fract_z
 _atom_site_occupancy
  Zn  Zn0  1  0.05716929  0.09941288  0.45774779  1.0
  Zn  Zn1  1  0.05716941  0.95775766  0.48507098  1.0
  Zn  Zn2  1  0.94282391  0.95774582  0.59942581  1.0
  Zn  Zn3  1  0.94284150  0.98508890  0.45774317  1.0
  Zn  Zn4  1  0.94283069  0.40058795  0.04225113  1.0
  Zn  Zn5  1  0.05717774  0.54225294  0.90057426  1.0
  Zn  Zn6  1  0.94282860  0.54224275  0.01492537  1.0
  Zn  Zn7  1  0.05715738  0.51491553  0.04225726  1.0
  H  H8  1  0.92329550  0.20868171  0.90191850  1.0
  H  H9  1  0.07668720  0.40191431  0.70865769  1.0
  H  H10  1  0.92330471  0.09808705  0.79134053  1.0
  H  H11  1  0.07664415  0.29133162  0.59806448  1.0
  H  H12  1  0.07670654  0.67481746  0.21459890  1.0
  H  H13  1  0.92331022  0.71465259  0.17476161  1.0
  H  H14  1  0.07665059  0.78532081  0.32526680  1.0
  H  H15  1  0.92330721  0.82522285  0.28536281  1.0
  H  H16  1  0.61058791  0.20867653  0.21466052  1.0
  H  H17  1  0.61058270  0.40191816  0.17476158  1.0
  H  H18  1  0.38941581  0.09807861  0.32524692  1.0
  H  H19  1  0.38941290  0.29130724  0.28541505  1.0
  H  H20  1  0.38942119  0.71468815  0.70866897  1.0
  H  H21  1  0.38940470  0.67475983  0.90194012  1.0
  H  H22  1  0.61059803  0.82525289  0.59805504  1.0
  H  H23  1  0.61057647  0.78538631  0.79131413  1.0
  C  C24  1  0.18124906  0.09061854  0.40937858  1.0
  C  C25  1  0.99999924  0.86323731  0.63676270  1.0
  C  C26  1  0.99999481  0.09061797  0.59062769  1.0
  C  C27  1  0.81875270  0.90938725  0.59061017  1.0
  C  C28  1  0.00000364  0.13676900  0.36323343  1.0
  C  C29  1  0.99999628  0.90937506  0.40937668  1.0
  C  C30  1  0.99999901  0.40938360  0.90936887  1.0
  C  C31  1  0.00000339  0.63676362  0.86323413  1.0
  C  C32  1  0.81874970  0.40937875  0.09063046  1.0
  C  C33  1  0.99999679  0.59063279  0.09061774  1.0
  C  C34  1  0.99999651  0.36323439  0.13676578  1.0
  C  C35  1  0.18124769  0.59062703  0.90938800  1.0
  C  C36  1  0.00000078  0.19490320  0.30509953  1.0
  C  C37  1  0.99999980  0.30510019  0.19489872  1.0
  C  C38  1  0.95710087  0.18019047  0.27691332  1.0
  C  C39  1  0.04290011  0.31981188  0.22308480  1.0
  C  C40  1  0.95710022  0.23401398  0.22308837  1.0
  C  C41  1  0.04289989  0.26598838  0.27691043  1.0
  C  C42  1  0.00000120  0.80510134  0.69489900  1.0
  C  C43  1  0.00000286  0.69490093  0.80509787  1.0
  C  C44  1  0.95710076  0.77690770  0.76599405  1.0
  C  C45  1  0.04290211  0.72309374  0.73400377  1.0
  C  C46  1  0.95710069  0.72308264  0.81981900  1.0
  C  C47  1  0.04290261  0.77691880  0.68017827  1.0
  C  C48  1  0.99999649  0.37197896  0.87196455  1.0
  C  C49  1  0.95788870  0.29981638  0.90586905  1.0
  C  C50  1  0.95710691  0.26421968  0.87227565  1.0
  C  C51  1  0.99999497  0.30049634  0.80048982  1.0
  C  C52  1  0.04288043  0.37227715  0.76420475  1.0
  C  C53  1  0.04209907  0.40587601  0.79979603  1.0
  C  C54  1  0.99998928  0.26522531  0.76522050  1.0
  C  C55  1  0.99998289  0.23477678  0.73477321  1.0
  C  C56  1  0.99997895  0.19950575  0.69950503  1.0
  C  C57  1  0.95710228  0.12772421  0.73579208  1.0
  C  C58  1  0.95788266  0.09412796  0.70019964  1.0
  C  C59  1  0.99998023  0.12802728  0.62802823  1.0
  C  C60  1  0.04206332  0.20019434  0.59411623  1.0
  C  C61  1  0.04284848  0.23578793  0.62771068  1.0
  C  C62  1  0.00000903  0.62805381  0.12800570  1.0
  C  C63  1  0.04212137  0.63627059  0.15805258  1.0
  C  C64  1  0.04289788  0.67064301  0.19287067  1.0
  C  C65  1  0.00000079  0.69952294  0.19949206  1.0
  C  C66  1  0.95712175  0.69292259  0.17058772  1.0
  C  C67  1  0.95790981  0.65811866  0.13620323  1.0
  C  C68  1  0.99999487  0.73478485  0.23476917  1.0
  C  C69  1  0.99999158  0.76522196  0.26522766  1.0
  C  C70  1  0.99998502  0.80048262  0.30050604  1.0
  C  C71  1  0.04285469  0.80706844  0.32942397  1.0
  C  C72  1  0.04206663  0.84187237  0.36380888  1.0
  C  C73  1  0.99997940  0.87195174  0.37199203  1.0
  C  C74  1  0.95788162  0.86375313  0.34192605  1.0
  C  C75  1  0.95710500  0.82938330  0.30710696  1.0
  C  C76  1  0.74394104  0.37197616  0.12803094  1.0
  C  C77  1  0.70567858  0.29981196  0.15810322  1.0
  C  C78  1  0.63649023  0.26421877  0.19291511  1.0
  C  C79  1  0.60098750  0.30049856  0.19951115  1.0
  C  C80  1  0.63648703  0.37227969  0.17060112  1.0
  C  C81  1  0.70567569  0.40587708  0.13622096  1.0
  C  C82  1  0.53044617  0.26522432  0.23478930  1.0
  C  C83  1  0.46955134  0.23476933  0.26524411  1.0
  C  C84  1  0.39901296  0.19949768  0.30051826  1.0
  C  C85  1  0.36350936  0.12771345  0.32941989  1.0
  C  C86  1  0.29432114  0.09411605  0.36380325  1.0
  C  C87  1  0.25605754  0.12801697  0.37199860  1.0
  C  C88  1  0.29432066  0.20017597  0.34195573  1.0
  C  C89  1  0.36351128  0.23577123  0.30714025  1.0
  C  C90  1  0.25605775  0.62804208  0.87198300  1.0
  C  C91  1  0.29432342  0.65812484  0.79981011  1.0
  C  C92  1  0.36351242  0.69293302  0.76421793  1.0
  C  C93  1  0.39901089  0.69952071  0.80050501  1.0
  C  C94  1  0.36350666  0.67060706  0.87229412  1.0
  C  C95  1  0.29431639  0.63622829  0.90588947  1.0
  C  C96  1  0.46955237  0.73479339  0.76522869  1.0
  C  C97  1  0.53044698  0.76524319  0.73476431  1.0
  C  C98  1  0.60098606  0.80051070  0.69948992  1.0
  C  C99  1  0.63649616  0.82941812  0.62769984  1.0
  C  C100  1  0.70568583  0.86379843  0.59410447  1.0
  C  C101  1  0.74394358  0.87198932  0.62801186  1.0
  C  C102  1  0.70567490  0.84193406  0.70017895  1.0
  C  C103  1  0.63648485  0.80712172  0.73577059  1.0
  Br  Br104  1  0.89675675  0.08790180  0.30886381  1.0
  Br  Br105  1  0.10324379  0.41210055  0.19113444  1.0
  Br  Br106  1  0.89675816  0.20562024  0.19114111  1.0
  Br  Br107  1  0.10324301  0.29438158  0.30885675  1.0
  Br  Br108  1  0.89675965  0.80885468  0.79439535  1.0
  Br  Br109  1  0.10324230  0.69114573  0.70560315  1.0
  Br  Br110  1  0.89675738  0.69113157  0.91211808  1.0
  Br  Br111  1  0.10324437  0.80886936  0.58787986  1.0
  O  O112  1  0.99999883  0.99999932  0.50000175  1.0
  O  O113  1  0.15240752  0.12668868  0.41365574  1.0
  O  O114  1  0.03958436  0.88575380  0.57466637  1.0
  O  O115  1  0.95963133  0.02570652  0.62670380  1.0
  O  O116  1  0.15240996  0.02571213  0.43391547  1.0
  O  O117  1  0.04036585  0.12668386  0.52571752  1.0
  O  O118  1  0.96041224  0.88574106  0.65383982  1.0
  O  O119  1  0.84758842  0.91366834  0.62668590  1.0
  O  O120  1  0.96042684  0.07467798  0.38573905  1.0
  O  O121  1  0.84759712  0.93393570  0.52569732  1.0
  O  O122  1  0.03958111  0.15383718  0.38574676  1.0
  O  O123  1  0.04036088  0.91367291  0.43391822  1.0
  O  O124  1  0.95964222  0.93393376  0.41365847  1.0
  O  O125  1  0.00000071  0.50000151  0.99999814  1.0
  O  O126  1  0.95963822  0.37331542  0.97428287  1.0
  O  O127  1  0.03958787  0.61425727  0.84615922  1.0
  O  O128  1  0.84758816  0.47428568  0.06609064  1.0
  O  O129  1  0.04036511  0.47429328  0.87329450  1.0
  O  O130  1  0.84759141  0.37331276  0.08633700  1.0
  O  O131  1  0.96041835  0.61424919  0.92533046  1.0
  O  O132  1  0.95963086  0.58633317  0.06607664  1.0
  O  O133  1  0.03957574  0.42532593  0.11425713  1.0
  O  O134  1  0.04034728  0.56607127  0.08633831  1.0
  O  O135  1  0.96041550  0.34616518  0.11425601  1.0
  O  O136  1  0.15241272  0.58633246  0.87331445  1.0
  O  O137  1  0.15240266  0.56607444  0.97430267  1.0
  F  F138  1  0.91524705  0.26130882  0.97477354  1.0
  F  F139  1  0.08474051  0.47477453  0.76127720  1.0
  F  F140  1  0.91525334  0.02522630  0.73871940  1.0
  F  F141  1  0.08468596  0.23870813  0.52520583  1.0
  F  F142  1  0.08476594  0.61001805  0.15391447  1.0
  F  F143  1  0.91527136  0.65399112  0.10994209  1.0
  F  F144  1  0.08468864  0.84597864  0.39008968  1.0
  F  F145  1  0.91524792  0.89001967  0.34604866  1.0
  F  F146  1  0.73606840  0.26130083  0.15398422  1.0
  F  F147  1  0.73606197  0.47477889  0.10994564  1.0
  F  F148  1  0.26393475  0.02521684  0.39006672  1.0
  F  F149  1  0.26392898  0.23867931  0.34609883  1.0
  F  F150  1  0.26394215  0.65402100  0.76128956  1.0
  F  F151  1  0.26392193  0.60994508  0.97479945  1.0
  F  F152  1  0.73607979  0.89006452  0.52519891  1.0
  F  F153  1  0.73605904  0.84605917  0.73869313  1.0
