# generated using pymatgen
data_Zr3H20C42(O8F3)2
_symmetry_space_group_name_H-M   'P 1'
_cell_length_a   19.17722682
_cell_length_b   19.17722054
_cell_length_c   19.17725014
_cell_angle_alpha   90.00005256
_cell_angle_beta   120.00009961
_cell_angle_gamma   120.00008018
_symmetry_Int_Tables_number   1
_chemical_formula_structural   Zr3H20C42(O8F3)2
_chemical_formula_sum   'Zr6 H40 C84 O32 F12'
_cell_volume   4987.02360067
_cell_formula_units_Z   2
loop_
 _symmetry_equiv_pos_site_id
 _symmetry_equiv_pos_as_xyz
  1  'x, y, z'
loop_
 _atom_site_type_symbol
 _atom_site_label
 _atom_site_symmetry_multiplicity
 _atom_site_fract_x
 _atom_site_fract_y
 _atom_site_fract_z
 _atom_site_occupancy
  Zr  Zr0  1  0.31554688  0.90776233  0.40776772  1.0
  Zr  Zr1  1  0.68441547  0.09221246  0.59220429  1.0
  Zr  Zr2  1  0.49998849  0.09219616  0.40779549  1.0
  Zr  Zr3  1  0.49999701  0.90781002  0.59218753  1.0
  Zr  Zr4  1  0.49999948  0.90774338  0.40775849  1.0
  Zr  Zr5  1  0.49998051  0.09222146  0.59223180  1.0
  H  H6  1  0.35499127  0.92749336  0.28248908  1.0
  H  H7  1  0.64500675  0.92749554  0.57250472  1.0
  H  H8  1  0.64500407  0.21750897  0.57250529  1.0
  H  H9  1  0.35499133  0.92749561  0.57250324  1.0
  H  H10  1  0.06444953  0.45089930  0.95042275  1.0
  H  H11  1  0.93554824  0.54957711  0.04909803  1.0
  H  H12  1  0.28894195  0.67940460  0.18166516  1.0
  H  H13  1  0.16478037  0.55263494  0.05213093  1.0
  H  H14  1  0.71105340  0.31833089  0.82059617  1.0
  H  H15  1  0.83521799  0.44786836  0.94736426  1.0
  H  H16  1  0.06444994  0.11355119  0.61402832  1.0
  H  H17  1  0.93554555  0.88596930  0.38645006  1.0
  H  H18  1  0.28894486  0.10954038  0.60727656  1.0
  H  H19  1  0.16478134  0.11214674  0.61264816  1.0
  H  H20  1  0.71105373  0.89272137  0.39046003  1.0
  H  H21  1  0.83521774  0.88734843  0.38785552  1.0
  H  H22  1  0.50047676  0.45090162  0.61403115  1.0
  H  H23  1  0.50047444  0.54957542  0.38644627  1.0
  H  H24  1  0.49773729  0.67940218  0.60727733  1.0
  H  H25  1  0.50050202  0.55263355  0.61264777  1.0
  H  H26  1  0.49773587  0.31833479  0.39046310  1.0
  H  H27  1  0.50050115  0.44786843  0.38785605  1.0
  H  H28  1  0.49951744  0.88596623  0.04909603  1.0
  H  H29  1  0.49952093  0.11355179  0.95042396  1.0
  H  H30  1  0.50226202  0.89272495  0.82060030  1.0
  H  H31  1  0.49949651  0.88735158  0.94736717  1.0
  H  H32  1  0.50226276  0.10953471  0.18166694  1.0
  H  H33  1  0.49949749  0.11214373  0.05213526  1.0
  H  H34  1  0.83687092  0.88596849  0.95042163  1.0
  H  H35  1  0.16312642  0.11355188  0.04909936  1.0
  H  H36  1  0.07212457  0.89272330  0.18166585  1.0
  H  H37  1  0.93998277  0.88735083  0.05212993  1.0
  H  H38  1  0.92786933  0.10953819  0.82059532  1.0
  H  H39  1  0.06001286  0.11214679  0.94736572  1.0
  H  H40  1  0.83687114  0.45090251  0.38644974  1.0
  H  H41  1  0.16312769  0.54957756  0.61402878  1.0
  H  H42  1  0.07212766  0.67940310  0.39046035  1.0
  H  H43  1  0.93998456  0.55263392  0.38785246  1.0
  H  H44  1  0.92787153  0.31833327  0.60727684  1.0
  H  H45  1  0.06001400  0.44786791  0.61264878  1.0
  C  C46  1  0.26412248  0.76365696  0.26763642  1.0
  C  C47  1  0.73586788  0.00350862  0.49953062  1.0
  C  C48  1  0.73586465  0.23235519  0.73633784  1.0
  C  C49  1  0.26412070  0.00046094  0.49648267  1.0
  C  C50  1  0.26716887  0.00351382  0.26763783  1.0
  C  C51  1  0.26716748  0.76365537  0.49952937  1.0
  C  C52  1  0.73281952  0.00046243  0.73633980  1.0
  C  C53  1  0.73282283  0.23236098  0.49648356  1.0
  C  C54  1  0.50397616  0.00044382  0.26764183  1.0
  C  C55  1  0.49601550  0.23235648  0.49954948  1.0
  C  C56  1  0.50397673  0.00352610  0.73634021  1.0
  C  C57  1  0.49601828  0.76365767  0.49647402  1.0
  C  C58  1  0.81502346  0.31077660  0.81353201  1.0
  C  C59  1  0.18497236  0.68646948  0.18921771  1.0
  C  C60  1  0.91636221  0.35137526  0.85290293  1.0
  C  C61  1  0.98793126  0.42437642  0.92452867  1.0
  C  C62  1  0.08363563  0.64709985  0.14862198  1.0
  C  C63  1  0.01206543  0.57547266  0.07561945  1.0
  C  C64  1  0.21060857  0.64953168  0.15129475  1.0
  C  C65  1  0.13992181  0.57800101  0.07821450  1.0
  C  C66  1  0.78938787  0.34870130  0.85047018  1.0
  C  C67  1  0.86007601  0.42178241  0.92199990  1.0
  C  C68  1  0.96165269  0.46148842  0.96125365  1.0
  C  C69  1  0.03834570  0.53874791  0.03850978  1.0
  C  C70  1  0.81502556  0.00424560  0.50149651  1.0
  C  C71  1  0.18497173  0.99850462  0.49575212  1.0
  C  C72  1  0.91636350  0.06498443  0.56346185  1.0
  C  C73  1  0.98793255  0.06355245  0.56340555  1.0
  C  C74  1  0.08363235  0.93653549  0.43501220  1.0
  C  C75  1  0.01206359  0.93659202  0.43644570  1.0
  C  C76  1  0.21060936  0.06108028  0.55931320  1.0
  C  C77  1  0.13992170  0.06192152  0.56170700  1.0
  C  C78  1  0.78938788  0.94068333  0.43892081  1.0
  C  C79  1  0.86007598  0.93829099  0.43807936  1.0
  C  C80  1  0.96165345  0.00016261  0.50040129  1.0
  C  C81  1  0.03834512  0.99959668  0.49983621  1.0
  C  C82  1  0.49724447  0.31078047  0.50149751  1.0
  C  C83  1  0.49724737  0.68646532  0.49575272  1.0
  C  C84  1  0.49847385  0.35137648  0.56346705  1.0
  C  C85  1  0.49984829  0.42437814  0.56340770  1.0
  C  C86  1  0.49847724  0.64710050  0.43501112  1.0
  C  C87  1  0.49984684  0.57546982  0.43644142  1.0
  C  C88  1  0.49822927  0.64952856  0.55930899  1.0
  C  C89  1  0.49978383  0.57800079  0.56170532  1.0
  C  C90  1  0.49822787  0.34869936  0.43892302  1.0
  C  C91  1  0.49978109  0.42178311  0.43808065  1.0
  C  C92  1  0.50023328  0.46148889  0.50040085  1.0
  C  C93  1  0.50023322  0.53874684  0.49983390  1.0
  C  C94  1  0.50274707  0.99849760  0.18921771  1.0
  C  C95  1  0.50274822  0.00424732  0.81353339  1.0
  C  C96  1  0.50152038  0.93653071  0.14862055  1.0
  C  C97  1  0.50014374  0.93658856  0.07561741  1.0
  C  C98  1  0.50152300  0.06498929  0.85290165  1.0
  C  C99  1  0.50014581  0.06355557  0.92452789  1.0
  C  C100  1  0.50176303  0.94068892  0.85046883  1.0
  C  C101  1  0.50021253  0.93829407  0.92199838  1.0
  C  C102  1  0.50176533  0.06107305  0.15129950  1.0
  C  C103  1  0.50021446  0.06191669  0.07821729  1.0
  C  C104  1  0.49975831  0.99959633  0.03850799  1.0
  C  C105  1  0.49975807  0.00016173  0.96124987  1.0
  C  C106  1  0.80928390  0.99850186  0.81353128  1.0
  C  C107  1  0.19071355  0.00424844  0.18921944  1.0
  C  C108  1  0.78791371  0.93653301  0.85289941  1.0
  C  C109  1  0.86097364  0.93659218  0.92452739  1.0
  C  C110  1  0.21208119  0.06498696  0.14862064  1.0
  C  C111  1  0.13902373  0.06355499  0.07561950  1.0
  C  C112  1  0.09021389  0.94068757  0.15129543  1.0
  C  C113  1  0.01629211  0.93829417  0.07821614  1.0
  C  C114  1  0.90978094  0.06107796  0.85046852  1.0
  C  C115  1  0.98370443  0.06192090  0.92199889  1.0
  C  C116  1  0.96108695  0.99959710  0.96125059  1.0
  C  C117  1  0.03890970  0.00016436  0.03850919  1.0
  C  C118  1  0.80928375  0.31078188  0.49575266  1.0
  C  C119  1  0.19071299  0.68646466  0.50149352  1.0
  C  C120  1  0.78791540  0.35138247  0.43501510  1.0
  C  C121  1  0.86097328  0.42438129  0.43644632  1.0
  C  C122  1  0.21208474  0.64709588  0.56346131  1.0
  C  C123  1  0.13902662  0.57547044  0.56340486  1.0
  C  C124  1  0.09021470  0.64952704  0.43891874  1.0
  C  C125  1  0.01629280  0.57799742  0.43807578  1.0
  C  C126  1  0.90978098  0.34870451  0.55931244  1.0
  C  C127  1  0.98370502  0.42178444  0.56170689  1.0
  C  C128  1  0.96108891  0.46149051  0.49983653  1.0
  C  C129  1  0.03891196  0.53874706  0.50040072  1.0
  O  O130  1  0.23731677  0.79506039  0.29966649  1.0
  O  O131  1  0.76267334  0.06234551  0.55774133  1.0
  O  O132  1  0.76267377  0.20032929  0.70493196  1.0
  O  O133  1  0.23731676  0.94224966  0.43765124  1.0
  O  O134  1  0.35741220  0.06235027  0.29966536  1.0
  O  O135  1  0.35741110  0.79506256  0.55774353  1.0
  O  O136  1  0.64257855  0.94224940  0.70493392  1.0
  O  O137  1  0.64258238  0.20033276  0.43764732  1.0
  O  O138  1  0.50459909  0.94222716  0.29965652  1.0
  O  O139  1  0.49538837  0.20033762  0.55776321  1.0
  O  O140  1  0.50459912  0.06236505  0.70494798  1.0
  O  O141  1  0.49539260  0.79504752  0.43763398  1.0
  O  O142  1  0.49703872  0.20363025  0.44023168  1.0
  O  O143  1  0.50294921  0.94318629  0.70658696  1.0
  O  O144  1  0.49704256  0.79341130  0.55681108  1.0
  O  O145  1  0.50295321  0.05976219  0.29636882  1.0
  O  O146  1  0.23656391  0.94316846  0.29635195  1.0
  O  O147  1  0.76343071  0.20364816  0.55683370  1.0
  O  O148  1  0.76342643  0.05978374  0.70659922  1.0
  O  O149  1  0.23655987  0.79339402  0.44020962  1.0
  O  O150  1  0.35318173  0.05978409  0.55683263  1.0
  O  O151  1  0.35318238  0.79339496  0.29635386  1.0
  O  O152  1  0.64681153  0.94315914  0.44021208  1.0
  O  O153  1  0.64680816  0.20364303  0.70660262  1.0
  O  O154  1  0.39624411  0.94814079  0.55187068  1.0
  O  O155  1  0.60373958  0.15562305  0.55189081  1.0
  O  O156  1  0.60374213  0.94811683  0.55184985  1.0
  O  O157  1  0.39624492  0.94809678  0.34437342  1.0
  O  O158  1  0.57645006  0.03820094  0.46175881  1.0
  O  O159  1  0.42352980  0.88529808  0.46174096  1.0
  O  O160  1  0.57645730  0.03824687  0.61469899  1.0
  O  O161  1  0.42352431  0.03821776  0.46177965  1.0
  F  F162  1  0.94978629  0.32092354  0.82243636  1.0
  F  F163  1  0.05021582  0.67757039  0.17907557  1.0
  F  F164  1  0.94978852  0.12886493  0.62734947  1.0
  F  F165  1  0.05021247  0.87264765  0.37113737  1.0
  F  F166  1  0.49848979  0.32092125  0.62735637  1.0
  F  F167  1  0.49848479  0.67756591  0.37113444  1.0
  F  F168  1  0.50150617  0.87264367  0.17907736  1.0
  F  F169  1  0.50151818  0.12886682  0.82243538  1.0
  F  F170  1  0.69357168  0.87264312  0.82243349  1.0
  F  F171  1  0.30642278  0.12886463  0.17907144  1.0
  F  F172  1  0.69357338  0.32093016  0.37113787  1.0
  F  F173  1  0.30642642  0.67756053  0.62735226  1.0
