# generated using pymatgen
data_ZnH8(C5O2)2
_symmetry_space_group_name_H-M   'P 1'
_cell_length_a   12.99323636
_cell_length_b   16.92407118
_cell_length_c   17.83918651
_cell_angle_alpha   83.17079236
_cell_angle_beta   71.95143397
_cell_angle_gamma   67.42783223
_symmetry_Int_Tables_number   1
_chemical_formula_structural   ZnH8(C5O2)2
_chemical_formula_sum   'Zn8 H64 C80 O32'
_cell_volume   3444.07125797
_cell_formula_units_Z   8
loop_
 _symmetry_equiv_pos_site_id
 _symmetry_equiv_pos_as_xyz
  1  'x, y, z'
loop_
 _atom_site_type_symbol
 _atom_site_label
 _atom_site_symmetry_multiplicity
 _atom_site_fract_x
 _atom_site_fract_y
 _atom_site_fract_z
 _atom_site_occupancy
  Zn  Zn0  1  0.10563765  0.78872576  0.74999499  1.0
  Zn  Zn1  1  0.89436276  0.21127450  0.25000468  1.0
  Zn  Zn2  1  0.61750532  0.76489111  0.74997244  1.0
  Zn  Zn3  1  0.38249347  0.23510915  0.25002760  1.0
  Zn  Zn4  1  0.88883712  0.72290380  0.76117967  1.0
  Zn  Zn5  1  0.38813386  0.72299368  0.73880898  1.0
  Zn  Zn6  1  0.11116410  0.27709646  0.23881982  1.0
  Zn  Zn7  1  0.61186623  0.27700722  0.26119125  1.0
  H  H8  1  0.11124956  0.49472614  0.55389523  1.0
  H  H9  1  0.39410870  0.49476430  0.94607517  1.0
  H  H10  1  0.88875004  0.50527412  0.44610463  1.0
  H  H11  1  0.60589203  0.50523533  0.05392450  1.0
  H  H12  1  0.27704446  0.68552862  0.62629037  1.0
  H  H13  1  0.03740903  0.68553080  0.87381027  1.0
  H  H14  1  0.72295626  0.31447101  0.37370874  1.0
  H  H15  1  0.96259139  0.31446946  0.12618996  1.0
  H  H16  1  0.39589973  0.58042112  0.51887981  1.0
  H  H17  1  0.02375740  0.58037805  0.98118888  1.0
  H  H18  1  0.60410099  0.41957851  0.48111930  1.0
  H  H19  1  0.97624382  0.41962221  0.01881060  1.0
  H  H20  1  0.42160234  0.47179555  0.43481218  1.0
  H  H21  1  0.10678396  0.47174523  0.06523023  1.0
  H  H22  1  0.57839758  0.52820407  0.56518768  1.0
  H  H23  1  0.89321645  0.52825503  0.93477000  1.0
  H  H24  1  0.22229122  0.40626112  0.46000895  1.0
  H  H25  1  0.37160838  0.40632765  0.04002129  1.0
  H  H26  1  0.77770676  0.59373914  0.53999072  1.0
  H  H27  1  0.62839090  0.59367326  0.95997856  1.0
  H  H28  1  0.91815230  0.54348322  0.60443103  1.0
  H  H29  1  0.53838712  0.54349939  0.89545384  1.0
  H  H30  1  0.08184617  0.45651769  0.39556901  1.0
  H  H31  1  0.46161297  0.45650152  0.10454583  1.0
  H  H32  1  0.83268241  0.56835064  0.70429774  1.0
  H  H33  1  0.59895510  0.56835414  0.79557851  1.0
  H  H34  1  0.16731720  0.43164962  0.29570267  1.0
  H  H35  1  0.40104499  0.43164677  0.20442116  1.0
  H  H36  1  0.97430567  0.48357453  0.68306379  1.0
  H  H37  1  0.54216411  0.48355435  0.81682686  1.0
  H  H38  1  0.02569474  0.51642574  0.31693644  1.0
  H  H39  1  0.45783630  0.51644591  0.18317281  1.0
  H  H40  1  0.61186556  0.99805736  0.54794472  1.0
  H  H41  1  0.39018111  0.99804117  0.95208956  1.0
  H  H42  1  0.38813517  0.00194227  0.45205551  1.0
  H  H43  1  0.60981719  0.00195845  0.04791178  1.0
  H  H44  1  0.96549558  0.81290598  0.62635300  1.0
  H  H45  1  0.22149097  0.81305268  0.87367463  1.0
  H  H46  1  0.03450353  0.18709364  0.37364704  1.0
  H  H47  1  0.77850830  0.18694822  0.12632523  1.0
  H  H48  1  0.98018742  0.91755769  0.51839667  1.0
  H  H49  1  0.10226789  0.91762651  0.98169298  1.0
  H  H50  1  0.01981282  0.08244129  0.48160374  1.0
  H  H51  1  0.89773171  0.08237375  0.01830743  1.0
  H  H52  1  0.89894688  0.02352008  0.43227395  1.0
  H  H53  1  0.07762309  0.02358424  0.06780949  1.0
  H  H54  1  0.10105385  0.97647955  0.56772628  1.0
  H  H55  1  0.92237554  0.97641474  0.93219186  1.0
  H  H56  1  0.63365544  0.09128609  0.45891187  1.0
  H  H57  1  0.27510996  0.09142034  0.04102021  1.0
  H  H58  1  0.36634561  0.90871289  0.54108724  1.0
  H  H59  1  0.72488947  0.90857865  0.95897983  1.0
  H  H60  1  0.46480254  0.01038728  0.67912142  1.0
  H  H61  1  0.52482327  0.01040495  0.82090056  1.0
  H  H62  1  0.53519674  0.98961362  0.32087899  1.0
  H  H63  1  0.47517682  0.98959596  0.17910023  1.0
  H  H64  1  0.40535075  0.92680953  0.69919323  1.0
  H  H65  1  0.66785044  0.92681893  0.80081145  1.0
  H  H66  1  0.59464885  0.07319074  0.30080662  1.0
  H  H67  1  0.33214835  0.07318133  0.19918859  1.0
  H  H68  1  0.46569194  0.95331201  0.59983594  1.0
  H  H69  1  0.58098933  0.95330080  0.90016949  1.0
  H  H70  1  0.53430847  0.04668825  0.40016373  1.0
  H  H71  1  0.41901028  0.04669947  0.09983092  1.0
  C  C72  1  0.26307212  0.52964755  0.52816232  1.0
  C  C73  1  0.20737485  0.52965960  0.97185153  1.0
  C  C74  1  0.73692716  0.47035335  0.47183753  1.0
  C  C75  1  0.79262556  0.47034066  0.02814814  1.0
  C  C76  1  0.14783200  0.53645678  0.56928172  1.0
  C  C77  1  0.31579412  0.53646088  0.93068202  1.0
  C  C78  1  0.85216792  0.46354284  0.43071869  1.0
  C  C79  1  0.68420597  0.46354003  0.06931708  1.0
  C  C80  1  0.08082243  0.59642531  0.62851527  1.0
  C  C81  1  0.32279450  0.59642413  0.87143220  1.0
  C  C82  1  0.91917716  0.40357495  0.37148459  1.0
  C  C83  1  0.67720592  0.40357613  0.12856803  1.0
  C  C84  1  0.12579482  0.65171165  0.65071402  1.0
  C  C85  1  0.22248621  0.65170924  0.84929208  1.0
  C  C86  1  0.87420445  0.34828925  0.34928472  1.0
  C  C87  1  0.77751420  0.34829102  0.15070759  1.0
  C  C88  1  0.24020182  0.64422990  0.61037138  1.0
  C  C89  1  0.11558390  0.64422072  0.88967492  1.0
  C  C90  1  0.75979923  0.35576909  0.38962829  1.0
  C  C91  1  0.88441683  0.35577890  0.11032530  1.0
  C  C92  1  0.30728417  0.58447187  0.55004039  1.0
  C  C93  1  0.10829837  0.58446352  0.95001585  1.0
  C  C94  1  0.69271575  0.41552775  0.44995946  1.0
  C  C95  1  0.89170173  0.41553738  0.04998494  1.0
  C  C96  1  0.33505761  0.46982745  0.46391732  1.0
  C  C97  1  0.19527552  0.46983878  0.03610772  1.0
  C  C98  1  0.66494199  0.53017281  0.53608254  1.0
  C  C99  1  0.80472489  0.53016148  0.96389250  1.0
  C  C100  1  0.30625711  0.41321915  0.43504438  1.0
  C  C101  1  0.28068885  0.41327895  0.06499474  1.0
  C  C102  1  0.69374167  0.58678111  0.56495510  1.0
  C  C103  1  0.71931124  0.58672195  0.93500493  1.0
  C  C104  1  0.38423161  0.35819316  0.36678932  1.0
  C  C105  1  0.25774788  0.35828445  0.13328535  1.0
  C  C106  1  0.61576718  0.64180711  0.63321128  1.0
  C  C107  1  0.74225366  0.64171517  0.86671414  1.0
  C  C108  1  0.92141428  0.54661884  0.66478770  1.0
  C  C109  1  0.53198359  0.54660975  0.83509869  1.0
  C  C110  1  0.07858532  0.45338142  0.33521216  1.0
  C  C111  1  0.46801601  0.45339052  0.16490116  1.0
  C  C112  1  0.79767414  0.96560712  0.52492447  1.0
  C  C113  1  0.23676545  0.96565050  0.97510590  1.0
  C  C114  1  0.20232772  0.03439187  0.47507502  1.0
  C  C115  1  0.76323285  0.03434912  0.02489488  1.0
  C  C116  1  0.68957635  0.95736030  0.56458318  1.0
  C  C117  1  0.35314311  0.95735034  0.93546125  1.0
  C  C118  1  0.31042325  0.04263996  0.43541668  1.0
  C  C119  1  0.64685600  0.04264928  0.06453935  1.0
  C  C120  1  0.68218208  0.89741560  0.62378598  1.0
  C  C121  1  0.42040697  0.89745028  0.87621322  1.0
  C  C122  1  0.31781834  0.10258466  0.37621425  1.0
  C  C123  1  0.57959312  0.10255062  0.12378645  1.0
  C  C124  1  0.78180484  0.84367138  0.64776048  1.0
  C  C125  1  0.37447647  0.84374573  0.85223036  1.0
  C  C126  1  0.21819508  0.15632825  0.35223938  1.0
  C  C127  1  0.62552394  0.15625453  0.14776931  1.0
  C  C128  1  0.88831471  0.85276732  0.60869274  1.0
  C  C129  1  0.25888006  0.85284511  0.89135292  1.0
  C  C130  1  0.11168633  0.14723166  0.39130637  1.0
  C  C131  1  0.74111954  0.14715515  0.10864749  1.0
  C  C132  1  0.89603736  0.91217066  0.54822665  1.0
  C  C133  1  0.19180911  0.91222240  0.95183139  1.0
  C  C134  1  0.10396256  0.08782896  0.45177377  1.0
  C  C135  1  0.80818967  0.08777786  0.04816865  1.0
  C  C136  1  0.81025180  0.02593140  0.46143571  1.0
  C  C137  1  0.16389612  0.02599195  0.03858618  1.0
  C  C138  1  0.18974924  0.97406758  0.53856340  1.0
  C  C139  1  0.83610300  0.97400768  0.96141553  1.0
  C  C140  1  0.72465963  0.08386318  0.43354027  1.0
  C  C141  1  0.19155378  0.08396512  0.06642044  1.0
  C  C142  1  0.27534110  0.91613645  0.56645884  1.0
  C  C143  1  0.80844582  0.91603515  0.93357997  1.0
  C  C144  1  0.74673953  0.14012724  0.36663453  1.0
  C  C145  1  0.11317097  0.14028944  0.13328116  1.0
  C  C146  1  0.25326169  0.85987302  0.63336495  1.0
  C  C147  1  0.88682976  0.85971018  0.86671851  1.0
  C  C148  1  0.47300569  0.94815463  0.66010826  1.0
  C  C149  1  0.57884536  0.94815719  0.83989040  1.0
  C  C150  1  0.52699473  0.05184563  0.33989253  1.0
  C  C151  1  0.42115392  0.05184371  0.16011001  1.0
  O  O152  1  0.34255543  0.31356361  0.34048111  1.0
  O  O153  1  0.34406685  0.31365864  0.15958523  1.0
  O  O154  1  0.65744336  0.68643665  0.65951949  1.0
  O  O155  1  0.65593388  0.68634099  0.84041500  1.0
  O  O156  1  0.48709768  0.35974675  0.33754378  1.0
  O  O157  1  0.15330988  0.35987528  0.16256729  1.0
  O  O158  1  0.51290111  0.64025351  0.66245626  1.0
  O  O159  1  0.84669084  0.64012434  0.83743238  1.0
  O  O160  1  0.96764983  0.60925546  0.67053421  1.0
  O  O161  1  0.42312319  0.60923394  0.82935783  1.0
  O  O162  1  0.03234945  0.39074544  0.32946564  1.0
  O  O163  1  0.57687642  0.39076632  0.17064258  1.0
  O  O164  1  0.05595868  0.70853635  0.70922032  1.0
  O  O165  1  0.23547070  0.70852875  0.79077580  1.0
  O  O166  1  0.94404092  0.29146391  0.29078009  1.0
  O  O167  1  0.76452971  0.29147151  0.20922443  1.0
  O  O168  1  0.66022870  0.18584408  0.34117413  1.0
  O  O169  1  0.15395288  0.18604519  0.15871617  1.0
  O  O170  1  0.33977235  0.81415490  0.65882554  1.0
  O  O171  1  0.84604671  0.81395508  0.84128368  1.0
  O  O172  1  0.85072108  0.14016814  0.33750350  1.0
  O  O173  1  0.00912019  0.14040276  0.16237899  1.0
  O  O174  1  0.14928014  0.85983213  0.66249542  1.0
  O  O175  1  0.99088022  0.85959750  0.83762067  1.0
  O  O176  1  0.58157281  0.88395884  0.66468804  1.0
  O  O177  1  0.53446281  0.88397717  0.83528200  1.0
  O  O178  1  0.41842791  0.11604078  0.33531107  1.0
  O  O179  1  0.46553760  0.11602309  0.16471823  1.0
  O  O180  1  0.76855222  0.78845417  0.70702696  1.0
  O  O181  1  0.44288924  0.78853931  0.79294875  1.0
  O  O182  1  0.23144770  0.21154546  0.29297345  1.0
  O  O183  1  0.55711117  0.21146096  0.20705035  1.0
