# generated using pymatgen
data_CuH16C20S2(N2O3)2
_symmetry_space_group_name_H-M   'P 1'
_cell_length_a   11.12060043
_cell_length_b   11.13497086
_cell_length_c   16.91794941
_cell_angle_alpha   89.99737974
_cell_angle_beta   77.11802695
_cell_angle_gamma   89.99578445
_symmetry_Int_Tables_number   1
_chemical_formula_structural   CuH16C20S2(N2O3)2
_chemical_formula_sum   'Cu2 H32 C40 S4 N8 O12'
_cell_volume   2042.18247920
_cell_formula_units_Z   2
loop_
 _symmetry_equiv_pos_site_id
 _symmetry_equiv_pos_as_xyz
  1  'x, y, z'
loop_
 _atom_site_type_symbol
 _atom_site_label
 _atom_site_symmetry_multiplicity
 _atom_site_fract_x
 _atom_site_fract_y
 _atom_site_fract_z
 _atom_site_occupancy
  Cu  Cu0  1  0.49998591  0.44732610  0.74999814  1.0
  Cu  Cu1  1  0.50000289  0.55771749  0.25000906  1.0
  H  H2  1  0.27288743  0.52607950  0.86511741  1.0
  H  H3  1  0.04576527  0.53511319  0.86961123  1.0
  H  H4  1  0.12563689  0.37570825  0.63033152  1.0
  H  H5  1  0.34580180  0.36858583  0.63682754  1.0
  H  H6  1  0.38824962  0.25677016  0.86543387  1.0
  H  H7  1  0.38514634  0.03214997  0.87134259  1.0
  H  H8  1  0.55425605  0.86029998  0.86552341  1.0
  H  H9  1  0.55774160  0.63822479  0.85883953  1.0
  H  H10  1  0.72707929  0.52609266  0.63488434  1.0
  H  H11  1  0.95420105  0.53513265  0.63039314  1.0
  H  H12  1  0.87434553  0.37569796  0.86966899  1.0
  H  H13  1  0.65418236  0.36858505  0.86317663  1.0
  H  H14  1  0.61171097  0.25675038  0.63458084  1.0
  H  H15  1  0.61478773  0.03212737  0.62868610  1.0
  H  H16  1  0.44563574  0.86036876  0.63452826  1.0
  H  H17  1  0.44217082  0.63828383  0.64116726  1.0
  H  H18  1  0.72702794  0.49102077  0.13156839  1.0
  H  H19  1  0.95362335  0.47625562  0.12694318  1.0
  H  H20  1  0.87397702  0.60761901  0.37398033  1.0
  H  H21  1  0.65447675  0.61700721  0.36850211  1.0
  H  H22  1  0.50026287  0.74989453  0.12679535  1.0
  H  H23  1  0.50209079  0.97075276  0.12163122  1.0
  H  H24  1  0.41976589  0.14668022  0.14409133  1.0
  H  H25  1  0.42248740  0.36700027  0.14860802  1.0
  H  H26  1  0.27299740  0.49098323  0.36842962  1.0
  H  H27  1  0.04640591  0.47620902  0.37305619  1.0
  H  H28  1  0.12600820  0.60766895  0.12603980  1.0
  H  H29  1  0.34551154  0.61705853  0.13151015  1.0
  H  H30  1  0.49974278  0.74990608  0.37319672  1.0
  H  H31  1  0.49805688  0.97076700  0.37831759  1.0
  H  H32  1  0.58043079  0.14664663  0.35585366  1.0
  H  H33  1  0.57753651  0.36697435  0.35141446  1.0
  C  C34  1  0.23481221  0.49420641  0.81487978  1.0
  C  C35  1  0.10935486  0.49759730  0.81689595  1.0
  C  C36  1  0.06635338  0.45509523  0.75007471  1.0
  C  C37  1  0.15324197  0.40985847  0.68396043  1.0
  C  C38  1  0.27710426  0.40596466  0.68698418  1.0
  C  C39  1  0.43731779  0.20277452  0.81481194  1.0
  C  C40  1  0.43671466  0.07805932  0.81747614  1.0
  C  C41  1  0.52967589  0.81537809  0.81409909  1.0
  C  C42  1  0.53122884  0.69063862  0.81121775  1.0
  C  C43  1  0.76515617  0.49421793  0.68512257  1.0
  C  C44  1  0.89061152  0.49761377  0.68310767  1.0
  C  C45  1  0.93361762  0.45509811  0.74993021  1.0
  C  C46  1  0.84673672  0.40985506  0.81604200  1.0
  C  C47  1  0.72287377  0.40596439  0.81301613  1.0
  C  C48  1  0.56263919  0.20275921  0.68520788  1.0
  C  C49  1  0.56322938  0.07804314  0.68255059  1.0
  C  C50  1  0.47023757  0.81540537  0.68593365  1.0
  C  C51  1  0.46869284  0.69066596  0.68879457  1.0
  C  C52  1  0.76522993  0.51553951  0.18335240  1.0
  C  C53  1  0.89046764  0.50914998  0.18141752  1.0
  C  C54  1  0.93371291  0.54286976  0.25011297  1.0
  C  C55  1  0.84673763  0.58084378  0.31857783  1.0
  C  C56  1  0.72299162  0.58682110  0.31587895  1.0
  C  C57  1  0.49995792  0.80180025  0.18144461  1.0
  C  C58  1  0.50005157  0.92642208  0.17929365  1.0
  C  C59  1  0.45614996  0.19042237  0.19138132  1.0
  C  C60  1  0.45692974  0.31499109  0.19338900  1.0
  C  C61  1  0.23478167  0.51552165  0.31665029  1.0
  C  C62  1  0.10954586  0.50912983  0.31858641  1.0
  C  C63  1  0.06629376  0.54287229  0.24989799  1.0
  C  C64  1  0.15325690  0.58086793  0.18143646  1.0
  C  C65  1  0.27700496  0.58684753  0.18413010  1.0
  C  C66  1  0.50007529  0.80180754  0.31854023  1.0
  C  C67  1  0.50006464  0.92642839  0.32066311  1.0
  C  C68  1  0.54403805  0.19040538  0.30856753  1.0
  C  C69  1  0.54315784  0.31497876  0.30660463  1.0
  C  C70  1  0.49997249  0.01293161  0.75001797  1.0
  C  C71  1  0.49996077  0.88023878  0.75001894  1.0
  C  C72  1  0.50008430  0.99234637  0.24997124  1.0
  C  C73  1  0.50010814  0.12487576  0.24996709  1.0
  S  S74  1  0.45027806  0.41770971  0.98133973  1.0
  S  S75  1  0.54971002  0.41771019  0.51865653  1.0
  S  S76  1  0.55208134  0.57182411  0.01589499  1.0
  S  S77  1  0.44789953  0.57183636  0.48409642  1.0
  N  N78  1  0.31698839  0.44798738  0.75117515  1.0
  N  N79  1  0.68298399  0.44798949  0.74882578  1.0
  N  N80  1  0.68307296  0.55508044  0.24942129  1.0
  N  N81  1  0.31693023  0.55508465  0.25058304  1.0
  N  N82  1  0.49998190  0.26407282  0.75000908  1.0
  N  N83  1  0.49996887  0.62970018  0.75000033  1.0
  N  N84  1  0.50000151  0.74015623  0.24999699  1.0
  N  N85  1  0.50001887  0.37599003  0.25000876  1.0
  O  O86  1  0.43660131  0.45160614  0.89900648  1.0
  O  O87  1  0.33309085  0.41423865  0.04159988  1.0
  O  O88  1  0.53007518  0.31279076  0.98134060  1.0
  O  O89  1  0.56337845  0.45158583  0.60099224  1.0
  O  O90  1  0.66689807  0.41424812  0.45839740  1.0
  O  O91  1  0.46992448  0.31279564  0.51864524  1.0
  O  O92  1  0.56033224  0.54341247  0.10009129  1.0
  O  O93  1  0.67108441  0.57359139  0.95774048  1.0
  O  O94  1  0.47259090  0.67638659  0.01176595  1.0
  O  O95  1  0.43968079  0.54342971  0.39989465  1.0
  O  O96  1  0.32887690  0.57361289  0.54223145  1.0
  O  O97  1  0.52737573  0.67639342  0.48823503  1.0
