# generated using pymatgen
data_CdH18C26(N2Cl)2
_symmetry_space_group_name_H-M   'P 1'
_cell_length_a   13.27356548
_cell_length_b   16.23731519
_cell_length_c   16.23733712
_cell_angle_alpha   112.87251097
_cell_angle_beta   105.81342081
_cell_angle_gamma   105.81316186
_symmetry_Int_Tables_number   1
_chemical_formula_structural   CdH18C26(N2Cl)2
_chemical_formula_sum   'Cd3 H54 C78 N12 Cl6'
_cell_volume   2805.53399624
_cell_formula_units_Z   3
loop_
 _symmetry_equiv_pos_site_id
 _symmetry_equiv_pos_as_xyz
  1  'x, y, z'
loop_
 _atom_site_type_symbol
 _atom_site_label
 _atom_site_symmetry_multiplicity
 _atom_site_fract_x
 _atom_site_fract_y
 _atom_site_fract_z
 _atom_site_occupancy
  Cd  Cd0  1  0.50000338  0.50000164  0.99999965  1.0
  Cd  Cd1  1  0.49999830  0.99999956  0.49999971  1.0
  Cd  Cd2  1  0.99999991  0.49999828  0.49999908  1.0
  H  H3  1  0.39139924  0.56268736  0.84599890  1.0
  H  H4  1  0.37047587  0.54896272  0.68222697  1.0
  H  H5  1  0.64209196  0.44904135  0.70303068  1.0
  H  H6  1  0.65063836  0.46720573  0.86590775  1.0
  H  H7  1  0.54544369  0.15400665  0.71669696  1.0
  H  H8  1  0.68827093  0.31778289  0.86673134  1.0
  H  H9  1  0.93905821  0.29695818  0.74594999  1.0
  H  H10  1  0.78468559  0.13409488  0.60121216  1.0
  H  H11  1  0.82874815  0.28328262  0.43727297  1.0
  H  H12  1  0.82156354  0.13320648  0.45091632  1.0
  H  H13  1  0.19320452  0.25404004  0.55102888  1.0
  H  H14  1  0.18344302  0.39875194  0.53286229  1.0
  H  H15  1  0.45455585  0.28330266  0.84599278  1.0
  H  H16  1  0.31172799  0.13326836  0.68221725  1.0
  H  H17  1  0.06094109  0.25405008  0.70304076  1.0
  H  H18  1  0.21531360  0.39878863  0.86590395  1.0
  H  H19  1  0.17125209  0.56272532  0.71671688  1.0
  H  H20  1  0.17843657  0.54908299  0.86679333  1.0
  H  H21  1  0.80679600  0.44897135  0.74596051  1.0
  H  H22  1  0.81655551  0.46713684  0.60124647  1.0
  H  H23  1  0.60859901  0.15400166  0.43731143  1.0
  H  H24  1  0.62952230  0.31777157  0.45103700  1.0
  H  H25  1  0.35790677  0.29696819  0.55095916  1.0
  H  H26  1  0.34936205  0.13409256  0.53279360  1.0
  H  H27  1  0.60860063  0.43731334  0.15400132  1.0
  H  H28  1  0.62952326  0.45103650  0.31777067  1.0
  H  H29  1  0.35790755  0.55095862  0.29696671  1.0
  H  H30  1  0.34936036  0.53279423  0.13408946  1.0
  H  H31  1  0.45455507  0.84599183  0.28330154  1.0
  H  H32  1  0.31172779  0.68221707  0.13326896  1.0
  H  H33  1  0.06094171  0.70304104  0.25405151  1.0
  H  H34  1  0.21531548  0.86590508  0.39878866  1.0
  H  H35  1  0.17125333  0.71671660  0.56272704  1.0
  H  H36  1  0.17843909  0.86679349  0.54908423  1.0
  H  H37  1  0.80679692  0.74596066  0.44897231  1.0
  H  H38  1  0.81655689  0.60124729  0.46713799  1.0
  H  H39  1  0.54544324  0.71669804  0.15400727  1.0
  H  H40  1  0.68827193  0.86673087  0.31778303  1.0
  H  H41  1  0.93905961  0.74594914  0.29695846  1.0
  H  H42  1  0.78468549  0.60121208  0.13409486  1.0
  H  H43  1  0.82874745  0.43727317  0.28328241  1.0
  H  H44  1  0.82156335  0.45091623  0.13320571  1.0
  H  H45  1  0.19320470  0.55102787  0.25403933  1.0
  H  H46  1  0.18344326  0.53286165  0.39875202  1.0
  H  H47  1  0.39140045  0.84599978  0.56268714  1.0
  H  H48  1  0.37047642  0.68222839  0.54896207  1.0
  H  H49  1  0.64209195  0.70303177  0.44904113  1.0
  H  H50  1  0.65063820  0.86590888  0.46720576  1.0
  H  H51  1  0.50013409  0.63735131  0.63734895  1.0
  H  H52  1  0.86289113  0.36258888  0.99999020  1.0
  H  H53  1  0.86289213  0.99998990  0.36258930  1.0
  H  H54  1  0.13710779  0.00000932  0.63741097  1.0
  H  H55  1  0.13710800  0.63741034  0.00000867  1.0
  H  H56  1  0.49986532  0.36265161  0.36265450  1.0
  C  C57  1  0.44533993  0.53807638  0.81112780  1.0
  C  C58  1  0.43442631  0.53032078  0.72044871  1.0
  C  C59  1  0.50513655  0.49731615  0.67850641  1.0
  C  C60  1  0.58446798  0.47415681  0.73175391  1.0
  C  C61  1  0.59029868  0.48468334  0.82235816  1.0
  C  C62  1  0.49924536  0.49363083  0.58464483  1.0
  C  C63  1  0.63423305  0.18890233  0.72694633  1.0
  C  C64  1  0.71400276  0.27960684  0.80983044  1.0
  C  C65  1  0.82666624  0.32150448  0.81878184  1.0
  C  C66  1  0.85271907  0.26826855  0.74235283  1.0
  C  C67  1  0.76795301  0.17765650  0.66228327  1.0
  C  C68  1  0.91460446  0.41534776  0.90898061  1.0
  C  C69  1  0.90727724  0.27300196  0.46188406  1.0
  C  C70  1  0.90417943  0.19009815  0.46966210  1.0
  C  C71  1  0.00789967  0.18118731  0.50268564  1.0
  C  C72  1  0.11041918  0.25756797  0.52583869  1.0
  C  C73  1  0.10566897  0.33761261  0.51527040  1.0
  C  C74  1  0.00557916  0.09099553  0.50639391  1.0
  C  C75  1  0.36576572  0.27305274  0.81109698  1.0
  C  C76  1  0.28599681  0.19016930  0.72039342  1.0
  C  C77  1  0.17333309  0.18121817  0.67849547  1.0
  C  C78  1  0.14727991  0.25764753  0.73173146  1.0
  C  C79  1  0.23204615  0.33771718  0.82234232  1.0
  C  C80  1  0.08539483  0.09101786  0.58465337  1.0
  C  C81  1  0.09272120  0.53811419  0.72699726  1.0
  C  C82  1  0.09582089  0.53033659  0.80990179  1.0
  C  C83  1  0.99210004  0.49731283  0.81881240  1.0
  C  C84  1  0.88958137  0.47416083  0.74243090  1.0
  C  C85  1  0.89433010  0.48472960  0.66238637  1.0
  C  C86  1  0.99442181  0.49360593  0.90900405  1.0
  C  C87  1  0.55465858  0.18887123  0.46192213  1.0
  C  C88  1  0.56557232  0.27955221  0.46967963  1.0
  C  C89  1  0.49486707  0.32149690  0.50268865  1.0
  C  C90  1  0.41553209  0.26824522  0.52584345  1.0
  C  C91  1  0.40970054  0.17764030  0.51531476  1.0
  C  C92  1  0.50075895  0.41535883  0.50637482  1.0
  C  C93  1  0.55465879  0.46192358  0.18887188  1.0
  C  C94  1  0.56557278  0.46967992  0.27955134  1.0
  C  C95  1  0.49486287  0.50268677  0.32149457  1.0
  C  C96  1  0.41553300  0.52584611  0.26824557  1.0
  C  C97  1  0.40970157  0.51531810  0.17764059  1.0
  C  C98  1  0.50075830  0.50637431  0.41535858  1.0
  C  C99  1  0.36576571  0.81109616  0.27305278  1.0
  C  C100  1  0.28599712  0.72039386  0.19016978  1.0
  C  C101  1  0.17333285  0.67849622  0.18121821  1.0
  C  C102  1  0.14728081  0.73173215  0.25764678  1.0
  C  C103  1  0.23204690  0.82234272  0.33771700  1.0
  C  C104  1  0.08539385  0.58465294  0.09101803  1.0
  C  C105  1  0.09272305  0.72699801  0.53811473  1.0
  C  C106  1  0.09582242  0.80990182  0.53033704  1.0
  C  C107  1  0.99210218  0.81881265  0.49731474  1.0
  C  C108  1  0.88958309  0.74243125  0.47416211  1.0
  C  C109  1  0.89433246  0.66238809  0.48473140  1.0
  C  C110  1  0.99442384  0.90900517  0.49360578  1.0
  C  C111  1  0.63423415  0.72694796  0.18890386  1.0
  C  C112  1  0.71400348  0.80983066  0.27960661  1.0
  C  C113  1  0.82666720  0.81878180  0.32150517  1.0
  C  C114  1  0.85271959  0.74235243  0.26826840  1.0
  C  C115  1  0.76795335  0.66228279  0.17765753  1.0
  C  C116  1  0.91460702  0.90898210  0.41534701  1.0
  C  C117  1  0.90727987  0.46188577  0.27300294  1.0
  C  C118  1  0.90417903  0.46966263  0.19009849  1.0
  C  C119  1  0.00789873  0.50268565  0.18118795  1.0
  C  C120  1  0.11041892  0.52583913  0.25756789  1.0
  C  C121  1  0.10567018  0.51527036  0.33761304  1.0
  C  C122  1  0.00557655  0.50639329  0.09099465  1.0
  C  C123  1  0.44534093  0.81112873  0.53807649  1.0
  C  C124  1  0.43442599  0.72044849  0.53031901  1.0
  C  C125  1  0.50513547  0.67850602  0.49731241  1.0
  C  C126  1  0.58446742  0.73175474  0.47415517  1.0
  C  C127  1  0.59029818  0.82235966  0.48468307  1.0
  C  C128  1  0.49924046  0.58464409  0.49362863  1.0
  C  C129  1  0.49779348  0.57577766  0.57577729  1.0
  C  C130  1  0.92200562  0.42421129  0.99998490  1.0
  C  C131  1  0.92200616  0.99998461  0.42421069  1.0
  C  C132  1  0.07799454  0.00001461  0.57578852  1.0
  C  C133  1  0.07799389  0.57578867  0.00001496  1.0
  C  C134  1  0.50221018  0.42422747  0.42422735  1.0
  N  N135  1  0.52171152  0.51585927  0.86168989  1.0
  N  N136  1  0.66002661  0.13832890  0.65415202  1.0
  N  N137  1  0.00589569  0.34580913  0.48416523  1.0
  N  N138  1  0.33997349  0.34584844  0.86167006  1.0
  N  N139  1  0.99410244  0.51583356  0.65419001  1.0
  N  N140  1  0.47828918  0.13830996  0.48414153  1.0
  N  N141  1  0.47828720  0.48414069  0.13830733  1.0
  N  N142  1  0.33997330  0.86167032  0.34584763  1.0
  N  N143  1  0.99410575  0.65419157  0.51583472  1.0
  N  N144  1  0.66002638  0.65415226  0.13832955  1.0
  N  N145  1  0.00589863  0.48416641  0.34581080  1.0
  N  N146  1  0.52171106  0.86169148  0.51585844  1.0
  Cl  Cl147  1  0.64072872  0.41506026  0.00001329  1.0
  Cl  Cl148  1  0.64072620  0.00001357  0.41506065  1.0
  Cl  Cl149  1  0.22565635  0.58497560  0.58497508  1.0
  Cl  Cl150  1  0.35927391  0.58493971  0.99998603  1.0
  Cl  Cl151  1  0.77434389  0.41502584  0.41502366  1.0
  Cl  Cl152  1  0.35927252  0.99998640  0.58493903  1.0
