# generated using pymatgen
data_AlH7C13NO9
_symmetry_space_group_name_H-M   'P 1'
_cell_length_a   6.81922915
_cell_length_b   11.03033360
_cell_length_c   15.21698966
_cell_angle_alpha   83.64578417
_cell_angle_beta   78.62575118
_cell_angle_gamma   72.94701512
_symmetry_Int_Tables_number   1
_chemical_formula_structural   AlH7C13NO9
_chemical_formula_sum   'Al2 H14 C26 N2 O18'
_cell_volume   1071.07596244
_cell_formula_units_Z   2
loop_
 _symmetry_equiv_pos_site_id
 _symmetry_equiv_pos_as_xyz
  1  'x, y, z'
loop_
 _atom_site_type_symbol
 _atom_site_label
 _atom_site_symmetry_multiplicity
 _atom_site_fract_x
 _atom_site_fract_y
 _atom_site_fract_z
 _atom_site_occupancy
  Al  Al0  1  0.49967304  0.50805661  0.49023882  1.0
  Al  Al1  1  0.99780091  0.51329132  0.48937938  1.0
  H  H2  1  0.25861313  0.59600099  0.38504891  1.0
  H  H3  1  0.78312771  0.37263729  0.56345280  1.0
  H  H4  1  0.26103862  0.53097091  0.05938409  1.0
  H  H5  1  0.71759403  0.51568113  0.92237319  1.0
  H  H6  1  0.43996007  0.47833621  0.76696489  1.0
  H  H7  1  0.36769619  0.45532078  0.93352805  1.0
  H  H8  1  0.61815779  0.42489788  0.21741011  1.0
  H  H9  1  0.70930988  0.41782479  0.05138108  1.0
  H  H10  1  0.86214194  0.77374533  0.61691857  1.0
  H  H11  1  0.58372433  0.23992060  0.63092903  1.0
  H  H12  1  0.09741963  0.22014905  0.45003905  1.0
  H  H13  1  0.31713051  0.79067211  0.45462979  1.0
  H  H14  1  0.07762425  0.78995457  0.70816104  1.0
  H  H15  1  0.81547668  0.22157468  0.72706483  1.0
  C  C16  1  0.63820096  0.73710394  0.50242093  1.0
  C  C17  1  0.82195132  0.49178918  0.33072680  1.0
  C  C18  1  0.34655947  0.28041614  0.50315989  1.0
  C  C19  1  0.18054636  0.51535449  0.65079350  1.0
  C  C20  1  0.88563310  0.47805274  0.23170804  1.0
  C  C21  1  0.12869971  0.50624185  0.75102721  1.0
  C  C22  1  0.07161507  0.49943745  0.18460763  1.0
  C  C23  1  0.12022460  0.50541468  0.09176296  1.0
  C  C24  1  0.92886763  0.51025594  0.79753545  1.0
  C  C25  1  0.87895784  0.50462081  0.89046379  1.0
  C  C26  1  0.28312178  0.48794973  0.80311711  1.0
  C  C27  1  0.23984542  0.47613261  0.89607710  1.0
  C  C28  1  0.75747296  0.44861436  0.18102705  1.0
  C  C29  1  0.80854573  0.44687909  0.08806232  1.0
  C  C30  1  0.98658907  0.48011877  0.04113458  1.0
  C  C31  1  0.03574868  0.48713957  0.94212959  1.0
  C  C32  1  0.54930148  0.87263084  0.51909483  1.0
  C  C33  1  0.64435716  0.94002334  0.56724373  1.0
  C  C34  1  0.36719824  0.93803918  0.48491633  1.0
  C  C35  1  0.80159966  0.87639067  0.61786399  1.0
  C  C36  1  0.87900443  0.93967303  0.67025371  1.0
  C  C37  1  0.40223522  0.14215777  0.52034283  1.0
  C  C38  1  0.29555202  0.07389285  0.48424818  1.0
  C  C39  1  0.56749704  0.07539375  0.56949720  1.0
  C  C40  1  0.64734335  0.13785835  0.62479796  1.0
  C  C41  1  0.79906193  0.07312807  0.67479955  1.0
  N  N42  1  0.23417312  0.50552271  0.23344121  1.0
  N  N43  1  0.76062746  0.51705855  0.74841416  1.0
  O  O44  1  0.51528039  0.67812211  0.48137051  1.0
  O  O45  1  0.95314562  0.51794650  0.36942054  1.0
  O  O46  1  0.16306370  0.33693708  0.48307613  1.0
  O  O47  1  0.35712863  0.52969135  0.61491696  1.0
  O  O48  1  0.47949846  0.33953250  0.50670218  1.0
  O  O49  1  0.03954621  0.50696802  0.61007404  1.0
  O  O50  1  0.82946918  0.68267295  0.50489079  1.0
  O  O51  1  0.64340444  0.48097212  0.36709762  1.0
  O  O52  1  0.24161595  0.56718572  0.44830103  1.0
  O  O53  1  0.75924457  0.45357250  0.52925159  1.0
  O  O54  1  0.33488439  0.40142371  0.26248484  1.0
  O  O55  1  0.26575068  0.60931439  0.23849950  1.0
  O  O56  1  0.74222045  0.41294684  0.73249385  1.0
  O  O57  1  0.64370417  0.62176559  0.73149149  1.0
  O  O58  1  0.13071858  0.12689714  0.44327476  1.0
  O  O59  1  0.25418900  0.88430419  0.44689726  1.0
  O  O60  1  0.02961385  0.87961811  0.72067518  1.0
  O  O61  1  0.87752266  0.12974087  0.73005118  1.0
