# generated using pymatgen
data_CoH18C18(NO3)2
_symmetry_space_group_name_H-M   'P 1'
_cell_length_a   9.34893195
_cell_length_b   13.00549818
_cell_length_c   19.89996217
_cell_angle_alpha   109.06138875
_cell_angle_beta   102.76349358
_cell_angle_gamma   90.03312479
_symmetry_Int_Tables_number   1
_chemical_formula_structural   CoH18C18(NO3)2
_chemical_formula_sum   'Co4 H72 C72 N8 O24'
_cell_volume   2223.45731800
_cell_formula_units_Z   4
loop_
 _symmetry_equiv_pos_site_id
 _symmetry_equiv_pos_as_xyz
  1  'x, y, z'
loop_
 _atom_site_type_symbol
 _atom_site_label
 _atom_site_symmetry_multiplicity
 _atom_site_fract_x
 _atom_site_fract_y
 _atom_site_fract_z
 _atom_site_occupancy
  Co  Co0  1  0.82504457  0.41105442  0.27501297  1.0
  Co  Co1  1  0.67492260  0.13640684  0.72496347  1.0
  Co  Co2  1  0.17498881  0.58891462  0.72499181  1.0
  Co  Co3  1  0.32512096  0.86363905  0.27503330  1.0
  H  H4  1  0.13032926  0.42633498  0.24676780  1.0
  H  H5  1  0.38997784  0.45349953  0.31895096  1.0
  H  H6  1  0.22104645  0.48065915  0.50925946  1.0
  H  H7  1  0.96939451  0.45095603  0.42845631  1.0
  H  H8  1  0.84505506  0.35909203  0.11745850  1.0
  H  H9  1  0.91066254  0.20488586  0.01947910  1.0
  H  H10  1  0.99321301  0.02898927  0.17393427  1.0
  H  H11  1  0.92443957  0.19024465  0.26438078  1.0
  H  H12  1  0.56350935  0.48415826  0.43230742  1.0
  H  H13  1  0.03103807  0.93902839  0.05585338  1.0
  H  H14  1  0.53771274  0.73307526  0.40647044  1.0
  H  H15  1  0.84819658  0.68579001  0.47637165  1.0
  H  H16  1  0.95693853  0.81625513  0.60097694  1.0
  H  H17  1  0.63285243  0.85129026  0.54278969  1.0
  H  H18  1  0.57450227  0.46178430  0.22712466  1.0
  H  H19  1  0.56424719  0.34315506  0.23519858  1.0
  H  H20  1  0.94703007  0.58837959  0.25323088  1.0
  H  H21  1  0.77225418  0.57491343  0.23385208  1.0
  H  H22  1  0.36972041  0.17968393  0.75325628  1.0
  H  H23  1  0.11004392  0.13451620  0.68105444  1.0
  H  H24  1  0.27894057  0.97146377  0.49078025  1.0
  H  H25  1  0.53060877  0.02283697  0.57155498  1.0
  H  H26  1  0.65515797  0.24234646  0.88283546  1.0
  H  H27  1  0.58948337  0.18572064  0.98071750  1.0
  H  H28  1  0.50601981  0.85571782  0.82585311  1.0
  H  H29  1  0.57483922  0.92687968  0.73556218  1.0
  H  H30  1  0.93653649  0.05198787  0.56774081  1.0
  H  H31  1  0.46889416  0.88322062  0.94394350  1.0
  H  H32  1  0.96220784  0.32704179  0.59348611  1.0
  H  H33  1  0.65179146  0.20946711  0.52374875  1.0
  H  H34  1  0.54256092  0.21537313  0.39917956  1.0
  H  H35  1  0.86680605  0.30856012  0.45706607  1.0
  H  H36  1  0.92574665  0.23486512  0.77293279  1.0
  H  H37  1  0.93559947  0.10809681  0.76472258  1.0
  H  H38  1  0.55296205  0.33533953  0.74672479  1.0
  H  H39  1  0.72775354  0.34135077  0.76614228  1.0
  H  H40  1  0.86973284  0.57362501  0.75325658  1.0
  H  H41  1  0.61006373  0.54650444  0.68109386  1.0
  H  H42  1  0.77892113  0.51935050  0.49077695  1.0
  H  H43  1  0.03059105  0.54901705  0.57154744  1.0
  H  H44  1  0.15493417  0.64091617  0.88254766  1.0
  H  H45  1  0.08922013  0.79513223  0.98048959  1.0
  H  H46  1  0.00669525  0.97094980  0.82599640  1.0
  H  H47  1  0.07558092  0.80970741  0.73558685  1.0
  H  H48  1  0.43648313  0.51586844  0.56775181  1.0
  H  H49  1  0.96876911  0.06093997  0.94408024  1.0
  H  H50  1  0.46229868  0.26690349  0.59354774  1.0
  H  H51  1  0.15182287  0.31419199  0.52364906  1.0
  H  H52  1  0.04309372  0.18375557  0.39902967  1.0
  H  H53  1  0.36717839  0.14870653  0.45722232  1.0
  H  H54  1  0.42550867  0.53820013  0.77290023  1.0
  H  H55  1  0.43575651  0.65681311  0.76481050  1.0
  H  H56  1  0.05298128  0.41161960  0.74678517  1.0
  H  H57  1  0.22775817  0.42507432  0.76616563  1.0
  H  H58  1  0.63031487  0.82036594  0.24675959  1.0
  H  H59  1  0.88998177  0.86551480  0.31897497  1.0
  H  H60  1  0.72104715  0.02856065  0.50924634  1.0
  H  H61  1  0.46938664  0.97718840  0.42845151  1.0
  H  H62  1  0.34484481  0.75765525  0.11716367  1.0
  H  H63  1  0.41046173  0.81420283  0.01923772  1.0
  H  H64  1  0.49396477  0.14425013  0.17404340  1.0
  H  H65  1  0.42516201  0.07316243  0.26436861  1.0
  H  H66  1  0.06346287  0.94805281  0.43230506  1.0
  H  H67  1  0.53109147  0.11668355  0.05596097  1.0
  H  H68  1  0.03780879  0.67299743  0.40653057  1.0
  H  H69  1  0.34823361  0.79056883  0.47627010  1.0
  H  H70  1  0.45744425  0.78461954  0.60083093  1.0
  H  H71  1  0.13320192  0.69145954  0.54293998  1.0
  H  H72  1  0.07430582  0.76517086  0.22708588  1.0
  H  H73  1  0.06445253  0.89193517  0.23528110  1.0
  H  H74  1  0.44705829  0.66468251  0.25329711  1.0
  H  H75  1  0.27227280  0.65868680  0.23387856  1.0
  C  C76  1  0.15579663  0.43936613  0.30525315  1.0
  C  C77  1  0.29988143  0.45517686  0.34573393  1.0
  C  C78  1  0.32917227  0.47128181  0.42104849  1.0
  C  C79  1  0.20702268  0.46955911  0.45145013  1.0
  C  C80  1  0.06669341  0.45318012  0.40718361  1.0
  C  C81  1  0.87841585  0.28367777  0.12693498  1.0
  C  C82  1  0.91524039  0.19705642  0.07275738  1.0
  C  C83  1  0.95817582  0.10109384  0.08745389  1.0
  C  C84  1  0.96107892  0.09988389  0.15814081  1.0
  C  C85  1  0.92341977  0.19007732  0.20952215  1.0
  C  C86  1  0.47963741  0.48900377  0.46340153  1.0
  C  C87  1  0.99917828  0.00572498  0.03492964  1.0
  C  C88  1  0.66453360  0.60648781  0.34710375  1.0
  C  C89  1  0.64030998  0.69326923  0.41251696  1.0
  C  C90  1  0.74563577  0.72611560  0.47560426  1.0
  C  C91  1  0.84352734  0.94752721  0.66432828  1.0
  C  C92  1  0.85043478  0.85101351  0.60006936  1.0
  C  C93  1  0.73628385  0.81257631  0.54106948  1.0
  C  C94  1  0.34423749  0.13425479  0.69476485  1.0
  C  C95  1  0.20015574  0.10949427  0.65429318  1.0
  C  C96  1  0.17085252  0.05027857  0.57898150  1.0
  C  C97  1  0.29297701  0.01818827  0.54858132  1.0
  C  C98  1  0.43330240  0.04622943  0.59282540  1.0
  C  C99  1  0.62153563  0.15742626  0.87324247  1.0
  C  C100  1  0.58465977  0.12476832  0.92736080  1.0
  C  C101  1  0.54148414  0.01408088  0.91253458  1.0
  C  C102  1  0.53824419  0.94241503  0.84175220  1.0
  C  C103  1  0.57594112  0.98142025  0.79044856  1.0
  C  C104  1  0.02036796  0.02565978  0.53664064  1.0
  C  C105  1  0.50066370  0.97087093  0.96496204  1.0
  C  C106  1  0.83548482  0.25973356  0.65293763  1.0
  C  C107  1  0.85968954  0.28107139  0.58749821  1.0
  C  C108  1  0.75424983  0.25068212  0.52444044  1.0
  C  C109  1  0.65596895  0.28307637  0.33564771  1.0
  C  C110  1  0.64908005  0.25100817  0.40000236  1.0
  C  C111  1  0.76337986  0.27163634  0.45892502  1.0
  C  C112  1  0.84425944  0.56060934  0.69477646  1.0
  C  C113  1  0.70015405  0.54482139  0.65430903  1.0
  C  C114  1  0.67083441  0.52873434  0.57900139  1.0
  C  C115  1  0.79297525  0.53044731  0.54858469  1.0
  C  C116  1  0.93331084  0.54680354  0.59283238  1.0
  C  C117  1  0.12154629  0.71631337  0.87304814  1.0
  C  C118  1  0.08465545  0.80293069  0.92720197  1.0
  C  C119  1  0.04168883  0.89887861  0.91249004  1.0
  C  C120  1  0.03883066  0.90006737  0.84180217  1.0
  C  C121  1  0.07656233  0.80987473  0.79044203  1.0
  C  C122  1  0.52035768  0.51102703  0.53665584  1.0
  C  C123  1  0.00066087  0.99424504  0.96500662  1.0
  C  C124  1  0.33548656  0.39351133  0.65292325  1.0
  C  C125  1  0.35971440  0.30672828  0.58751063  1.0
  C  C126  1  0.25439086  0.27387211  0.52441993  1.0
  C  C127  1  0.15651141  0.05250396  0.33567085  1.0
  C  C128  1  0.14960552  0.14900041  0.39994581  1.0
  C  C129  1  0.26374125  0.18741798  0.45894894  1.0
  C  C130  1  0.65579560  0.86578442  0.30525553  1.0
  C  C131  1  0.79986937  0.89054161  0.34573722  1.0
  C  C132  1  0.82915243  0.94975320  0.42104946  1.0
  C  C133  1  0.70701719  0.98183537  0.45144075  1.0
  C  C134  1  0.56670079  0.95379674  0.40718608  1.0
  C  C135  1  0.37846103  0.84256010  0.12672659  1.0
  C  C136  1  0.41530750  0.87517890  0.07258674  1.0
  C  C137  1  0.45848685  0.98586076  0.08739054  1.0
  C  C138  1  0.46174239  0.05756100  0.15816083  1.0
  C  C139  1  0.42405604  0.01859326  0.20948419  1.0
  C  C140  1  0.97962194  0.97437436  0.46340184  1.0
  C  C141  1  0.49932145  0.02903894  0.03494713  1.0
  C  C142  1  0.16452522  0.74029503  0.34707809  1.0
  C  C143  1  0.14033106  0.71896374  0.41252101  1.0
  C  C144  1  0.24576443  0.74935547  0.47557615  1.0
  C  C145  1  0.34402309  0.71688529  0.66435474  1.0
  C  C146  1  0.35092236  0.74898938  0.60001292  1.0
  C  C147  1  0.23662282  0.72838492  0.54108635  1.0
  N  N148  1  0.03971333  0.43848401  0.33498651  1.0
  N  N149  1  0.88233747  0.28127737  0.19475091  1.0
  N  N150  1  0.46029193  0.10376667  0.66502048  1.0
  N  N151  1  0.61740541  0.08739872  0.80537242  1.0
  N  N152  1  0.96032736  0.56149149  0.66503499  1.0
  N  N153  1  0.11766969  0.71869340  0.80523195  1.0
  N  N154  1  0.53973169  0.89627666  0.33499228  1.0
  N  N155  1  0.38261001  0.91262034  0.19459406  1.0
  O  O156  1  0.76066928  0.54008993  0.35720079  1.0
  O  O157  1  0.58973345  0.60200765  0.28337908  1.0
  O  O158  1  0.71572917  0.98206835  0.66886456  1.0
  O  O159  1  0.96371319  0.99088694  0.70948124  1.0
  O  O160  1  0.60493362  0.38659127  0.20848021  1.0
  O  O161  1  0.85913589  0.53407721  0.22726738  1.0
  O  O162  1  0.73940094  0.18316910  0.64286573  1.0
  O  O163  1  0.91018677  0.31908682  0.71666970  1.0
  O  O164  1  0.78384485  0.31291991  0.33104725  1.0
  O  O165  1  0.53583045  0.28124093  0.29048713  1.0
  O  O166  1  0.89516147  0.17827688  0.79151927  1.0
  O  O167  1  0.64082075  0.30700449  0.77267063  1.0
  O  O168  1  0.23934628  0.45991734  0.64283251  1.0
  O  O169  1  0.41028140  0.39799311  0.71664772  1.0
  O  O170  1  0.28430898  0.01797839  0.33112782  1.0
  O  O171  1  0.03632848  0.00915162  0.29050973  1.0
  O  O172  1  0.39503684  0.61338423  0.79152451  1.0
  O  O173  1  0.14087705  0.46592786  0.77271895  1.0
  O  O174  1  0.26060887  0.81686764  0.35715373  1.0
  O  O175  1  0.08981685  0.68094342  0.28334371  1.0
  O  O176  1  0.21615333  0.68702705  0.66895568  1.0
  O  O177  1  0.46415058  0.71871014  0.70950689  1.0
  O  O178  1  0.10488811  0.82175260  0.20849318  1.0
  O  O179  1  0.35921352  0.69300458  0.22733584  1.0
