# generated using pymatgen
data_Zr3H11C33N3O16
_symmetry_space_group_name_H-M   'P 1'
_cell_length_a   14.35684748
_cell_length_b   14.37640319
_cell_length_c   14.38151937
_cell_angle_alpha   87.81221917
_cell_angle_beta   87.78136171
_cell_angle_gamma   87.78982632
_symmetry_Int_Tables_number   1
_chemical_formula_structural   Zr3H11C33N3O16
_chemical_formula_sum   'Zr6 H22 C66 N6 O32'
_cell_volume   2961.91075303
_cell_formula_units_Z   2
loop_
 _symmetry_equiv_pos_site_id
 _symmetry_equiv_pos_as_xyz
  1  'x, y, z'
loop_
 _atom_site_type_symbol
 _atom_site_label
 _atom_site_symmetry_multiplicity
 _atom_site_fract_x
 _atom_site_fract_y
 _atom_site_fract_z
 _atom_site_occupancy
  Zr  Zr0  1  0.76873800  0.97055221  0.84302390  1.0
  Zr  Zr1  1  0.75295236  0.79766329  0.03181904  1.0
  Zr  Zr2  1  0.99671377  0.01256977  0.90044493  1.0
  Zr  Zr3  1  0.94202435  0.78178428  0.85864436  1.0
  Zr  Zr4  1  0.81064481  0.02534593  0.07362448  1.0
  Zr  Zr5  1  0.98403303  0.83941507  0.08616554  1.0
  H  H6  1  0.12357288  0.18256566  0.56078961  1.0
  H  H7  1  0.14246364  0.17067698  0.37324075  1.0
  H  H8  1  0.63628100  0.62526578  0.37064234  1.0
  H  H9  1  0.62178444  0.63569531  0.55868337  1.0
  H  H10  1  0.15463729  0.50013798  0.21435085  1.0
  H  H11  1  0.14246039  0.31253108  0.23323836  1.0
  H  H12  1  0.59606438  0.30974810  0.72613670  1.0
  H  H13  1  0.60616363  0.49787784  0.71143063  1.0
  H  H14  1  0.47106942  0.15404355  0.24552350  1.0
  H  H15  1  0.28321803  0.17219443  0.23324701  1.0
  H  H16  1  0.28165126  0.66413447  0.68433493  1.0
  H  H17  1  0.47002057  0.64952112  0.69416652  1.0
  H  H18  1  0.74207722  0.77095884  0.83211370  1.0
  H  H19  1  0.83829104  0.14203008  0.91864626  1.0
  H  H20  1  0.11366113  0.85756402  0.92819564  1.0
  H  H21  1  0.82890788  0.86718187  0.20303766  1.0
  H  H22  1  0.27601260  0.88553431  0.42873712  1.0
  H  H23  1  0.47024868  0.93531424  0.49900216  1.0
  H  H24  1  0.33856125  0.30444986  0.94659715  1.0
  H  H25  1  0.40891845  0.49854023  0.99611166  1.0
  H  H26  1  0.90650014  0.43822656  0.55932636  1.0
  H  H27  1  0.85644045  0.36793760  0.36551677  1.0
  C  C28  1  0.99793488  0.26919784  0.52929292  1.0
  C  C29  1  0.08161448  0.21892792  0.50869866  1.0
  C  C30  1  0.09063847  0.21202922  0.41184483  1.0
  C  C31  1  0.01368456  0.25965865  0.37293249  1.0
  C  C32  1  0.76226496  0.53794540  0.39838992  1.0
  C  C33  1  0.67961085  0.58868349  0.42144487  1.0
  C  C34  1  0.67258885  0.59444095  0.51861032  1.0
  C  C35  1  0.74999347  0.54578463  0.55534288  1.0
  C  C36  1  0.24064758  0.46840043  0.08845946  1.0
  C  C37  1  0.19068340  0.44792824  0.17224294  1.0
  C  C38  1  0.18362485  0.35105609  0.18124455  1.0
  C  C39  1  0.23084517  0.31201005  0.10415091  1.0
  C  C40  1  0.50867339  0.33756181  0.85191900  1.0
  C  C41  1  0.55934748  0.36061223  0.76934587  1.0
  C  C42  1  0.56496901  0.45784141  0.76227697  1.0
  C  C43  1  0.51625741  0.49463361  0.83958042  1.0
  C  C44  1  0.43983768  0.02789246  0.33115211  1.0
  C  C45  1  0.41899811  0.11167790  0.28142410  1.0
  C  C46  1  0.32198755  0.12031982  0.27430688  1.0
  C  C47  1  0.28321688  0.04294424  0.32119981  1.0
  C  C48  1  0.30918521  0.79063650  0.59819198  1.0
  C  C49  1  0.33244605  0.70767720  0.64803701  1.0
  C  C50  1  0.42980339  0.70064665  0.65351377  1.0
  C  C51  1  0.46649736  0.77836023  0.60552238  1.0
  C  C52  1  0.89222199  0.13515365  0.74396764  1.0
  C  C53  1  0.67901503  0.89755084  0.70711520  1.0
  C  C54  1  0.86896674  0.64647114  0.76815708  1.0
  C  C55  1  0.63789091  0.11725242  0.95282507  1.0
  C  C56  1  0.86319165  0.66706223  0.17829937  1.0
  C  C57  1  0.07867476  0.91833302  0.21231738  1.0
  C  C58  1  0.61748615  0.70719454  0.95877416  1.0
  C  C59  1  0.65418023  0.92131830  0.19673926  1.0
  C  C60  1  0.12283228  0.10706918  0.97976843  1.0
  C  C61  1  0.08906288  0.89174207  0.72825510  1.0
  C  C62  1  0.10689134  0.68289608  0.98194939  1.0
  C  C63  1  0.88994307  0.15160620  0.16792011  1.0
  C  C64  1  0.15504833  0.87550446  0.65210295  1.0
  C  C65  1  0.22542002  0.84135114  0.61399816  1.0
  C  C66  1  0.62333625  0.85167546  0.64205897  1.0
  C  C67  1  0.55417139  0.81569623  0.61455605  1.0
  C  C68  1  0.12962445  0.96896683  0.27697113  1.0
  C  C69  1  0.19639619  0.00552715  0.30864732  1.0
  C  C70  1  0.52114771  0.97419701  0.31316046  1.0
  C  C71  1  0.58838999  0.93682385  0.27269150  1.0
  C  C72  1  0.34216325  0.91994026  0.43083796  1.0
  C  C73  1  0.40439772  0.90029339  0.49726934  1.0
  C  C74  1  0.52393287  0.25377917  0.90257733  1.0
  C  C75  1  0.56169002  0.18323088  0.93653255  1.0
  C  C76  1  0.52513906  0.58228226  0.87682782  1.0
  C  C77  1  0.55259282  0.65145221  0.91273001  1.0
  C  C78  1  0.21852704  0.22503709  0.06713950  1.0
  C  C79  1  0.18729022  0.15805264  0.03065169  1.0
  C  C80  1  0.22294174  0.54951044  0.03461181  1.0
  C  C81  1  0.18268935  0.61685474  0.99732799  1.0
  C  C82  1  0.34069321  0.37058012  0.98089653  1.0
  C  C83  1  0.40719495  0.43275585  0.96114570  1.0
  C  C84  1  0.84695984  0.59079824  0.24404429  1.0
  C  C85  1  0.81293722  0.55309816  0.31457881  1.0
  C  C86  1  0.78722082  0.55442730  0.64296604  1.0
  C  C87  1  0.82305499  0.58162054  0.71226393  1.0
  C  C88  1  0.94054280  0.21637746  0.21881337  1.0
  C  C89  1  0.97671024  0.24770226  0.28593074  1.0
  C  C90  1  0.94411252  0.25137916  0.61048556  1.0
  C  C91  1  0.90736288  0.21086977  0.67794610  1.0
  C  C92  1  0.87146238  0.43653793  0.49358216  1.0
  C  C93  1  0.89083908  0.36988302  0.43158373  1.0
  N  N94  1  0.96035804  0.30033226  0.44494933  1.0
  N  N95  1  0.80191027  0.50625178  0.48165838  1.0
  N  N96  1  0.27142680  0.38396921  0.05072671  1.0
  N  N97  1  0.47675643  0.42090063  0.89143496  1.0
  N  N98  1  0.35542280  0.98981266  0.36176648  1.0
  N  N99  1  0.39256817  0.83044698  0.56656891  1.0
  O  O100  1  0.96426550  0.11493711  0.79230610  1.0
  O  O101  1  0.63867374  0.91358887  0.78689267  1.0
  O  O102  1  0.88467802  0.72653649  0.72841286  1.0
  O  O103  1  0.66319000  0.07278651  0.87934023  1.0
  O  O104  1  0.67753399  0.11063433  0.03007066  1.0
  O  O105  1  0.89128090  0.63024547  0.85213614  1.0
  O  O106  1  0.76333011  0.91938584  0.69144282  1.0
  O  O107  1  0.81607546  0.09222231  0.74937601  1.0
  O  O108  1  0.75215445  0.93397732  0.98579132  1.0
  O  O109  1  0.90533331  0.92457121  0.84214043  1.0
  O  O110  1  0.77967778  0.80849954  0.86971687  1.0
  O  O111  1  0.84850628  0.07560807  0.93133432  1.0
  O  O112  1  0.78941737  0.69257154  0.13428240  1.0
  O  O113  1  0.11012134  0.91852915  0.12752002  1.0
  O  O114  1  0.69752552  0.66727874  0.97473377  1.0
  O  O115  1  0.70265555  0.99318514  0.17620816  1.0
  O  O116  1  0.03793413  0.13860776  0.97949132  1.0
  O  O117  1  0.04455060  0.81824301  0.75343430  1.0
  O  O118  1  0.08667705  0.73144200  0.05377233  1.0
  O  O119  1  0.89024577  0.06681538  0.19938447  1.0
  O  O120  1  0.06394097  0.68812494  0.90591488  1.0
  O  O121  1  0.84458839  0.17523321  0.09518532  1.0
  O  O122  1  0.60138446  0.79129673  0.98091108  1.0
  O  O123  1  0.08242066  0.96897892  0.76796322  1.0
  O  O124  1  0.14676903  0.03413395  0.93485927  1.0
  O  O125  1  0.65924524  0.84526079  0.15382111  1.0
  O  O126  1  0.94055962  0.70666521  0.17155084  1.0
  O  O127  1  0.00574354  0.87318763  0.23603521  1.0
  O  O128  1  0.94457416  0.97319601  0.03416605  1.0
  O  O129  1  0.89593568  0.78090187  0.99501467  1.0
  O  O130  1  0.04712397  0.87024394  0.93830058  1.0
  O  O131  1  0.84158906  0.87738964  0.13663155  1.0
