# generated using pymatgen
data_AlH8C11(NO3)2
_symmetry_space_group_name_H-M   'P 1'
_cell_length_a   6.72682108
_cell_length_b   11.12331943
_cell_length_c   16.77658362
_cell_angle_alpha   97.08362584
_cell_angle_beta   95.35238390
_cell_angle_gamma   106.61652463
_symmetry_Int_Tables_number   1
_chemical_formula_structural   AlH8C11(NO3)2
_chemical_formula_sum   'Al2 H16 C22 N4 O12'
_cell_volume   1182.74154900
_cell_formula_units_Z   2
loop_
 _symmetry_equiv_pos_site_id
 _symmetry_equiv_pos_as_xyz
  1  'x, y, z'
loop_
 _atom_site_type_symbol
 _atom_site_label
 _atom_site_symmetry_multiplicity
 _atom_site_fract_x
 _atom_site_fract_y
 _atom_site_fract_z
 _atom_site_occupancy
  Al  Al0  1  0.00008965  0.49640333  0.50014384  1.0
  Al  Al1  1  0.50016242  0.49543103  0.50074823  1.0
  H  H2  1  0.17267151  0.37832695  0.41189565  1.0
  H  H3  1  0.83865698  0.64250777  0.56926268  1.0
  H  H4  1  0.57510135  0.43245889  0.72501113  1.0
  H  H5  1  0.64760092  0.42986582  0.87463788  1.0
  H  H6  1  0.09878094  0.54386774  0.90979559  1.0
  H  H7  1  0.94041257  0.54826620  0.09995146  1.0
  H  H8  1  0.27900030  0.43412003  0.11308164  1.0
  H  H9  1  0.35429772  0.43124944  0.26193327  1.0
  H  H10  1  0.87365795  0.10591374  0.48881719  1.0
  H  H11  1  0.12901598  0.88772036  0.51092857  1.0
  H  H12  1  0.94542356  0.53983705  0.69513544  1.0
  H  H13  1  0.88701107  0.56905812  0.79384963  1.0
  H  H14  1  0.09366282  0.55625620  0.31554091  1.0
  H  H15  1  0.18002961  0.58384312  0.22165413  1.0
  H  H16  1  0.71310724  0.77374983  0.48251961  1.0
  H  H17  1  0.28540511  0.21880932  0.51545216  1.0
  C  C18  1  0.64201532  0.26748510  0.50114981  1.0
  C  C19  1  0.71428876  0.48808565  0.35404995  1.0
  C  C20  1  0.36062235  0.72612918  0.49989067  1.0
  C  C21  1  0.28206719  0.50021285  0.64571341  1.0
  C  C22  1  0.30380003  0.49458485  0.73312438  1.0
  C  C23  1  0.47572047  0.46009900  0.76690444  1.0
  C  C24  1  0.51701727  0.45857428  0.84881280  1.0
  C  C25  1  0.37975934  0.49241387  0.90004441  1.0
  C  C26  1  0.20355615  0.52148401  0.86827067  1.0
  C  C27  1  0.16049794  0.52385704  0.78435208  1.0
  C  C28  1  0.81370405  0.52459880  0.13695488  1.0
  C  C29  1  0.60867223  0.49500765  0.09948554  1.0
  C  C30  1  0.43832632  0.46100124  0.14416281  1.0
  C  C31  1  0.48150057  0.45929221  0.22588205  1.0
  C  C32  1  0.68775296  0.49147919  0.26645632  1.0
  C  C33  1  0.85982710  0.52543957  0.22116117  1.0
  C  C34  1  0.43398264  0.86435574  0.49892953  1.0
  C  C35  1  0.56883355  0.12901988  0.50117812  1.0
  C  C36  1  0.64650931  0.92754368  0.49158058  1.0
  C  C37  1  0.35581968  0.06578779  0.50794235  1.0
  C  C38  1  0.71033584  0.05868428  0.49327071  1.0
  C  C39  1  0.29246416  0.93471240  0.50662114  1.0
  N  N40  1  0.40501337  0.49568123  0.98505914  1.0
  N  N41  1  0.58625930  0.49797915  0.01506173  1.0
  N  N42  1  0.99099094  0.55727550  0.75599217  1.0
  N  N43  1  0.06251119  0.55871805  0.25551550  1.0
  O  O44  1  0.83168849  0.32244661  0.49445515  1.0
  O  O45  1  0.55219084  0.47489079  0.39052484  1.0
  O  O46  1  0.50047020  0.66666667  0.49514162  1.0
  O  O47  1  0.10356962  0.49880721  0.61003177  1.0
  O  O48  1  0.17003114  0.67202578  0.50587051  1.0
  O  O49  1  0.44398802  0.50797200  0.60994925  1.0
  O  O50  1  0.50242119  0.32639355  0.50736963  1.0
  O  O51  1  0.89773699  0.49748318  0.38965869  1.0
  O  O52  1  0.21266966  0.43566852  0.46299901  1.0
  O  O53  1  0.78827277  0.55815240  0.53760472  1.0
  O  O54  1  0.79073064  0.86472847  0.48244027  1.0
  O  O55  1  0.21025433  0.12757460  0.51599099  1.0
