# generated using pymatgen
data_Zn4H8C24S4N4O13F4
_symmetry_space_group_name_H-M   'P 1'
_cell_length_a   19.73501942
_cell_length_b   19.80704275
_cell_length_c   33.56672073
_cell_angle_alpha   78.40300771
_cell_angle_beta   78.61935710
_cell_angle_gamma   63.60049056
_symmetry_Int_Tables_number   1
_chemical_formula_structural   Zn4H8C24S4N4O13F4
_chemical_formula_sum   'Zn16 H32 C96 S16 N16 O52 F16'
_cell_volume   11425.28746545
_cell_formula_units_Z   4
loop_
 _symmetry_equiv_pos_site_id
 _symmetry_equiv_pos_as_xyz
  1  'x, y, z'
loop_
 _atom_site_type_symbol
 _atom_site_label
 _atom_site_symmetry_multiplicity
 _atom_site_fract_x
 _atom_site_fract_y
 _atom_site_fract_z
 _atom_site_occupancy
  Zn  Zn0  1  0.05418879  0.40193008  0.47847452  1.0
  Zn  Zn1  1  0.98520862  0.48337745  0.55998586  1.0
  Zn  Zn2  1  0.05874169  0.56126806  0.48392528  1.0
  Zn  Zn3  1  0.90208847  0.55350706  0.47818905  1.0
  Zn  Zn4  1  0.69516484  0.34760275  0.27210712  1.0
  Zn  Zn5  1  0.69007651  0.19003229  0.26610132  1.0
  Zn  Zn6  1  0.76731247  0.26479189  0.19005076  1.0
  Zn  Zn7  1  0.84786579  0.19711888  0.27200559  1.0
  Zn  Zn8  1  0.26582236  0.76546067  0.69015200  1.0
  Zn  Zn9  1  0.34858421  0.69723696  0.77124116  1.0
  Zn  Zn10  1  0.19508313  0.84752815  0.77220190  1.0
  Zn  Zn11  1  0.19010522  0.68989736  0.76614802  1.0
  Zn  Zn12  1  0.55870355  0.06121684  0.98393250  1.0
  Zn  Zn13  1  0.40281037  0.05348639  0.97735460  1.0
  Zn  Zn14  1  0.55411109  0.90186167  0.97851460  1.0
  Zn  Zn15  1  0.48401533  0.98399230  0.05998981  1.0
  H  H16  1  0.79795739  0.53447580  0.42146161  1.0
  H  H17  1  0.72404150  0.52837669  0.40489221  1.0
  H  H18  1  0.94652926  0.21129616  0.33359491  1.0
  H  H19  1  0.99632022  0.19360689  0.37395400  1.0
  H  H20  1  0.71471320  0.45318277  0.32848509  1.0
  H  H21  1  0.72157463  0.52653326  0.34484581  1.0
  H  H22  1  0.04007951  0.30304304  0.41617257  1.0
  H  H23  1  0.05667339  0.25296430  0.37626184  1.0
  H  H24  1  0.14555849  0.63605076  0.52180339  1.0
  H  H25  1  0.21469728  0.65678576  0.53337234  1.0
  H  H26  1  0.11394319  0.60426598  0.72834992  1.0
  H  H27  1  0.09228428  0.53584689  0.71682592  1.0
  H  H28  1  0.22357469  0.73274028  0.60969075  1.0
  H  H29  1  0.18845635  0.74512163  0.56449391  1.0
  H  H30  1  0.01712053  0.52644667  0.64038033  1.0
  H  H31  1  0.00388659  0.56226083  0.68528652  1.0
  H  H32  1  0.72330277  0.23300476  0.10949145  1.0
  H  H33  1  0.68804621  0.24536813  0.06436888  1.0
  H  H34  1  0.51689329  0.02695792  0.14050289  1.0
  H  H35  1  0.50451566  0.06208109  0.18555279  1.0
  H  H36  1  0.64566030  0.13561267  0.02177708  1.0
  H  H37  1  0.71450433  0.15690203  0.03324915  1.0
  H  H38  1  0.61471098  0.10412962  0.22827235  1.0
  H  H39  1  0.59324258  0.03555882  0.21682052  1.0
  H  H40  1  0.21506792  0.95253301  0.82848222  1.0
  H  H41  1  0.22182594  0.02584364  0.84498968  1.0
  H  H42  1  0.54043431  0.80231544  0.91621306  1.0
  H  H43  1  0.55722234  0.75234737  0.87623227  1.0
  H  H44  1  0.29852154  0.03423390  0.92114534  1.0
  H  H45  1  0.22453630  0.02765127  0.90498209  1.0
  H  H46  1  0.44670658  0.71059588  0.83367194  1.0
  H  H47  1  0.49650265  0.69294280  0.87401627  1.0
  C  C48  1  0.06141424  0.31657701  0.56160857  1.0
  C  C49  1  0.07028648  0.56994784  0.56969835  1.0
  C  C50  1  0.18273243  0.44041886  0.43909939  1.0
  C  C51  1  0.93710764  0.68358350  0.43876383  1.0
  C  C52  1  0.93047020  0.42981628  0.43026334  1.0
  C  C53  1  0.81774996  0.56043577  0.56153026  1.0
  C  C54  1  0.56637399  0.30983542  0.31133926  1.0
  C  C55  1  0.68061770  0.17961158  0.18021443  1.0
  C  C56  1  0.68944492  0.43201073  0.18847201  1.0
  C  C57  1  0.93436248  0.18833609  0.18926940  1.0
  C  C58  1  0.81898891  0.32114211  0.31974933  1.0
  C  C59  1  0.81161868  0.06747997  0.31128593  1.0
  C  C60  1  0.43305202  0.68998723  0.68808582  1.0
  C  C61  1  0.31956383  0.82062017  0.81955004  1.0
  C  C62  1  0.18830064  0.93233412  0.68872530  1.0
  C  C63  1  0.06638362  0.80962804  0.81145313  1.0
  C  C64  1  0.18013866  0.67948431  0.68043255  1.0
  C  C65  1  0.31275185  0.56740483  0.81086361  1.0
  C  C66  1  0.43757525  0.18380925  0.93862413  1.0
  C  C67  1  0.43121234  0.92947448  0.92985303  1.0
  C  C68  1  0.68269323  0.94034620  0.93916308  1.0
  C  C69  1  0.56090833  0.81700039  0.06188696  1.0
  C  C70  1  0.56965281  0.07026212  0.06980713  1.0
  C  C71  1  0.31671600  0.06062735  0.06025672  1.0
  C  C72  1  0.90226530  0.40229122  0.40228719  1.0
  C  C73  1  0.84719282  0.34867569  0.34770466  1.0
  C  C74  1  0.82895466  0.44734171  0.38877017  1.0
  C  C75  1  0.91979202  0.30290155  0.36191948  1.0
  C  C76  1  0.80254508  0.42159600  0.36120332  1.0
  C  C77  1  0.94758811  0.33003378  0.38811502  1.0
  C  C78  1  0.09791786  0.59787523  0.59771473  1.0
  C  C79  1  0.15217605  0.65193161  0.65240490  1.0
  C  C80  1  0.14188241  0.64065510  0.58206093  1.0
  C  C81  1  0.10929075  0.60806154  0.66804792  1.0
  C  C82  1  0.16740312  0.66854579  0.60899838  1.0
  C  C83  1  0.08129327  0.58264312  0.64110509  1.0
  C  C84  1  0.30404756  0.45320325  0.40056920  1.0
  C  C85  1  0.44516122  0.29688635  0.34994452  1.0
  C  C86  1  0.25744535  0.41538038  0.41411953  1.0
  C  C87  1  0.49161428  0.33485882  0.33627715  1.0
  C  C88  1  0.37647846  0.33961044  0.37324185  1.0
  C  C89  1  0.37243646  0.41073917  0.37699910  1.0
  C  C90  1  0.72536212  0.57679460  0.62859746  1.0
  C  C91  1  0.52525191  0.67359632  0.62092721  1.0
  C  C92  1  0.74287081  0.58536103  0.58630981  1.0
  C  C93  1  0.50784786  0.66470912  0.66322498  1.0
  C  C94  1  0.60436633  0.64142899  0.60794122  1.0
  C  C95  1  0.64623927  0.60837911  0.64155960  1.0
  C  C96  1  0.07710263  0.22415282  0.62879209  1.0
  C  C97  1  0.17307472  0.02467711  0.62152068  1.0
  C  C98  1  0.08636304  0.24177227  0.58650402  1.0
  C  C99  1  0.16395012  0.00708391  0.66381336  1.0
  C  C100  1  0.14198155  0.10361847  0.60839525  1.0
  C  C101  1  0.10880969  0.14522434  0.64189706  1.0
  C  C102  1  0.84437258  0.80171021  0.39725362  1.0
  C  C103  1  0.90429033  0.94943414  0.35284983  1.0
  C  C104  1  0.91232616  0.75839232  0.41385798  1.0
  C  C105  1  0.83647233  0.99261075  0.33608390  1.0
  C  C106  1  0.90800164  0.87955833  0.37502206  1.0
  C  C107  1  0.84097572  0.87126611  0.37476749  1.0
  C  C108  1  0.65256110  0.15192151  0.15226270  1.0
  C  C109  1  0.59783213  0.09787737  0.09774172  1.0
  C  C110  1  0.66756151  0.16846940  0.10884977  1.0
  C  C111  1  0.58148258  0.08267715  0.14115128  1.0
  C  C112  1  0.64194941  0.14050193  0.08198979  1.0
  C  C113  1  0.60975590  0.10799069  0.16801061  1.0
  C  C114  1  0.67368437  0.52478177  0.12132784  1.0
  C  C115  1  0.57671004  0.72412292  0.12898637  1.0
  C  C116  1  0.66465401  0.50683890  0.16359542  1.0
  C  C117  1  0.58598317  0.74208472  0.08672456  1.0
  C  C118  1  0.60871275  0.64511747  0.14194142  1.0
  C  C119  1  0.64214664  0.60378455  0.10834469  1.0
  C  C120  1  0.08120359  0.12411690  0.17666637  1.0
  C  C121  1  0.16987767  0.12433346  0.07280769  1.0
  C  C122  1  0.00903824  0.16324644  0.16424842  1.0
  C  C123  1  0.24204091  0.08556747  0.08524730  1.0
  C  C124  1  0.11079793  0.13899606  0.10585338  1.0
  C  C125  1  0.14024306  0.10991634  0.14360452  1.0
  C  C126  1  0.34770019  0.84805847  0.84759747  1.0
  C  C127  1  0.40286036  0.90175816  0.90206576  1.0
  C  C128  1  0.30299363  0.92093990  0.86113920  1.0
  C  C129  1  0.44809109  0.82940168  0.88799449  1.0
  C  C130  1  0.32947052  0.94677473  0.88864596  1.0
  C  C131  1  0.42028684  0.80226727  0.86182363  1.0
  C  C132  1  0.40522098  0.44948010  0.85265328  1.0
  C  C133  1  0.34502485  0.30194786  0.89706555  1.0
  C  C134  1  0.33750774  0.49266314  0.83580677  1.0
  C  C135  1  0.41289522  0.25862776  0.91375657  1.0
  C  C136  1  0.34175450  0.37145490  0.87457504  1.0
  C  C137  1  0.40878296  0.37969509  0.87488701  1.0
  C  C138  1  0.94506675  0.79674477  0.84998336  1.0
  C  C139  1  0.80401658  0.95307479  0.90062692  1.0
  C  C140  1  0.99155951  0.83467636  0.83634597  1.0
  C  C141  1  0.75739318  0.91527406  0.91418427  1.0
  C  C142  1  0.87237322  0.91060760  0.87703901  1.0
  C  C143  1  0.87638281  0.83949624  0.87327328  1.0
  S  S144  1  0.29754652  0.32586919  0.39788329  1.0
  S  S145  1  0.45110414  0.42472051  0.35215625  1.0
  S  S146  1  0.66126152  0.63301573  0.56152707  1.0
  S  S147  1  0.58942070  0.61622843  0.68797526  1.0
  S  S148  1  0.13472463  0.16053333  0.56192539  1.0
  S  S149  1  0.11645826  0.08833510  0.68838728  1.0
  S  S150  1  0.97377526  0.80312904  0.40201999  1.0
  S  S151  1  0.77545875  0.94738776  0.34749049  1.0
  S  S152  1  0.61658807  0.58790043  0.18833425  1.0
  S  S153  1  0.63471457  0.66105843  0.06197788  1.0
  S  S154  1  0.01275076  0.18324841  0.11106862  1.0
  S  S155  1  0.23832403  0.06628121  0.13842404  1.0
  S  S156  1  0.27635291  0.44759465  0.84723493  1.0
  S  S157  1  0.47439104  0.30331615  0.90199837  1.0
  S  S158  1  0.95107391  0.92454183  0.85221537  1.0
  S  S159  1  0.79744319  0.82577782  0.89793832  1.0
  N  N160  1  0.77996688  0.51885256  0.39993937  1.0
  N  N161  1  0.96887617  0.23148113  0.35068294  1.0
  N  N162  1  0.73074015  0.47086309  0.34996746  1.0
  N  N163  1  0.01926780  0.28068306  0.39944564  1.0
  N  N164  1  0.16087352  0.65991798  0.54054661  1.0
  N  N165  1  0.08988070  0.58923507  0.70953739  1.0
  N  N166  1  0.20914555  0.70976876  0.59006177  1.0
  N  N167  1  0.03980595  0.54115129  0.66006144  1.0
  N  N168  1  0.70915109  0.20985539  0.08982214  1.0
  N  N169  1  0.54004246  0.04116305  0.16018444  1.0
  N  N170  1  0.66079909  0.15973797  0.04046321  1.0
  N  N171  1  0.59059929  0.08903489  0.20952132  1.0
  N  N172  1  0.23115540  0.97013898  0.84997010  1.0
  N  N173  1  0.51971183  0.78000749  0.89940482  1.0
  N  N174  1  0.28043050  0.01822031  0.89984348  1.0
  N  N175  1  0.46929294  0.73073130  0.85065165  1.0
  O  O176  1  0.00031027  0.49980725  0.49994926  1.0
  O  O177  1  0.08021976  0.31604996  0.52284932  1.0
  O  O178  1  0.03763681  0.52494754  0.58475260  1.0
  O  O179  1  0.15676743  0.50452434  0.45217351  1.0
  O  O180  1  0.02368529  0.37446860  0.58060547  1.0
  O  O181  1  0.15099706  0.39448799  0.44534315  1.0
  O  O182  1  0.07936365  0.59102137  0.53077060  1.0
  O  O183  1  0.00462398  0.65586758  0.44876182  1.0
  O  O184  1  0.89050261  0.49756522  0.44011487  1.0
  O  O185  1  0.88991931  0.65350563  0.44808252  1.0
  O  O186  1  0.99444627  0.38561270  0.44428779  1.0
  O  O187  1  0.87616934  0.53004927  0.58067730  1.0
  O  O188  1  0.81669914  0.57213277  0.52264640  1.0
  O  O189  1  0.74971805  0.25027061  0.25005319  1.0
  O  O190  1  0.59510192  0.35847014  0.30205043  1.0
  O  O191  1  0.66056302  0.16937891  0.21915699  1.0
  O  O192  1  0.72138419  0.37390689  0.16938549  1.0
  O  O193  1  0.59549481  0.24293776  0.30135789  1.0
  O  O194  1  0.67611271  0.43285849  0.22735246  1.0
  O  O195  1  0.72462108  0.21344897  0.16512816  1.0
  O  O196  1  0.87665069  0.22572681  0.16939208  1.0
  O  O197  1  0.86353491  0.25810374  0.30531376  1.0
  O  O198  1  0.93370569  0.17084199  0.22795892  1.0
  O  O199  1  0.75048299  0.36057666  0.31031158  1.0
  O  O200  1  0.74739848  0.09180172  0.29771724  1.0
  O  O201  1  0.85545042  0.10109082  0.30567738  1.0
  O  O202  1  0.24966961  0.75021915  0.75017207  1.0
  O  O203  1  0.37468964  0.72742377  0.66910297  1.0
  O  O204  1  0.36424788  0.75781022  0.80490067  1.0
  O  O205  1  0.17587887  0.93307495  0.72761587  1.0
  O  O206  1  0.43409133  0.67167426  0.72688366  1.0
  O  O207  1  0.21902547  0.87431608  0.66960164  1.0
  O  O208  1  0.25097495  0.86000247  0.81025698  1.0
  O  O209  1  0.09512858  0.85825524  0.80223922  1.0
  O  O210  1  0.16006903  0.66925450  0.71939284  1.0
  O  O211  1  0.09551932  0.74275384  0.80145108  1.0
  O  O212  1  0.22419107  0.71323641  0.66536978  1.0
  O  O213  1  0.35702612  0.60062660  0.80469517  1.0
  O  O214  1  0.24812396  0.59192715  0.79772196  1.0
  O  O215  1  0.50027234  0.99978776  0.99997346  1.0
  O  O216  1  0.50492424  0.15607692  0.94886128  1.0
  O  O217  1  0.39189088  0.99775269  0.93901352  1.0
  O  O218  1  0.65100284  0.89435936  0.94549305  1.0
  O  O219  1  0.39044063  0.15367014  0.94767500  1.0
  O  O220  1  0.65667472  0.00453984  0.95214682  1.0
  O  O221  1  0.49466303  0.88499082  0.94437517  1.0
  O  O222  1  0.57979648  0.81640556  0.02313866  1.0
  O  O223  1  0.53550678  0.02657273  0.08492764  1.0
  O  O224  1  0.52311007  0.87494275  0.08085099  1.0
  O  O225  1  0.57974347  0.09039952  0.03084310  1.0
  O  O226  1  0.31722944  0.07128329  0.02149725  1.0
  O  O227  1  0.37452334  0.03014452  0.08024258  1.0
  F  F228  1  0.28727459  0.52314265  0.40844959  1.0
  F  F229  1  0.46214143  0.22682038  0.34223172  1.0
  F  F230  1  0.77705280  0.54206092  0.65524993  1.0
  F  F231  1  0.47351750  0.70877710  0.59433780  1.0
  F  F232  1  0.04201712  0.27552648  0.65529624  1.0
  F  F233  1  0.20790729  0.97320231  0.59502829  1.0
  F  F234  1  0.78680908  0.78110345  0.40152938  1.0
  F  F235  1  0.96164577  0.97030542  0.34877601  1.0
  F  F236  1  0.70880393  0.47350783  0.09472231  1.0
  F  F237  1  0.54135522  0.77530346  0.15560558  1.0
  F  F238  1  0.09530160  0.10148804  0.21580799  1.0
  F  F239  1  0.15586329  0.14675059  0.03362427  1.0
  F  F240  1  0.46262809  0.47028005  0.84862195  1.0
  F  F241  1  0.28746466  0.28138998  0.90126604  1.0
  F  F242  1  0.96201164  0.72669726  0.84226734  1.0
  F  F243  1  0.78730159  0.02298654  0.90853465  1.0
