# generated using pymatgen
data_InH6C8NO5
_symmetry_space_group_name_H-M   'P 1'
_cell_length_a   8.09370977
_cell_length_b   17.20276429
_cell_length_c   17.20248274
_cell_angle_alpha   117.56917427
_cell_angle_beta   99.02319677
_cell_angle_gamma   99.01219403
_symmetry_Int_Tables_number   1
_chemical_formula_structural   InH6C8NO5
_chemical_formula_sum   'In6 H36 C48 N6 O30'
_cell_volume   2023.77776337
_cell_formula_units_Z   6
loop_
 _symmetry_equiv_pos_site_id
 _symmetry_equiv_pos_as_xyz
  1  'x, y, z'
loop_
 _atom_site_type_symbol
 _atom_site_label
 _atom_site_symmetry_multiplicity
 _atom_site_fract_x
 _atom_site_fract_y
 _atom_site_fract_z
 _atom_site_occupancy
  In  In0  1  0.92818693  0.70040153  0.27123972  1.0
  In  In1  1  0.65686932  0.72862950  0.42926078  1.0
  In  In2  1  0.22769557  0.57080034  0.29939164  1.0
  In  In3  1  0.07178788  0.29958997  0.72874681  1.0
  In  In4  1  0.34314087  0.27136895  0.57073950  1.0
  In  In5  1  0.77229669  0.42920906  0.70061687  1.0
  H  H6  1  0.08490126  0.26157132  0.86229471  1.0
  H  H7  1  0.22289148  0.13746398  0.39938809  1.0
  H  H8  1  0.82281082  0.60062007  0.73833633  1.0
  H  H9  1  0.91510198  0.73842551  0.13770328  1.0
  H  H10  1  0.77709612  0.86253826  0.60061326  1.0
  H  H11  1  0.17719130  0.39939156  0.26166965  1.0
  H  H12  1  0.89992079  0.18736791  0.78099928  1.0
  H  H13  1  0.11905957  0.21857021  0.40595054  1.0
  H  H14  1  0.71250499  0.59383456  0.81282198  1.0
  H  H15  1  0.10007609  0.81262986  0.21900508  1.0
  H  H16  1  0.88092515  0.78143041  0.59405667  1.0
  H  H17  1  0.28749829  0.40618060  0.18718278  1.0
  H  H18  1  0.25507735  0.74382945  0.38102393  1.0
  H  H19  1  0.87375650  0.61872892  0.36262637  1.0
  H  H20  1  0.51147703  0.63737965  0.25624681  1.0
  H  H21  1  0.74492300  0.25617619  0.61897199  1.0
  H  H22  1  0.12624094  0.38126872  0.63737175  1.0
  H  H23  1  0.48853027  0.36261976  0.74375172  1.0
  H  H24  1  0.60700313  0.45005151  0.03814934  1.0
  H  H25  1  0.56922945  0.96176004  0.41227255  1.0
  H  H26  1  0.15627013  0.58763876  0.54964166  1.0
  H  H27  1  0.39299895  0.54994837  0.96184830  1.0
  H  H28  1  0.43077088  0.03823413  0.58772481  1.0
  H  H29  1  0.84373367  0.41235502  0.45035803  1.0
  H  H30  1  0.62214273  0.24032748  0.77593823  1.0
  H  H31  1  0.84644386  0.22394249  0.46457055  1.0
  H  H32  1  0.38127255  0.53578749  0.75988714  1.0
  H  H33  1  0.37786745  0.75967219  0.22405580  1.0
  H  H34  1  0.15353737  0.77605794  0.53543239  1.0
  H  H35  1  0.61874233  0.46422858  0.24011989  1.0
  H  H36  1  0.09030863  0.38634522  0.99467188  1.0
  H  H37  1  0.09535447  0.00493033  0.39109006  1.0
  H  H38  1  0.70349733  0.60855870  0.61392514  1.0
  H  H39  1  0.90969287  0.61365670  0.00532507  1.0
  H  H40  1  0.90464880  0.99507180  0.60892273  1.0
  H  H41  1  0.29649372  0.39143676  0.38606739  1.0
  C  C42  1  0.95006668  0.50103012  0.11966170  1.0
  C  C43  1  0.83060404  0.88011273  0.38131499  1.0
  C  C44  1  0.44873159  0.61863591  0.49896508  1.0
  C  C45  1  0.04993713  0.49896366  0.88033799  1.0
  C  C46  1  0.16938818  0.11988107  0.61868404  1.0
  C  C47  1  0.55127106  0.38135774  0.50103244  1.0
  C  C48  1  0.85810140  0.42680028  0.02511194  1.0
  C  C49  1  0.83303047  0.97464131  0.40158662  1.0
  C  C50  1  0.43079166  0.59823208  0.57316208  1.0
  C  C51  1  0.14190244  0.57320260  0.97488870  1.0
  C  C52  1  0.16696466  0.02535301  0.59841769  1.0
  C  C53  1  0.56920518  0.40175701  0.42683088  1.0
  C  C54  1  0.67918662  0.41007744  0.99332290  1.0
  C  C55  1  0.68611314  0.00653678  0.41695355  1.0
  C  C56  1  0.26850517  0.58294799  0.58971356  1.0
  C  C57  1  0.32080908  0.58992141  0.00667302  1.0
  C  C58  1  0.31388663  0.99346217  0.58304791  1.0
  C  C59  1  0.73150736  0.41705859  0.41029077  1.0
  C  C60  1  0.59452589  0.34210052  0.90403738  1.0
  C  C61  1  0.69073137  0.09583145  0.43822563  1.0
  C  C62  1  0.25192923  0.56183160  0.65784798  1.0
  C  C63  1  0.40548372  0.65789678  0.09596039  1.0
  C  C64  1  0.30925855  0.90416857  0.56177758  1.0
  C  C65  1  0.74807519  0.43817243  0.34215517  1.0
  C  C66  1  0.40130504  0.32251884  0.87159480  1.0
  C  C67  1  0.53000729  0.12832860  0.45105558  1.0
  C  C68  1  0.07837224  0.54898138  0.67747536  1.0
  C  C69  1  0.59870280  0.67746908  0.12839631  1.0
  C  C70  1  0.46998321  0.87166959  0.54894309  1.0
  C  C71  1  0.92163971  0.45101938  0.32252860  1.0
  C  C72  1  0.68808847  0.29129465  0.84642213  1.0
  C  C73  1  0.84185419  0.15342598  0.44497047  1.0
  C  C74  1  0.39626737  0.55514953  0.70879724  1.0
  C  C75  1  0.31192288  0.70870517  0.15357409  1.0
  C  C76  1  0.15813921  0.84657400  0.55503474  1.0
  C  C77  1  0.60374284  0.44485733  0.29120466  1.0
  C  C78  1  0.86595567  0.30587405  0.87993925  1.0
  C  C79  1  0.98608513  0.11984950  0.42585269  1.0
  C  C80  1  0.55958990  0.57413881  0.69428912  1.0
  C  C81  1  0.13405628  0.69412875  0.12006267  1.0
  C  C82  1  0.01391234  0.88015102  0.57415510  1.0
  C  C83  1  0.44041279  0.42587271  0.30571811  1.0
  C  C84  1  0.95123892  0.37381883  0.96910088  1.0
  C  C85  1  0.98203091  0.03058836  0.40440413  1.0
  C  C86  1  0.57688951  0.59538391  0.62632695  1.0
  C  C87  1  0.04876606  0.62618247  0.03089614  1.0
  C  C88  1  0.01796596  0.96940759  0.59560453  1.0
  C  C89  1  0.42311141  0.40461572  0.37367112  1.0
  N  N90  1  0.96472826  0.25416634  0.82343210  1.0
  N  N91  1  0.14139664  0.17634703  0.43063740  1.0
  N  N92  1  0.71014504  0.56930620  0.74594409  1.0
  N  N93  1  0.03527498  0.74582982  0.17656657  1.0
  N  N94  1  0.85859733  0.82365170  0.56936520  1.0
  N  N95  1  0.28986056  0.43070810  0.25406116  1.0
  O  O96  1  0.86724698  0.55785429  0.16092549  1.0
  O  O97  1  0.70666654  0.83884800  0.39694845  1.0
  O  O98  1  0.30925583  0.60305163  0.44203871  1.0
  O  O99  1  0.13274757  0.44213606  0.83908164  1.0
  O  O100  1  0.29333611  0.16114496  0.60304975  1.0
  O  O101  1  0.69073585  0.39695150  0.55796489  1.0
  O  O102  1  0.10395099  0.50145772  0.15230504  1.0
  O  O103  1  0.95182152  0.84749385  0.34906835  1.0
  O  O104  1  0.60223142  0.65100309  0.49872372  1.0
  O  O105  1  0.89606383  0.49854001  0.84769521  1.0
  O  O106  1  0.04815387  0.15250414  0.65091787  1.0
  O  O107  1  0.39776776  0.34899368  0.50127624  1.0
  O  O108  1  0.34559418  0.31592236  0.79290168  1.0
  O  O109  1  0.55288704  0.20690713  0.52320243  1.0
  O  O110  1  0.02945353  0.47689202  0.68409674  1.0
  O  O111  1  0.65441302  0.68404926  0.20708197  1.0
  O  O112  1  0.44711676  0.79308812  0.47679329  1.0
  O  O113  1  0.97054742  0.52311685  0.31590716  1.0
  O  O114  1  0.30879104  0.31335924  0.92004511  1.0
  O  O115  1  0.38917826  0.08001002  0.39330925  1.0
  O  O116  1  0.99491257  0.60657223  0.68666122  1.0
  O  O117  1  0.69121916  0.68664387  0.07995303  1.0
  O  O118  1  0.61080817  0.91999412  0.60668788  1.0
  O  O119  1  0.00510056  0.39344164  0.31334701  1.0
  O  O120  1  0.18370090  0.69656287  0.31955522  1.0
  O  O121  1  0.86397377  0.68024037  0.37690625  1.0
  O  O122  1  0.48723015  0.62307286  0.30345552  1.0
  O  O123  1  0.81629075  0.30344918  0.68043692  1.0
  O  O124  1  0.13603468  0.31975735  0.62309127  1.0
  O  O125  1  0.51276557  0.37692884  0.69654258  1.0
