# generated using pymatgen
data_Zr3H32C60N9O16
_symmetry_space_group_name_H-M   'P 1'
_cell_length_a   19.73446597
_cell_length_b   19.81775490
_cell_length_c   19.82990732
_cell_angle_alpha   91.25685632
_cell_angle_beta   91.75876910
_cell_angle_gamma   91.24212680
_symmetry_Int_Tables_number   1
_chemical_formula_structural   Zr3H32C60N9O16
_chemical_formula_sum   'Zr6 H64 C120 N18 O32'
_cell_volume   7747.87696427
_cell_formula_units_Z   2
loop_
 _symmetry_equiv_pos_site_id
 _symmetry_equiv_pos_as_xyz
  1  'x, y, z'
loop_
 _atom_site_type_symbol
 _atom_site_label
 _atom_site_symmetry_multiplicity
 _atom_site_fract_x
 _atom_site_fract_y
 _atom_site_fract_z
 _atom_site_occupancy
  Zr  Zr0  1  0.81349875  0.95739582  0.86271012  1.0
  Zr  Zr1  1  0.77015632  0.86340550  0.00533275  1.0
  Zr  Zr2  1  0.97973010  0.98260967  0.93092823  1.0
  Zr  Zr3  1  0.91081443  0.81714019  0.90962715  1.0
  Zr  Zr4  1  0.83909621  0.02843689  0.02678843  1.0
  Zr  Zr5  1  0.93683701  0.88853296  0.07336417  1.0
  H  H6  1  0.77195565  0.81966697  0.86791624  1.0
  H  H7  1  0.88112601  0.08081094  0.90332493  1.0
  H  H8  1  0.03482049  0.86056276  0.97545738  1.0
  H  H9  1  0.81375147  0.93181587  0.12700517  1.0
  H  H10  1  0.26780902  0.79007231  0.79849561  1.0
  H  H11  1  0.19109307  0.94553189  0.67095921  1.0
  H  H12  1  0.08429553  0.94689712  0.73591415  1.0
  H  H13  1  0.15585902  0.78184706  0.85441677  1.0
  H  H14  1  0.54436586  0.89819292  0.67112058  1.0
  H  H15  1  0.42890636  0.85533603  0.84588196  1.0
  H  H16  1  0.53565611  0.86123358  0.91838375  1.0
  H  H17  1  0.65025338  0.90732313  0.74353215  1.0
  H  H18  1  0.31795168  0.99898657  0.09135290  1.0
  H  H19  1  0.20326981  0.96167075  0.26790120  1.0
  H  H20  1  0.09668501  0.95201133  0.19614633  1.0
  H  H21  1  0.21067492  0.99284117  0.01961981  1.0
  H  H22  1  0.55905058  0.91280011  0.26733695  1.0
  H  H23  1  0.47558548  0.05460382  0.12830439  1.0
  H  H24  1  0.58533600  0.05925023  0.06842116  1.0
  H  H25  1  0.66446949  0.90834230  0.20070499  1.0
  H  H26  1  0.26974267  0.93980923  0.39747871  1.0
  H  H27  1  0.48720744  0.93957771  0.41553152  1.0
  H  H28  1  0.47999871  0.91649148  0.53892840  1.0
  H  H29  1  0.26252789  0.91648631  0.52082287  1.0
  H  H30  1  0.71718853  0.32260624  0.84633373  1.0
  H  H31  1  0.57121192  0.23858452  0.97927927  1.0
  H  H32  1  0.63314921  0.12971520  0.97901489  1.0
  H  H33  1  0.77300480  0.21079122  0.83745644  1.0
  H  H34  1  0.57920948  0.59297540  0.95608429  1.0
  H  H35  1  0.75325566  0.48078922  0.89960504  1.0
  H  H36  1  0.82471155  0.58744095  0.90555845  1.0
  H  H37  1  0.65091016  0.69858304  0.96545364  1.0
  H  H38  1  0.99821530  0.36228908  0.04264973  1.0
  H  H39  1  0.17489285  0.25049094  0.99376269  1.0
  H  H40  1  0.10414136  0.14394876  0.98503344  1.0
  H  H41  1  0.92776493  0.25498799  0.03734848  1.0
  H  H42  1  0.18566504  0.61130994  0.98144858  1.0
  H  H43  1  0.01872293  0.51436132  0.07756990  1.0
  H  H44  1  0.95812117  0.62363714  0.08214500  1.0
  H  H45  1  0.12362364  0.71972036  0.98119555  1.0
  H  H46  1  0.32259327  0.53397102  0.99630845  1.0
  H  H47  1  0.30376868  0.31846053  0.97149463  1.0
  H  H48  1  0.42792658  0.31280270  0.94932118  1.0
  H  H49  1  0.44676265  0.52834911  0.97409093  1.0
  H  H50  1  0.89213725  0.62264532  0.28699785  1.0
  H  H51  1  0.75336621  0.76560421  0.36742003  1.0
  H  H52  1  0.74685976  0.82258558  0.25617655  1.0
  H  H53  1  0.89502316  0.68646641  0.17961450  1.0
  H  H54  1  0.85657235  0.62510131  0.63980839  1.0
  H  H55  1  0.80468336  0.80000242  0.52664686  1.0
  H  H56  1  0.80963403  0.87087752  0.63341687  1.0
  H  H57  1  0.86540481  0.69626403  0.74562962  1.0
  H  H58  1  0.94874347  0.04743744  0.40712215  1.0
  H  H59  1  0.89603474  0.22291099  0.29521561  1.0
  H  H60  1  0.89133153  0.15310443  0.18821216  1.0
  H  H61  1  0.94767094  0.97805919  0.29940594  1.0
  H  H62  1  0.87052449  0.22657209  0.65383521  1.0
  H  H63  1  0.98498347  0.07026962  0.56013086  1.0
  H  H64  1  0.99150951  0.00917072  0.66905676  1.0
  H  H65  1  0.87041180  0.16241950  0.76086801  1.0
  H  H66  1  0.89064976  0.36793314  0.57958795  1.0
  H  H67  1  0.87526791  0.35218587  0.36324513  1.0
  H  H68  1  0.85496209  0.47639931  0.35784912  1.0
  H  H69  1  0.87044260  0.49218333  0.57419991  1.0
  C  C70  1  0.92104693  0.18613846  0.53536465  1.0
  C  C71  1  0.89795286  0.27942245  0.47468040  1.0
  C  C72  1  0.91914435  0.17976888  0.42076759  1.0
  C  C73  1  0.82836305  0.65787282  0.39975428  1.0
  C  C74  1  0.83075629  0.66637734  0.51422315  1.0
  C  C75  1  0.84963398  0.56523829  0.46202149  1.0
  C  C76  1  0.13922642  0.49066008  0.02219290  1.0
  C  C77  1  0.13174995  0.37599293  0.01720418  1.0
  C  C78  1  0.23248318  0.42975410  0.99908284  1.0
  C  C79  1  0.60947277  0.35366249  0.92141528  1.0
  C  C80  1  0.61952377  0.46804781  0.92740454  1.0
  C  C81  1  0.51798981  0.41623333  0.94667109  1.0
  C  C82  1  0.44505136  0.97821187  0.23445704  1.0
  C  C83  1  0.38293487  0.95546185  0.32626221  1.0
  C  C84  1  0.33003440  0.97823254  0.22580725  1.0
  C  C85  1  0.30274514  0.87558025  0.70035517  1.0
  C  C86  1  0.36617077  0.90059874  0.61006556  1.0
  C  C87  1  0.41765455  0.87781684  0.71125547  1.0
  C  C88  1  0.92427179  0.04119207  0.78355080  1.0
  C  C89  1  0.66383756  0.89525579  0.87604503  1.0
  C  C90  1  0.84708417  0.82792701  0.76013521  1.0
  C  C91  1  0.74778969  0.10166471  0.91570869  1.0
  C  C92  1  0.82750400  0.79898275  0.14929567  1.0
  C  C93  1  0.08359400  0.95837950  0.06291055  1.0
  C  C94  1  0.78241743  0.71352704  0.94504814  1.0
  C  C95  1  0.69246516  0.97542672  0.08879084  1.0
  C  C96  1  0.97106885  0.12977062  0.99871563  1.0
  C  C97  1  0.05312258  0.87148519  0.84150668  1.0
  C  C98  1  0.99664915  0.74078605  0.02256356  1.0
  C  C99  1  0.90940946  0.02118783  0.17364620  1.0
  C  C100  1  0.22615668  0.82211171  0.78317109  1.0
  C  C101  1  0.23598509  0.86819662  0.73149933  1.0
  C  C102  1  0.18311213  0.91046494  0.71171116  1.0
  C  C103  1  0.12329444  0.91020065  0.74684566  1.0
  C  C104  1  0.11353230  0.86402036  0.79846546  1.0
  C  C105  1  0.16417398  0.81823583  0.81483133  1.0
  C  C106  1  0.54303105  0.89018399  0.72520730  1.0
  C  C107  1  0.48028547  0.87661404  0.75419680  1.0
  C  C108  1  0.47791212  0.86552693  0.82393016  1.0
  C  C109  1  0.53713226  0.86911740  0.86417889  1.0
  C  C110  1  0.59921754  0.88530604  0.83529380  1.0
  C  C111  1  0.60168949  0.89511246  0.76541083  1.0
  C  C112  1  0.26897974  0.99007405  0.11381679  1.0
  C  C113  1  0.26691765  0.98031916  0.18375827  1.0
  C  C114  1  0.20425880  0.96847069  0.21360178  1.0
  C  C115  1  0.14528336  0.96327149  0.17388109  1.0
  C  C116  1  0.14758156  0.97116859  0.10373874  1.0
  C  C117  1  0.20949736  0.98632235  0.07405674  1.0
  C  C118  1  0.56518565  0.94423943  0.22343575  1.0
  C  C119  1  0.51094194  0.98367273  0.20138891  1.0
  C  C120  1  0.51838960  0.02492653  0.14536106  1.0
  C  C121  1  0.57925480  0.02687752  0.11168181  1.0
  C  C122  1  0.63156748  0.98416820  0.13107838  1.0
  C  C123  1  0.62417424  0.94277565  0.18700384  1.0
  C  C124  1  0.31548862  0.93464976  0.42890592  1.0
  C  C125  1  0.37892733  0.94110105  0.39898230  1.0
  C  C126  1  0.43827309  0.93439615  0.43911506  1.0
  C  C127  1  0.43422284  0.92165039  0.50754584  1.0
  C  C128  1  0.37076869  0.91518148  0.53745226  1.0
  C  C129  1  0.31145085  0.92182383  0.49727430  1.0
  C  C130  1  0.69768639  0.27927517  0.87319766  1.0
  C  C131  1  0.64090638  0.28715585  0.91324726  1.0
  C  C132  1  0.61564402  0.23196434  0.94873628  1.0
  C  C133  1  0.64942637  0.17121678  0.94761927  1.0
  C  C134  1  0.70627154  0.16350749  0.90768583  1.0
  C  C135  1  0.72901675  0.21708941  0.86880805  1.0
  C  C136  1  0.63294088  0.59229552  0.94530233  1.0
  C  C137  1  0.66197420  0.53056478  0.92755980  1.0
  C  C138  1  0.73123255  0.52901544  0.91293671  1.0
  C  C139  1  0.77092961  0.58809517  0.91659340  1.0
  C  C140  1  0.74203904  0.64914235  0.93640759  1.0
  C  C141  1  0.67269153  0.65078092  0.95033263  1.0
  C  C142  1  0.02097583  0.31396713  0.03119255  1.0
  C  C143  1  0.09057165  0.31273923  0.01812965  1.0
  C  C144  1  0.12081963  0.25090646  0.00309069  1.0
  C  C145  1  0.08167346  0.19194907  0.99843268  1.0
  C  C146  1  0.01184781  0.19348404  0.01003700  1.0
  C  C147  1  0.98191429  0.25454395  0.02795607  1.0
  C  C148  1  0.13604470  0.61476301  0.00372789  1.0
  C  C149  1  0.10576295  0.55627237  0.02927404  1.0
  C  C150  1  0.04189742  0.56012625  0.05826250  1.0
  C  C151  1  0.00826504  0.62109444  0.06066129  1.0
  C  C152  1  0.03731278  0.67849342  0.03224401  1.0
  C  C153  1  0.10153833  0.67516955  0.00422597  1.0
  C  C154  1  0.34618570  0.48582183  0.98587020  1.0
  C  C155  1  0.30564764  0.42659013  0.98533068  1.0
  C  C156  1  0.33553056  0.36411012  0.97208300  1.0
  C  C157  1  0.40431757  0.36093056  0.95983893  1.0
  C  C158  1  0.44490988  0.42013982  0.96047044  1.0
  C  C159  1  0.41502905  0.48265890  0.97361121  1.0
  C  C160  1  0.86093449  0.66676275  0.27980708  1.0
  C  C161  1  0.82271819  0.69051007  0.33360806  1.0
  C  C162  1  0.78199326  0.74700759  0.32499803  1.0
  C  C163  1  0.77900949  0.77904064  0.26320762  1.0
  C  C164  1  0.82019729  0.75757681  0.21101348  1.0
  C  C165  1  0.86149868  0.70154510  0.21972287  1.0
  C  C166  1  0.84647901  0.67887078  0.63895290  1.0
  C  C167  1  0.83023724  0.70831594  0.57690693  1.0
  C  C168  1  0.81665911  0.77766112  0.57514662  1.0
  C  C169  1  0.81980104  0.81702612  0.63431534  1.0
  C  C170  1  0.83826800  0.78772608  0.69572447  1.0
  C  C171  1  0.85117015  0.71831570  0.69756877  1.0
  C  C172  1  0.93747215  0.07021874  0.35869617  1.0
  C  C173  1  0.92224648  0.13917816  0.35746989  1.0
  C  C174  1  0.90720543  0.16936073  0.29551360  1.0
  C  C175  1  0.90484907  0.13075643  0.23632516  1.0
  C  C176  1  0.91880266  0.06156350  0.23775105  1.0
  C  C177  1  0.93659343  0.03173063  0.29903899  1.0
  C  C178  1  0.89692837  0.17903822  0.65785036  1.0
  C  C179  1  0.92770765  0.15211553  0.60064023  1.0
  C  C180  1  0.96199267  0.09097140  0.60511093  1.0
  C  C181  1  0.96534010  0.05697770  0.66575823  1.0
  C  C182  1  0.93188427  0.08244544  0.72173866  1.0
  C  C183  1  0.89771582  0.14358291  0.71753941  1.0
  C  C184  1  0.88263792  0.39216886  0.53130473  1.0
  C  C185  1  0.88432965  0.35247363  0.47175672  1.0
  C  C186  1  0.87413663  0.38328116  0.40915624  1.0
  C  C187  1  0.86296733  0.45214088  0.40612951  1.0
  C  C188  1  0.86169056  0.49193123  0.46564246  1.0
  C  C189  1  0.87149189  0.46107247  0.52828605  1.0
  N  N190  1  0.90441593  0.25161788  0.53582958  1.0
  N  N191  1  0.90336121  0.24521971  0.41584294  1.0
  N  N192  1  0.93060121  0.14846238  0.47931704  1.0
  N  N193  1  0.81908960  0.69673945  0.45509915  1.0
  N  N194  1  0.84493795  0.60060277  0.52024348  1.0
  N  N195  1  0.84428943  0.59228087  0.40040691  1.0
  N  N196  1  0.10066598  0.43453062  0.02924634  1.0
  N  N197  1  0.19753863  0.37099916  0.00241458  1.0
  N  N198  1  0.20527564  0.49098183  0.00719669  1.0
  N  N199  1  0.64900169  0.40898805  0.91342729  1.0
  N  N200  1  0.55407398  0.47426263  0.94325258  1.0
  N  N201  1  0.54409145  0.35450267  0.93842421  1.0
  N  N202  1  0.44475680  0.96026331  0.29948781  1.0
  N  N203  1  0.32431754  0.96259009  0.29107404  1.0
  N  N204  1  0.38931861  0.98947021  0.19589001  1.0
  N  N205  1  0.30394056  0.89462987  0.63574966  1.0
  N  N206  1  0.42426275  0.89423098  0.64624643  1.0
  N  N207  1  0.35797007  0.86476082  0.73988738  1.0
  O  O208  1  0.97334407  0.03419002  0.82520549  1.0
  O  O209  1  0.67183788  0.86948989  0.93376591  1.0
  O  O210  1  0.81998951  0.88514548  0.76727970  1.0
  O  O211  1  0.75570600  0.06030094  0.86724941  1.0
  O  O212  1  0.77387428  0.09796100  0.97564954  1.0
  O  O213  1  0.88297739  0.79867732  0.80572340  1.0
  O  O214  1  0.70888664  0.93082024  0.84627134  1.0
  O  O215  1  0.86401381  0.01641051  0.78818669  1.0
  O  O216  1  0.79075177  0.95628801  0.96418285  1.0
  O  O217  1  0.90775216  0.91808929  0.88439100  1.0
  O  O218  1  0.80110320  0.84900220  0.89645127  1.0
  O  O219  1  0.87902790  0.03563868  0.92103046  1.0
  O  O220  1  0.77776429  0.80723656  0.10868324  1.0
  O  O221  1  0.07574614  0.98224255  0.00428529  1.0
  O  O222  1  0.83962728  0.72090578  0.91809676  1.0
  O  O223  1  0.73363584  0.02399424  0.07958813  1.0
  O  O224  1  0.91291550  0.12264979  0.02383079  1.0
  O  O225  1  0.01300829  0.82226759  0.85169800  1.0
  O  O226  1  0.99052234  0.78381285  0.06991954  1.0
  O  O227  1  0.93566105  0.96351460  0.16685103  1.0
  O  O228  1  0.97137588  0.74412884  0.96236063  1.0
  O  O229  1  0.87192082  0.04972403  0.12886789  1.0
  O  O230  1  0.75318388  0.75899577  0.98045042  1.0
  O  O231  1  0.04906801  0.93152894  0.86670524  1.0
  O  O232  1  0.99973869  0.08567052  0.96119653  1.0
  O  O233  1  0.69707445  0.91480228  0.06526985  1.0
  O  O234  1  0.88749192  0.82457444  0.14462783  1.0
  O  O235  1  0.03997588  0.92092804  0.09242416  1.0
  O  O236  1  0.92955827  0.97754639  0.02102868  1.0
  O  O237  1  0.87202117  0.83977355  0.00297185  1.0
  O  O238  1  0.98918261  0.87767537  0.97329714  1.0
  O  O239  1  0.83068123  0.92922000  0.08167240  1.0
