# generated using pymatgen
data_Zn3H17C30(NO6)2
_symmetry_space_group_name_H-M   'P 1'
_cell_length_a   18.61377073
_cell_length_b   18.66490453
_cell_length_c   18.70095802
_cell_angle_alpha   109.68077699
_cell_angle_beta   108.98970181
_cell_angle_gamma   109.55266312
_symmetry_Int_Tables_number   1
_chemical_formula_structural   Zn3H17C30(NO6)2
_chemical_formula_sum   'Zn6 H34 C60 N4 O24'
_cell_volume   5013.09178093
_cell_formula_units_Z   2
loop_
 _symmetry_equiv_pos_site_id
 _symmetry_equiv_pos_as_xyz
  1  'x, y, z'
loop_
 _atom_site_type_symbol
 _atom_site_label
 _atom_site_symmetry_multiplicity
 _atom_site_fract_x
 _atom_site_fract_y
 _atom_site_fract_z
 _atom_site_occupancy
  Zn  Zn0  1  0.49486434  0.42970933  0.43297421  1.0
  Zn  Zn1  1  0.50623581  0.56007310  0.56567670  1.0
  Zn  Zn2  1  0.94022488  0.44082653  0.00404997  1.0
  Zn  Zn3  1  0.06868703  0.56259030  0.00190523  1.0
  Zn  Zn4  1  0.05352952  0.99363267  0.55547084  1.0
  Zn  Zn5  1  0.92643822  0.99642869  0.43564579  1.0
  H  H6  1  0.60854137  0.58071856  0.31049127  1.0
  H  H7  1  0.85518657  0.19437409  0.77021790  1.0
  H  H8  1  0.07998789  0.34498876  0.14869790  1.0
  H  H9  1  0.13832119  0.33758713  0.08986582  1.0
  H  H10  1  0.25386801  0.34269060  0.20888158  1.0
  H  H11  1  0.73782651  0.72683972  0.59116267  1.0
  H  H12  1  0.84706324  0.85076426  0.59225314  1.0
  H  H13  1  0.70900401  0.71070330  0.31129528  1.0
  H  H14  1  0.94617239  0.48597625  0.76199420  1.0
  H  H15  1  0.87309895  0.44250029  0.65005078  1.0
  H  H16  1  0.95083425  0.55584126  0.71731528  1.0
  H  H17  1  0.66158526  0.54792229  0.78827478  1.0
  H  H18  1  0.73356247  0.53148771  0.56269022  1.0
  H  H19  1  0.83645591  0.53563945  0.60245009  1.0
  H  H20  1  0.73759584  0.43408423  0.54296378  1.0
  H  H21  1  0.91191838  0.75381137  0.07568954  1.0
  H  H22  1  0.02226506  0.78747862  0.10056487  1.0
  H  H23  1  0.94385379  0.67471763  0.04253051  1.0
  H  H24  1  0.02436317  0.94733972  0.29720289  1.0
  H  H25  1  0.02361490  0.89825945  0.19707631  1.0
  H  H26  1  0.92433594  0.86936088  0.19991272  1.0
  H  H27  1  0.06282032  0.58355632  0.26410754  1.0
  H  H28  1  0.26978667  0.39454310  0.53399214  1.0
  H  H29  1  0.05096395  0.62311740  0.35800898  1.0
  H  H30  1  0.95750690  0.54177593  0.25333491  1.0
  H  H31  1  0.23501747  0.33299298  0.33197479  1.0
  H  H32  1  0.14273254  0.34842901  0.30015225  1.0
  H  H33  1  0.13761345  0.25155306  0.23145365  1.0
  H  H34  1  0.18344698  0.07860947  0.40501820  1.0
  H  H35  1  0.30796632  0.18355594  0.40372170  1.0
  H  H36  1  0.04210999  0.75147200  0.40530049  1.0
  H  H37  1  0.12984289  0.37178251  0.88226091  1.0
  H  H38  1  0.13851476  0.25712313  0.77320566  1.0
  H  H39  1  0.86065033  0.08537827  0.65239090  1.0
  C  C40  1  0.60494899  0.57613179  0.45541351  1.0
  C  C41  1  0.66761636  0.64654652  0.45093650  1.0
  C  C42  1  0.71109984  0.53825270  0.77433417  1.0
  C  C43  1  0.39213709  0.53579467  0.41978050  1.0
  C  C44  1  0.77735271  0.53658500  0.83508296  1.0
  C  C45  1  0.84253302  0.52582095  0.81727212  1.0
  C  C46  1  0.83963975  0.51475684  0.73803230  1.0
  C  C47  1  0.77096122  0.51433456  0.67565716  1.0
  C  C48  1  0.70662493  0.52520885  0.69465763  1.0
  C  C49  1  0.24932391  0.32497206  0.50393756  1.0
  C  C50  1  0.17621913  0.26553851  0.50031985  1.0
  C  C51  1  0.20207723  0.46825282  0.20818501  1.0
  C  C52  1  0.15288817  0.17623128  0.46514178  1.0
  C  C53  1  0.20080526  0.14738026  0.43085699  1.0
  C  C54  1  0.27095834  0.20592587  0.43102644  1.0
  C  C55  1  0.37511589  0.36074603  0.47596812  1.0
  C  C56  1  0.29666011  0.29534953  0.46948393  1.0
  C  C57  1  0.98324838  0.59730183  0.12051039  1.0
  C  C58  1  0.14752033  0.53856046  0.12965125  1.0
  C  C59  1  0.98794869  0.36006538  0.89608061  1.0
  C  C60  1  0.91174560  0.52299936  0.88369904  1.0
  C  C61  1  0.02098973  0.88358339  0.40315421  1.0
  C  C62  1  0.14547118  0.36931966  0.15492784  1.0
  C  C63  1  0.84879491  0.86557652  0.45759919  1.0
  C  C64  1  0.00342569  0.10172095  0.63460829  1.0
  C  C65  1  0.08303617  0.11331303  0.47151758  1.0
  C  C66  1  0.98558145  0.74010443  0.18087035  1.0
  C  C67  1  0.62817138  0.51850178  0.62986436  1.0
  C  C68  1  0.99778468  0.81269631  0.25021902  1.0
  C  C69  1  0.01658085  0.81416682  0.33029960  1.0
  C  C70  1  0.02549554  0.74659279  0.34166364  1.0
  C  C71  1  0.01203825  0.67353102  0.27353700  1.0
  C  C72  1  0.99155811  0.67122911  0.19292918  1.0
  C  C73  1  0.21429869  0.36741171  0.23028346  1.0
  C  C74  1  0.07197216  0.30765967  0.83354110  1.0
  C  C75  1  0.07658732  0.24435326  0.77236929  1.0
  C  C76  1  0.00004171  0.16490779  0.70624706  1.0
  C  C77  1  0.91996668  0.14702260  0.70467351  1.0
  C  C78  1  0.91659964  0.20803804  0.76957114  1.0
  C  C79  1  0.26083480  0.46730060  0.27617941  1.0
  C  C80  1  0.99211586  0.28967041  0.83265700  1.0
  C  C81  1  0.33069034  0.54363017  0.35205630  1.0
  C  C82  1  0.34081344  0.62392835  0.35584685  1.0
  C  C83  1  0.28377237  0.62460551  0.28344727  1.0
  C  C84  1  0.73386903  0.72305006  0.53050324  1.0
  C  C85  1  0.21254413  0.54520925  0.20751317  1.0
  C  C86  1  0.41061534  0.70603585  0.43091122  1.0
  C  C87  1  0.77541510  0.54567647  0.91330090  1.0
  C  C88  1  0.90585136  0.49871577  0.71608157  1.0
  C  C89  1  0.76968536  0.50393771  0.59185861  1.0
  C  C90  1  0.12889092  0.29707189  0.53634337  1.0
  C  C91  1  0.96459761  0.73830868  0.09520050  1.0
  C  C92  1  0.29784380  0.70711442  0.28999043  1.0
  C  C93  1  0.99293434  0.88615323  0.23605338  1.0
  C  C94  1  0.02144204  0.60179863  0.28814628  1.0
  C  C95  1  0.79324427  0.79221564  0.53105536  1.0
  C  C96  1  0.18042428  0.32269666  0.27618122  1.0
  C  C97  1  0.78334112  0.78813168  0.45194741  1.0
  C  C98  1  0.71600150  0.71285214  0.37227077  1.0
  C  C99  1  0.65982028  0.64075089  0.37183002  1.0
  N  N100  1  0.46777309  0.77391464  0.49129834  1.0
  N  N101  1  0.76973354  0.55399763  0.97568580  1.0
  N  N102  1  0.09145954  0.32405025  0.56685846  1.0
  N  N103  1  0.30911792  0.77497802  0.29655361  1.0
  O  O104  1  0.57001117  0.49466616  0.39820364  1.0
  O  O105  1  0.97124639  0.91476318  0.38317968  1.0
  O  O106  1  0.92735827  0.90134211  0.51750004  1.0
  O  O107  1  0.58995008  0.60163268  0.51838905  1.0
  O  O108  1  0.82252338  0.89223740  0.40433918  1.0
  O  O109  1  0.06278987  0.08041526  0.65696101  1.0
  O  O110  1  0.94796208  0.07470322  0.55693297  1.0
  O  O111  1  0.11127310  0.08934978  0.52508704  1.0
  O  O112  1  0.00267760  0.08877257  0.42324223  1.0
  O  O113  1  0.40516683  0.47249067  0.38914181  1.0
  O  O114  1  0.42578331  0.58985145  0.50112564  1.0
  O  O115  1  0.03253758  0.61826635  0.08885823  1.0
  O  O116  1  0.40168600  0.33190632  0.42276030  1.0
  O  O117  1  0.40965404  0.44049269  0.53317386  1.0
  O  O118  1  0.59176065  0.46022284  0.55040980  1.0
  O  O119  1  0.60157085  0.57113583  0.66013651  1.0
  O  O120  1  0.92917591  0.51754208  0.09489380  1.0
  O  O121  1  0.06903385  0.48029181  0.09808840  1.0
  O  O122  1  0.17437779  0.58811473  0.09961820  1.0
  O  O123  1  0.93128369  0.33716258  0.92101146  1.0
  O  O124  1  0.04073232  0.43885785  0.92089044  1.0
  O  O125  1  0.88448802  0.46948413  0.90869969  1.0
  O  O126  1  0.99265241  0.57493966  0.91103789  1.0
  O  O127  1  0.07254465  0.90742166  0.48282277  1.0
