# generated using pymatgen
data_Zn4H7C14BrO13
_symmetry_space_group_name_H-M   'P 1'
_cell_length_a   10.87761380
_cell_length_b   10.90980113
_cell_length_c   13.33019150
_cell_angle_alpha   94.64893021
_cell_angle_beta   100.09027920
_cell_angle_gamma   96.68796831
_symmetry_Int_Tables_number   1
_chemical_formula_structural   Zn4H7C14BrO13
_chemical_formula_sum   'Zn4 H7 C14 Br1 O13'
_cell_volume   1538.51393116
_cell_formula_units_Z   1
loop_
 _symmetry_equiv_pos_site_id
 _symmetry_equiv_pos_as_xyz
  1  'x, y, z'
loop_
 _atom_site_type_symbol
 _atom_site_label
 _atom_site_symmetry_multiplicity
 _atom_site_fract_x
 _atom_site_fract_y
 _atom_site_fract_z
 _atom_site_occupancy
  Zn  Zn0  1  0.39807160  0.59226688  0.42028024  1.0
  Zn  Zn1  1  0.59870460  0.40581686  0.40855778  1.0
  Zn  Zn2  1  0.41636018  0.38155654  0.56964484  1.0
  Zn  Zn3  1  0.63588592  0.61481232  0.60429217  1.0
  H  H4  1  0.59685423  0.49135170  0.08544192  1.0
  H  H5  1  0.03323722  0.64697979  0.53810961  1.0
  H  H6  1  0.48715044  0.98599560  0.37942437  1.0
  H  H7  1  0.99171809  0.36575806  0.46643396  1.0
  H  H8  1  0.65140594  0.53664598  0.92988996  1.0
  H  H9  1  0.31127992  0.45866922  0.08472749  1.0
  H  H10  1  0.53898521  0.00923802  0.61640495  1.0
  C  C11  1  0.50232080  0.16723275  0.46984494  1.0
  C  C12  1  0.84576126  0.53564667  0.51438900  1.0
  C  C13  1  0.52492760  0.82875273  0.52550619  1.0
  C  C14  1  0.54597737  0.50159918  0.77412997  1.0
  C  C15  1  0.44904871  0.48248284  0.22775427  1.0
  C  C16  1  0.41209553  0.46867025  0.11496718  1.0
  C  C17  1  0.49631119  0.47664944  0.05198866  1.0
  C  C18  1  0.18110530  0.47187333  0.49105579  1.0
  C  C19  1  0.55736926  0.50207186  0.88619749  1.0
  C  C20  1  0.46663487  0.47025560  0.94101786  1.0
  C  C21  1  0.52030438  0.96450991  0.53806797  1.0
  C  C22  1  0.98293118  0.55406691  0.51300354  1.0
  C  C23  1  0.49983857  0.03042435  0.45755742  1.0
  C  C24  1  0.04285869  0.45912910  0.48678345  1.0
  Br  Br25  1  0.29519989  0.41913937  0.87929113  1.0
  O  O26  1  0.51548658  0.49958533  0.50224279  1.0
  O  O27  1  0.78061849  0.43987489  0.46085276  1.0
  O  O28  1  0.23424672  0.37796880  0.51802403  1.0
  O  O29  1  0.46454688  0.21453900  0.54785947  1.0
  O  O30  1  0.80554784  0.61789414  0.56961089  1.0
  O  O31  1  0.58605475  0.78377863  0.60159366  1.0
  O  O32  1  0.45268381  0.43383709  0.71677984  1.0
  O  O33  1  0.55604913  0.45390148  0.26823775  1.0
  O  O34  1  0.36749974  0.52336529  0.27593992  1.0
  O  O35  1  0.63432590  0.56985163  0.74465845  1.0
  O  O36  1  0.54279390  0.22566037  0.40020358  1.0
  O  O37  1  0.23500576  0.57309660  0.46773923  1.0
  O  O38  1  0.46739076  0.76860770  0.44069472  1.0
