# generated using pymatgen
data_AlH9C24(NO4)3
_symmetry_space_group_name_H-M   'P 1'
_cell_length_a   4.02392035
_cell_length_b   28.97907428
_cell_length_c   28.97607329
_cell_angle_alpha   59.99696974
_cell_angle_beta   89.99710904
_cell_angle_gamma   89.99947649
_symmetry_Int_Tables_number   1
_chemical_formula_structural   AlH9C24(NO4)3
_chemical_formula_sum   'Al2 H18 C48 N6 O24'
_cell_volume   2926.11091577
_cell_formula_units_Z   2
loop_
 _symmetry_equiv_pos_site_id
 _symmetry_equiv_pos_as_xyz
  1  'x, y, z'
loop_
 _atom_site_type_symbol
 _atom_site_label
 _atom_site_symmetry_multiplicity
 _atom_site_fract_x
 _atom_site_fract_y
 _atom_site_fract_z
 _atom_site_occupancy
  Al  Al0  1  0.04268192  0.50000790  0.99998379  1.0
  Al  Al1  1  0.04320930  0.16664557  0.66669657  1.0
  H  H2  1  0.85213681  0.30078101  0.51748627  1.0
  H  H3  1  0.84473499  0.34856634  0.41789695  1.0
  H  H4  1  0.25266279  0.17569576  0.52130252  1.0
  H  H5  1  0.25226256  0.49093532  0.14539795  1.0
  H  H6  1  0.85183316  0.36586920  0.14918276  1.0
  H  H7  1  0.84467704  0.31810027  0.24877173  1.0
  H  H8  1  0.85213701  0.18172478  0.80082272  1.0
  H  H9  1  0.84483651  0.23354168  0.84858607  1.0
  H  H10  1  0.25260828  0.30299323  0.67572296  1.0
  H  H11  1  0.25225496  0.36368175  0.99091734  1.0
  H  H12  1  0.85190006  0.48496346  0.86583514  1.0
  H  H13  1  0.84476565  0.43315340  0.81806505  1.0
  H  H14  1  0.85216156  0.01747965  0.68173482  1.0
  H  H15  1  0.84485638  0.91789937  0.73352495  1.0
  H  H16  1  0.25256757  0.02123652  0.80304239  1.0
  H  H17  1  0.25224347  0.64541527  0.86365808  1.0
  H  H18  1  0.85182580  0.64918561  0.98495173  1.0
  H  H19  1  0.84473420  0.74876526  0.93313294  1.0
  C  C20  1  0.54469448  0.58165503  0.95901349  1.0
  C  C21  1  0.54466660  0.45933160  0.08163786  1.0
  C  C22  1  0.54472096  0.45903443  0.95930830  1.0
  C  C23  1  0.54522561  0.20729879  0.58504257  1.0
  C  C24  1  0.54517374  0.20764685  0.70734145  1.0
  C  C25  1  0.54516790  0.08500225  0.70769046  1.0
  C  C26  1  0.55261619  0.23528761  0.52582222  1.0
  C  C27  1  0.72214855  0.28389507  0.49636271  1.0
  C  C28  1  0.71998311  0.31030950  0.44112834  1.0
  C  C29  1  0.55850707  0.28812291  0.41323492  1.0
  C  C30  1  0.39663618  0.23853728  0.44403102  1.0
  C  C31  1  0.38786698  0.21299468  0.49925748  1.0
  C  C32  1  0.56067577  0.31712813  0.35718280  1.0
  C  C33  1  0.56071060  0.34953924  0.30949749  1.0
  C  C34  1  0.55847066  0.37854149  0.25344578  1.0
  C  C35  1  0.39653047  0.42812202  0.22265546  1.0
  C  C36  1  0.38757317  0.45364855  0.16743148  1.0
  C  C37  1  0.55224152  0.43135448  0.14085894  1.0
  C  C38  1  0.72189331  0.38275724  0.17031141  1.0
  C  C39  1  0.71988123  0.35635261  0.22554620  1.0
  C  C40  1  0.55257583  0.23888312  0.73532123  1.0
  C  C41  1  0.72214243  0.21973787  0.78392480  1.0
  C  C42  1  0.72002681  0.24856555  0.81032888  1.0
  C  C43  1  0.55860196  0.29864553  0.78813214  1.0
  C  C44  1  0.39670098  0.31742915  0.73854855  1.0
  C  C45  1  0.38784956  0.28774493  0.71301765  1.0
  C  C46  1  0.56086226  0.32569801  0.81712455  1.0
  C  C47  1  0.56090809  0.34098161  0.84952781  1.0
  C  C48  1  0.55862308  0.36803468  0.87851905  1.0
  C  C49  1  0.39663096  0.34924571  0.92809925  1.0
  C  C50  1  0.38763163  0.37893377  0.95362663  1.0
  C  C51  1  0.55233159  0.42780212  0.93132885  1.0
  C  C52  1  0.72197774  0.44694612  0.88273016  1.0
  C  C53  1  0.71997797  0.41811815  0.85632529  1.0
  C  C54  1  0.55260976  0.02578571  0.73891458  1.0
  C  C55  1  0.72219224  0.99634582  0.71975194  1.0
  C  C56  1  0.72009147  0.94111558  0.74856472  1.0
  C  C57  1  0.55868109  0.91321325  0.79865058  1.0
  C  C58  1  0.39673011  0.94398923  0.81745968  1.0
  C  C59  1  0.38785915  0.99920545  0.78778258  1.0
  C  C60  1  0.56089983  0.85716821  0.82569393  1.0
  C  C61  1  0.56087882  0.80948644  0.84096322  1.0
  C  C62  1  0.55857212  0.75344324  0.86801256  1.0
  C  C63  1  0.39657037  0.72266073  0.84921761  1.0
  C  C64  1  0.38757317  0.66744376  0.87891072  1.0
  C  C65  1  0.55225541  0.64087200  0.92777814  1.0
  C  C66  1  0.72191634  0.67031421  0.94693132  1.0
  C  C67  1  0.71994149  0.72554245  0.91810461  1.0
  N  N68  1  0.21837031  0.21333023  0.41800312  1.0
  N  N69  1  0.21838770  0.45334021  0.24868290  1.0
  N  N70  1  0.21845722  0.36867183  0.71333074  1.0
  N  N71  1  0.21842383  0.29799517  0.95332218  1.0
  N  N72  1  0.21847270  0.91794604  0.86870252  1.0
  N  N73  1  0.21844398  0.74869987  0.79796674  1.0
  O  O74  1  0.30661675  0.44958336  0.99195877  1.0
  O  O75  1  0.30662815  0.55845948  0.94955488  1.0
  O  O76  1  0.30658096  0.49198048  0.05844029  1.0
  O  O77  1  0.77668701  0.49294788  0.94888868  1.0
  O  O78  1  0.77665391  0.44891733  0.05813882  1.0
  O  O79  1  0.77668432  0.55815596  0.99292556  1.0
  O  O80  1  0.30714628  0.10820746  0.71714553  1.0
  O  O81  1  0.30722826  0.17463395  0.60826091  1.0
  O  O82  1  0.30717012  0.21709194  0.67467867  1.0
  O  O83  1  0.77721806  0.10848831  0.67378315  1.0
  O  O84  1  0.77720543  0.17373958  0.71777022  1.0
  O  O85  1  0.77727582  0.21772131  0.60852247  1.0
  O  O86  1  0.23368689  0.23527647  0.36875474  1.0
  O  O87  1  0.05920082  0.17206241  0.44690112  1.0
  O  O88  1  0.23389926  0.43141967  0.29792677  1.0
  O  O89  1  0.05910654  0.49459565  0.21978867  1.0
  O  O90  1  0.23380553  0.39597772  0.73526740  1.0
  O  O91  1  0.05930353  0.38104394  0.67206212  1.0
  O  O92  1  0.23392106  0.27068654  0.93139095  1.0
  O  O93  1  0.05915422  0.28563140  0.99458140  1.0
  O  O94  1  0.23399163  0.86870700  0.89601284  1.0
  O  O95  1  0.05910252  0.94682713  0.88107121  1.0
  O  O96  1  0.23398432  0.79793997  0.77065150  1.0
  O  O97  1  0.05914732  0.71981599  0.78559504  1.0
