# generated using pymatgen
data_ZnH13C17I2NO5
_symmetry_space_group_name_H-M   'P 1'
_cell_length_a   8.88111299
_cell_length_b   13.96883456
_cell_length_c   15.31792636
_cell_angle_alpha   91.88144183
_cell_angle_beta   91.07798119
_cell_angle_gamma   99.00168058
_symmetry_Int_Tables_number   1
_chemical_formula_structural   ZnH13C17I2NO5
_chemical_formula_sum   'Zn2 H26 C34 I4 N2 O10'
_cell_volume   1875.35463798
_cell_formula_units_Z   2
loop_
 _symmetry_equiv_pos_site_id
 _symmetry_equiv_pos_as_xyz
  1  'x, y, z'
loop_
 _atom_site_type_symbol
 _atom_site_label
 _atom_site_symmetry_multiplicity
 _atom_site_fract_x
 _atom_site_fract_y
 _atom_site_fract_z
 _atom_site_occupancy
  Zn  Zn0  1  0.48465055  0.39722730  0.49364656  1.0
  Zn  Zn1  1  0.50144609  0.59907721  0.50382831  1.0
  H  H2  1  0.01806319  0.60913127  0.49108207  1.0
  H  H3  1  0.38007460  0.23694148  0.61063588  1.0
  H  H4  1  0.26429558  0.72221016  0.48350238  1.0
  H  H5  1  0.59631722  0.25335580  0.37334179  1.0
  H  H6  1  0.73493562  0.35191018  0.70106102  1.0
  H  H7  1  0.78681254  0.34377269  0.81412692  1.0
  H  H8  1  0.00269105  0.44299126  0.67907596  1.0
  H  H9  1  0.04893710  0.42074366  0.78874448  1.0
  H  H10  1  0.99481377  0.23957653  0.75408017  1.0
  H  H11  1  0.13800197  0.29902779  0.68609758  1.0
  H  H12  1  0.94988817  0.26292735  0.64389720  1.0
  H  H13  1  0.96760874  0.38641183  0.50305094  1.0
  H  H14  1  0.22417217  0.69536208  0.31509728  1.0
  H  H15  1  0.23183213  0.56931474  0.31274235  1.0
  H  H16  1  0.09222964  0.67869343  0.16852802  1.0
  H  H17  1  0.10466945  0.55377618  0.16262241  1.0
  H  H18  1  0.93797198  0.52596803  0.29433849  1.0
  H  H19  1  0.84392556  0.58005374  0.21016939  1.0
  H  H20  1  0.92525757  0.65137861  0.30218225  1.0
  H  H21  1  0.27747615  0.51270436  0.77323195  1.0
  H  H22  1  0.54350088  0.36354662  0.21877739  1.0
  H  H23  1  0.27458483  0.51475492  0.93529544  1.0
  H  H24  1  0.57174119  0.36895129  0.05725547  1.0
  H  H25  1  0.73440688  0.95975823  0.51530509  1.0
  H  H26  1  0.37667763  0.05644957  0.61373227  1.0
  H  H27  1  0.73194703  0.77940601  0.52307155  1.0
  C  C28  1  0.51129533  0.49396774  0.66886781  1.0
  C  C29  1  0.55377670  0.10700170  0.42197879  1.0
  C  C30  1  0.49039437  0.94459189  0.49300980  1.0
  C  C31  1  0.49037392  0.05051573  0.49033924  1.0
  C  C32  1  0.78686933  0.52557504  0.49234162  1.0
  C  C33  1  0.19823125  0.47283800  0.50309027  1.0
  C  C34  1  0.95516234  0.53575789  0.49283813  1.0
  C  C35  1  0.02949458  0.45994424  0.49965898  1.0
  C  C36  1  0.64845150  0.49830475  0.90651917  1.0
  C  C37  1  0.45164627  0.58540749  0.09522541  1.0
  C  C38  1  0.64852467  0.48992821  0.81455478  1.0
  C  C39  1  0.47191601  0.49756658  0.32871174  1.0
  C  C40  1  0.42777727  0.58090069  0.18594355  1.0
  C  C41  1  0.51399201  0.49578419  0.76697780  1.0
  C  C42  1  0.46669826  0.50108770  0.23092146  1.0
  C  C43  1  0.38069336  0.50648665  0.81079463  1.0
  C  C44  1  0.51649742  0.42519419  0.18322122  1.0
  C  C45  1  0.37993900  0.50921216  0.90138351  1.0
  C  C46  1  0.53382455  0.42882742  0.09359315  1.0
  C  C47  1  0.51389906  0.50684224  0.95115832  1.0
  C  C48  1  0.50345007  0.50950282  0.04780906  1.0
  C  C49  1  0.81170137  0.38562349  0.75476271  1.0
  C  C50  1  0.62780622  0.90933513  0.50778651  1.0
  C  C51  1  0.97798647  0.39127670  0.73153300  1.0
  C  C52  1  0.01702611  0.29255106  0.70247488  1.0
  C  C53  1  0.22881713  0.63192149  0.27143992  1.0
  C  C54  1  0.09191300  0.61449101  0.20829815  1.0
  C  C55  1  0.94179712  0.59174643  0.25636548  1.0
  C  C56  1  0.42648086  0.09775472  0.55933192  1.0
  C  C57  1  0.62779598  0.81028791  0.51268243  1.0
  C  C58  1  0.42719688  0.19709743  0.55814464  1.0
  C  C59  1  0.36486513  0.77801461  0.48991930  1.0
  C  C60  1  0.54954508  0.20664735  0.42512064  1.0
  C  C61  1  0.35647132  0.87648198  0.48330360  1.0
  I  I62  1  0.86086996  0.50758841  0.97348791  1.0
  I  I63  1  0.41273255  0.71340309  0.03480784  1.0
  I  I64  1  0.14255295  0.91544093  0.45337145  1.0
  I  I65  1  0.64892760  0.04676503  0.31274119  1.0
  N  N66  1  0.49786814  0.74641349  0.50423019  1.0
  N  N67  1  0.48734445  0.24982245  0.49175857  1.0
  O  O68  1  0.52548537  0.41487178  0.62868841  1.0
  O  O69  1  0.37132631  0.65570780  0.22649474  1.0
  O  O70  1  0.50948373  0.57778919  0.37094719  1.0
  O  O71  1  0.48968619  0.57236191  0.63452477  1.0
  O  O72  1  0.44462839  0.41402807  0.36178488  1.0
  O  O73  1  0.71129056  0.44141277  0.47611480  1.0
  O  O74  1  0.26997058  0.55787099  0.49214619  1.0
  O  O75  1  0.73241971  0.60315995  0.50948714  1.0
  O  O76  1  0.25819599  0.39711932  0.51592544  1.0
  O  O77  1  0.78101964  0.48383720  0.77115163  1.0
