# generated using pymatgen
data_Zn2H27(C22O5)2
_symmetry_space_group_name_H-M   'P 1'
_cell_length_a   12.49124737
_cell_length_b   15.59278709
_cell_length_c   15.92249198
_cell_angle_alpha   89.29500086
_cell_angle_beta   83.78128431
_cell_angle_gamma   88.05876680
_symmetry_Int_Tables_number   1
_chemical_formula_structural   Zn2H27(C22O5)2
_chemical_formula_sum   'Zn4 H54 C88 O20'
_cell_volume   3081.14249116
_cell_formula_units_Z   2
loop_
 _symmetry_equiv_pos_site_id
 _symmetry_equiv_pos_as_xyz
  1  'x, y, z'
loop_
 _atom_site_type_symbol
 _atom_site_label
 _atom_site_symmetry_multiplicity
 _atom_site_fract_x
 _atom_site_fract_y
 _atom_site_fract_z
 _atom_site_occupancy
  Zn  Zn0  1  0.64253986  0.02812038  0.90582346  1.0
  Zn  Zn1  1  0.41926911  0.04298134  0.92953936  1.0
  Zn  Zn2  1  0.12271048  0.53706893  0.40741146  1.0
  Zn  Zn3  1  0.90765185  0.53849271  0.44653820  1.0
  H  H4  1  0.33093608  0.52807013  0.33774488  1.0
  H  H5  1  0.71975742  0.58630589  0.41445786  1.0
  H  H6  1  0.89134467  0.76452155  0.59797385  1.0
  H  H7  1  0.90346139  0.89049554  0.68844547  1.0
  H  H8  1  0.23503965  0.81863834  0.71518543  1.0
  H  H9  1  0.22339736  0.69609859  0.61847829  1.0
  H  H10  1  0.96034036  0.01888683  0.69120541  1.0
  H  H11  1  0.88772335  0.87346968  0.83308560  1.0
  H  H12  1  0.87931022  0.85519221  0.98511414  1.0
  H  H13  1  0.21235818  0.18697879  0.63171636  1.0
  H  H14  1  0.18055865  0.31738049  0.54444425  1.0
  H  H15  1  0.84967033  0.33011905  0.65005996  1.0
  H  H16  1  0.88101682  0.20177459  0.74050164  1.0
  H  H17  1  0.85022750  0.33572827  0.27287828  1.0
  H  H18  1  0.84580267  0.20496438  0.18397771  1.0
  H  H19  1  0.19279826  0.19260881  0.14928527  1.0
  H  H20  1  0.19558133  0.32288271  0.23866040  1.0
  H  H21  1  0.97319595  0.03023773  0.21367254  1.0
  H  H22  1  0.09411472  0.24734416  0.00963387  1.0
  H  H23  1  0.12484114  0.25095321  0.85314663  1.0
  H  H24  1  0.07828138  0.81172750  0.06371010  1.0
  H  H25  1  0.09344700  0.68631448  0.16028730  1.0
  H  H26  1  0.84200358  0.79729993  0.33499475  1.0
  H  H27  1  0.83271065  0.92640969  0.24245374  1.0
  H  H28  1  0.31851437  0.57801651  0.42325607  1.0
  H  H29  1  0.69729749  0.50980920  0.47833860  1.0
  H  H30  1  0.35544637  0.33681886  0.61507596  1.0
  H  H31  1  0.34931667  0.24491249  0.74540117  1.0
  H  H32  1  0.37285176  0.83359167  0.57730627  1.0
  H  H33  1  0.39254671  0.91931773  0.70651916  1.0
  H  H34  1  0.37129422  0.36738637  0.23341295  1.0
  H  H35  1  0.36214661  0.27716693  0.10613672  1.0
  H  H36  1  0.34642307  0.79283613  0.27412244  1.0
  H  H37  1  0.35443630  0.87994602  0.14070912  1.0
  H  H38  1  0.68215323  0.17039251  0.68356170  1.0
  H  H39  1  0.68849650  0.25952426  0.55113529  1.0
  H  H40  1  0.53149612  0.24346469  0.41847034  1.0
  H  H41  1  0.51369975  0.45563040  0.63523064  1.0
  H  H42  1  0.74441868  0.12346201  0.97333071  1.0
  H  H43  1  0.83512626  0.05137706  0.95264450  1.0
  H  H44  1  0.50908482  0.61335548  0.63738633  1.0
  H  H45  1  0.70784481  0.80530361  0.71995880  1.0
  H  H46  1  0.68603710  0.71454420  0.59486560  1.0
  H  H47  1  0.66032158  0.14836387  0.15025749  1.0
  H  H48  1  0.66778477  0.23540607  0.28007783  1.0
  H  H49  1  0.52632292  0.46542492  0.20617041  1.0
  H  H50  1  0.69952953  0.85172942  0.11080469  1.0
  H  H51  1  0.69268721  0.76385057  0.24340986  1.0
  H  H52  1  0.51904732  0.83449410  0.42430662  1.0
  H  H53  1  0.52108528  0.62300328  0.20858489  1.0
  H  H54  1  0.16295302  0.09311841  0.72374411  1.0
  H  H55  1  0.17053412  0.95598918  0.76417690  1.0
  H  H56  1  0.22481380  0.00223256  0.98910704  1.0
  H  H57  1  0.21382146  0.06112355  0.91055730  1.0
  C  C58  1  0.51206325  0.14698985  0.79882876  1.0
  C  C59  1  0.50716666  0.15319264  0.04396577  1.0
  C  C60  1  0.05669967  0.72289597  0.60131003  1.0
  C  C61  1  0.96655867  0.77715787  0.62373486  1.0
  C  C62  1  0.97404986  0.84769197  0.67513370  1.0
  C  C63  1  0.07146796  0.86504022  0.70767168  1.0
  C  C64  1  0.15954015  0.80739445  0.68902385  1.0
  C  C65  1  0.15312800  0.73826779  0.63529724  1.0
  C  C66  1  0.08720635  0.94531946  0.75300568  1.0
  C  C67  1  0.01855995  0.02295255  0.73718977  1.0
  C  C68  1  0.07744225  0.10824294  0.74512852  1.0
  C  C69  1  0.07041708  0.12149371  0.83987386  1.0
  C  C70  1  0.03280337  0.04827270  0.88207634  1.0
  C  C71  1  0.00119100  0.98107864  0.82601103  1.0
  C  C72  1  0.92987996  0.91756107  0.86940734  1.0
  C  C73  1  0.92551658  0.90736904  0.95485394  1.0
  C  C74  1  0.04918769  0.18508338  0.69199576  1.0
  C  C75  1  0.13254852  0.21856464  0.63619834  1.0
  C  C76  1  0.11561302  0.29122655  0.58735622  1.0
  C  C77  1  0.01362100  0.33212095  0.59218987  1.0
  C  C78  1  0.92913133  0.29836930  0.64672559  1.0
  C  C79  1  0.94686937  0.22602452  0.69680763  1.0
  C  C80  1  0.99874587  0.41060734  0.53844336  1.0
  C  C81  1  0.02663348  0.41550053  0.31423110  1.0
  C  C82  1  0.02322027  0.33759958  0.26044459  1.0
  C  C83  1  0.92466384  0.30374351  0.24557828  1.0
  C  C84  1  0.92267506  0.23060834  0.19647350  1.0
  C  C85  1  0.01886009  0.18991546  0.16110197  1.0
  C  C86  1  0.11753686  0.22401948  0.17605346  1.0
  C  C87  1  0.11939902  0.29686272  0.22556563  1.0
  C  C88  1  0.01343447  0.11285424  0.10812709  1.0
  C  C89  1  0.98306007  0.03521462  0.14484642  1.0
  C  C90  1  0.96647486  0.96036416  0.09825379  1.0
  C  C91  1  0.97143679  0.96725944  0.00982662  1.0
  C  C92  1  0.01454723  0.04391047  0.97088387  1.0
  C  C93  1  0.03686757  0.11757695  0.01816202  1.0
  C  C94  1  0.07747014  0.19125908  0.97365408  1.0
  C  C95  1  0.09514736  0.19325193  0.88599666  1.0
  C  C96  1  0.95536360  0.87876793  0.14651878  1.0
  C  C97  1  0.02569267  0.80851350  0.12298540  1.0
  C  C98  1  0.03442526  0.73813251  0.17695275  1.0
  C  C99  1  0.96912954  0.73395364  0.25416098  1.0
  C  C100  1  0.89402974  0.80115695  0.27554697  1.0
  C  C101  1  0.88874060  0.87322325  0.22335628  1.0
  C  C102  1  0.98106825  0.66095574  0.31537241  1.0
  C  C103  1  0.42691716  0.30005943  0.63013183  1.0
  C  C104  1  0.42327067  0.24923690  0.70270702  1.0
  C  C105  1  0.44580347  0.82696845  0.60917781  1.0
  C  C106  1  0.45653613  0.87480562  0.68076916  1.0
  C  C107  1  0.43525621  0.31977648  0.21475128  1.0
  C  C108  1  0.42966849  0.26943099  0.14387221  1.0
  C  C109  1  0.42374416  0.80585309  0.23826659  1.0
  C  C110  1  0.42789332  0.85408233  0.16391789  1.0
  C  C111  1  0.51562865  0.20277814  0.72188433  1.0
  C  C112  1  0.61122084  0.20692564  0.66746130  1.0
  C  C113  1  0.61427281  0.25622321  0.59385898  1.0
  C  C114  1  0.52224126  0.30335702  0.57483193  1.0
  C  C115  1  0.52469415  0.35519190  0.49624788  1.0
  C  C116  1  0.52948507  0.31349673  0.41892398  1.0
  C  C117  1  0.51879667  0.44594134  0.49872812  1.0
  C  C118  1  0.51412958  0.49210840  0.57643058  1.0
  C  C119  1  0.51162348  0.57967290  0.57763866  1.0
  C  C120  1  0.51792505  0.71960426  0.50039545  1.0
  C  C121  1  0.51445693  0.62904349  0.50111331  1.0
  C  C122  1  0.51595215  0.58487014  0.42253691  1.0
  C  C123  1  0.52798747  0.76851783  0.57811786  1.0
  C  C124  1  0.55100815  0.86748147  0.72077046  1.0
  C  C125  1  0.63409155  0.81020683  0.68912061  1.0
  C  C126  1  0.62190635  0.75988917  0.61925640  1.0
  C  C127  1  0.52481428  0.35805918  0.34252389  1.0
  C  C128  1  0.52152117  0.44889050  0.34251527  1.0
  C  C129  1  0.51897647  0.49305554  0.42110495  1.0
  C  C130  1  0.52097528  0.30812848  0.26464850  1.0
  C  C131  1  0.51145228  0.20807826  0.11995683  1.0
  C  C132  1  0.59744028  0.19664962  0.16908180  1.0
  C  C133  1  0.60134821  0.24515954  0.24135436  1.0
  C  C134  1  0.52204168  0.49872630  0.26622885  1.0
  C  C135  1  0.53079324  0.92600817  0.04042171  1.0
  C  C136  1  0.52725085  0.87084817  0.11800478  1.0
  C  C137  1  0.62264658  0.83810109  0.14676926  1.0
  C  C138  1  0.61857019  0.78951146  0.22087662  1.0
  C  C139  1  0.51923759  0.77368391  0.26745609  1.0
  C  C140  1  0.51607799  0.72291745  0.34697918  1.0
  C  C141  1  0.51635162  0.76459513  0.42395292  1.0
  C  C142  1  0.51699367  0.63234494  0.34500241  1.0
  C  C143  1  0.51961952  0.58640920  0.26742166  1.0
  C  C144  1  0.04962062  0.65284461  0.53880940  1.0
  C  C145  1  0.56098565  0.92254137  0.79569636  1.0
  O  O146  1  0.78208788  0.08822100  0.92745581  1.0
  O  O147  1  0.62290486  0.94039532  0.00095903  1.0
  O  O148  1  0.41543308  0.13965973  0.01979206  1.0
  O  O149  1  0.25895311  0.01546189  0.93278899  1.0
  O  O150  1  0.47359198  0.95150481  0.83523633  1.0
  O  O151  1  0.28837053  0.53250539  0.39266952  1.0
  O  O152  1  0.74391195  0.55800403  0.46428297  1.0
  O  O153  1  0.11969583  0.44509664  0.32019804  1.0
  O  O154  1  0.93802176  0.44610946  0.35076580  1.0
  O  O155  1  0.08391479  0.44210307  0.50060891  1.0
  O  O156  1  0.95597099  0.62849864  0.52756612  1.0
  O  O157  1  0.13787707  0.62380789  0.49941384  1.0
  O  O158  1  0.41905523  0.12950466  0.83520051  1.0
  O  O159  1  0.59662223  0.12183650  0.00929470  1.0
  O  O160  1  0.90311827  0.44046022  0.53319790  1.0
  O  O161  1  0.65589227  0.93811654  0.81381215  1.0
  O  O162  1  0.60196430  0.12009162  0.82168709  1.0
  O  O163  1  0.44043249  0.95588722  0.02064378  1.0
  O  O164  1  0.89496463  0.63524450  0.35716898  1.0
  O  O165  1  0.07604188  0.63146296  0.32227344  1.0
