# generated using pymatgen
data_Zn4C40Br16Cl4O13
_symmetry_space_group_name_H-M   'P 1'
_cell_length_a   24.04812631
_cell_length_b   24.04839741
_cell_length_c   24.04668622
_cell_angle_alpha   66.41588408
_cell_angle_beta   72.54360005
_cell_angle_gamma   107.45502511
_symmetry_Int_Tables_number   1
_chemical_formula_structural   Zn4C40Br16Cl4O13
_chemical_formula_sum   'Zn8 C80 Br32 Cl8 O26'
_cell_volume   10663.41808913
_cell_formula_units_Z   2
loop_
 _symmetry_equiv_pos_site_id
 _symmetry_equiv_pos_as_xyz
  1  'x, y, z'
loop_
 _atom_site_type_symbol
 _atom_site_label
 _atom_site_symmetry_multiplicity
 _atom_site_fract_x
 _atom_site_fract_y
 _atom_site_fract_z
 _atom_site_occupancy
  Zn  Zn0  1  0.05650470  0.09907741  0.45741161  1.0
  Zn  Zn1  1  0.05650042  0.95742212  0.48607548  1.0
  Zn  Zn2  1  0.94349456  0.95740986  0.59909086  1.0
  Zn  Zn3  1  0.94350883  0.98608974  0.45740963  1.0
  Zn  Zn4  1  0.94349983  0.40092189  0.04258454  1.0
  Zn  Zn5  1  0.05650635  0.54258633  0.90090970  1.0
  Zn  Zn6  1  0.94350091  0.54257856  0.01392078  1.0
  Zn  Zn7  1  0.05648977  0.51391163  0.04259237  1.0
  C  C8  1  0.18037913  0.09018575  0.40980549  1.0
  C  C9  1  0.99999235  0.86294295  0.63706179  1.0
  C  C10  1  0.99999285  0.09017404  0.59019719  1.0
  C  C11  1  0.81962460  0.90982204  0.59017589  1.0
  C  C12  1  0.00000588  0.13705981  0.36294242  1.0
  C  C13  1  0.99999705  0.90981387  0.40980910  1.0
  C  C14  1  0.00000162  0.40982425  0.90979989  1.0
  C  C15  1  0.00001193  0.63705688  0.86293522  1.0
  C  C16  1  0.81962465  0.40981645  0.09019734  1.0
  C  C17  1  0.99999351  0.59019130  0.09018764  1.0
  C  C18  1  0.99999292  0.36294104  0.13705931  1.0
  C  C19  1  0.18037479  0.59018761  0.90982507  1.0
  C  C20  1  0.00000284  0.19489606  0.30510412  1.0
  C  C21  1  0.99999789  0.30510427  0.19489515  1.0
  C  C22  1  0.95743539  0.18050721  0.27693048  1.0
  C  C23  1  0.04256689  0.31949364  0.22306813  1.0
  C  C24  1  0.95743366  0.23436275  0.22307390  1.0
  C  C25  1  0.04256862  0.26563810  0.27692429  1.0
  C  C26  1  0.99999889  0.80510548  0.69489490  1.0
  C  C27  1  0.00000521  0.69489364  0.80510240  1.0
  C  C28  1  0.95743552  0.77692320  0.76564534  1.0
  C  C29  1  0.04256726  0.72307591  0.73435278  1.0
  C  C30  1  0.95743939  0.72306664  0.81949960  1.0
  C  C31  1  0.04256407  0.77693299  0.68049852  1.0
  C  C32  1  0.99999938  0.37210441  0.87208081  1.0
  C  C33  1  0.95709578  0.29950529  0.90777605  1.0
  C  C34  1  0.95736423  0.26501455  0.87242792  1.0
  C  C35  1  0.99999145  0.30040511  0.80038702  1.0
  C  C36  1  0.04262445  0.37243695  0.76499066  1.0
  C  C37  1  0.04290100  0.40778869  0.79947866  1.0
  C  C38  1  0.99998221  0.26522368  0.76520764  1.0
  C  C39  1  0.99997562  0.23478748  0.73477785  1.0
  C  C40  1  0.99997429  0.19960241  0.69960004  1.0
  C  C41  1  0.95735688  0.12756499  0.73500353  1.0
  C  C42  1  0.95708668  0.09221376  0.70051507  1.0
  C  C43  1  0.99997624  0.12789996  0.62791035  1.0
  C  C44  1  0.04285649  0.20050453  0.59220878  1.0
  C  C45  1  0.04258899  0.23499733  0.62755455  1.0
  C  C46  1  0.00000794  0.62793186  0.12788400  1.0
  C  C47  1  0.04291462  0.63515599  0.15757238  1.0
  C  C48  1  0.04264056  0.67023076  0.19233640  1.0
  C  C49  1  0.00000361  0.69962446  0.19958124  1.0
  C  C50  1  0.95737732  0.69238978  0.17017269  1.0
  C  C51  1  0.95710747  0.65762982  0.13509462  1.0
  C  C52  1  0.99999549  0.73479537  0.23477290  1.0
  C  C53  1  0.99998851  0.76521448  0.26521897  1.0
  C  C54  1  0.99998111  0.80038351  0.30041162  1.0
  C  C55  1  0.04259324  0.80759698  0.32983869  1.0
  C  C56  1  0.04286305  0.84235591  0.36491843  1.0
  C  C57  1  0.99997864  0.87207352  0.37211183  1.0
  C  C58  1  0.95708382  0.86486749  0.34240726  1.0
  C  C59  1  0.95735932  0.82979584  0.30763991  1.0
  C  C60  1  0.74418777  0.37209954  0.12791026  1.0
  C  C61  1  0.70727692  0.29949979  0.15761976  1.0
  C  C62  1  0.63743907  0.26500857  0.19238691  1.0
  C  C63  1  0.60079726  0.30040139  0.19961331  1.0
  C  C64  1  0.63743715  0.37243941  0.17018600  1.0
  C  C65  1  0.70727640  0.40778956  0.13510587  1.0
  C  C66  1  0.53043529  0.26521583  0.23480578  1.0
  C  C67  1  0.46956987  0.23477226  0.26524840  1.0
  C  C68  1  0.39920731  0.19958828  0.30043127  1.0
  C  C69  1  0.36256522  0.12755498  0.32983616  1.0
  C  C70  1  0.29272737  0.09220692  0.36490921  1.0
  C  C71  1  0.25581726  0.12789586  0.37211818  1.0
  C  C72  1  0.29272761  0.20048882  0.34243565  1.0
  C  C73  1  0.36256672  0.23497899  0.30767395  1.0
  C  C74  1  0.25581239  0.62791643  0.87210512  1.0
  C  C75  1  0.29272751  0.65763973  0.79949818  1.0
  C  C76  1  0.36256647  0.69240535  0.76500539  1.0
  C  C77  1  0.39920479  0.69962337  0.80040466  1.0
  C  C78  1  0.36255867  0.67019312  0.87244929  1.0
  C  C79  1  0.29272011  0.63511271  0.90780035  1.0
  C  C80  1  0.46956661  0.73481046  0.76521869  1.0
  C  C81  1  0.53043188  0.76524525  0.73477046  1.0
  C  C82  1  0.60079524  0.80042250  0.69958628  1.0
  C  C83  1  0.63744215  0.82982999  0.62754630  1.0
  C  C84  1  0.70728064  0.86490366  0.59219754  1.0
  C  C85  1  0.74418679  0.87211442  0.62789122  1.0
  C  C86  1  0.70727178  0.84241960  0.70049220  1.0
  C  C87  1  0.63743276  0.80765761  0.73498274  1.0
  Br  Br88  1  0.89644263  0.24245061  0.00422108  1.0
  Br  Br89  1  0.10355678  0.50422488  0.74241332  1.0
  Br  Br90  1  0.09903588  0.41861154  0.66921023  1.0
  Br  Br91  1  0.90095404  0.16924013  0.91861527  1.0
  Br  Br92  1  0.90097089  0.08138412  0.83079002  1.0
  Br  Br93  1  0.09897928  0.33077494  0.58136237  1.0
  Br  Br94  1  0.10345033  0.25757337  0.49574729  1.0
  Br  Br95  1  0.89644553  0.99577338  0.75758557  1.0
  Br  Br96  1  0.10358577  0.59939544  0.15395535  1.0
  Br  Br97  1  0.89646744  0.65404714  0.09929378  1.0
  Br  Br98  1  0.90096773  0.73175149  0.18040685  1.0
  Br  Br99  1  0.09904821  0.68046265  0.23170342  1.0
  Br  Br100  1  0.09897988  0.76820732  0.31963296  1.0
  Br  Br101  1  0.90097297  0.81959397  0.26824497  1.0
  Br  Br102  1  0.89642755  0.90064531  0.34600951  1.0
  Br  Br103  1  0.10347255  0.84589820  0.40075877  1.0
  Br  Br104  1  0.74665880  0.24244199  0.15403816  1.0
  Br  Br105  1  0.74665667  0.50423238  0.09928619  1.0
  Br  Br106  1  0.58784145  0.41862193  0.18038761  1.0
  Br  Br107  1  0.58784399  0.16923089  0.23177671  1.0
  Br  Br108  1  0.41216234  0.08138031  0.31960272  1.0
  Br  Br109  1  0.41216425  0.33075247  0.26830504  1.0
  Br  Br110  1  0.25334911  0.25753891  0.34606244  1.0
  Br  Br111  1  0.25334510  0.99576830  0.40071160  1.0
  Br  Br112  1  0.25335082  0.65409762  0.74242327  1.0
  Br  Br113  1  0.25333386  0.59929938  0.00424972  1.0
  Br  Br114  1  0.41215000  0.68038889  0.91864111  1.0
  Br  Br115  1  0.41216667  0.73180165  0.66921900  1.0
  Br  Br116  1  0.58785096  0.81960627  0.58136140  1.0
  Br  Br117  1  0.58783027  0.76828460  0.83076553  1.0
  Br  Br118  1  0.74664596  0.84602329  0.75755429  1.0
  Br  Br119  1  0.74666738  0.90069733  0.49575250  1.0
  Cl  Cl120  1  0.90310585  0.09769884  0.30541667  1.0
  Cl  Cl121  1  0.09689599  0.40230200  0.19458165  1.0
  Cl  Cl122  1  0.90310508  0.20851824  0.19459201  1.0
  Cl  Cl123  1  0.09689938  0.29148261  0.30540427  1.0
  Cl  Cl124  1  0.90310803  0.80540052  0.79150132  1.0
  Cl  Cl125  1  0.09689313  0.69459602  0.70849705  1.0
  Cl  Cl126  1  0.90311442  0.69458009  0.90231930  1.0
  Cl  Cl127  1  0.09689063  0.80542109  0.59767856  1.0
  O  O128  1  0.99999948  0.99999800  0.50000148  1.0
  O  O129  1  0.15096095  0.12533200  0.41437833  1.0
  O  O130  1  0.03949397  0.88536707  0.57514390  1.0
  O  O131  1  0.96023339  0.02561976  0.62533883  1.0
  O  O132  1  0.15095842  0.02562714  0.43462268  1.0
  O  O133  1  0.03976831  0.12530526  0.52564116  1.0
  O  O134  1  0.96049513  0.88534586  0.65414492  1.0
  O  O135  1  0.84904036  0.91440757  0.62532316  1.0
  O  O136  1  0.96052030  0.07515343  0.38534827  1.0
  O  O137  1  0.84904780  0.93464533  0.52561086  1.0
  O  O138  1  0.03949259  0.15413825  0.38536369  1.0
  O  O139  1  0.03975489  0.91443463  0.43460692  1.0
  O  O140  1  0.96025568  0.93463046  0.41441114  1.0
  O  O141  1  0.00000137  0.50000164  0.99999784  1.0
  O  O142  1  0.96026105  0.37468360  0.97436539  1.0
  O  O143  1  0.03951600  0.61465996  0.84585258  1.0
  O  O144  1  0.84904317  0.47436931  0.06540513  1.0
  O  O145  1  0.03974276  0.47438324  0.87465483  1.0
  O  O146  1  0.84904439  0.37468120  0.08557765  1.0
  O  O147  1  0.96050313  0.61462637  0.92485277  1.0
  O  O148  1  0.96025780  0.58559610  0.06536180  1.0
  O  O149  1  0.03948091  0.42484794  0.11465087  1.0
  O  O150  1  0.03971159  0.56534541  0.08561471  1.0
  O  O151  1  0.96050272  0.34586259  0.11464242  1.0
  O  O152  1  0.15095937  0.58555860  0.87468585  1.0
  O  O153  1  0.15095137  0.56539020  0.97438362  1.0
