# generated using pymatgen
data_ZnH26C38N2(ClO4)2
_symmetry_space_group_name_H-M   'P 1'
_cell_length_a   14.63927132
_cell_length_b   15.94454474
_cell_length_c   23.31650342
_cell_angle_alpha   84.52310565
_cell_angle_beta   73.07267426
_cell_angle_gamma   80.07284913
_symmetry_Int_Tables_number   1
_chemical_formula_structural   ZnH26C38N2(ClO4)2
_chemical_formula_sum   'Zn2 H52 C76 N4 Cl4 O16'
_cell_volume   5122.79005853
_cell_formula_units_Z   2
loop_
 _symmetry_equiv_pos_site_id
 _symmetry_equiv_pos_as_xyz
  1  'x, y, z'
loop_
 _atom_site_type_symbol
 _atom_site_label
 _atom_site_symmetry_multiplicity
 _atom_site_fract_x
 _atom_site_fract_y
 _atom_site_fract_z
 _atom_site_occupancy
  Zn  Zn0  1  0.92074631  0.48572563  0.47608384  1.0
  Zn  Zn1  1  0.07375306  0.51359006  0.52412761  1.0
  H  H2  1  0.32133181  0.66219021  0.03021273  1.0
  H  H3  1  0.70712670  0.30745582  0.97869851  1.0
  H  H4  1  0.72292260  0.90928324  0.48610766  1.0
  H  H5  1  0.24444080  0.09254163  0.55716637  1.0
  H  H6  1  0.87835930  0.14438069  0.48127603  1.0
  H  H7  1  0.13279063  0.85415422  0.51059768  1.0
  H  H8  1  0.42046996  0.63322390  0.63227375  1.0
  H  H9  1  0.56396303  0.36281018  0.37846421  1.0
  H  H10  1  0.71333930  0.50889581  0.53256693  1.0
  H  H11  1  0.27334415  0.45752804  0.49255768  1.0
  H  H12  1  0.24031341  0.65950727  0.64673252  1.0
  H  H13  1  0.74271586  0.36305493  0.34982857  1.0
  H  H14  1  0.58130032  0.56636022  0.57763150  1.0
  H  H15  1  0.40280659  0.41369176  0.44202185  1.0
  H  H16  1  0.42806593  0.66995806  0.92318475  1.0
  H  H17  1  0.60802330  0.30589488  0.08762702  1.0
  H  H18  1  0.70229822  0.45022439  0.65492366  1.0
  H  H19  1  0.26274235  0.60086324  0.33925372  1.0
  H  H20  1  0.93195176  0.53856006  0.70189038  1.0
  H  H21  1  0.13411458  0.38808152  0.31525086  1.0
  H  H22  1  0.76330904  0.04875682  0.48458226  1.0
  H  H23  1  0.21972256  0.94957883  0.54233827  1.0
  H  H24  1  0.19383862  0.25120206  0.55122837  1.0
  H  H25  1  0.76875032  0.75000055  0.48959061  1.0
  H  H26  1  0.97994717  0.45585876  0.28958301  1.0
  H  H27  1  0.85735674  0.45176044  0.29306629  1.0
  H  H28  1  0.01840888  0.29777496  0.28654894  1.0
  H  H29  1  0.89745938  0.29043570  0.29101567  1.0
  H  H30  1  0.91238967  0.37844283  0.19297015  1.0
  H  H31  1  0.00108469  0.28571327  0.18336814  1.0
  H  H32  1  0.03394958  0.38590502  0.18893147  1.0
  H  H33  1  0.07049211  0.74258913  0.57503919  1.0
  H  H34  1  0.09389472  0.74849434  0.64594058  1.0
  H  H35  1  0.90758935  0.70586965  0.62883950  1.0
  H  H36  1  0.92852867  0.71555370  0.69888723  1.0
  H  H37  1  0.94795580  0.87203738  0.66919117  1.0
  H  H38  1  0.83209277  0.85031245  0.67130015  1.0
  H  H39  1  0.92020479  0.86048765  0.60142382  1.0
  H  H40  1  0.51372000  0.35137419  0.81669989  1.0
  H  H41  1  0.64052767  0.33096570  0.80927110  1.0
  H  H42  1  0.54775770  0.32392897  0.70788762  1.0
  H  H43  1  0.67306933  0.30106682  0.70121736  1.0
  H  H44  1  0.64527626  0.17735123  0.77723987  1.0
  H  H45  1  0.60104830  0.16534523  0.71577470  1.0
  H  H46  1  0.51930111  0.19991054  0.78480492  1.0
  H  H47  1  0.52566235  0.61530509  0.20065882  1.0
  H  H48  1  0.50530429  0.50759768  0.22032549  1.0
  H  H49  1  0.46419778  0.64899356  0.30909147  1.0
  H  H50  1  0.44425407  0.54235024  0.32887404  1.0
  H  H51  1  0.62225334  0.49021509  0.28671108  1.0
  H  H52  1  0.60208553  0.56375139  0.34319010  1.0
  H  H53  1  0.64363116  0.59688187  0.26637468  1.0
  C  C54  1  0.93985416  0.65973762  0.48517388  1.0
  C  C55  1  0.06115147  0.33943322  0.50347840  1.0
  C  C56  1  0.67809576  0.46691436  0.74908767  1.0
  C  C57  1  0.32079057  0.54456216  0.25318981  1.0
  C  C58  1  0.73143371  0.46916999  0.68886695  1.0
  C  C59  1  0.25938907  0.55113568  0.31132412  1.0
  C  C60  1  0.82291178  0.49411445  0.67248685  1.0
  C  C61  1  0.19175303  0.49538292  0.33302997  1.0
  C  C62  1  0.86047962  0.51950549  0.71565448  1.0
  C  C63  1  0.18655989  0.43153754  0.29742273  1.0
  C  C64  1  0.80540355  0.52054015  0.77535686  1.0
  C  C65  1  0.24849206  0.42475427  0.23952094  1.0
  C  C66  1  0.71495460  0.49319000  0.79268045  1.0
  C  C67  1  0.31521109  0.48136240  0.21669167  1.0
  C  C68  1  0.91840877  0.75522682  0.47897964  1.0
  C  C69  1  0.09081472  0.24433062  0.50328514  1.0
  C  C70  1  0.79683033  0.87964984  0.48379408  1.0
  C  C71  1  0.18685675  0.12073384  0.53707660  1.0
  C  C72  1  0.82168373  0.79239094  0.48509690  1.0
  C  C73  1  0.16057316  0.20778778  0.53307742  1.0
  C  C74  1  0.98895894  0.80751892  0.47125374  1.0
  C  C75  1  0.04872979  0.19052954  0.47792162  1.0
  C  C76  1  0.88403019  0.49350375  0.60832548  1.0
  C  C77  1  0.12304943  0.50384071  0.39498281  1.0
  C  C78  1  0.96434386  0.89735501  0.47789778  1.0
  C  C79  1  0.06110573  0.10069995  0.49058910  1.0
  C  C80  1  0.86611484  0.93282959  0.48083516  1.0
  C  C81  1  0.13719637  0.06607817  0.51701454  1.0
  C  C82  1  0.02799706  0.95397521  0.48509920  1.0
  C  C83  1  0.99935416  0.04382574  0.48169447  1.0
  C  C84  1  0.90293426  0.07620651  0.47979912  1.0
  C  C85  1  0.11151743  0.92239612  0.50527782  1.0
  C  C86  1  0.83846463  0.02284321  0.48171760  1.0
  C  C87  1  0.16077371  0.97587287  0.52294191  1.0
  C  C88  1  0.25107981  0.61527226  0.61166540  1.0
  C  C89  1  0.73271918  0.39750881  0.38989958  1.0
  C  C90  1  0.17223083  0.59576557  0.59690565  1.0
  C  C91  1  0.81134604  0.42004199  0.40326633  1.0
  C  C92  1  0.27171920  0.50167252  0.52581502  1.0
  C  C93  1  0.71378276  0.47951414  0.49214670  1.0
  C  C94  1  0.35645352  0.51835675  0.53626199  1.0
  C  C95  1  0.62846375  0.46638770  0.48036657  1.0
  C  C96  1  0.34491392  0.57608318  0.58201384  1.0
  C  C97  1  0.63946697  0.42022813  0.42855283  1.0
  C  C98  1  0.45576940  0.41799552  0.13985241  1.0
  C  C99  1  0.58300952  0.56049762  0.87169331  1.0
  C  C100  1  0.45156869  0.48113173  0.50225473  1.0
  C  C101  1  0.53321739  0.49925824  0.51689244  1.0
  C  C102  1  0.51893696  0.55312632  0.56545947  1.0
  C  C103  1  0.46537461  0.42908668  0.45281929  1.0
  C  C104  1  0.42893413  0.59096913  0.59632865  1.0
  C  C105  1  0.55542774  0.40018661  0.41703486  1.0
  C  C106  1  0.34196871  0.54484365  0.11628677  1.0
  C  C107  1  0.68337812  0.42211362  0.89156702  1.0
  C  C108  1  0.40590892  0.54872797  0.05414750  1.0
  C  C109  1  0.62441666  0.42234055  0.95509221  1.0
  C  C110  1  0.48726095  0.48513512  0.03532522  1.0
  C  C111  1  0.54523077  0.48775098  0.97453770  1.0
  C  C112  1  0.51203832  0.41897767  0.07567900  1.0
  C  C113  1  0.52241918  0.55562011  0.93477371  1.0
  C  C114  1  0.38454013  0.61429784  0.01419300  1.0
  C  C115  1  0.64609382  0.35714104  0.99522497  1.0
  C  C116  1  0.44336836  0.61827452  0.95476921  1.0
  C  C117  1  0.59069058  0.35598796  0.05556160  1.0
  C  C118  1  0.92205839  0.41616402  0.30412133  1.0
  C  C119  1  0.95402844  0.33135284  0.27422626  1.0
  C  C120  1  0.97654068  0.34612879  0.20605746  1.0
  C  C121  1  0.05244656  0.71961039  0.62245660  1.0
  C  C122  1  0.94478104  0.74007247  0.65181965  1.0
  C  C123  1  0.90953671  0.83599812  0.64821013  1.0
  C  C124  1  0.58573924  0.35322980  0.78502373  1.0
  C  C125  1  0.60097666  0.29768136  0.73245576  1.0
  C  C126  1  0.59111299  0.20503883  0.75375095  1.0
  C  C127  1  0.48138480  0.57410008  0.23385842  1.0
  C  C128  1  0.49091722  0.58263417  0.29625625  1.0
  C  C129  1  0.59546452  0.55707635  0.29821765  1.0
  N  N130  1  0.37325659  0.48038887  0.15554936  1.0
  N  N131  1  0.65885311  0.49194440  0.85426260  1.0
  N  N132  1  0.18365173  0.53860464  0.55478403  1.0
  N  N133  1  0.80152038  0.45738515  0.45520839  1.0
  Cl  Cl134  1  0.84913569  0.55599892  0.82865157  1.0
  Cl  Cl135  1  0.24094769  0.34713436  0.19468347  1.0
  Cl  Cl136  1  0.99271716  0.23360539  0.42327039  1.0
  Cl  Cl137  1  0.10890588  0.76006156  0.44532926  1.0
  O  O138  1  0.89845885  0.61630301  0.46011886  1.0
  O  O139  1  0.12257306  0.38466144  0.50759267  1.0
  O  O140  1  0.99390235  0.63085190  0.51863765  1.0
  O  O141  1  0.97466520  0.36685223  0.50287698  1.0
  O  O142  1  0.84117969  0.50316883  0.56732410  1.0
  O  O143  1  0.15143157  0.53440186  0.43408496  1.0
  O  O144  1  0.97461502  0.48361274  0.60099949  1.0
  O  O145  1  0.04233862  0.47890934  0.40258111  1.0
  O  O146  1  0.47906396  0.36698732  0.17802139  1.0
  O  O147  1  0.56971747  0.61967706  0.83592376  1.0
  O  O148  1  0.26605220  0.59351158  0.13380430  1.0
  O  O149  1  0.74937041  0.36449248  0.87136873  1.0
  O  O150  1  0.90301890  0.40763390  0.36872256  1.0
  O  O151  1  0.07925104  0.62734036  0.62390219  1.0
  O  O152  1  0.58777218  0.44280766  0.76656666  1.0
  O  O153  1  0.38375938  0.60212351  0.22964499  1.0
