# generated using pymatgen
data_Hf3H16C20(N3O8)2
_symmetry_space_group_name_H-M   'P 1'
_cell_length_a   15.82393381
_cell_length_b   15.83862576
_cell_length_c   34.30460075
_cell_angle_alpha   89.70155387
_cell_angle_beta   90.07818884
_cell_angle_gamma   89.84166673
_symmetry_Int_Tables_number   1
_chemical_formula_structural   Hf3H16C20(N3O8)2
_chemical_formula_sum   'Hf12 H64 C80 N24 O64'
_cell_volume   8597.58268365
_cell_formula_units_Z   4
loop_
 _symmetry_equiv_pos_site_id
 _symmetry_equiv_pos_as_xyz
  1  'x, y, z'
loop_
 _atom_site_type_symbol
 _atom_site_label
 _atom_site_symmetry_multiplicity
 _atom_site_fract_x
 _atom_site_fract_y
 _atom_site_fract_z
 _atom_site_occupancy
  Hf  Hf0  1  0.90422570  0.94636754  0.45289768  1.0
  Hf  Hf1  1  0.91190002  0.95009115  0.55491001  1.0
  Hf  Hf2  1  0.06041178  0.10004934  0.44728676  1.0
  Hf  Hf3  1  0.06657735  0.10898950  0.55074274  1.0
  Hf  Hf4  1  0.87442430  0.13809013  0.50099437  1.0
  Hf  Hf5  1  0.09740602  0.91429984  0.50115070  1.0
  Hf  Hf6  1  0.41240270  0.60091725  0.95219443  1.0
  Hf  Hf7  1  0.41850502  0.59474085  0.05435080  1.0
  Hf  Hf8  1  0.56704654  0.44242111  0.94549490  1.0
  Hf  Hf9  1  0.57552481  0.43852518  0.04902832  1.0
  Hf  Hf10  1  0.60468325  0.62999055  0.99986591  1.0
  Hf  Hf11  1  0.38147246  0.40912374  0.00081471  1.0
  H  H12  1  0.94246101  0.81345642  0.50160262  1.0
  H  H13  1  0.90038762  0.11594278  0.58248470  1.0
  H  H14  1  0.19563663  0.07981122  0.50135459  1.0
  H  H15  1  0.90490108  0.10736738  0.41556275  1.0
  H  H16  1  0.88000474  0.98550352  0.63070994  1.0
  H  H17  1  0.99652588  0.03604877  0.61818697  1.0
  H  H18  1  0.15752225  0.24675147  0.55265882  1.0
  H  H19  1  0.20641378  0.17719483  0.42425848  1.0
  H  H20  1  0.07912286  0.07083273  0.37216748  1.0
  H  H21  1  0.84030309  0.94861798  0.37605020  1.0
  H  H22  1  0.76050307  0.85980871  0.45346586  1.0
  H  H23  1  0.80618220  0.84932548  0.50883966  1.0
  H  H24  1  0.13708013  0.24656259  0.43409783  1.0
  H  H25  1  0.92140235  0.88901483  0.37974535  1.0
  H  H26  1  0.75751146  0.87583352  0.54916263  1.0
  H  H27  1  0.09544002  0.05873454  0.62473053  1.0
  H  H28  1  0.28119163  0.56158892  0.00068799  1.0
  H  H29  1  0.58522900  0.60248315  0.08163717  1.0
  H  H30  1  0.53353731  0.30741600  0.99975139  1.0
  H  H31  1  0.57204521  0.60187158  0.91481018  1.0
  H  H32  1  0.45441177  0.62035551  0.13031674  1.0
  H  H33  1  0.50425453  0.50656568  0.11696022  1.0
  H  H34  1  0.71847025  0.35053915  0.04651070  1.0
  H  H35  1  0.67084055  0.34036891  0.99155329  1.0
  H  H36  1  0.53846116  0.42123815  0.87085496  1.0
  H  H37  1  0.41303742  0.66867614  0.87623321  1.0
  H  H38  1  0.32593230  0.74526151  0.95453765  1.0
  H  H39  1  0.31548489  0.69914390  0.00819221  1.0
  H  H40  1  0.71776946  0.36474078  0.95032251  1.0
  H  H41  1  0.35345251  0.58768489  0.87826446  1.0
  H  H42  1  0.26608561  0.68501415  0.05013115  1.0
  H  H43  1  0.52875218  0.40755403  0.12389522  1.0
  H  H44  1  0.40613501  0.14531482  0.93504093  1.0
  H  H45  1  0.51066731  0.22978301  0.86961261  1.0
  H  H46  1  0.56080870  0.90622982  0.93940305  1.0
  H  H47  1  0.46438910  0.81906895  0.87240763  1.0
  H  H48  1  0.87823441  0.58914740  0.06239807  1.0
  H  H49  1  0.78906173  0.49005251  0.12838065  1.0
  H  H50  1  0.11666007  0.44127182  0.06700904  1.0
  H  H51  1  0.20056810  0.54567797  0.13228506  1.0
  H  H52  1  0.87584008  0.59781486  0.93804547  1.0
  H  H53  1  0.78663032  0.49543705  0.87351109  1.0
  H  H54  1  0.11423000  0.44452955  0.93551315  1.0
  H  H55  1  0.19826423  0.54284147  0.86796010  1.0
  H  H56  1  0.52300443  0.22325922  0.13068930  1.0
  H  H57  1  0.41417580  0.14295211  0.06592741  1.0
  H  H58  1  0.56851200  0.89873512  0.06285828  1.0
  H  H59  1  0.46572958  0.81326350  0.12858411  1.0
  H  H60  1  0.95987958  0.73316102  0.63130630  1.0
  H  H61  1  0.06632485  0.64963131  0.56653834  1.0
  H  H62  1  0.90764824  0.41003716  0.56287698  1.0
  H  H63  1  0.01345970  0.32188923  0.62713183  1.0
  H  H64  1  0.96814064  0.73322846  0.36762660  1.0
  H  H65  1  0.06099176  0.64816143  0.43678950  1.0
  H  H66  1  0.91026100  0.41209017  0.43983145  1.0
  H  H67  1  0.00970300  0.32126168  0.37470998  1.0
  H  H68  1  0.36181613  0.94144795  0.56614211  1.0
  H  H69  1  0.27793119  0.04646756  0.63120197  1.0
  H  H70  1  0.68927502  0.99573603  0.62920922  1.0
  H  H71  1  0.60282114  0.09898670  0.56358531  1.0
  H  H72  1  0.27698601  0.03923938  0.36727801  1.0
  H  H73  1  0.36307427  0.94575706  0.43604006  1.0
  H  H74  1  0.68913064  0.00120456  0.37248350  1.0
  H  H75  1  0.59865398  0.09541044  0.43922394  1.0
  C  C76  1  0.73521471  0.06129914  0.44084377  1.0
  C  C77  1  0.02941721  0.78476780  0.56548716  1.0
  C  C78  1  0.73861332  0.06255382  0.56257678  1.0
  C  C79  1  0.02926074  0.78428050  0.43610588  1.0
  C  C80  1  0.22672966  0.97916939  0.43559038  1.0
  C  C81  1  0.94730791  0.27519152  0.56043502  1.0
  C  C82  1  0.22632347  0.97749781  0.56542862  1.0
  C  C83  1  0.94737459  0.27607981  0.44218232  1.0
  C  C84  1  0.98556351  0.45537649  0.36870717  1.0
  C  C85  1  0.98795869  0.52342427  0.31044183  1.0
  C  C86  1  0.98950831  0.59853924  0.36643070  1.0
  C  C87  1  0.41209161  0.01750930  0.36546412  1.0
  C  C88  1  0.48740307  0.01723747  0.30934013  1.0
  C  C89  1  0.55525738  0.02261100  0.36747411  1.0
  C  C90  1  0.41214791  0.02023949  0.63464748  1.0
  C  C91  1  0.48577840  0.02107199  0.69131848  1.0
  C  C92  1  0.55549599  0.02182722  0.63376693  1.0
  C  C93  1  0.98525297  0.45519884  0.63299733  1.0
  C  C94  1  0.98622901  0.59851956  0.63460082  1.0
  C  C95  1  0.98561137  0.52326839  0.69088811  1.0
  C  C96  1  0.49269841  0.94658959  0.13309706  1.0
  C  C97  1  0.49393020  0.08985993  0.13406205  1.0
  C  C98  1  0.49257965  0.01583342  0.19068328  1.0
  C  C99  1  0.52589766  0.77033324  0.94048726  1.0
  C  C100  1  0.25141800  0.47921895  0.06548270  1.0
  C  C101  1  0.53276668  0.76313643  0.06254120  1.0
  C  C102  1  0.24991695  0.47769662  0.93589062  1.0
  C  C103  1  0.44337253  0.28027621  0.93569093  1.0
  C  C104  1  0.74303086  0.55182679  0.05983284  1.0
  C  C105  1  0.45179699  0.27751596  0.06501028  1.0
  C  C106  1  0.74045746  0.55903469  0.94048178  1.0
  C  C107  1  0.92265449  0.51772686  0.13383673  1.0
  C  C108  1  0.99153093  0.51947279  0.19175140  1.0
  C  C109  1  0.06615677  0.51858105  0.13548109  1.0
  C  C110  1  0.48798175  0.95255266  0.86785627  1.0
  C  C111  1  0.48498925  0.09565849  0.86633536  1.0
  C  C112  1  0.48690303  0.02185463  0.80996954  1.0
  C  C113  1  0.92043147  0.52194809  0.86762786  1.0
  C  C114  1  0.06378362  0.51965445  0.86588419  1.0
  C  C115  1  0.98887274  0.52133670  0.80960837  1.0
  C  C116  1  0.44094043  0.19373747  0.91908976  1.0
  C  C117  1  0.48095356  0.17782228  0.88541738  1.0
  C  C118  1  0.52770844  0.85702285  0.92338321  1.0
  C  C119  1  0.49137440  0.87165775  0.88858214  1.0
  C  C120  1  0.82870265  0.55492164  0.07784826  1.0
  C  C121  1  0.84203479  0.51857725  0.11282765  1.0
  C  C122  1  0.16501402  0.47670134  0.08258964  1.0
  C  C123  1  0.14880375  0.51613197  0.11635648  1.0
  C  C124  1  0.82663271  0.56253217  0.92297068  1.0
  C  C125  1  0.83995007  0.52442668  0.88858601  1.0
  C  C126  1  0.16324542  0.47720331  0.91902541  1.0
  C  C127  1  0.14670837  0.51537459  0.88481090  1.0
  C  C128  1  0.49168890  0.17259551  0.11485846  1.0
  C  C129  1  0.45038397  0.19047861  0.08160407  1.0
  C  C130  1  0.53387694  0.85018940  0.07880606  1.0
  C  C131  1  0.49510178  0.86553666  0.11286761  1.0
  C  C132  1  0.98684372  0.52136974  0.76798183  1.0
  C  C133  1  0.98604341  0.52138496  0.73255432  1.0
  C  C134  1  0.48698571  0.02074673  0.76836120  1.0
  C  C135  1  0.48680584  0.02080947  0.73294383  1.0
  C  C136  1  0.48983606  0.01548685  0.26774833  1.0
  C  C137  1  0.49133519  0.01475515  0.23233584  1.0
  C  C138  1  0.98963123  0.52042549  0.23338563  1.0
  C  C139  1  0.98858803  0.52127159  0.26880539  1.0
  C  C140  1  0.98981153  0.68136408  0.61557280  1.0
  C  C141  1  0.03083293  0.69790739  0.58215324  1.0
  C  C142  1  0.94385630  0.36107001  0.57795360  1.0
  C  C143  1  0.98307680  0.37482909  0.61210809  1.0
  C  C144  1  0.99391273  0.68136396  0.38503051  1.0
  C  C145  1  0.03000500  0.69749515  0.41962629  1.0
  C  C146  1  0.94461735  0.36238998  0.42461517  1.0
  C  C147  1  0.98207123  0.37508637  0.38993117  1.0
  C  C148  1  0.31324949  0.97595627  0.58205805  1.0
  C  C149  1  0.32973341  0.01654078  0.61545676  1.0
  C  C150  1  0.63676125  0.02492641  0.61343662  1.0
  C  C151  1  0.65171201  0.06391845  0.57926694  1.0
  C  C152  1  0.32940369  0.01346907  0.38434010  1.0
  C  C153  1  0.31380598  0.97742596  0.41911344  1.0
  C  C154  1  0.63563795  0.02742591  0.38843076  1.0
  C  C155  1  0.64884390  0.06325003  0.42331875  1.0
  N  N156  1  0.98877849  0.44902630  0.32947254  1.0
  N  N157  1  0.98684136  0.60015795  0.32710612  1.0
  N  N158  1  0.98734048  0.52834011  0.38870875  1.0
  N  N159  1  0.41063953  0.01841994  0.32612501  1.0
  N  N160  1  0.56188431  0.01770952  0.32830294  1.0
  N  N161  1  0.48235249  0.02127571  0.38762328  1.0
  N  N162  1  0.40963401  0.02361860  0.67394993  1.0
  N  N163  1  0.56086098  0.01867944  0.67302467  1.0
  N  N164  1  0.48324009  0.02088303  0.61303296  1.0
  N  N165  1  0.98577111  0.52818615  0.61266333  1.0
  N  N166  1  0.98284393  0.59993798  0.67389697  1.0
  N  N167  1  0.98836475  0.44883671  0.67226352  1.0
  N  N168  1  0.49332761  0.01913311  0.11242597  1.0
  N  N169  1  0.49721314  0.09202273  0.17337211  1.0
  N  N170  1  0.48875484  0.94112457  0.17237727  1.0
  N  N171  1  0.91684561  0.51549966  0.17309446  1.0
  N  N172  1  0.06802774  0.52266285  0.17476624  1.0
  N  N173  1  0.99549960  0.51771856  0.11353682  1.0
  N  N174  1  0.48623711  0.02480876  0.88827290  1.0
  N  N175  1  0.48845624  0.09804288  0.82704329  1.0
  N  N176  1  0.48515681  0.94693255  0.82861535  1.0
  N  N177  1  0.99346038  0.52052549  0.88792249  1.0
  N  N178  1  0.06559693  0.52323863  0.82659853  1.0
  N  N179  1  0.91437315  0.51932361  0.82838002  1.0
  O  O180  1  0.78033288  0.99725404  0.43125747  1.0
  O  O181  1  0.75728486  0.12051049  0.46338952  1.0
  O  O182  1  0.96851370  0.83188018  0.57614950  1.0
  O  O183  1  0.08718598  0.80474445  0.54104533  1.0
  O  O184  1  0.78436598  0.99915829  0.57261786  1.0
  O  O185  1  0.76075595  0.12280485  0.54014303  1.0
  O  O186  1  0.97100900  0.83408449  0.42384565  1.0
  O  O187  1  0.08379790  0.80152341  0.46215354  1.0
  O  O188  1  0.81553303  0.85052865  0.46534844  1.0
  O  O189  1  0.89870650  0.94561942  0.38497254  1.0
  O  O190  1  0.81098223  0.85373584  0.53946269  1.0
  O  O191  1  0.92835806  0.97036648  0.61484906  1.0
  O  O192  1  0.87233440  0.00844328  0.50225751  1.0
  O  O193  1  0.95681546  0.87300266  0.50164452  1.0
  O  O194  1  0.17992130  0.04023242  0.42402679  1.0
  O  O195  1  0.20646540  0.92239319  0.46017315  1.0
  O  O196  1  0.01180002  0.23110983  0.56951960  1.0
  O  O197  1  0.88680545  0.25242587  0.53802120  1.0
  O  O198  1  0.17576588  0.03266580  0.57852910  1.0
  O  O199  1  0.21001438  0.92497096  0.53811567  1.0
  O  O200  1  0.01506665  0.23478020  0.43584634  1.0
  O  O201  1  0.88352010  0.24952922  0.46128876  1.0
  O  O202  1  0.16957433  0.19873691  0.44475886  1.0
  O  O203  1  0.04495946  0.10614372  0.38894193  1.0
  O  O204  1  0.16561887  0.18719298  0.54748852  1.0
  O  O205  1  0.04269228  0.08329318  0.61515207  1.0
  O  O206  1  0.13835683  0.05808410  0.49929306  1.0
  O  O207  1  0.00208961  0.13951846  0.49970090  1.0
  O  O208  1  0.03156853  0.97648515  0.45799937  1.0
  O  O209  1  0.92441170  0.09119245  0.55918839  1.0
  O  O210  1  0.92122588  0.08498817  0.44093682  1.0
  O  O211  1  0.03347697  0.97995726  0.54240939  1.0
  O  O212  1  0.46149470  0.72579298  0.93101104  1.0
  O  O213  1  0.58599512  0.74708641  0.96260612  1.0
  O  O214  1  0.29648248  0.54281324  0.07490841  1.0
  O  O215  1  0.27270716  0.42045546  0.04213432  1.0
  O  O216  1  0.47210135  0.71619317  0.07391142  1.0
  O  O217  1  0.59162930  0.74204146  0.03905948  1.0
  O  O218  1  0.29979712  0.53559389  0.92368627  1.0
  O  O219  1  0.26711916  0.42325109  0.96223347  1.0
  O  O220  1  0.31601419  0.68982841  0.96589155  1.0
  O  O221  1  0.40963718  0.60984260  0.88451504  1.0
  O  O222  1  0.32164198  0.69627291  0.03922838  1.0
  O  O223  1  0.43899276  0.57246424  0.11430744  1.0
  O  O224  1  0.47469270  0.63363919  0.00189872  1.0
  O  O225  1  0.34085898  0.54753846  0.00118959  1.0
  O  O226  1  0.50302318  0.32750208  0.92381634  1.0
  O  O227  1  0.38770974  0.29964068  0.96117831  1.0
  O  O228  1  0.69887622  0.48715164  0.06876140  1.0
  O  O229  1  0.72057229  0.61241007  0.03740947  1.0
  O  O230  1  0.51208327  0.32516827  0.07607800  1.0
  O  O231  1  0.39472822  0.29704440  0.04018340  1.0
  O  O232  1  0.69892915  0.49246425  0.93342081  1.0
  O  O233  1  0.71473747  0.62187527  0.96069416  1.0
  O  O234  1  0.66464178  0.34325629  0.96073947  1.0
  O  O235  1  0.56994266  0.45902864  0.88754889  1.0
  O  O236  1  0.66340964  0.34313691  0.03446651  1.0
  O  O237  1  0.55243095  0.46007075  0.11385056  1.0
  O  O238  1  0.52017117  0.36726960  0.99910394  1.0
  O  O239  1  0.60366134  0.50255403  0.99857457  1.0
  O  O240  1  0.44300027  0.47435086  0.95786326  1.0
  O  O241  1  0.56022734  0.57834794  0.05842475  1.0
  O  O242  1  0.54988063  0.58366261  0.93989125  1.0
  O  O243  1  0.44757493  0.47201922  0.04306435  1.0
