# generated using pymatgen
data_ZnH21C30N3O4
_symmetry_space_group_name_H-M   'P 1'
_cell_length_a   13.94514856
_cell_length_b   20.03178513
_cell_length_c   30.78617907
_cell_angle_alpha   100.01222304
_cell_angle_beta   89.99998167
_cell_angle_gamma   89.99981654
_symmetry_Int_Tables_number   1
_chemical_formula_structural   ZnH21C30N3O4
_chemical_formula_sum   'Zn8 H168 C240 N24 O32'
_cell_volume   8469.03059437
_cell_formula_units_Z   8
loop_
 _symmetry_equiv_pos_site_id
 _symmetry_equiv_pos_as_xyz
  1  'x, y, z'
loop_
 _atom_site_type_symbol
 _atom_site_label
 _atom_site_symmetry_multiplicity
 _atom_site_fract_x
 _atom_site_fract_y
 _atom_site_fract_z
 _atom_site_occupancy
  Zn  Zn0  1  0.39935910  0.74020794  0.25304538  1.0
  Zn  Zn1  1  0.89936520  0.75978666  0.24695903  1.0
  Zn  Zn2  1  0.60063433  0.25979085  0.74695757  1.0
  Zn  Zn3  1  0.10063898  0.24021112  0.75304447  1.0
  Zn  Zn4  1  0.47151684  0.13268378  0.04835574  1.0
  Zn  Zn5  1  0.97152303  0.36731164  0.45164336  1.0
  Zn  Zn6  1  0.52847945  0.86731396  0.95164353  1.0
  Zn  Zn7  1  0.02847972  0.63268511  0.54835742  1.0
  H  H8  1  0.54889435  0.71090654  0.18424159  1.0
  H  H9  1  0.04889945  0.78909238  0.31575848  1.0
  H  H10  1  0.45110051  0.28909426  0.81576029  1.0
  H  H11  1  0.95110330  0.21090740  0.68424198  1.0
  H  H12  1  0.59390952  0.61752975  0.12373143  1.0
  H  H13  1  0.09392061  0.88247158  0.37626565  1.0
  H  H14  1  0.40608534  0.38247156  0.87626953  1.0
  H  H15  1  0.90608286  0.11752768  0.62373379  1.0
  H  H16  1  0.33189891  0.51626365  0.15047444  1.0
  H  H17  1  0.83190965  0.98373816  0.34952492  1.0
  H  H18  1  0.66809882  0.48373463  0.84952781  1.0
  H  H19  1  0.16809668  0.01626364  0.65047446  1.0
  H  H20  1  0.30465838  0.60984951  0.21319618  1.0
  H  H21  1  0.80466744  0.89015439  0.28680374  1.0
  H  H22  1  0.69534150  0.39014929  0.78680807  1.0
  H  H23  1  0.19533961  0.10984791  0.71319505  1.0
  H  H24  1  0.58198797  0.56168920  0.05983752  1.0
  H  H25  1  0.08200377  0.93831522  0.44016249  1.0
  H  H26  1  0.41800116  0.43831160  0.94016371  1.0
  H  H27  1  0.91800472  0.06169014  0.55983924  1.0
  H  H28  1  0.61764540  0.47143054  0.99873274  1.0
  H  H29  1  0.11765192  0.02857492  0.50126806  1.0
  H  H30  1  0.38234587  0.52857230  0.00127066  1.0
  H  H31  1  0.88235154  0.97143195  0.49873254  1.0
  H  H32  1  0.43720767  0.33479278  0.05611028  1.0
  H  H33  1  0.93720546  0.16520779  0.44389004  1.0
  H  H34  1  0.56279293  0.66520854  0.94389328  1.0
  H  H35  1  0.06279657  0.83479501  0.55610848  1.0
  H  H36  1  0.40048499  0.42637256  0.11788624  1.0
  H  H37  1  0.90048898  0.07362658  0.38211458  1.0
  H  H38  1  0.59951489  0.57362674  0.88211742  1.0
  H  H39  1  0.09951448  0.92637421  0.61788600  1.0
  H  H40  1  0.72422743  0.40158926  0.99366372  1.0
  H  H41  1  0.22423004  0.09841798  0.50633693  1.0
  H  H42  1  0.27576814  0.59841154  0.00633750  1.0
  H  H43  1  0.77577414  0.90158988  0.49366150  1.0
  H  H44  1  0.85010857  0.37580734  0.93867482  1.0
  H  H45  1  0.35010887  0.12419657  0.56132642  1.0
  H  H46  1  0.14988845  0.62419194  0.06132689  1.0
  H  H47  1  0.64989460  0.87580726  0.43867351  1.0
  H  H48  1  0.67130196  0.22185593  0.86316237  1.0
  H  H49  1  0.17130795  0.27815597  0.63683555  1.0
  H  H50  1  0.32869218  0.77814839  0.13683665  1.0
  H  H51  1  0.82870340  0.72185694  0.36315985  1.0
  H  H52  1  0.54273673  0.25007059  0.91719549  1.0
  H  H53  1  0.04273931  0.24994211  0.58280254  1.0
  H  H54  1  0.45725884  0.74993322  0.08280315  1.0
  H  H55  1  0.95726559  0.75007233  0.41719466  1.0
  H  H56  1  0.96544200  0.32360619  0.90584063  1.0
  H  H57  1  0.46543988  0.17639744  0.59415861  1.0
  H  H58  1  0.03456003  0.67638854  0.09416188  1.0
  H  H59  1  0.53456286  0.82360588  0.40584062  1.0
  H  H60  1  0.08910936  0.29769401  0.84766561  1.0
  H  H61  1  0.58911005  0.20230796  0.65233286  1.0
  H  H62  1  0.91089124  0.70229819  0.15233695  1.0
  H  H63  1  0.41089270  0.79769030  0.34766744  1.0
  H  H64  1  0.88772495  0.21319130  0.75515327  1.0
  H  H65  1  0.38772581  0.28681453  0.74484558  1.0
  H  H66  1  0.11227493  0.78681203  0.24484791  1.0
  H  H67  1  0.61227120  0.71318473  0.25515321  1.0
  H  H68  1  0.75699986  0.23161093  0.80877424  1.0
  H  H69  1  0.25700299  0.26839471  0.69122558  1.0
  H  H70  1  0.24299859  0.76839442  0.19122554  1.0
  H  H71  1  0.74299832  0.73160809  0.30877262  1.0
  H  H72  1  0.61932935  0.22151101  0.01175147  1.0
  H  H73  1  0.11933438  0.27848422  0.48824766  1.0
  H  H74  1  0.38066408  0.77848267  0.98824605  1.0
  H  H75  1  0.88066837  0.72151809  0.51175308  1.0
  H  H76  1  0.75902639  0.20167874  0.96265766  1.0
  H  H77  1  0.25902806  0.29831981  0.53734333  1.0
  H  H78  1  0.24096991  0.79831496  0.03734214  1.0
  H  H79  1  0.74097183  0.70168300  0.46265682  1.0
  H  H80  1  0.74071713  0.98914242  0.97438343  1.0
  H  H81  1  0.24071511  0.51085409  0.52561428  1.0
  H  H82  1  0.25928848  0.01085485  0.02562033  1.0
  H  H83  1  0.75928262  0.48914973  0.47438500  1.0
  H  H84  1  0.60225075  0.01868857  0.02299483  1.0
  H  H85  1  0.10225414  0.48130365  0.47700235  1.0
  H  H86  1  0.39774913  0.98130464  0.97700719  1.0
  H  H87  1  0.89774287  0.51869764  0.52299698  1.0
  H  H88  1  0.87917719  0.18115259  0.92671226  1.0
  H  H89  1  0.37917444  0.31884719  0.57328755  1.0
  H  H90  1  0.12082556  0.81884316  0.07329101  1.0
  H  H91  1  0.62082186  0.68115409  0.42671081  1.0
  H  H92  1  0.99134819  0.15346044  0.86518255  1.0
  H  H93  1  0.49134598  0.34653858  0.63481878  1.0
  H  H94  1  0.00865241  0.84653581  0.13482012  1.0
  H  H95  1  0.50864816  0.65346170  0.36518142  1.0
  H  H96  1  0.94111027  0.94037658  0.86287042  1.0
  H  H97  1  0.44110723  0.55962255  0.63713177  1.0
  H  H98  1  0.05889319  0.05961816  0.13713339  1.0
  H  H99  1  0.55889552  0.44037723  0.36286869  1.0
  H  H100  1  0.82566502  0.96740179  0.92224167  1.0
  H  H101  1  0.32566430  0.53259861  0.57775906  1.0
  H  H102  1  0.17433988  0.03259346  0.07776187  1.0
  H  H103  1  0.67433988  0.46740420  0.42224012  1.0
  H  H104  1  0.17071192  0.00016702  0.76540789  1.0
  H  H105  1  0.67071335  0.49983120  0.73458983  1.0
  H  H106  1  0.82928796  0.99982621  0.23459705  1.0
  H  H107  1  0.32928725  0.50016805  0.26540766  1.0
  H  H108  1  0.17062668  0.90922745  0.70065735  1.0
  H  H109  1  0.67063495  0.59077428  0.79933867  1.0
  H  H110  1  0.82936603  0.09076930  0.29934441  1.0
  H  H111  1  0.32936923  0.40923253  0.20065509  1.0
  H  H112  1  0.88276406  0.85469073  0.73283486  1.0
  H  H113  1  0.38277057  0.64530954  0.76716649  1.0
  H  H114  1  0.11722578  0.14530653  0.26716663  1.0
  H  H115  1  0.61723433  0.35469527  0.23283063  1.0
  H  H116  1  0.88300693  0.94504669  0.79680541  1.0
  H  H117  1  0.38300529  0.55495208  0.70319772  1.0
  H  H118  1  0.11698865  0.05494856  0.20319813  1.0
  H  H119  1  0.61699244  0.44504719  0.29680171  1.0
  H  H120  1  0.18196420  0.80803336  0.66691392  1.0
  H  H121  1  0.68197127  0.69196988  0.83308389  1.0
  H  H122  1  0.81802851  0.19196994  0.33308368  1.0
  H  H123  1  0.31803291  0.30803493  0.16691193  1.0
  H  H124  1  0.17522159  0.71461880  0.60262352  1.0
  H  H125  1  0.67522460  0.78538246  0.89737699  1.0
  H  H126  1  0.82477399  0.28538807  0.39737675  1.0
  H  H127  1  0.32477528  0.21461580  0.10262330  1.0
  H  H128  1  0.87849986  0.71703392  0.60142474  1.0
  H  H129  1  0.37850349  0.78296532  0.89857423  1.0
  H  H130  1  0.12149644  0.28296432  0.39857361  1.0
  H  H131  1  0.62149782  0.21702937  0.10142308  1.0
  H  H132  1  0.87145774  0.81064275  0.66522092  1.0
  H  H133  1  0.37146185  0.68935853  0.83477665  1.0
  H  H134  1  0.12853712  0.18935600  0.33477781  1.0
  H  H135  1  0.62854089  0.31064271  0.16521716  1.0
  H  H136  1  0.28551910  0.92743601  0.20799415  1.0
  H  H137  1  0.78551671  0.57255933  0.29200679  1.0
  H  H138  1  0.71448365  0.07256480  0.79200903  1.0
  H  H139  1  0.21449106  0.42743381  0.70798775  1.0
  H  H140  1  0.27165831  0.01847883  0.16095638  1.0
  H  H141  1  0.77166047  0.48151454  0.33904447  1.0
  H  H142  1  0.72834013  0.98152251  0.83904913  1.0
  H  H143  1  0.22834372  0.51847708  0.66094893  1.0
  H  H144  1  0.54048229  0.95604896  0.09972442  1.0
  H  H145  1  0.04048344  0.54394442  0.40027569  1.0
  H  H146  1  0.45951257  0.04394929  0.90027458  1.0
  H  H147  1  0.95950856  0.45605083  0.59972817  1.0
  H  H148  1  0.55766551  0.86812614  0.14855320  1.0
  H  H149  1  0.05766557  0.63186721  0.35144821  1.0
  H  H150  1  0.44233007  0.13187314  0.85144754  1.0
  H  H151  1  0.94233216  0.36812805  0.64855664  1.0
  H  H152  1  0.29290378  0.57666639  0.36028700  1.0
  H  H153  1  0.79291638  0.92332583  0.13970613  1.0
  H  H154  1  0.70709037  0.42333841  0.63970785  1.0
  H  H155  1  0.20709283  0.07666632  0.86029091  1.0
  H  H156  1  0.21546821  0.57958263  0.43386162  1.0
  H  H157  1  0.71547012  0.92040777  0.06613424  1.0
  H  H158  1  0.78452952  0.42041914  0.56613419  1.0
  H  H159  1  0.28452904  0.07958441  0.93386605  1.0
  H  H160  1  0.12293019  0.78387651  0.43373262  1.0
  H  H161  1  0.62294737  0.71611312  0.06626609  1.0
  H  H162  1  0.87705894  0.21612428  0.56626731  1.0
  H  H163  1  0.37706111  0.28387905  0.93373191  1.0
  H  H164  1  0.20059307  0.78070986  0.35960596  1.0
  H  H165  1  0.70061736  0.71928312  0.14039180  1.0
  H  H166  1  0.79939032  0.21929446  0.64039240  1.0
  H  H167  1  0.29939901  0.28070649  0.85960462  1.0
  H  H168  1  0.49929353  0.30175326  0.98803209  1.0
  H  H169  1  0.99929434  0.19825230  0.51196639  1.0
  H  H170  1  0.50070492  0.69824703  0.01196908  1.0
  H  H171  1  0.00070769  0.80175507  0.48803296  1.0
  H  H172  1  0.07831402  0.07062117  0.81682333  1.0
  H  H173  1  0.57831294  0.42937781  0.68317806  1.0
  H  H174  1  0.92168873  0.92937103  0.18317890  1.0
  H  H175  1  0.42168479  0.57062249  0.31682344  1.0
  C  C176  1  0.50486409  0.66549704  0.17619710  1.0
  C  C177  1  0.00487256  0.83450453  0.32380359  1.0
  C  C178  1  0.49513220  0.33450529  0.82380559  1.0
  C  C179  1  0.99513305  0.16549727  0.67619645  1.0
  C  C180  1  0.52754810  0.61379027  0.14178451  1.0
  C  C181  1  0.02755559  0.88621124  0.35821519  1.0
  C  C182  1  0.47245035  0.38621206  0.85821818  1.0
  C  C183  1  0.97244859  0.11379057  0.64178550  1.0
  C  C184  1  0.46687767  0.55716009  0.13092876  1.0
  C  C185  1  0.96688643  0.94283937  0.36907098  1.0
  C  C186  1  0.53311934  0.44283717  0.86907371  1.0
  C  C187  1  0.03311919  0.05716142  0.63092927  1.0
  C  C188  1  0.38395420  0.55725654  0.15712097  1.0
  C  C189  1  0.88396226  0.94274515  0.34288000  1.0
  C  C190  1  0.61604425  0.44274326  0.84288243  1.0
  C  C191  1  0.11604264  0.05725615  0.65712030  1.0
  C  C192  1  0.36681979  0.60992981  0.19179309  1.0
  C  C193  1  0.86682884  0.89007142  0.30820751  1.0
  C  C194  1  0.63317651  0.39006899  0.80821117  1.0
  C  C195  1  0.13317821  0.10993090  0.69179356  1.0
  C  C196  1  0.48924688  0.50184985  0.09456772  1.0
  C  C197  1  0.98925680  0.99815211  0.40543294  1.0
  C  C198  1  0.51074870  0.49814997  0.90543697  1.0
  C  C199  1  0.01075097  0.00185071  0.59456721  1.0
  C  C200  1  0.55240216  0.51155290  0.06053595  1.0
  C  C201  1  0.05241057  0.98845260  0.43946354  1.0
  C  C202  1  0.44759557  0.48845044  0.93946621  1.0
  C  C203  1  0.94759577  0.01155276  0.56053721  1.0
  C  C204  1  0.57392304  0.45996102  0.02570523  1.0
  C  C205  1  0.07392702  0.04004344  0.47429427  1.0
  C  C206  1  0.42607397  0.54004028  0.97429508  1.0
  C  C207  1  0.92607429  0.95996140  0.52570545  1.0
  C  C208  1  0.53302581  0.39504473  0.02346682  1.0
  C  C209  1  0.03302878  0.10495982  0.47653237  1.0
  C  C210  1  0.46697048  0.60495658  0.97653479  1.0
  C  C211  1  0.96697469  0.89504654  0.52346719  1.0
  C  C212  1  0.46921797  0.38475248  0.05741617  1.0
  C  C213  1  0.96922173  0.11525055  0.44258441  1.0
  C  C214  1  0.53077832  0.61524682  0.94258717  1.0
  C  C215  1  0.03078173  0.88475581  0.55741580  1.0
  C  C216  1  0.44808432  0.43691190  0.09181664  1.0
  C  C217  1  0.94808907  0.06308865  0.40818303  1.0
  C  C218  1  0.55191484  0.56308790  0.90818546  1.0
  C  C219  1  0.05191512  0.93691213  0.59181592  1.0
  C  C220  1  0.62152308  0.33010471  0.95884024  1.0
  C  C221  1  0.12152533  0.16990428  0.54116029  1.0
  C  C222  1  0.37847107  0.66989961  0.04115910  1.0
  C  C223  1  0.87847957  0.83010561  0.45883901  1.0
  C  C224  1  0.71063356  0.36384094  0.96444873  1.0
  C  C225  1  0.21063597  0.13616734  0.53555171  1.0
  C  C226  1  0.28935915  0.63616186  0.03554979  1.0
  C  C227  1  0.78936678  0.86384053  0.46444704  1.0
  C  C228  1  0.78292971  0.34771903  0.93343469  1.0
  C  C229  1  0.28292773  0.15228857  0.56656566  1.0
  C  C230  1  0.21706586  0.65228328  0.06656573  1.0
  C  C231  1  0.71707717  0.84771777  0.43343227  1.0
  C  C232  1  0.77104327  0.29749821  0.89575215  1.0
  C  C233  1  0.27104533  0.20250840  0.60424745  1.0
  C  C234  1  0.22895374  0.70250409  0.10424762  1.0
  C  C235  1  0.72896028  0.79749894  0.39574930  1.0
  C  C236  1  0.68258535  0.26286479  0.89092726  1.0
  C  C237  1  0.18258940  0.23714658  0.60907060  1.0
  C  C238  1  0.31741023  0.73713903  0.10907170  1.0
  C  C239  1  0.81741980  0.76286531  0.39092470  1.0
  C  C240  1  0.60973058  0.27853051  0.92154603  1.0
  C  C241  1  0.10973113  0.22148000  0.57845077  1.0
  C  C242  1  0.39026142  0.72147280  0.07845320  1.0
  C  C243  1  0.89027305  0.77853239  0.42154425  1.0
  C  C244  1  0.84758750  0.28188760  0.86290332  1.0
  C  C245  1  0.34758804  0.21811833  0.63709620  1.0
  C  C246  1  0.15241023  0.71811371  0.13709894  1.0
  C  C247  1  0.65241687  0.78188701  0.36290228  1.0
  C  C248  1  0.94398873  0.29954939  0.87282456  1.0
  C  C249  1  0.44399006  0.20045631  0.62717556  1.0
  C  C250  1  0.05601044  0.70044839  0.12717893  1.0
  C  C251  1  0.55601412  0.79954752  0.37282470  1.0
  C  C252  1  0.01395494  0.28510297  0.84064485  1.0
  C  C253  1  0.51395557  0.21490018  0.65935311  1.0
  C  C254  1  0.98604925  0.71489176  0.15935702  1.0
  C  C255  1  0.48604503  0.78510010  0.34064708  1.0
  C  C256  1  0.90241387  0.23679929  0.78909204  1.0
  C  C257  1  0.40242275  0.26320602  0.71090934  1.0
  C  C258  1  0.09758458  0.76320101  0.21091010  1.0
  C  C259  1  0.59757857  0.73679579  0.28909135  1.0
  C  C260  1  0.82871436  0.24858213  0.81959008  1.0
  C  C261  1  0.32871615  0.25142283  0.68040966  1.0
  C  C262  1  0.17128480  0.75142019  0.18041132  1.0
  C  C263  1  0.67128445  0.74858148  0.31958838  1.0
  C  C264  1  0.64996521  0.17092818  0.00306677  1.0
  C  C265  1  0.14997000  0.32906597  0.49693257  1.0
  C  C266  1  0.35003109  0.82906400  0.99693319  1.0
  C  C267  1  0.85002845  0.67093533  0.50306839  1.0
  C  C268  1  0.72875861  0.15899551  0.97548961  1.0
  C  C269  1  0.22876439  0.34099855  0.52451057  1.0
  C  C270  1  0.27124056  0.84099719  0.02451138  1.0
  C  C271  1  0.77123836  0.65900428  0.47549056  1.0
  C  C272  1  0.76461353  0.09258031  0.96264446  1.0
  C  C273  1  0.26461613  0.40741922  0.53735436  1.0
  C  C274  1  0.23538779  0.90741695  0.03735800  1.0
  C  C275  1  0.73538447  0.59258460  0.46264492  1.0
  C  C276  1  0.71862632  0.04195944  0.98175584  1.0
  C  C277  1  0.21863229  0.45803563  0.51824186  1.0
  C  C278  1  0.28137141  0.95803429  0.01824787  1.0
  C  C279  1  0.78136688  0.54196566  0.48175747  1.0
  C  C280  1  0.64010971  0.05773073  0.00913802  1.0
  C  C281  1  0.14011255  0.44226291  0.49085834  1.0
  C  C282  1  0.35989017  0.94226398  0.99086222  1.0
  C  C283  1  0.85988805  0.55773788  0.50914159  1.0
  C  C284  1  0.84085801  0.07676389  0.92953953  1.0
  C  C285  1  0.34085693  0.42323650  0.57046230  1.0
  C  C286  1  0.15914546  0.92323389  0.07046397  1.0
  C  C287  1  0.65914223  0.57676632  0.42953785  1.0
  C  C288  1  0.89122667  0.12797833  0.91288488  1.0
  C  C289  1  0.39122582  0.37202295  0.58711606  1.0
  C  C290  1  0.10877321  0.87201640  0.08711796  1.0
  C  C291  1  0.60877120  0.62797987  0.41288409  1.0
  C  C292  1  0.95505680  0.11280129  0.87805469  1.0
  C  C293  1  0.45505442  0.38719934  0.62194715  1.0
  C  C294  1  0.04494236  0.88719244  0.12194869  1.0
  C  C295  1  0.54494188  0.61280144  0.37805245  1.0
  C  C296  1  0.97121742  0.04496937  0.85781915  1.0
  C  C297  1  0.47121328  0.45502920  0.64218311  1.0
  C  C298  1  0.02878389  0.95502589  0.14218570  1.0
  C  C299  1  0.52878302  0.54497158  0.35781649  1.0
  C  C300  1  0.92628707  0.99331972  0.87615080  1.0
  C  C301  1  0.42628213  0.50668198  0.62385232  1.0
  C  C302  1  0.07372070  0.00667806  0.12385302  1.0
  C  C303  1  0.57371990  0.49332136  0.37614951  1.0
  C  C304  1  0.86245063  0.00910861  0.91092830  1.0
  C  C305  1  0.36244564  0.49088920  0.58907357  1.0
  C  C306  1  0.13755284  0.99088360  0.08907621  1.0
  C  C307  1  0.63755352  0.50911210  0.41092609  1.0
  C  C308  1  0.02825726  0.97845930  0.78680246  1.0
  C  C309  1  0.52825875  0.52154077  0.71319795  1.0
  C  C310  1  0.97173903  0.02153492  0.21320000  1.0
  C  C311  1  0.47174113  0.47846051  0.28680073  1.0
  C  C312  1  0.10840273  0.96719419  0.75830880  1.0
  C  C313  1  0.60840486  0.53280517  0.74168924  1.0
  C  C314  1  0.89159284  0.03280054  0.24169338  1.0
  C  C315  1  0.39159717  0.46719711  0.25830825  1.0
  C  C316  1  0.10743407  0.91595075  0.72184016  1.0
  C  C317  1  0.60744096  0.58405114  0.77815719  1.0
  C  C318  1  0.89255721  0.08404702  0.27816204  1.0
  C  C319  1  0.39256681  0.41595365  0.22183733  1.0
  C  C320  1  0.02693592  0.87352386  0.71124418  1.0
  C  C321  1  0.52694620  0.62647976  0.78875597  1.0
  C  C322  1  0.97305463  0.12647645  0.28875927  1.0
  C  C323  1  0.47305727  0.37352707  0.21123975  1.0
  C  C324  1  0.94687947  0.88595359  0.73944243  1.0
  C  C325  1  0.44688040  0.61404397  0.76055634  1.0
  C  C326  1  0.05311252  0.11404062  0.26055807  1.0
  C  C327  1  0.55312092  0.38595577  0.23943957  1.0
  C  C328  1  0.94699623  0.93664251  0.77638076  1.0
  C  C329  1  0.44699813  0.56335762  0.72362121  1.0
  C  C330  1  0.05299648  0.06335376  0.22362387  1.0
  C  C331  1  0.55300103  0.43664366  0.27637682  1.0
  C  C332  1  0.02675034  0.81903292  0.67276311  1.0
  C  C333  1  0.52675388  0.68096917  0.82723524  1.0
  C  C334  1  0.97324381  0.18096636  0.32723730  1.0
  C  C335  1  0.47324959  0.31903460  0.17275916  1.0
  C  C336  1  0.11246911  0.79081883  0.65320645  1.0
  C  C337  1  0.61247250  0.70918408  0.84679263  1.0
  C  C338  1  0.88752575  0.20918449  0.34679343  1.0
  C  C339  1  0.38752881  0.29081921  0.15320399  1.0
  C  C340  1  0.10997088  0.73870307  0.61717950  1.0
  C  C341  1  0.60997329  0.76129730  0.88281899  1.0
  C  C342  1  0.89002757  0.26130024  0.38282006  1.0
  C  C343  1  0.39002659  0.23870144  0.11717844  1.0
  C  C344  1  0.94422875  0.73917844  0.61692066  1.0
  C  C345  1  0.44422892  0.76082269  0.88307948  1.0
  C  C346  1  0.05576898  0.26082134  0.38307916  1.0
  C  C347  1  0.55576738  0.23917758  0.11691909  1.0
  C  C348  1  0.94107268  0.79118697  0.65296380  1.0
  C  C349  1  0.44108028  0.70881313  0.84703395  1.0
  C  C350  1  0.05891787  0.20881178  0.34703526  1.0
  C  C351  1  0.55892318  0.29118812  0.15296050  1.0
  C  C352  1  0.43575721  0.83967342  0.20894974  1.0
  C  C353  1  0.93575155  0.66032361  0.29105266  1.0
  C  C354  1  0.56425056  0.16032789  0.79105220  1.0
  C  C355  1  0.06425981  0.33967314  0.70894877  1.0
  C  C356  1  0.42306666  0.89319979  0.18113108  1.0
  C  C357  1  0.92306123  0.60679524  0.31887077  1.0
  C  C358  1  0.57693609  0.10680152  0.81887117  1.0
  C  C359  1  0.07694296  0.39319946  0.68112784  1.0
  C  C360  1  0.34139443  0.93471539  0.18449470  1.0
  C  C361  1  0.84139278  0.56528183  0.31550481  1.0
  C  C362  1  0.65860903  0.06528643  0.81550826  1.0
  C  C363  1  0.15861499  0.43471131  0.68448908  1.0
  C  C364  1  0.33342740  0.98470153  0.15840279  1.0
  C  C365  1  0.83342452  0.51529167  0.34159726  1.0
  C  C366  1  0.66657391  0.01530182  0.84160099  1.0
  C  C367  1  0.16657751  0.48469742  0.65839716  1.0
  C  C368  1  0.40545388  0.99254641  0.12793054  1.0
  C  C369  1  0.90545388  0.50744914  0.37206910  1.0
  C  C370  1  0.59454529  0.00745743  0.87207102  1.0
  C  C371  1  0.09454313  0.49254504  0.62792815  1.0
  C  C372  1  0.48566180  0.94966815  0.12382612  1.0
  C  C373  1  0.98565730  0.55032670  0.37617181  1.0
  C  C374  1  0.51433593  0.05033263  0.87617348  1.0
  C  C375  1  0.01433469  0.44966852  0.62382848  1.0
  C  C376  1  0.49497266  0.90091069  0.15056750  1.0
  C  C377  1  0.99497226  0.59908265  0.34943384  1.0
  C  C378  1  0.50502363  0.09908910  0.84943394  1.0
  C  C379  1  0.00502618  0.40091107  0.65056824  1.0
  C  C380  1  0.39876269  0.04751906  0.10062454  1.0
  C  C381  1  0.89876278  0.45247703  0.39937400  1.0
  C  C382  1  0.60123146  0.95248479  0.89937897  1.0
  C  C383  1  0.10122921  0.54751616  0.60062477  1.0
  C  C384  1  0.29993755  0.67807025  0.31200883  1.0
  C  C385  1  0.79995488  0.82191894  0.18798688  1.0
  C  C386  1  0.70005373  0.32193712  0.68799084  1.0
  C  C387  1  0.20005575  0.17806764  0.81200954  1.0
  C  C388  1  0.25119585  0.67884107  0.35553586  1.0
  C  C389  1  0.75122254  0.82114975  0.14446037  1.0
  C  C390  1  0.74878395  0.32116325  0.64446251  1.0
  C  C391  1  0.24879455  0.17883885  0.85553595  1.0
  C  C392  1  0.25590299  0.62210534  0.37650929  1.0
  C  C393  1  0.75592226  0.87788647  0.12348510  1.0
  C  C394  1  0.74408327  0.37789896  0.62348680  1.0
  C  C395  1  0.24408981  0.12210518  0.87651220  1.0
  C  C396  1  0.21285072  0.62349831  0.41743635  1.0
  C  C397  1  0.71286214  0.87649309  0.08255767  1.0
  C  C398  1  0.78714199  0.37650598  0.58255844  1.0
  C  C399  1  0.28714491  0.12350110  0.91744024  1.0
  C  C400  1  0.16408380  0.68161445  0.43810226  1.0
  C  C401  1  0.66409765  0.81837354  0.06189399  1.0
  C  C402  1  0.83590819  0.31838835  0.56189594  1.0
  C  C403  1  0.33590940  0.18161558  0.93810336  1.0
  C  C404  1  0.16025152  0.73862149  0.41734663  1.0
  C  C405  1  0.66027064  0.76136854  0.08265050  1.0
  C  C406  1  0.83973617  0.26138182  0.58265260  1.0
  C  C407  1  0.33974358  0.23862310  0.91734551  1.0
  C  C408  1  0.20326291  0.73718094  0.37642280  1.0
  C  C409  1  0.70328199  0.76281302  0.12357183  1.0
  C  C410  1  0.79672335  0.26282082  0.62357237  1.0
  C  C411  1  0.29673366  0.23718215  0.87642293  1.0
  C  C412  1  0.11345972  0.68203010  0.48108494  1.0
  C  C413  1  0.61346572  0.81796004  0.01891253  1.0
  C  C414  1  0.88653800  0.31797524  0.51891386  1.0
  C  C415  1  0.38653846  0.18203464  0.98108478  1.0
  N  N416  1  0.42596424  0.66381499  0.20152661  1.0
  N  N417  1  0.92597068  0.83618507  0.29847287  1.0
  N  N418  1  0.57403492  0.33618328  0.79847532  1.0
  N  N419  1  0.07403422  0.16381621  0.70152613  1.0
  N  N420  1  0.54688848  0.34182501  0.98884158  1.0
  N  N421  1  0.04688866  0.15818162  0.51115773  1.0
  N  N422  1  0.45310781  0.65817781  0.01115922  1.0
  N  N423  1  0.95311409  0.84182675  0.48884076  1.0
  N  N424  1  0.99413604  0.25455244  0.79903565  1.0
  N  N425  1  0.49413497  0.24545213  0.70096402  1.0
  N  N426  1  0.00586599  0.74544432  0.20096741  1.0
  N  N427  1  0.50586563  0.75454612  0.29903595  1.0
  N  N428  1  0.60437455  0.12124932  0.01943750  1.0
  N  N429  1  0.10437913  0.37874543  0.48056126  1.0
  N  N430  1  0.39562174  0.87874488  0.98056236  1.0
  N  N431  1  0.89562147  0.62125688  0.51943916  1.0
  N  N432  1  0.03224934  0.03188091  0.82180584  1.0
  N  N433  1  0.53224665  0.46811765  0.67819388  1.0
  N  N434  1  0.96775054  0.96811179  0.17819612  1.0
  N  N435  1  0.46774965  0.53188162  0.32180588  1.0
  N  N436  1  0.02705178  0.71275856  0.59891192  1.0
  N  N437  1  0.52705479  0.78724152  0.90108784  1.0
  N  N438  1  0.97294308  0.28724070  0.40108751  1.0
  N  N439  1  0.47294653  0.21275622  0.09891078  1.0
  O  O440  1  0.35125731  0.62815637  0.29566656  1.0
  O  O441  1  0.85127440  0.87183475  0.20433261  1.0
  O  O442  1  0.64875046  0.37185307  0.70433789  1.0
  O  O443  1  0.14873839  0.12815692  0.79566697  1.0
  O  O444  1  0.28950370  0.73117246  0.29391707  1.0
  O  O445  1  0.78951481  0.76882083  0.20608169  1.0
  O  O446  1  0.71048614  0.26883187  0.70608227  1.0
  O  O447  1  0.21049368  0.23116981  0.79391648  1.0
  O  O448  1  0.12063868  0.62818253  0.49854673  1.0
  O  O449  1  0.62063728  0.87181117  0.00145373  1.0
  O  O450  1  0.87935976  0.37181926  0.50145201  1.0
  O  O451  1  0.37936404  0.12818354  0.99854521  1.0
  O  O452  1  0.06492731  0.73309661  0.49824311  1.0
  O  O453  1  0.56494001  0.76689262  0.00175330  1.0
  O  O454  1  0.93507544  0.26690620  0.50175672  1.0
  O  O455  1  0.43506776  0.23310155  0.99824363  1.0
  O  O456  1  0.35928405  0.82157066  0.22843801  1.0
  O  O457  1  0.85928191  0.67842707  0.27156611  1.0
  O  O458  1  0.64072013  0.17842762  0.77156522  1.0
  O  O459  1  0.14072586  0.32157476  0.72843718  1.0
  O  O460  1  0.51638029  0.81296199  0.21171962  1.0
  O  O461  1  0.01637871  0.68703298  0.28828294  1.0
  O  O462  1  0.48362389  0.18704084  0.78828215  1.0
  O  O463  1  0.98362978  0.31295921  0.71171832  1.0
  O  O464  1  0.32927032  0.08769356  0.10433333  1.0
  O  O465  1  0.82926702  0.41230118  0.39566539  1.0
  O  O466  1  0.67073386  0.91231181  0.89566872  1.0
  O  O467  1  0.17072282  0.58769454  0.60433430  1.0
  O  O468  1  0.47088670  0.04985633  0.07399573  1.0
  O  O469  1  0.97088750  0.45013756  0.42600158  1.0
  O  O470  1  0.52911390  0.95014344  0.92600344  1.0
  O  O471  1  0.02910449  0.54985713  0.57399573  1.0
