# generated using pymatgen
data_CuH4C7N5
_symmetry_space_group_name_H-M   'P 1'
_cell_length_a   25.20426499
_cell_length_b   25.92163520
_cell_length_c   26.96213456
_cell_angle_alpha   92.26312550
_cell_angle_beta   93.49705752
_cell_angle_gamma   94.51342649
_symmetry_Int_Tables_number   1
_chemical_formula_structural   CuH4C7N5
_chemical_formula_sum   'Cu12 H48 C84 N60'
_cell_volume   17510.63014064
_cell_formula_units_Z   12
loop_
 _symmetry_equiv_pos_site_id
 _symmetry_equiv_pos_as_xyz
  1  'x, y, z'
loop_
 _atom_site_type_symbol
 _atom_site_label
 _atom_site_symmetry_multiplicity
 _atom_site_fract_x
 _atom_site_fract_y
 _atom_site_fract_z
 _atom_site_occupancy
  Cu  Cu0  1  0.76543248  0.74684927  0.81318750  1.0
  Cu  Cu1  1  0.84282532  0.75151387  0.72946474  1.0
  Cu  Cu2  1  0.78486411  0.85349745  0.76183648  1.0
  Cu  Cu3  1  0.75247858  0.21274539  0.16657856  1.0
  Cu  Cu4  1  0.86681402  0.23051480  0.22668523  1.0
  Cu  Cu5  1  0.78170555  0.13625979  0.24767780  1.0
  Cu  Cu6  1  0.16408307  0.80831201  0.12764343  1.0
  Cu  Cu7  1  0.12692029  0.78963387  0.23544324  1.0
  Cu  Cu8  1  0.21631511  0.88120956  0.21362050  1.0
  Cu  Cu9  1  0.26007883  0.24381321  0.90611717  1.0
  Cu  Cu10  1  0.16684732  0.22823763  0.82080054  1.0
  Cu  Cu11  1  0.27663918  0.18615526  0.80079647  1.0
  H  H12  1  0.80262208  0.65067790  0.87154291  1.0
  H  H13  1  0.90855275  0.65126994  0.75076886  1.0
  H  H14  1  0.69765241  0.91854069  0.81359078  1.0
  H  H15  1  0.65922557  0.76482588  0.86546759  1.0
  H  H16  1  0.88838621  0.78886781  0.62957364  1.0
  H  H17  1  0.84035143  0.93391287  0.69029812  1.0
  H  H18  1  0.75989833  0.30577872  0.09514698  1.0
  H  H19  1  0.91893337  0.32410930  0.16751413  1.0
  H  H20  1  0.69230187  0.04257282  0.22136394  1.0
  H  H21  1  0.64864553  0.15299188  0.11253688  1.0
  H  H22  1  0.95943851  0.21164281  0.30978984  1.0
  H  H23  1  0.83904311  0.08993320  0.33929041  1.0
  H  H24  1  0.10597538  0.71277864  0.06809609  1.0
  H  H25  1  0.06629486  0.67370756  0.21695793  1.0
  H  H26  1  0.31582668  0.93484823  0.15961525  1.0
  H  H27  1  0.22613610  0.85038639  0.03570463  1.0
  H  H28  1  0.08977064  0.83356228  0.33755140  1.0
  H  H29  1  0.21368846  0.95251460  0.30992905  1.0
  H  H30  1  0.20807229  0.32136430  0.98235902  1.0
  H  H31  1  0.08244225  0.29711255  0.86480233  1.0
  H  H32  1  0.38066003  0.13193644  0.82758531  1.0
  H  H33  1  0.35919221  0.20759455  0.97031180  1.0
  H  H34  1  0.09653084  0.17985424  0.72500413  1.0
  H  H35  1  0.25429005  0.14309727  0.68720506  1.0
  H  H36  1  0.91789203  0.01677320  0.49465200  1.0
  H  H37  1  0.08384201  0.07180465  0.47943367  1.0
  H  H38  1  0.02254823  0.91254601  0.49824839  1.0
  H  H39  1  0.02230774  0.00984793  0.61343022  1.0
  H  H40  1  0.00403589  0.47130587  0.89190728  1.0
  H  H41  1  0.99596489  0.45825821  0.05185673  1.0
  H  H42  1  0.86236159  0.47896173  0.94613991  1.0
  H  H43  1  0.97366156  0.59620545  0.97007332  1.0
  H  H44  1  0.45631562  0.87526475  0.94680339  1.0
  H  H45  1  0.46838592  0.01793826  0.03899530  1.0
  H  H46  1  0.52941011  0.99883344  0.89306177  1.0
  H  H47  1  0.60050388  0.92814796  0.00512543  1.0
  H  H48  1  0.86739100  0.58167125  0.92064039  1.0
  H  H49  1  0.94517619  0.39575217  0.08343426  1.0
  H  H50  1  0.04455006  0.63153594  0.02925835  1.0
  H  H51  1  0.04659512  0.39192902  0.89836889  1.0
  H  H52  1  0.62212647  0.95038453  0.89708999  1.0
  H  H53  1  0.43838010  0.05808203  0.88265942  1.0
  H  H54  1  0.56509180  0.07619901  0.07202665  1.0
  H  H55  1  0.40542564  0.94447696  0.08987494  1.0
  H  H56  1  0.94287751  0.97447345  0.63119130  1.0
  H  H57  1  0.05945345  0.90039164  0.41717510  1.0
  H  H58  1  0.05928041  0.09569947  0.64864882  1.0
  H  H59  1  0.90638367  0.05667873  0.41426827  1.0
  C  C60  1  0.82430996  0.65765302  0.83857961  1.0
  C  C61  1  0.86690282  0.63267721  0.82014953  1.0
  C  C62  1  0.87818538  0.65809145  0.77652040  1.0
  C  C63  1  0.69596543  0.87813838  0.82293461  1.0
  C  C64  1  0.65909805  0.84936926  0.84998058  1.0
  C  C65  1  0.67633309  0.79920526  0.84882871  1.0
  C  C66  1  0.87253981  0.81965600  0.65114024  1.0
  C  C67  1  0.87501288  0.87283844  0.64293093  1.0
  C  C68  1  0.84879401  0.89412199  0.68230825  1.0
  C  C69  1  0.79626852  0.30319948  0.11823330  1.0
  C  C70  1  0.84523713  0.33286796  0.11740769  1.0
  C  C71  1  0.87784715  0.31271517  0.15473940  1.0
  C  C72  1  0.68819230  0.07600826  0.19888540  1.0
  C  C73  1  0.65246930  0.08184960  0.15787817  1.0
  C  C74  1  0.66547796  0.13237807  0.14320563  1.0
  C  C75  1  0.92432479  0.18471703  0.31032187  1.0
  C  C76  1  0.91416235  0.14390750  0.34204529  1.0
  C  C77  1  0.86296606  0.12239382  0.32569208  1.0
  C  C78  1  0.10005137  0.71130684  0.10757309  1.0
  C  C79  1  0.07497920  0.67191897  0.13421989  1.0
  C  C80  1  0.08023260  0.69133383  0.18380823  1.0
  C  C81  1  0.28765723  0.91100083  0.13469495  1.0
  C  C82  1  0.28759379  0.90077880  0.08318345  1.0
  C  C83  1  0.24119597  0.86791331  0.07151313  1.0
  C  C84  1  0.12222586  0.85785902  0.32382273  1.0
  C  C85  1  0.14660976  0.90573606  0.34273965  1.0
  C  C86  1  0.18576365  0.91842833  0.30947416  1.0
  C  C87  1  0.18259422  0.30955211  0.94933745  1.0
  C  C88  1  0.13180921  0.32455186  0.93484057  1.0
  C  C89  1  0.11850684  0.29764257  0.88903548  1.0
  C  C90  1  0.36832655  0.15463406  0.85891474  1.0
  C  C91  1  0.38873275  0.15866645  0.90861239  1.0
  C  C92  1  0.35725666  0.19371114  0.93171119  1.0
  C  C93  1  0.13864040  0.17408172  0.72374866  1.0
  C  C94  1  0.16608976  0.15142141  0.68587491  1.0
  C  C95  1  0.21957908  0.15597964  0.70440460  1.0
  C  C96  1  0.98847213  0.98232101  0.53496494  1.0
  C  C97  1  0.96103251  0.01980903  0.50083243  1.0
  C  C98  1  0.99649013  0.05190152  0.47983469  1.0
  C  C99  1  0.05515973  0.04498736  0.49612748  1.0
  C  C100  1  0.02701518  0.95442863  0.50305896  1.0
  C  C101  1  0.06081435  0.98772484  0.48170422  1.0
  C  C102  1  0.02379414  0.01563592  0.57384788  1.0
  C  C103  1  0.05826455  0.04879703  0.55289397  1.0
  C  C104  1  0.94787945  0.51454525  0.93819498  1.0
  C  C105  1  0.99076799  0.47730834  0.92908854  1.0
  C  C106  1  0.00736025  0.45621879  0.97118602  1.0
  C  C107  1  0.98059595  0.47477062  0.01777640  1.0
  C  C108  1  0.90290277  0.48343054  0.96270802  1.0
  C  C109  1  0.92052627  0.46256796  0.00465484  1.0
  C  C110  1  0.97242396  0.55528248  0.97761618  1.0
  C  C111  1  0.98951056  0.53402801  0.01939475  1.0
  C  C112  1  0.52840627  0.93508895  0.95029429  1.0
  C  C113  1  0.47365925  0.91190061  0.96364273  1.0
  C  C114  1  0.45176880  0.94269718  0.99610128  1.0
  C  C115  1  0.48675977  0.99262216  0.01281072  1.0
  C  C116  1  0.51965059  0.98912300  0.93048111  1.0
  C  C117  1  0.49655300  0.01854238  0.96340916  1.0
  C  C118  1  0.56244185  0.94477284  0.99958149  1.0
  C  C119  1  0.54050231  0.97563160  0.03185168  1.0
  C  C120  1  0.89535978  0.59253911  0.84299969  1.0
  C  C121  1  0.89191859  0.57341964  0.89012221  1.0
  C  C122  1  0.85660961  0.37351561  0.08338112  1.0
  C  C123  1  0.90400814  0.39883672  0.07077142  1.0
  C  C124  1  0.04936850  0.62361817  0.11258120  1.0
  C  C125  1  0.03772807  0.61085122  0.06264486  1.0
  C  C126  1  0.10018517  0.36140951  0.95878263  1.0
  C  C127  1  0.06185388  0.38983639  0.93657039  1.0
  C  C128  1  0.61330480  0.86467899  0.87512820  1.0
  C  C129  1  0.60118954  0.91213273  0.89507425  1.0
  C  C130  1  0.42771976  0.12830210  0.93273314  1.0
  C  C131  1  0.44623357  0.08205046  0.91651766  1.0
  C  C132  1  0.61664012  0.04174696  0.13220453  1.0
  C  C133  1  0.57995975  0.04436928  0.09219758  1.0
  C  C134  1  0.32727862  0.91512672  0.04860088  1.0
  C  C135  1  0.38020477  0.93407002  0.05643764  1.0
  C  C136  1  0.90146694  0.89763973  0.60283958  1.0
  C  C137  1  0.93249520  0.94425475  0.60264100  1.0
  C  C138  1  0.13281826  0.93761385  0.38444874  1.0
  C  C139  1  0.09129433  0.93065116  0.41525693  1.0
  C  C140  1  0.14435096  0.12635386  0.63928313  1.0
  C  C141  1  0.09433464  0.10161569  0.62764544  1.0
  C  C142  1  0.94839332  0.12678005  0.38204308  1.0
  C  C143  1  0.93936886  0.08575269  0.41250409  1.0
  N  N144  1  0.84469737  0.69564484  0.76971533  1.0
  N  N145  1  0.81127380  0.69528698  0.80812646  1.0
  N  N146  1  0.72035254  0.79829966  0.82309919  1.0
  N  N147  1  0.73258760  0.84714675  0.80681703  1.0
  N  N148  1  0.83187167  0.85613766  0.71189555  1.0
  N  N149  1  0.84695108  0.80999368  0.69258912  1.0
  N  N150  1  0.85012619  0.27378698  0.17617431  1.0
  N  N151  1  0.79956328  0.26792503  0.15339654  1.0
  N  N152  1  0.70625260  0.15491514  0.17318791  1.0
  N  N153  1  0.72024309  0.11995181  0.20772430  1.0
  N  N154  1  0.84407125  0.14846089  0.28707391  1.0
  N  N155  1  0.88208310  0.18714685  0.27750607  1.0
  N  N156  1  0.10655272  0.73891870  0.18621243  1.0
  N  N157  1  0.11878910  0.75117927  0.13886055  1.0
  N  N158  1  0.21570180  0.85898134  0.11316462  1.0
  N  N159  1  0.24441501  0.88572771  0.15233615  1.0
  N  N160  1  0.18451616  0.88088115  0.27329974  1.0
  N  N161  1  0.14510891  0.84319864  0.28214308  1.0
  N  N162  1  0.15843952  0.26883502  0.87706694  1.0
  N  N163  1  0.19831900  0.27635276  0.91435633  1.0
  N  N164  1  0.32042922  0.20890978  0.89818177  1.0
  N  N165  1  0.32739619  0.18479916  0.85294157  1.0
  N  N166  1  0.22353751  0.17945180  0.75015000  1.0
  N  N167  1  0.17338465  0.19090258  0.76208308  1.0
  N  N168  1  0.95584442  0.53649611  0.85084549  1.0
  N  N169  1  0.93481000  0.56849195  0.82033714  1.0
  N  N170  1  0.92966265  0.53887667  0.89336762  1.0
  N  N171  1  0.83479197  0.42669326  0.02541813  1.0
  N  N172  1  0.81569708  0.39224167  0.05467353  1.0
  N  N173  1  0.88925037  0.43145145  0.03457286  1.0
  N  N174  1  0.01134242  0.54414425  0.10845108  1.0
  N  N175  1  0.03250263  0.58148778  0.13904182  1.0
  N  N176  1  0.01432703  0.56160440  0.06110359  1.0
  N  N177  1  0.07013160  0.40842910  0.01888348  1.0
  N  N178  1  0.10376591  0.37415625  0.00915795  1.0
  N  N179  1  0.04394932  0.41857509  0.97456358  1.0
  N  N180  1  0.53758676  0.85053515  0.91024451  1.0
  N  N181  1  0.57297661  0.82835018  0.88526413  1.0
  N  N182  1  0.55384413  0.90178830  0.91601649  1.0
  N  N183  1  0.47571264  0.10158043  0.99593883  1.0
  N  N184  1  0.44744558  0.13876224  0.98127666  1.0
  N  N185  1  0.47561058  0.06627331  0.95651709  1.0
  N  N186  1  0.59041381  0.96109368  0.10872643  1.0
  N  N187  1  0.62059593  0.99009543  0.14132005  1.0
  N  N188  1  0.56490831  0.99380320  0.07811260  1.0
  N  N189  1  0.35953966  0.91661840  0.97475604  1.0
  N  N190  1  0.31679034  0.90571023  0.99808975  1.0
  N  N191  1  0.39937395  0.93409695  0.01013535  1.0
  N  N192  1  0.93253151  0.90170309  0.52889410  1.0
  N  N193  1  0.90258695  0.87312422  0.55679838  1.0
  N  N194  1  0.95127895  0.94508238  0.55640866  1.0
  N  N195  1  0.13714692  0.00779149  0.43351591  1.0
  N  N196  1  0.15973489  0.98530825  0.39729532  1.0
  N  N197  1  0.09486005  0.97475482  0.44517433  1.0
  N  N198  1  0.14473618  0.09666051  0.56184852  1.0
  N  N199  1  0.17359134  0.12224531  0.59776710  1.0
  N  N200  1  0.09561779  0.08360034  0.57951762  1.0
  N  N201  1  0.02100658  0.12569291  0.43132089  1.0
  N  N202  1  0.99884378  0.14994277  0.39518061  1.0
  N  N203  1  0.98495914  0.08591622  0.44261508  1.0
