# generated using pymatgen
data_CrH5C8O5
_symmetry_space_group_name_H-M   'P 1'
_cell_length_a   6.89196038
_cell_length_b   11.24786368
_cell_length_c   11.24752450
_cell_angle_alpha   84.39016090
_cell_angle_beta   72.16220476
_cell_angle_gamma   72.15606834
_symmetry_Int_Tables_number   1
_chemical_formula_structural   CrH5C8O5
_chemical_formula_sum   'Cr2 H10 C16 O10'
_cell_volume   790.05726578
_cell_formula_units_Z   2
loop_
 _symmetry_equiv_pos_site_id
 _symmetry_equiv_pos_as_xyz
  1  'x, y, z'
loop_
 _atom_site_type_symbol
 _atom_site_label
 _atom_site_symmetry_multiplicity
 _atom_site_fract_x
 _atom_site_fract_y
 _atom_site_fract_z
 _atom_site_occupancy
  Cr  Cr0  1  0.50000018  0.49999793  0.50000121  1.0
  Cr  Cr1  1  0.99999627  0.49999913  0.49999833  1.0
  H  H2  1  0.24435824  0.88284550  0.50513014  1.0
  H  H3  1  0.24996727  0.62382390  0.37617257  1.0
  H  H4  1  0.25543895  0.49478603  0.11735927  1.0
  H  H5  1  0.13241758  0.11736027  0.49478387  1.0
  H  H6  1  0.75003368  0.37617804  0.62382758  1.0
  H  H7  1  0.36766768  0.50513181  0.88284375  1.0
  H  H8  1  0.75564406  0.11715552  0.49486911  1.0
  H  H9  1  0.74455839  0.50521501  0.88263884  1.0
  H  H10  1  0.86758347  0.88264075  0.50521510  1.0
  H  H11  1  0.63233090  0.49486922  0.11715464  1.0
  C  C12  1  0.35499744  0.93517665  0.50262758  1.0
  C  C13  1  0.14492108  0.49730725  0.06492991  1.0
  C  C14  1  0.29283960  0.06493089  0.49730817  1.0
  C  C15  1  0.20719674  0.50262865  0.93517586  1.0
  C  C16  1  0.64500533  0.06482343  0.49737166  1.0
  C  C17  1  0.85507337  0.50269285  0.93506851  1.0
  C  C18  1  0.70716058  0.93507012  0.50269168  1.0
  C  C19  1  0.79279900  0.49736956  0.06482372  1.0
  C  C20  1  0.56258974  0.86937956  0.50530789  1.0
  C  C21  1  0.63121571  0.72992605  0.50756817  1.0
  C  C22  1  0.93727598  0.49469167  0.13062092  1.0
  C  C23  1  0.86871543  0.49243275  0.27007649  1.0
  C  C24  1  0.43741116  0.13062142  0.49469431  1.0
  C  C25  1  0.36878471  0.27007586  0.49243405  1.0
  C  C26  1  0.06272526  0.50530656  0.86937773  1.0
  C  C27  1  0.13129030  0.50756639  0.72992331  1.0
  O  O28  1  0.49242723  0.67657214  0.50730696  1.0
  O  O29  1  0.00740528  0.49272160  0.32346193  1.0
  O  O30  1  0.17641442  0.32346076  0.49272305  1.0
  O  O31  1  0.32369806  0.50730169  0.67657299  1.0
  O  O32  1  0.50757522  0.32342785  0.49269876  1.0
  O  O33  1  0.99259832  0.50727754  0.67653848  1.0
  O  O34  1  0.82358622  0.67653932  0.50727680  1.0
  O  O35  1  0.67630790  0.49269278  0.32342737  1.0
  O  O36  1  0.75008337  0.44038003  0.55961908  1.0
  O  O37  1  0.24991771  0.55961815  0.44038281  1.0
