# generated using pymatgen
data_ZnH20C21(NO2)3
_symmetry_space_group_name_H-M   'P 1'
_cell_length_a   11.82393121
_cell_length_b   15.97358725
_cell_length_c   17.06979203
_cell_angle_alpha   88.94394378
_cell_angle_beta   89.50211688
_cell_angle_gamma   89.58691901
_symmetry_Int_Tables_number   1
_chemical_formula_structural   ZnH20C21(NO2)3
_chemical_formula_sum   'Zn2 H40 C42 N6 O12'
_cell_volume   3223.23236303
_cell_formula_units_Z   2
loop_
 _symmetry_equiv_pos_site_id
 _symmetry_equiv_pos_as_xyz
  1  'x, y, z'
loop_
 _atom_site_type_symbol
 _atom_site_label
 _atom_site_symmetry_multiplicity
 _atom_site_fract_x
 _atom_site_fract_y
 _atom_site_fract_z
 _atom_site_occupancy
  Zn  Zn0  1  0.50646366  0.59211970  0.50334180  1.0
  Zn  Zn1  1  0.49424720  0.41241872  0.48863270  1.0
  H  H2  1  0.38043544  0.59640557  0.74496850  1.0
  H  H3  1  0.53944275  0.34859527  0.88685755  1.0
  H  H4  1  0.38036535  0.69676378  0.32028432  1.0
  H  H5  1  0.35724563  0.72610046  0.21963302  1.0
  H  H6  1  0.53410532  0.80510931  0.32507667  1.0
  H  H7  1  0.50378471  0.83615516  0.22759756  1.0
  H  H8  1  0.30465476  0.87786394  0.26934902  1.0
  H  H9  1  0.40757514  0.93249195  0.32305818  1.0
  H  H10  1  0.33564861  0.84633805  0.36713645  1.0
  H  H11  1  0.53516873  0.24305093  0.78620006  1.0
  H  H12  1  0.67025311  0.28462042  0.80976426  1.0
  H  H13  1  0.45660252  0.38824744  0.25807061  1.0
  H  H14  1  0.60891177  0.23158520  0.64414710  1.0
  H  H15  1  0.74452705  0.25510902  0.67835365  1.0
  H  H16  1  0.73585334  0.12557425  0.76952424  1.0
  H  H17  1  0.72180867  0.09975100  0.66952330  1.0
  H  H18  1  0.60055798  0.10281451  0.73132393  1.0
  H  H19  1  0.84362506  0.70369475  0.45447941  1.0
  H  H20  1  0.80353119  0.80635499  0.48374515  1.0
  H  H21  1  0.77197265  0.73638742  0.31869598  1.0
  H  H22  1  0.74483009  0.84089642  0.34529911  1.0
  H  H23  1  0.95336865  0.85911975  0.37715679  1.0
  H  H24  1  0.65911204  0.13281514  0.40140913  1.0
  H  H25  1  0.93448355  0.82993563  0.27838949  1.0
  H  H26  1  0.97953252  0.75421134  0.34899770  1.0
  H  H27  1  0.38788630  0.24942103  0.68085884  1.0
  H  H28  1  0.27047162  0.19366824  0.64147828  1.0
  H  H29  1  0.27330436  0.38327315  0.66215603  1.0
  H  H30  1  0.15472031  0.32233441  0.63816166  1.0
  H  H31  1  0.16987397  0.24867432  0.77380636  1.0
  H  H32  1  0.14429153  0.35793383  0.77966304  1.0
  H  H33  1  0.28228186  0.31780952  0.79578869  1.0
  H  H34  1  0.65866011  0.89434707  0.46699246  1.0
  H  H35  1  0.32393267  0.87540503  0.56765699  1.0
  H  H36  1  0.39481528  0.11183334  0.57638215  1.0
  H  H37  1  0.62217696  0.28990164  0.39693534  1.0
  H  H38  1  0.34033064  0.71698925  0.55557950  1.0
  H  H39  1  0.35641949  0.58152348  0.89130260  1.0
  H  H40  1  0.42418854  0.38275867  0.11290891  1.0
  H  H41  1  0.46929478  0.64963924  0.09785455  1.0
  C  C42  1  0.50120595  0.51651361  0.34621169  1.0
  C  C43  1  0.49107052  0.89422814  0.51814570  1.0
  C  C44  1  0.59425815  0.16180211  0.43769773  1.0
  C  C45  1  0.39972786  0.84547198  0.54444304  1.0
  C  C46  1  0.57347072  0.24743977  0.43460311  1.0
  C  C47  1  0.40851209  0.75915469  0.53805334  1.0
  C  C48  1  0.71811098  0.47953355  0.50593126  1.0
  C  C49  1  0.28066257  0.51102124  0.49416590  1.0
  C  C50  1  0.84027204  0.48076935  0.50953312  1.0
  C  C51  1  0.15892795  0.50717429  0.50132558  1.0
  C  C52  1  0.94316930  0.48867973  0.50903118  1.0
  C  C53  1  0.48546891  0.49505946  0.64680351  1.0
  C  C54  1  0.05638896  0.49799202  0.50611522  1.0
  C  C55  1  0.48201559  0.52065731  0.25948107  1.0
  C  C56  1  0.47332547  0.48188422  0.73355644  1.0
  C  C57  1  0.45900051  0.44494048  0.22160033  1.0
  C  C58  1  0.41462652  0.54223003  0.77683444  1.0
  C  C59  1  0.44084298  0.44158482  0.14167867  1.0
  C  C60  1  0.40077682  0.53430296  0.85742496  1.0
  C  C61  1  0.44542583  0.51626119  0.09680978  1.0
  C  C62  1  0.44845584  0.46446602  0.89621239  1.0
  C  C63  1  0.46483970  0.59239877  0.13355253  1.0
  C  C64  1  0.48467235  0.59534478  0.21397667  1.0
  C  C65  1  0.50358509  0.40132231  0.85396658  1.0
  C  C66  1  0.42032872  0.72402797  0.26711907  1.0
  C  C67  1  0.46550530  0.81096343  0.28211176  1.0
  C  C68  1  0.37327898  0.87012012  0.31203135  1.0
  C  C69  1  0.61014052  0.27555413  0.76148985  1.0
  C  C70  1  0.66397651  0.22575994  0.69560839  1.0
  C  C71  1  0.68157850  0.13359890  0.71788970  1.0
  C  C72  1  0.78620382  0.75652733  0.44173452  1.0
  C  C73  1  0.80024184  0.78648957  0.35713549  1.0
  C  C74  1  0.92362269  0.80873652  0.33951075  1.0
  C  C75  1  0.51759226  0.41010966  0.77273787  1.0
  C  C76  1  0.31245491  0.25505067  0.64354510  1.0
  C  C77  1  0.23255938  0.32252862  0.67303495  1.0
  C  C78  1  0.20583825  0.31070809  0.76029310  1.0
  C  C79  1  0.42942238  0.23654272  0.52853317  1.0
  C  C80  1  0.59066336  0.76869747  0.48491558  1.0
  C  C81  1  0.44593370  0.15005758  0.53662421  1.0
  C  C82  1  0.58878293  0.85617696  0.48840686  1.0
  C  C83  1  0.52828723  0.11276352  0.48917511  1.0
  N  N84  1  0.43693609  0.52244750  0.01455825  1.0
  N  N85  1  0.45110526  0.45428624  0.97874268  1.0
  N  N86  1  0.49339234  0.28376447  0.47901125  1.0
  N  N87  1  0.50154363  0.72175659  0.50904721  1.0
  N  N88  1  0.54916168  0.02510290  0.48748373  1.0
  N  N89  1  0.47389223  0.98209941  0.52188836  1.0
  O  O90  1  0.48543787  0.58266731  0.38534302  1.0
  O  O91  1  0.57600996  0.35456732  0.72804076  1.0
  O  O92  1  0.67551833  0.72189742  0.45754460  1.0
  O  O93  1  0.34981456  0.28087054  0.56578982  1.0
  O  O94  1  0.46792684  0.43194616  0.60435366  1.0
  O  O95  1  0.52970760  0.44507603  0.37478310  1.0
  O  O96  1  0.50861764  0.56881421  0.62259770  1.0
  O  O97  1  0.67232738  0.55151765  0.49893575  1.0
  O  O98  1  0.32770265  0.44549389  0.46755893  1.0
  O  O99  1  0.66955788  0.40885111  0.50893493  1.0
  O  O100  1  0.32830458  0.57810725  0.51507869  1.0
  O  O101  1  0.51426339  0.67139897  0.24433081  1.0
