# generated using pymatgen
data_ZnH22C21NO6
_symmetry_space_group_name_H-M   'P 1'
_cell_length_a   10.92795261
_cell_length_b   14.69194727
_cell_length_c   16.21918695
_cell_angle_alpha   88.12098699
_cell_angle_beta   88.32854380
_cell_angle_gamma   71.28420290
_symmetry_Int_Tables_number   1
_chemical_formula_structural   ZnH22C21NO6
_chemical_formula_sum   'Zn2 H44 C42 N2 O12'
_cell_volume   2464.53637765
_cell_formula_units_Z   2
loop_
 _symmetry_equiv_pos_site_id
 _symmetry_equiv_pos_as_xyz
  1  'x, y, z'
loop_
 _atom_site_type_symbol
 _atom_site_label
 _atom_site_symmetry_multiplicity
 _atom_site_fract_x
 _atom_site_fract_y
 _atom_site_fract_z
 _atom_site_occupancy
  Zn  Zn0  1  0.46891781  0.60201454  0.50278713  1.0
  Zn  Zn1  1  0.52237387  0.40259650  0.50525466  1.0
  H  H2  1  0.40868212  0.64691689  0.92041616  1.0
  H  H3  1  0.62765635  0.35279975  0.08647986  1.0
  H  H4  1  0.49640962  0.91618577  0.37539217  1.0
  H  H5  1  0.48620231  0.09084440  0.63411425  1.0
  H  H6  1  0.15800643  0.33071238  0.63406126  1.0
  H  H7  1  0.02817812  0.39549680  0.70086322  1.0
  H  H8  1  0.31726796  0.36091584  0.72680950  1.0
  H  H9  1  0.19158916  0.42976467  0.79157290  1.0
  H  H10  1  0.12160779  0.28443919  0.82539606  1.0
  H  H11  1  0.28590832  0.26147337  0.85078572  1.0
  H  H12  1  0.24659138  0.21368942  0.75990956  1.0
  H  H13  1  0.83294695  0.67476960  0.62618728  1.0
  H  H14  1  0.94445136  0.60649355  0.70124744  1.0
  H  H15  1  0.64842523  0.65780560  0.71062231  1.0
  H  H16  1  0.75393599  0.58147810  0.78201675  1.0
  H  H17  1  0.83607395  0.71382266  0.82332929  1.0
  H  H18  1  0.66484900  0.75259409  0.83314640  1.0
  H  H19  1  0.74139793  0.79266190  0.74774905  1.0
  H  H20  1  0.06479522  0.56824124  0.37730006  1.0
  H  H21  1  0.92840365  0.61591970  0.44422490  1.0
  H  H22  1  0.04901273  0.67452403  0.43070946  1.0
  H  H23  1  0.94989334  0.32856914  0.44009960  1.0
  H  H24  1  0.93943054  0.43368036  0.38058584  1.0
  H  H25  1  0.06889775  0.38779123  0.45054071  1.0
  H  H26  1  0.52244699  0.75555008  0.07483462  1.0
  H  H27  1  0.54826788  0.66629674  0.15624113  1.0
  H  H28  1  0.30526964  0.84202163  0.14119517  1.0
  H  H29  1  0.34102043  0.75531815  0.22306346  1.0
  H  H30  1  0.53168741  0.80415255  0.26107746  1.0
  H  H31  1  0.38835413  0.90578029  0.26042906  1.0
  H  H32  1  0.50227481  0.88917270  0.17730099  1.0
  H  H33  1  0.48568180  0.33611788  0.85222848  1.0
  H  H34  1  0.52286080  0.23816107  0.92605948  1.0
  H  H35  1  0.69323123  0.26151792  0.77813997  1.0
  H  H36  1  0.73573334  0.16489749  0.85136726  1.0
  H  H37  1  0.53811984  0.12044198  0.80903808  1.0
  H  H38  1  0.65063709  0.11426557  0.72624099  1.0
  H  H39  1  0.50660818  0.21451281  0.73256293  1.0
  H  H40  1  0.58439299  0.13506602  0.34445587  1.0
  H  H41  1  0.54094177  0.04360276  0.29470134  1.0
  H  H42  1  0.42018868  0.14949563  0.32825016  1.0
  H  H43  1  0.39167925  0.87512894  0.66424616  1.0
  H  H44  1  0.55678199  0.85663800  0.68111113  1.0
  H  H45  1  0.43944825  0.96420871  0.71458708  1.0
  C  C46  1  0.50432046  0.50898692  0.34171587  1.0
  C  C47  1  0.49725471  0.49435407  0.66602155  1.0
  C  C48  1  0.49411875  0.95585620  0.43132096  1.0
  C  C49  1  0.48781023  0.05132666  0.57815277  1.0
  C  C50  1  0.48055948  0.91284637  0.50822037  1.0
  C  C51  1  0.50179168  0.09421026  0.50120349  1.0
  C  C52  1  0.47685661  0.95946115  0.58368352  1.0
  C  C53  1  0.50405858  0.04799034  0.42571111  1.0
  C  C54  1  0.46897828  0.81935496  0.50869488  1.0
  C  C55  1  0.51610619  0.18689125  0.50043046  1.0
  C  C56  1  0.74305376  0.46704537  0.50741450  1.0
  C  C57  1  0.24804751  0.53749100  0.50706159  1.0
  C  C58  1  0.88364587  0.45703569  0.50888894  1.0
  C  C59  1  0.10728178  0.54766275  0.50706977  1.0
  C  C60  1  0.92681828  0.49900268  0.56991153  1.0
  C  C61  1  0.05741560  0.50696475  0.57003915  1.0
  C  C62  1  0.45664422  0.58235538  0.95685444  1.0
  C  C63  1  0.58020506  0.41755809  0.05008054  1.0
  C  C64  1  0.51343050  0.49471335  0.91668081  1.0
  C  C65  1  0.52214477  0.50500986  0.09034796  1.0
  C  C66  1  0.57615512  0.41108428  0.96491135  1.0
  C  C67  1  0.46059140  0.58881771  0.04190186  1.0
  C  C68  1  0.50941186  0.49277717  0.82987046  1.0
  C  C69  1  0.51927742  0.50717958  0.17740798  1.0
  C  C70  1  0.51321161  0.50830421  0.25256719  1.0
  C  C71  1  0.50394998  0.49359105  0.75490520  1.0
  C  C72  1  0.12741239  0.38872471  0.67934009  1.0
  C  C73  1  0.21962296  0.36757237  0.75089839  1.0
  C  C74  1  0.21837250  0.27695269  0.79940896  1.0
  C  C75  1  0.84895324  0.61749151  0.67440604  1.0
  C  C76  1  0.74243632  0.64393026  0.74003475  1.0
  C  C77  1  0.74614605  0.73032228  0.78869110  1.0
  C  C78  1  0.03218504  0.60456899  0.43621523  1.0
  C  C79  1  0.96605283  0.39870271  0.44161387  1.0
  C  C80  1  0.47390464  0.72065138  0.12067965  1.0
  C  C81  1  0.38451411  0.79365639  0.17761962  1.0
  C  C82  1  0.45594829  0.85140328  0.22154771  1.0
  C  C83  1  0.56489543  0.28036749  0.88277456  1.0
  C  C84  1  0.65370238  0.21646331  0.81937311  1.0
  C  C85  1  0.58304967  0.16334866  0.76902340  1.0
  C  C86  1  0.51376386  0.09615605  0.34394677  1.0
  C  C87  1  0.46483179  0.91176482  0.66522798  1.0
  N  N88  1  0.53056256  0.26177172  0.50079747  1.0
  N  N89  1  0.45800851  0.74339227  0.50782447  1.0
  O  O90  1  0.47632401  0.59088298  0.37475319  1.0
  O  O91  1  0.51585702  0.41325514  0.63318557  1.0
  O  O92  1  0.52513391  0.42743991  0.37804875  1.0
  O  O93  1  0.47340233  0.57621492  0.62984934  1.0
  O  O94  1  0.66552011  0.55269292  0.50185876  1.0
  O  O95  1  0.32584190  0.45180501  0.50573510  1.0
  O  O96  1  0.71231546  0.39040076  0.50763133  1.0
  O  O97  1  0.27914344  0.61404371  0.50406541  1.0
  O  O98  1  0.13012735  0.47746137  0.64001285  1.0
  O  O99  1  0.84664541  0.53001604  0.63770899  1.0
  O  O100  1  0.39638536  0.67547139  0.07670620  1.0
  O  O101  1  0.64024620  0.32434815  0.93026846  1.0
