# generated using pymatgen
data_CuH7C9N2
_symmetry_space_group_name_H-M   'P 1'
_cell_length_a   31.86165346
_cell_length_b   35.03217592
_cell_length_c   35.10715407
_cell_angle_alpha   94.78132588
_cell_angle_beta   90.49880832
_cell_angle_gamma   90.73551392
_symmetry_Int_Tables_number   1
_chemical_formula_structural   CuH7C9N2
_chemical_formula_sum   'Cu12 H84 C108 N24'
_cell_volume   39044.54942308
_cell_formula_units_Z   12
loop_
 _symmetry_equiv_pos_site_id
 _symmetry_equiv_pos_as_xyz
  1  'x, y, z'
loop_
 _atom_site_type_symbol
 _atom_site_label
 _atom_site_symmetry_multiplicity
 _atom_site_fract_x
 _atom_site_fract_y
 _atom_site_fract_z
 _atom_site_occupancy
  Cu  Cu0  1  0.87089066  0.10049501  0.13907448  1.0
  Cu  Cu1  1  0.84036641  0.12582183  0.05937360  1.0
  Cu  Cu2  1  0.91872073  0.16816996  0.10271128  1.0
  Cu  Cu3  1  0.12904248  0.41094869  0.65978026  1.0
  Cu  Cu4  1  0.15952259  0.37823055  0.57794650  1.0
  Cu  Cu5  1  0.09171804  0.33205763  0.62322080  1.0
  Cu  Cu6  1  0.37139069  0.90612991  0.36059122  1.0
  Cu  Cu7  1  0.33614905  0.87210281  0.43464434  1.0
  Cu  Cu8  1  0.41367810  0.83261957  0.39069545  1.0
  Cu  Cu9  1  0.62538764  0.58639805  0.84484189  1.0
  Cu  Cu10  1  0.66389616  0.62294568  0.92345188  1.0
  Cu  Cu11  1  0.58999083  0.66452287  0.88182541  1.0
  H  H12  1  0.37597160  0.58595558  0.67324834  1.0
  H  H13  1  0.43303400  0.68584053  0.63066126  1.0
  H  H14  1  0.32340165  0.63367121  0.57460299  1.0
  H  H15  1  0.62087178  0.92468312  0.19292862  1.0
  H  H16  1  0.56806596  0.82174538  0.13495205  1.0
  H  H17  1  0.67443520  0.87734275  0.08744825  1.0
  H  H18  1  0.82313750  0.37129001  0.92488866  1.0
  H  H19  1  0.93180059  0.32000657  0.87061616  1.0
  H  H20  1  0.87617458  0.41871906  0.82639828  1.0
  H  H21  1  0.12341549  0.07872579  0.30553232  1.0
  H  H22  1  0.07863851  0.18462436  0.36076403  1.0
  H  H23  1  0.17392033  0.12162792  0.41528361  1.0
  H  H24  1  0.80667984  0.03289711  0.15061665  1.0
  H  H25  1  0.77432111  0.05826115  0.03535790  1.0
  H  H26  1  0.99670857  0.18081550  0.16088605  1.0
  H  H27  1  0.92805235  0.09017648  0.21098459  1.0
  H  H28  1  0.82759389  0.17898925  0.99145083  1.0
  H  H29  1  0.93555142  0.23482645  0.04893240  1.0
  H  H30  1  0.18809063  0.48368789  0.67444143  1.0
  H  H31  1  0.23027928  0.44030825  0.56222376  1.0
  H  H32  1  0.02629440  0.31255495  0.68673705  1.0
  H  H33  1  0.07513544  0.42207160  0.73553404  1.0
  H  H34  1  0.16441938  0.32473472  0.50097370  1.0
  H  H35  1  0.07686719  0.25931697  0.56431683  1.0
  H  H36  1  0.30947733  0.97524540  0.35299891  1.0
  H  H37  1  0.26734794  0.93459183  0.45962628  1.0
  H  H38  1  0.48768097  0.81944125  0.33048465  1.0
  H  H39  1  0.43016673  0.92078899  0.29137353  1.0
  H  H40  1  0.32156340  0.81500839  0.49843990  1.0
  H  H41  1  0.42897179  0.76273823  0.44113856  1.0
  H  H42  1  0.68263581  0.51423819  0.82944606  1.0
  H  H43  1  0.73857672  0.56490613  0.93507261  1.0
  H  H44  1  0.52782666  0.68624662  0.81573162  1.0
  H  H45  1  0.56949349  0.57480475  0.76920536  1.0
  H  H46  1  0.67421043  0.67851690  0.99930964  1.0
  H  H47  1  0.57114780  0.73250977  0.94411715  1.0
  H  H48  1  0.69650501  0.93800278  0.08415382  1.0
  H  H49  1  0.73765275  0.99489380  0.14676640  1.0
  H  H50  1  0.68492931  0.95225782  0.17118651  1.0
  H  H51  1  0.73933988  0.98880704  0.05870573  1.0
  H  H52  1  0.31058740  0.56770588  0.67968278  1.0
  H  H53  1  0.25044124  0.52488065  0.67710303  1.0
  H  H54  1  0.29572707  0.57277562  0.59370234  1.0
  H  H55  1  0.27212415  0.50726768  0.59238883  1.0
  H  H56  1  0.19375019  0.06007516  0.41726636  1.0
  H  H57  1  0.23616935  0.00686597  0.35387160  1.0
  H  H58  1  0.18456902  0.04934089  0.32961574  1.0
  H  H59  1  0.23499322  0.00747908  0.44166473  1.0
  H  H60  1  0.80902107  0.43542313  0.81874352  1.0
  H  H61  1  0.74728345  0.47605042  0.82245085  1.0
  H  H62  1  0.79640589  0.43158898  0.90495593  1.0
  H  H63  1  0.77694524  0.49747474  0.90511335  1.0
  H  H64  1  0.05529662  0.07502745  0.28730982  1.0
  H  H65  1  0.99441466  0.07961425  0.24582494  1.0
  H  H66  1  0.05334186  0.16294112  0.29599375  1.0
  H  H67  1  0.03241650  0.15746502  0.22901925  1.0
  H  H68  1  0.46100252  0.69346483  0.68803777  1.0
  H  H69  1  0.50112247  0.69306523  0.74764378  1.0
  H  H70  1  0.43720370  0.61096534  0.70357139  1.0
  H  H71  1  0.50526821  0.60617330  0.72716248  1.0
  H  H72  1  0.95064560  0.30895869  0.80947895  1.0
  H  H73  1  0.99070063  0.30832868  0.75032055  1.0
  H  H74  1  0.93995797  0.39441637  0.79889455  1.0
  H  H75  1  0.00981720  0.39272600  0.77642146  1.0
  H  H76  1  0.55499247  0.93102529  0.21237837  1.0
  H  H77  1  0.49489167  0.92793639  0.25445749  1.0
  H  H78  1  0.54267363  0.84388314  0.19828947  1.0
  H  H79  1  0.52450844  0.84627511  0.26488132  1.0
  H  H80  1  0.94405368  0.30613577  0.93193392  1.0
  H  H81  1  0.94359410  0.26881309  0.98810824  1.0
  H  H82  1  0.84918554  0.31125293  0.94555612  1.0
  H  H83  1  0.85467126  0.24532439  0.95986249  1.0
  H  H84  1  0.31285217  0.69546977  0.56353952  1.0
  H  H85  1  0.31387308  0.75251545  0.52806550  1.0
  H  H86  1  0.40802845  0.70917765  0.57106442  1.0
  H  H87  1  0.40314453  0.72744189  0.50615569  1.0
  H  H88  1  0.55609121  0.80556995  0.07146021  1.0
  H  H89  1  0.55845056  0.76567571  0.01035530  1.0
  H  H90  1  0.65082651  0.81479390  0.05905113  1.0
  H  H91  1  0.64706618  0.74710870  0.03801997  1.0
  H  H92  1  0.11871566  0.23370950  0.39088913  1.0
  H  H93  1  0.13639914  0.28294576  0.44309683  1.0
  H  H94  1  0.14149768  0.17778286  0.45042427  1.0
  H  H95  1  0.10198913  0.22256139  0.49372977  1.0
  C  C96  1  0.34490835  0.60695713  0.62423597  1.0
  C  C97  1  0.37592869  0.60806779  0.65310784  1.0
  C  C98  1  0.40747809  0.63655282  0.65641710  1.0
  C  C99  1  0.40822763  0.66397613  0.62929237  1.0
  C  C100  1  0.37751397  0.66405639  0.60037894  1.0
  C  C101  1  0.34655964  0.63485176  0.59777608  1.0
  C  C102  1  0.65046769  0.90553750  0.13991267  1.0
  C  C103  1  0.62022706  0.90323622  0.16852533  1.0
  C  C104  1  0.58969760  0.87372562  0.16675362  1.0
  C  C105  1  0.59067692  0.84548162  0.13595276  1.0
  C  C106  1  0.62048602  0.84692764  0.10673071  1.0
  C  C107  1  0.65045857  0.87678706  0.10942060  1.0
  C  C108  1  0.84505595  0.39802186  0.87537232  1.0
  C  C109  1  0.84663638  0.37062007  0.90237130  1.0
  C  C110  1  0.87795688  0.34261606  0.90142235  1.0
  C  C111  1  0.90759501  0.34178052  0.87197477  1.0
  C  C112  1  0.90686535  0.36866102  0.84436261  1.0
  C  C113  1  0.87604661  0.39708195  0.84704318  1.0
  C  C114  1  0.15147215  0.09576165  0.36052897  1.0
  C  C115  1  0.12379763  0.10022241  0.32990330  1.0
  C  C116  1  0.09660971  0.13156384  0.32992875  1.0
  C  C117  1  0.09946926  0.16010890  0.36042375  1.0
  C  C118  1  0.12705662  0.15671823  0.39145792  1.0
  C  C119  1  0.15195189  0.12394649  0.39158500  1.0
  C  C120  1  0.80294853  0.04457071  0.12313327  1.0
  C  C121  1  0.77741854  0.03161700  0.09161154  1.0
  C  C122  1  0.78712358  0.05715823  0.06398761  1.0
  C  C123  1  0.97484800  0.15866489  0.16831386  1.0
  C  C124  1  0.97687570  0.13481031  0.19861150  1.0
  C  C125  1  0.94006986  0.11215056  0.19379949  1.0
  C  C126  1  0.85388076  0.18814306  0.01004252  1.0
  C  C127  1  0.88217334  0.21899118  0.00748832  1.0
  C  C128  1  0.90926847  0.21649462  0.03909754  1.0
  C  C129  1  0.19377173  0.46807289  0.64701750  1.0
  C  C130  1  0.22304276  0.47547174  0.61859090  1.0
  C  C131  1  0.21502605  0.44597677  0.58960290  1.0
  C  C132  1  0.04302104  0.33940423  0.69385921  1.0
  C  C133  1  0.03859036  0.36648273  0.72552755  1.0
  C  C134  1  0.06778542  0.39549872  0.71849652  1.0
  C  C135  1  0.14288384  0.31367153  0.52128345  1.0
  C  C136  1  0.11912944  0.27934924  0.51853242  1.0
  C  C137  1  0.09862092  0.28007370  0.55390273  1.0
  C  C138  1  0.30337916  0.95994467  0.37804867  1.0
  C  C139  1  0.27487329  0.96818107  0.40795868  1.0
  C  C140  1  0.28256212  0.93961152  0.43292218  1.0
  C  C141  1  0.46864164  0.84410698  0.32571391  1.0
  C  C142  1  0.47291231  0.87065975  0.29798599  1.0
  C  C143  1  0.43956919  0.89604947  0.30586195  1.0
  C  C144  1  0.34756571  0.80664172  0.47994941  1.0
  C  C145  1  0.37499447  0.77553300  0.48120599  1.0
  C  C146  1  0.40267051  0.78025106  0.45087219  1.0
  C  C147  1  0.69160879  0.53150653  0.85539821  1.0
  C  C148  1  0.72471155  0.52667836  0.88134477  1.0
  C  C149  1  0.71992403  0.55734566  0.90946183  1.0
  C  C150  1  0.54288387  0.65889554  0.80928529  1.0
  C  C151  1  0.53730459  0.63185848  0.77756032  1.0
  C  C152  1  0.56376570  0.60171932  0.78585775  1.0
  C  C153  1  0.64925917  0.68703385  0.98067159  1.0
  C  C154  1  0.62145754  0.71785636  0.98610072  1.0
  C  C155  1  0.59630567  0.71441114  0.95276906  1.0
  C  C156  1  0.68060120  0.93732836  0.14271302  1.0
  C  C157  1  0.70186882  0.95101566  0.11327522  1.0
  C  C158  1  0.73055518  0.98298390  0.11753023  1.0
  C  C159  1  0.74811765  0.99971927  0.08786441  1.0
  C  C160  1  0.31140832  0.57801554  0.62155696  1.0
  C  C161  1  0.29749260  0.55908882  0.65130497  1.0
  C  C162  1  0.26578516  0.52914709  0.64997684  1.0
  C  C163  1  0.25489822  0.50517706  0.61897500  1.0
  C  C164  1  0.17959686  0.06316208  0.35835662  1.0
  C  C165  1  0.19951689  0.04824409  0.38794666  1.0
  C  C166  1  0.22802658  0.01685529  0.38326549  1.0
  C  C167  1  0.24482901  0.99877337  0.41244456  1.0
  C  C168  1  0.81159137  0.42614141  0.87721821  1.0
  C  C169  1  0.79689769  0.44415856  0.84717602  1.0
  C  C170  1  0.76510116  0.47329624  0.84885699  1.0
  C  C171  1  0.75694516  0.49803043  0.87967759  1.0
  C  C172  1  0.06481173  0.13424234  0.30011633  1.0
  C  C173  1  0.04673743  0.10362735  0.27978425  1.0
  C  C174  1  0.01506724  0.10484848  0.25019104  1.0
  C  C175  1  0.00973578  0.13364784  0.22708523  1.0
  C  C176  1  0.43749614  0.63677311  0.68799902  1.0
  C  C177  1  0.46327071  0.66623495  0.70102269  1.0
  C  C178  1  0.49265499  0.66538645  0.73256374  1.0
  C  C179  1  0.51067401  0.63339253  0.74426668  1.0
  C  C180  1  0.93648206  0.36774231  0.81280840  1.0
  C  C181  1  0.95750782  0.33651616  0.79816048  1.0
  C  C182  1  0.98710962  0.33585233  0.76708212  1.0
  C  C183  1  0.01087819  0.36609827  0.75781408  1.0
  C  C184  1  0.55741034  0.87195739  0.19581892  1.0
  C  C185  1  0.54325754  0.90256581  0.21803221  1.0
  C  C186  1  0.51243721  0.90157342  0.24790177  1.0
  C  C187  1  0.50471687  0.87154809  0.26902776  1.0
  C  C188  1  0.87894919  0.31580880  0.93114582  1.0
  C  C189  1  0.91361812  0.29816481  0.94338043  1.0
  C  C190  1  0.91433158  0.27049317  0.97179093  1.0
  C  C191  1  0.88244355  0.24592355  0.97848417  1.0
  C  C192  1  0.37789037  0.69454093  0.57442485  1.0
  C  C193  1  0.34352700  0.70732239  0.55655807  1.0
  C  C194  1  0.34315188  0.73674644  0.53000449  1.0
  C  C195  1  0.37515766  0.74526564  0.50674346  1.0
  C  C196  1  0.62085692  0.81853179  0.07383470  1.0
  C  C197  1  0.58681866  0.79852862  0.05928307  1.0
  C  C198  1  0.58725011  0.76937619  0.02757659  1.0
  C  C199  1  0.61985095  0.74581420  0.01868813  1.0
  C  C200  1  0.13089416  0.18674137  0.42282874  1.0
  C  C201  1  0.12455330  0.22452232  0.41948955  1.0
  C  C202  1  0.12654395  0.25445373  0.45047517  1.0
  C  C203  1  0.11564040  0.25004612  0.48714326  1.0
  N  N204  1  0.81583176  0.08333574  0.07808161  1.0
  N  N205  1  0.82583623  0.07529800  0.11474092  1.0
  N  N206  1  0.91833937  0.12166716  0.16301475  1.0
  N  N207  1  0.93995268  0.15049901  0.14700546  1.0
  N  N208  1  0.89798144  0.18649201  0.05856348  1.0
  N  N209  1  0.86359862  0.16875761  0.04044349  1.0
  N  N210  1  0.18381427  0.42282999  0.60011035  1.0
  N  N211  1  0.17064754  0.43666040  0.63579614  1.0
  N  N212  1  0.08797896  0.38632053  0.68550476  1.0
  N  N213  1  0.07251971  0.35146004  0.67020439  1.0
  N  N214  1  0.10903461  0.31235745  0.57571361  1.0
  N  N215  1  0.13666730  0.33316374  0.55543588  1.0
  N  N216  1  0.31286129  0.91608950  0.41877616  1.0
  N  N217  1  0.32599370  0.92895476  0.38482986  1.0
  N  N218  1  0.41763998  0.88545570  0.33592455  1.0
  N  N219  1  0.43570916  0.85322066  0.34839984  1.0
  N  N220  1  0.39227906  0.81137673  0.43289070  1.0
  N  N221  1  0.35808708  0.82781934  0.45110046  1.0
  N  N222  1  0.68693672  0.57880156  0.90071135  1.0
  N  N223  1  0.66934779  0.56261887  0.86714265  1.0
  N  N224  1  0.58364997  0.61030658  0.81956811  1.0
  N  N225  1  0.57054574  0.64580022  0.83416539  1.0
  N  N226  1  0.60819404  0.68391226  0.92966238  1.0
  N  N227  1  0.64104359  0.66676856  0.94704108  1.0
