# generated using pymatgen
data_Zn2H25C32S2Br(N7O4)2
_symmetry_space_group_name_H-M   'P 1'
_cell_length_a   12.81572182
_cell_length_b   16.13763364
_cell_length_c   17.31285818
_cell_angle_alpha   95.31389312
_cell_angle_beta   90.30296797
_cell_angle_gamma   92.94483644
_symmetry_Int_Tables_number   1
_chemical_formula_structural   Zn2H25C32S2Br(N7O4)2
_chemical_formula_sum   'Zn2 H25 C32 S2 Br1 N14 O8'
_cell_volume   3560.28814391
_cell_formula_units_Z   1
loop_
 _symmetry_equiv_pos_site_id
 _symmetry_equiv_pos_as_xyz
  1  'x, y, z'
loop_
 _atom_site_type_symbol
 _atom_site_label
 _atom_site_symmetry_multiplicity
 _atom_site_fract_x
 _atom_site_fract_y
 _atom_site_fract_z
 _atom_site_occupancy
  Zn  Zn0  1  0.49589157  0.40706999  0.49651069  1.0
  Zn  Zn1  1  0.50053651  0.59004497  0.49968901  1.0
  H  H2  1  0.39990406  0.71632259  0.42365083  1.0
  H  H3  1  0.39339286  0.87277459  0.43038324  1.0
  H  H4  1  0.35243991  0.10687353  0.40733559  1.0
  H  H5  1  0.60762325  0.11942350  0.57165945  1.0
  H  H6  1  0.50327996  0.61776977  0.26087367  1.0
  H  H7  1  0.50811777  0.61594784  0.11564097  1.0
  H  H8  1  0.52070167  0.65828922  0.89804693  1.0
  H  H9  1  0.49509504  0.39158820  0.88964237  1.0
  H  H10  1  0.86748372  0.63252508  0.49959348  1.0
  H  H11  1  0.65883672  0.66261082  0.58462928  1.0
  H  H12  1  0.66199822  0.74340254  0.65541821  1.0
  H  H13  1  0.66035060  0.95840279  0.61105576  1.0
  H  H14  1  0.72255119  0.86843135  0.62461317  1.0
  H  H15  1  0.34011476  0.33198232  0.41801122  1.0
  H  H16  1  0.29620854  0.23704930  0.37317280  1.0
  H  H17  1  0.65143602  0.34291188  0.56689012  1.0
  H  H18  1  0.68435884  0.25444843  0.60838501  1.0
  H  H19  1  0.50520527  0.33464605  0.30454350  1.0
  H  H20  1  0.53463331  0.28561398  0.21491730  1.0
  H  H21  1  0.48837525  0.33641534  0.03182018  1.0
  H  H22  1  0.44972171  0.28484341  0.10938904  1.0
  H  H23  1  0.49805386  0.66373687  0.69093337  1.0
  H  H24  1  0.49697903  0.71926897  0.78196595  1.0
  H  H25  1  0.48477343  0.35772653  0.68062349  1.0
  H  H26  1  0.47848939  0.31358555  0.77019776  1.0
  C  C27  1  0.50198768  0.49110397  0.34742095  1.0
  C  C28  1  0.29287039  0.49832107  0.49553989  1.0
  C  C29  1  0.49661417  0.50929854  0.65130698  1.0
  C  C30  1  0.70599226  0.50203064  0.50481659  1.0
  C  C31  1  0.45078767  0.75757847  0.46241194  1.0
  C  C32  1  0.44703548  0.84274627  0.46640029  1.0
  C  C33  1  0.51634598  0.89219103  0.51761377  1.0
  C  C34  1  0.58576032  0.85279498  0.56398430  1.0
  C  C35  1  0.58400757  0.76352359  0.55631319  1.0
  C  C36  1  0.41105206  0.14321666  0.44361930  1.0
  C  C37  1  0.47847338  0.10319131  0.48960598  1.0
  C  C38  1  0.55337624  0.14980473  0.53643908  1.0
  C  C39  1  0.55842328  0.23674160  0.53597076  1.0
  C  C40  1  0.41907736  0.23078060  0.44627587  1.0
  C  C41  1  0.50063376  0.48461148  0.26126920  1.0
  C  C42  1  0.50280363  0.55935994  0.22393523  1.0
  C  C43  1  0.50557515  0.55878023  0.14447114  1.0
  C  C44  1  0.50307849  0.48171508  0.09815090  1.0
  C  C45  1  0.49910149  0.40619573  0.13342257  1.0
  C  C46  1  0.49996619  0.40710209  0.21590820  1.0
  C  C47  1  0.51323693  0.59835497  0.86327004  1.0
  C  C48  1  0.50668890  0.52560017  0.90128841  1.0
  C  C49  1  0.49879152  0.44763640  0.85905316  1.0
  C  C50  1  0.49692811  0.44095944  0.77771122  1.0
  C  C51  1  0.50211467  0.51510896  0.73671915  1.0
  C  C52  1  0.51079309  0.59437122  0.78200616  1.0
  C  C53  1  0.10438734  0.43034859  0.50346878  1.0
  C  C54  1  0.89180681  0.56922419  0.50197649  1.0
  C  C55  1  0.17758267  0.49613348  0.49904467  1.0
  C  C56  1  0.82096257  0.50205707  0.50506236  1.0
  C  C57  1  0.99554171  0.54326844  0.50168152  1.0
  C  C58  1  0.00095395  0.45666365  0.50475996  1.0
  S  S59  1  0.11868002  0.59105324  0.49776135  1.0
  S  S60  1  0.87926222  0.40719234  0.50759417  1.0
  Br  Br61  1  0.13078689  0.31748216  0.51024644  1.0
  N  N62  1  0.51737733  0.71842503  0.50710705  1.0
  N  N63  1  0.52773547  0.97923318  0.52410530  1.0
  N  N64  1  0.46368455  0.01515999  0.48382676  1.0
  N  N65  1  0.49131614  0.27720891  0.49220295  1.0
  N  N66  1  0.50070368  0.47189967  0.01719773  1.0
  N  N67  1  0.51015418  0.53848012  0.98332311  1.0
  N  N68  1  0.65702153  0.72564870  0.59743647  1.0
  N  N69  1  0.65450220  0.89598609  0.61569102  1.0
  N  N70  1  0.35549063  0.27139308  0.40116608  1.0
  N  N71  1  0.62946471  0.28456443  0.58147587  1.0
  N  N72  1  0.49544171  0.33060726  0.24573151  1.0
  N  N73  1  0.49819982  0.32985638  0.08937315  1.0
  N  N74  1  0.51930741  0.66876177  0.74812239  1.0
  N  N75  1  0.49161784  0.36315268  0.73941057  1.0
  O  O76  1  0.50877631  0.42383739  0.38138815  1.0
  O  O77  1  0.49685294  0.56337313  0.38350032  1.0
  O  O78  1  0.33882018  0.57044444  0.50174207  1.0
  O  O79  1  0.33645434  0.42873931  0.48646745  1.0
  O  O80  1  0.50308904  0.57670556  0.61662523  1.0
  O  O81  1  0.48548302  0.43709698  0.61298664  1.0
  O  O82  1  0.65750354  0.43105424  0.50759552  1.0
  O  O83  1  0.66380835  0.57113612  0.50133916  1.0
