# generated using pymatgen
data_AlH3C6O6F
_symmetry_space_group_name_H-M   'P 1'
_cell_length_a   6.68687180
_cell_length_b   8.80091469
_cell_length_c   11.14236879
_cell_angle_alpha   73.06213911
_cell_angle_beta   73.04941569
_cell_angle_gamma   75.58899525
_symmetry_Int_Tables_number   1
_chemical_formula_structural   AlH3C6O6F
_chemical_formula_sum   'Al2 H6 C12 O12 F2'
_cell_volume   590.33023805
_cell_formula_units_Z   2
loop_
 _symmetry_equiv_pos_site_id
 _symmetry_equiv_pos_as_xyz
  1  'x, y, z'
loop_
 _atom_site_type_symbol
 _atom_site_label
 _atom_site_symmetry_multiplicity
 _atom_site_fract_x
 _atom_site_fract_y
 _atom_site_fract_z
 _atom_site_occupancy
  Al  Al0  1  0.50000373  0.49999435  0.50000540  1.0
  Al  Al1  1  0.99998660  0.50000418  0.50000394  1.0
  H  H2  1  0.78800824  0.61803799  0.34270821  1.0
  H  H3  1  0.21197104  0.38196606  0.65729681  1.0
  H  H4  1  0.24231394  0.54841221  0.86576293  1.0
  H  H5  1  0.75768747  0.45158838  0.13424172  1.0
  H  H6  1  0.20180805  0.13135048  0.51874038  1.0
  H  H7  1  0.79818475  0.86865880  0.48124437  1.0
  C  C8  1  0.16495533  0.78802641  0.48978580  1.0
  C  C9  1  0.35590511  0.50830560  0.27176277  1.0
  C  C10  1  0.83501772  0.21197747  0.51020349  1.0
  C  C11  1  0.64410573  0.49170697  0.72823256  1.0
  C  C12  1  0.42570081  0.50590550  0.13206602  1.0
  C  C13  1  0.57430219  0.49408666  0.86794813  1.0
  C  C14  1  0.28509847  0.53262478  0.05273492  1.0
  C  C15  1  0.71491414  0.46737424  0.94728115  1.0
  C  C16  1  0.35623564  0.52674524  0.92410367  1.0
  C  C17  1  0.64375636  0.47326551  0.07591280  1.0
  C  C18  1  0.10228095  0.95748645  0.50066247  1.0
  C  C19  1  0.89771562  0.04252262  0.49931544  1.0
  O  O20  1  0.35475963  0.71859134  0.49131029  1.0
  O  O21  1  0.16247306  0.50108016  0.32774501  1.0
  O  O22  1  0.97959956  0.27792843  0.52150898  1.0
  O  O23  1  0.50295472  0.48375991  0.67559749  1.0
  O  O24  1  0.64522724  0.28139939  0.50869695  1.0
  O  O25  1  0.83755782  0.49892271  0.67226073  1.0
  O  O26  1  0.02038887  0.72208451  0.47848347  1.0
  O  O27  1  0.49704357  0.51623944  0.32440761  1.0
  O  O28  1  0.75716338  0.57582598  0.43560733  1.0
  O  O29  1  0.24282883  0.42417815  0.56439731  1.0
  O  O30  1  0.26085189  0.01753872  0.51254169  1.0
  O  O31  1  0.73914397  0.98245930  0.48744747  1.0
  F  F32  1  0.07140140  0.56924740  0.09918373  1.0
  F  F33  1  0.92860458  0.43077561  0.90080460  1.0
