# generated using pymatgen
data_Zn3H22C39O17
_symmetry_space_group_name_H-M   'P 1'
_cell_length_a   18.42043209
_cell_length_b   18.53349020
_cell_length_c   18.57556110
_cell_angle_alpha   109.52945899
_cell_angle_beta   109.06748903
_cell_angle_gamma   108.56117827
_symmetry_Int_Tables_number   1
_chemical_formula_structural   Zn3H22C39O17
_chemical_formula_sum   'Zn6 H44 C78 O34'
_cell_volume   4955.69993619
_cell_formula_units_Z   2
loop_
 _symmetry_equiv_pos_site_id
 _symmetry_equiv_pos_as_xyz
  1  'x, y, z'
loop_
 _atom_site_type_symbol
 _atom_site_label
 _atom_site_symmetry_multiplicity
 _atom_site_fract_x
 _atom_site_fract_y
 _atom_site_fract_z
 _atom_site_occupancy
  Zn  Zn0  1  0.55239045  0.49778974  0.56231917  1.0
  Zn  Zn1  1  0.42857756  0.50115590  0.43650163  1.0
  Zn  Zn2  1  0.58772053  0.07295367  0.00357009  1.0
  Zn  Zn3  1  0.46578411  0.95444992  0.01279384  1.0
  Zn  Zn4  1  0.00423588  0.06406881  0.57385779  1.0
  Zn  Zn5  1  0.99801390  0.92703837  0.45663882  1.0
  H  H6  1  0.31693206  0.72424644  0.70574566  1.0
  H  H7  1  0.06336348  0.05145021  0.35062987  1.0
  H  H8  1  0.24952511  0.27451544  0.65335979  1.0
  H  H9  1  0.41529771  0.21560367  0.32354168  1.0
  H  H10  1  0.53527875  0.46802539  0.29605900  1.0
  H  H11  1  0.60086684  0.50411767  0.20811165  1.0
  H  H12  1  0.61127886  0.38921416  0.09947519  1.0
  H  H13  1  0.56194827  0.24288219  0.08401386  1.0
  H  H14  1  0.42510467  0.10036514  0.21615208  1.0
  H  H15  1  0.79829318  0.67341131  0.58246541  1.0
  H  H16  1  0.36215194  0.58964891  0.69400352  1.0
  H  H17  1  0.54683372  0.71504160  0.53163356  1.0
  H  H18  1  0.50783568  0.82523908  0.51386029  1.0
  H  H19  1  0.61145194  0.94756700  0.50962363  1.0
  H  H20  1  0.90429093  0.79649674  0.58217131  1.0
  H  H21  1  0.31714165  0.89470240  0.73894185  1.0
  H  H22  1  0.46916198  0.19966833  0.94326173  1.0
  H  H23  1  0.44485757  0.32508399  0.95266397  1.0
  H  H24  1  0.31852937  0.30521859  0.82805352  1.0
  H  H25  1  0.21427409  0.16044113  0.70019772  1.0
  H  H26  1  0.52227728  0.71300264  0.85314434  1.0
  H  H27  1  0.19036957  0.87318298  0.61414487  1.0
  H  H28  1  0.77326206  0.13498337  0.28429220  1.0
  H  H29  1  0.68812872  0.76072865  0.95901237  1.0
  H  H30  1  0.79865930  0.81093702  0.22429132  1.0
  H  H31  1  0.86310731  0.10636533  0.39365244  1.0
  H  H32  1  0.55944364  0.88136191  0.76156468  1.0
  H  H33  1  0.37822825  0.37912008  0.65725887  1.0
  H  H34  1  0.31031993  0.27118173  0.35733440  1.0
  H  H35  1  0.19314019  0.13988339  0.21774932  1.0
  H  H36  1  0.94660453  0.97594334  0.20291825  1.0
  H  H37  1  0.01181532  0.92544781  0.22843474  1.0
  H  H38  1  0.98310146  0.85928605  0.07185712  1.0
  H  H39  1  0.88429125  0.82399243  0.07776011  1.0
  H  H40  1  0.91340487  0.90554497  0.04681028  1.0
  H  H41  1  0.84806816  0.06974216  0.66034276  1.0
  H  H42  1  0.74418957  0.06566635  0.61440758  1.0
  H  H43  1  0.86372308  0.19732148  0.63655546  1.0
  H  H44  1  0.88797787  0.12886683  0.56555756  1.0
  H  H45  1  0.78539338  0.12655136  0.52351910  1.0
  H  H46  1  0.78417995  0.01760436  0.98698088  1.0
  H  H47  1  0.73405446  0.60134113  0.08844959  1.0
  H  H48  1  0.70747985  0.71421132  0.79478559  1.0
  H  H49  1  0.28067026  0.71908509  0.48572768  1.0
  C  C50  1  0.39635964  0.38106787  0.52111154  1.0
  C  C51  1  0.51478659  0.81703742  0.74718305  1.0
  C  C52  1  0.42556426  0.75095994  0.66167543  1.0
  C  C53  1  0.45079944  0.67615273  0.65597639  1.0
  C  C54  1  0.25718080  0.22310002  0.35657691  1.0
  C  C55  1  0.19205583  0.15081546  0.27873428  1.0
  C  C56  1  0.12108475  0.08843130  0.27628421  1.0
  C  C57  1  0.11695117  0.09976907  0.35220956  1.0
  C  C58  1  0.18437490  0.17398352  0.43407903  1.0
  C  C59  1  0.25607223  0.23757034  0.43641253  1.0
  C  C60  1  0.32496958  0.31140649  0.51814562  1.0
  C  C61  1  0.45103866  0.61022352  0.58386475  1.0
  C  C62  1  0.32399074  0.32308033  0.59542942  1.0
  C  C63  1  0.25195859  0.26401654  0.59307200  1.0
  C  C64  1  0.18367467  0.19070929  0.51517155  1.0
  C  C65  1  0.54126618  0.41862934  0.24982537  1.0
  C  C66  1  0.57744993  0.43863598  0.20037663  1.0
  C  C67  1  0.58362624  0.37396029  0.13958183  1.0
  C  C68  1  0.55551611  0.29130109  0.13023477  1.0
  C  C69  1  0.51885160  0.26803586  0.18075092  1.0
  C  C70  1  0.51041133  0.33369440  0.24087491  1.0
  C  C71  1  0.47354479  0.31311077  0.29248252  1.0
  C  C72  1  0.63224055  0.62818398  0.54016500  1.0
  C  C73  1  0.44306158  0.23035550  0.28338115  1.0
  C  C74  1  0.44917625  0.16555483  0.22333486  1.0
  C  C75  1  0.48822168  0.18311046  0.17432141  1.0
  C  C76  1  0.59266413  0.76864189  0.53124716  1.0
  C  C77  1  0.57043872  0.83000127  0.52063556  1.0
  C  C78  1  0.62913326  0.89958027  0.51979768  1.0
  C  C79  1  0.71044665  0.90905908  0.53201280  1.0
  C  C80  1  0.73741034  0.84796301  0.54540213  1.0
  C  C81  1  0.67452596  0.77436218  0.54228783  1.0
  C  C82  1  0.69794788  0.71064153  0.55389959  1.0
  C  C83  1  0.47224239  0.38303479  0.36128966  1.0
  C  C84  1  0.78100249  0.72157097  0.57227017  1.0
  C  C85  1  0.84093591  0.79146220  0.57286795  1.0
  C  C86  1  0.82056940  0.85331407  0.55900612  1.0
  C  C87  1  0.43572123  0.03955067  0.88796064  1.0
  C  C88  1  0.48526264  0.86843206  0.88247742  1.0
  C  C89  1  0.67198329  0.02866333  0.11201582  1.0
  C  C90  1  0.49951224  0.11230492  0.11941408  1.0
  C  C91  1  0.88583510  0.97021468  0.37101977  1.0
  C  C92  1  0.11398117  0.12879966  0.52115290  1.0
  C  C93  1  0.13414862  0.98539714  0.60519193  1.0
  C  C94  1  0.40593243  0.65577496  0.71127193  1.0
  C  C95  1  0.88951647  0.91807797  0.55350995  1.0
  C  C96  1  0.41302493  0.19080163  0.89032675  1.0
  C  C97  1  0.39981710  0.26089607  0.89496513  1.0
  C  C98  1  0.32812101  0.24931591  0.82492970  1.0
  C  C99  1  0.26949656  0.16793392  0.75279368  1.0
  C  C100  1  0.27933052  0.09332739  0.74656524  1.0
  C  C101  1  0.35448665  0.10614714  0.81666833  1.0
  C  C102  1  0.36569629  0.03243317  0.81245345  1.0
  C  C103  1  0.30795782  0.95035203  0.74032971  1.0
  C  C104  1  0.23623485  0.93800800  0.67048670  1.0
  C  C105  1  0.38080986  0.72946352  0.71639156  1.0
  C  C106  1  0.21946081  0.00658253  0.67404018  1.0
  C  C107  1  0.72101953  0.88629958  0.05583326  1.0
  C  C108  1  0.70989167  0.80270727  0.02749214  1.0
  C  C109  1  0.73299955  0.77357727  0.08864405  1.0
  C  C110  1  0.77435328  0.83131329  0.17726146  1.0
  C  C111  1  0.78616338  0.91768837  0.20848783  1.0
  C  C112  1  0.74933468  0.94203155  0.14556124  1.0
  C  C113  1  0.74022691  0.01882653  0.17406299  1.0
  C  C114  1  0.78047291  0.07647953  0.26244257  1.0
  C  C115  1  0.82852219  0.05902672  0.32435271  1.0
  C  C116  1  0.47077955  0.79833312  0.80239197  1.0
  C  C117  1  0.83060562  0.98062153  0.29957084  1.0
  C  C118  1  0.49439862  0.72250785  0.79763750  1.0
  C  C119  1  0.53988856  0.74353682  0.74429775  1.0
  C  C120  1  0.98805256  0.95037840  0.18449973  1.0
  C  C121  1  0.93925072  0.88062521  0.08946089  1.0
  C  C122  1  0.79799039  0.06259504  0.60200948  1.0
  C  C123  1  0.83592043  0.13273817  0.58050325  1.0
  C  C124  1  0.71920523  0.91987056  0.99304910  1.0
  C  C125  1  0.71898157  0.68274948  0.05446942  1.0
  C  C126  1  0.62489479  0.74943340  0.75288087  1.0
  C  C127  1  0.38601223  0.76687642  0.58898873  1.0
  O  O128  1  0.47622010  0.40890853  0.57639707  1.0
  O  O129  1  0.41024917  0.99105084  0.91868168  1.0
  O  O130  1  0.54175681  0.94568636  0.90988735  1.0
  O  O131  1  0.43927353  0.84672916  0.91878676  1.0
  O  O132  1  0.69464871  0.08462328  0.08674092  1.0
  O  O133  1  0.59422877  0.97957797  0.09151966  1.0
  O  O134  1  0.55880581  0.13237950  0.09785765  1.0
  O  O135  1  0.44921227  0.03277299  0.09749499  1.0
  O  O136  1  0.90889677  0.02298323  0.44865304  1.0
  O  O137  1  0.91040147  0.91184994  0.35020120  1.0
  O  O138  1  0.09107097  0.16149985  0.57793456  1.0
  O  O139  1  0.37273571  0.40935433  0.46892444  1.0
  O  O140  1  0.08253652  0.04755335  0.47285254  1.0
  O  O141  1  0.09757848  0.02990314  0.62732485  1.0
  O  O142  1  0.09949895  0.92143750  0.52722150  1.0
  O  O143  1  0.92806784  0.00002664  0.60762484  1.0
  O  O144  1  0.90871271  0.88376876  0.49549474  1.0
  O  O145  1  0.50145593  0.58027052  0.60902380  1.0
  O  O146  1  0.40393869  0.58820719  0.50368019  1.0
  O  O147  1  0.65692241  0.59721148  0.59102510  1.0
  O  O148  1  0.55503155  0.59027498  0.47668928  1.0
  O  O149  1  0.52301435  0.40725086  0.43973275  1.0
  O  O150  1  0.42014254  0.41262057  0.33577315  1.0
  O  O151  1  0.51650821  0.09293388  0.91645260  1.0
  O  O152  1  0.06140063  0.01960694  0.19497933  1.0
  O  O153  1  0.76484832  0.97790627  0.52913425  1.0
  O  O154  1  0.66706404  0.87979312  0.91511216  1.0
  O  O155  1  0.78947796  0.99998092  0.03187973  1.0
  O  O156  1  0.68764282  0.63113654  0.97724699  1.0
  O  O157  1  0.74553369  0.66157759  0.11862483  1.0
  O  O158  1  0.66420310  0.78391610  0.72180784  1.0
  O  O159  1  0.65428523  0.71060018  0.79765229  1.0
  O  O160  1  0.42288272  0.82851239  0.58032881  1.0
  O  O161  1  0.30078028  0.70456915  0.53209748  1.0
