# generated using pymatgen
data_Al2H14C21S2(NO5)2
_symmetry_space_group_name_H-M   'P 1'
_cell_length_a   6.84423384
_cell_length_b   11.02930421
_cell_length_c   12.67101987
_cell_angle_alpha   81.77039697
_cell_angle_beta   76.16156611
_cell_angle_gamma   72.57688053
_symmetry_Int_Tables_number   1
_chemical_formula_structural   Al2H14C21S2(NO5)2
_chemical_formula_sum   'Al2 H14 C21 S2 N2 O10'
_cell_volume   883.48025733
_cell_formula_units_Z   1
loop_
 _symmetry_equiv_pos_site_id
 _symmetry_equiv_pos_as_xyz
  1  'x, y, z'
loop_
 _atom_site_type_symbol
 _atom_site_label
 _atom_site_symmetry_multiplicity
 _atom_site_fract_x
 _atom_site_fract_y
 _atom_site_fract_z
 _atom_site_occupancy
  Al  Al0  1  0.49245559  0.49827770  0.49848313  1.0
  Al  Al1  1  0.99264837  0.49655868  0.49778808  1.0
  H  H2  1  0.18811095  0.65326543  0.44422708  1.0
  H  H3  1  0.80147434  0.33924037  0.53954299  1.0
  H  H4  1  0.38977201  0.47365807  0.86267826  1.0
  H  H5  1  0.83138542  0.75919589  0.66139344  1.0
  H  H6  1  0.60085156  0.23240584  0.63917707  1.0
  H  H7  1  0.20366593  0.11412917  0.42385107  1.0
  H  H8  1  0.31800290  0.87631034  0.43676036  1.0
  H  H9  1  0.45924590  0.53489897  0.21439883  1.0
  H  H10  1  0.52166371  0.43434871  0.10685872  1.0
  H  H11  1  0.45512889  0.60197135  0.07737444  1.0
  H  H12  1  0.02546555  0.76995952  0.79174158  1.0
  H  H13  1  0.98345954  0.90824225  0.84741457  1.0
  H  H14  1  0.84829503  0.22349993  0.74429503  1.0
  H  H15  1  0.03563341  0.08833313  0.76266030  1.0
  C  C16  1  0.62275114  0.72183176  0.52037393  1.0
  C  C17  1  0.82577503  0.50595469  0.30203199  1.0
  C  C18  1  0.35491112  0.27073138  0.49669546  1.0
  C  C19  1  0.15888035  0.48980815  0.69479133  1.0
  C  C20  1  0.76162189  0.51414032  0.10706102  1.0
  C  C21  1  0.22177489  0.48618095  0.88773179  1.0
  C  C22  1  0.88367328  0.50230386  0.18281868  1.0
  C  C23  1  0.09713405  0.49616234  0.81356927  1.0
  C  C24  1  0.10094655  0.49219754  0.99544061  1.0
  C  C25  1  0.88709501  0.50798563  0.00058283  1.0
  C  C26  1  0.54914382  0.86194191  0.52940873  1.0
  C  C27  1  0.64023390  0.92716336  0.58586089  1.0
  C  C28  1  0.38825929  0.92895144  0.47625915  1.0
  C  C29  1  0.78423035  0.86293846  0.65304060  1.0
  C  C30  1  0.86197623  0.92774468  0.71172765  1.0
  C  C31  1  0.41780242  0.12970083  0.51673328  1.0
  C  C32  1  0.32366928  0.06199615  0.46934312  1.0
  C  C33  1  0.57099238  0.06478254  0.58026750  1.0
  C  C34  1  0.65392238  0.12897085  0.64050250  1.0
  C  C35  1  0.79988101  0.06464584  0.70258769  1.0
  C  C36  1  0.53652203  0.52361467  0.12891126  1.0
  S  S37  1  0.14509386  0.48354471  0.12477553  1.0
  S  S38  1  0.83411604  0.51346556  0.87355788  1.0
  N  N39  1  0.00303537  0.86577325  0.77798373  1.0
  N  N40  1  0.88076761  0.12757501  0.76241144  1.0
  O  O41  1  0.48461254  0.66666667  0.51747608  1.0
  O  O42  1  0.97517923  0.50269068  0.34801517  1.0
  O  O43  1  0.16361478  0.32465411  0.49168386  1.0
  O  O44  1  0.34942781  0.48239567  0.65027026  1.0
  O  O45  1  0.49552207  0.32876607  0.48434612  1.0
  O  O46  1  0.01134284  0.49089343  0.64836814  1.0
  O  O47  1  0.81811279  0.66676446  0.51164975  1.0
  O  O48  1  0.63627021  0.51288693  0.34878782  1.0
  O  O49  1  0.23071997  0.56086673  0.45496097  1.0
  O  O50  1  0.75505922  0.43145003  0.54184870  1.0
