# generated using pymatgen
data_AlH5C8S2N2O5
_symmetry_space_group_name_H-M   'P 1'
_cell_length_a   6.72663032
_cell_length_b   14.41191508
_cell_length_c   19.88145732
_cell_angle_alpha   89.71224580
_cell_angle_beta   89.57278874
_cell_angle_gamma   86.77845983
_symmetry_Int_Tables_number   1
_chemical_formula_structural   AlH5C8S2N2O5
_chemical_formula_sum   'Al4 H20 C32 S8 N8 O20'
_cell_volume   1924.26077193
_cell_formula_units_Z   4
loop_
 _symmetry_equiv_pos_site_id
 _symmetry_equiv_pos_as_xyz
  1  'x, y, z'
loop_
 _atom_site_type_symbol
 _atom_site_label
 _atom_site_symmetry_multiplicity
 _atom_site_fract_x
 _atom_site_fract_y
 _atom_site_fract_z
 _atom_site_occupancy
  Al  Al0  1  0.97541614  0.99683950  0.50002709  1.0
  Al  Al1  1  0.47494574  0.00404145  0.50074625  1.0
  Al  Al2  1  0.02496118  0.49604592  0.99943365  1.0
  Al  Al3  1  0.52446383  0.50310265  0.00006124  1.0
  H  H4  1  0.20399899  0.12460726  0.49892883  1.0
  H  H5  1  0.72885561  0.87676716  0.49361737  1.0
  H  H6  1  0.29560926  0.37528782  0.99987391  1.0
  H  H7  1  0.77066868  0.62341580  0.00475827  1.0
  H  H8  1  0.19681662  0.14967104  0.29392810  1.0
  H  H9  1  0.09608668  0.10077550  0.36539324  1.0
  H  H10  1  0.30317594  0.35095669  0.20674204  1.0
  H  H11  1  0.40359625  0.39962531  0.13517086  1.0
  H  H12  1  0.68765621  0.85086561  0.72419117  1.0
  H  H13  1  0.59703999  0.90338370  0.65114096  1.0
  H  H14  1  0.81207848  0.64814370  0.77530660  1.0
  H  H15  1  0.90285110  0.59583112  0.84838880  1.0
  H  H16  1  0.79051488  0.85128076  0.27932892  1.0
  H  H17  1  0.87684720  0.90712515  0.34945109  1.0
  H  H18  1  0.70949909  0.65002407  0.21997327  1.0
  H  H19  1  0.62327682  0.59410954  0.14986554  1.0
  H  H20  1  0.19848731  0.14590358  0.71088615  1.0
  H  H21  1  0.09826065  0.09062891  0.64264665  1.0
  H  H22  1  0.30209430  0.35287841  0.78973333  1.0
  H  H23  1  0.40216731  0.40846489  0.85789473  1.0
  C  C24  1  0.72091992  0.10344364  0.59637691  1.0
  C  C25  1  0.70987083  0.11192910  0.40888606  1.0
  C  C26  1  0.24078509  0.89676545  0.40448111  1.0
  C  C27  1  0.24136535  0.89030047  0.59155457  1.0
  C  C28  1  0.77948148  0.39552765  0.90435390  1.0
  C  C29  1  0.78993544  0.38886829  0.09178732  1.0
  C  C30  1  0.25899934  0.60421801  0.09498857  1.0
  C  C31  1  0.25854714  0.60904533  0.90794570  1.0
  C  C32  1  0.89463702  0.17486482  0.30806246  1.0
  C  C33  1  0.60536161  0.32599394  0.19264255  1.0
  C  C34  1  0.72252516  0.16627931  0.34788989  1.0
  C  C35  1  0.77745478  0.33456927  0.15281518  1.0
  C  C36  1  0.65098593  0.26746277  0.24932729  1.0
  C  C37  1  0.84901907  0.23345898  0.25140224  1.0
  C  C38  1  0.39772201  0.82718285  0.69981279  1.0
  C  C39  1  0.10206125  0.67197536  0.79960309  1.0
  C  C40  1  0.24286164  0.83567008  0.65252201  1.0
  C  C41  1  0.25689216  0.66357660  0.84690839  1.0
  C  C42  1  0.15583023  0.73204115  0.74593141  1.0
  C  C43  1  0.34390628  0.76701175  0.75340226  1.0
  C  C44  1  0.08959470  0.83002447  0.29978530  1.0
  C  C45  1  0.41057609  0.67141135  0.19940963  1.0
  C  C46  1  0.24860930  0.84090585  0.34432311  1.0
  C  C47  1  0.25145663  0.66049427  0.15492694  1.0
  C  C48  1  0.34877609  0.73356534  0.25222236  1.0
  C  C49  1  0.15147703  0.76800301  0.24690626  1.0
  C  C50  1  0.89669694  0.16865909  0.69679557  1.0
  C  C51  1  0.60373840  0.32987027  0.80411795  1.0
  C  C52  1  0.72771056  0.15942032  0.65623283  1.0
  C  C53  1  0.77272665  0.33929038  0.84463513  1.0
  C  C54  1  0.65192727  0.26727360  0.75021066  1.0
  C  C55  1  0.84846050  0.23101970  0.75086431  1.0
  S  S56  1  0.51305580  0.22903727  0.31618405  1.0
  S  S57  1  0.98691772  0.27188833  0.18454958  1.0
  S  S58  1  0.03785515  0.77168145  0.67375666  1.0
  S  S59  1  0.46194390  0.72741724  0.82556371  1.0
  S  S60  1  0.46611887  0.77599535  0.32150495  1.0
  S  S61  1  0.03396507  0.72540255  0.17772193  1.0
  S  S62  1  0.51850561  0.22672394  0.68385653  1.0
  S  S63  1  0.98193754  0.27182168  0.81713542  1.0
  N  N64  1  0.07444038  0.13082176  0.31951561  1.0
  N  N65  1  0.42545412  0.36996748  0.18117160  1.0
  N  N66  1  0.56875515  0.87270377  0.69616728  1.0
  N  N67  1  0.93107731  0.62640504  0.80331702  1.0
  N  N68  1  0.90727236  0.87468630  0.30490240  1.0
  N  N69  1  0.59276666  0.62662246  0.19438010  1.0
  N  N70  1  0.07667113  0.12312626  0.68764599  1.0
  N  N71  1  0.42382653  0.37554810  0.81307043  1.0
  O  O72  1  0.89051779  0.06704329  0.57628302  1.0
  O  O73  1  0.53849896  0.08847293  0.42967446  1.0
  O  O74  1  0.40225176  0.91147977  0.43554612  1.0
  O  O75  1  0.07865003  0.90014682  0.55822202  1.0
  O  O76  1  0.06547824  0.92850036  0.42285223  1.0
  O  O77  1  0.40626630  0.92582447  0.57467801  1.0
  O  O78  1  0.55432300  0.09298252  0.56716529  1.0
  O  O79  1  0.87610837  0.09052111  0.43835625  1.0
  O  O80  1  0.21604640  0.05746885  0.50195351  1.0
  O  O81  1  0.72908380  0.94359339  0.49817157  1.0
  O  O82  1  0.94608482  0.40640287  0.93344816  1.0
  O  O83  1  0.62354895  0.41034771  0.06245216  1.0
  O  O84  1  0.43423362  0.57250215  0.07659044  1.0
  O  O85  1  0.09357737  0.57375728  0.92505997  1.0
  O  O86  1  0.09740084  0.58909562  0.06413679  1.0
  O  O87  1  0.42156750  0.59912925  0.94110261  1.0
  O  O88  1  0.60967123  0.43173698  0.92443955  1.0
  O  O89  1  0.96123461  0.41220716  0.07086901  1.0
  O  O90  1  0.28378736  0.44252626  0.99844350  1.0
  O  O91  1  0.77076968  0.55641982  0.00157821  1.0
