# generated using pymatgen
data_ZnH24C31NO7
_symmetry_space_group_name_H-M   'P 1'
_cell_length_a   16.01650708
_cell_length_b   18.33756812
_cell_length_c   19.49626452
_cell_angle_alpha   90.07747649
_cell_angle_beta   91.01392740
_cell_angle_gamma   90.76797909
_symmetry_Int_Tables_number   1
_chemical_formula_structural   ZnH24C31NO7
_chemical_formula_sum   'Zn2 H48 C62 N2 O14'
_cell_volume   5724.70866836
_cell_formula_units_Z   2
loop_
 _symmetry_equiv_pos_site_id
 _symmetry_equiv_pos_as_xyz
  1  'x, y, z'
loop_
 _atom_site_type_symbol
 _atom_site_label
 _atom_site_symmetry_multiplicity
 _atom_site_fract_x
 _atom_site_fract_y
 _atom_site_fract_z
 _atom_site_occupancy
  Zn  Zn0  1  0.50391909  0.42244619  0.49803425  1.0
  Zn  Zn1  1  0.50268769  0.57649096  0.49572672  1.0
  H  H2  1  0.91907370  0.39582947  0.48729717  1.0
  H  H3  1  0.59490541  0.68526811  0.57065680  1.0
  H  H4  1  0.61064883  0.18044495  0.58533051  1.0
  H  H5  1  0.61050673  0.81963569  0.58220363  1.0
  H  H6  1  0.41201553  0.15912207  0.43237220  1.0
  H  H7  1  0.42498204  0.83786798  0.41835564  1.0
  H  H8  1  0.49753836  0.06880297  0.39843145  1.0
  H  H9  1  0.50014947  0.93494718  0.39522268  1.0
  H  H10  1  0.54865664  0.93038135  0.61366271  1.0
  H  H11  1  0.54693648  0.06470420  0.61676111  1.0
  H  H12  1  0.06202649  0.40768908  0.46191337  1.0
  H  H13  1  0.94127232  0.49909561  0.40758002  1.0
  H  H14  1  0.08392610  0.53350754  0.40965854  1.0
  H  H15  1  0.06721765  0.60950063  0.46298801  1.0
  H  H16  1  0.07946488  0.39316382  0.55016600  1.0
  H  H17  1  0.92524214  0.59041309  0.43343898  1.0
  H  H18  1  0.93682541  0.41056675  0.57577745  1.0
  H  H19  1  0.53606975  0.59688414  0.84929040  1.0
  H  H20  1  0.39668430  0.39575823  0.83107518  1.0
  H  H21  1  0.47884059  0.38143197  0.93475445  1.0
  H  H22  1  0.42467275  0.61060954  0.93181503  1.0
  H  H23  1  0.37214096  0.35847790  0.42717504  1.0
  H  H24  1  0.47442248  0.38196007  0.06122148  1.0
  H  H25  1  0.40686526  0.63719945  0.39191703  1.0
  H  H26  1  0.03026069  0.44952042  0.65749998  1.0
  H  H27  1  0.16577230  0.60874661  0.62146646  1.0
  H  H28  1  0.84948615  0.50968384  0.63771387  1.0
  H  H29  1  0.94706223  0.66918876  0.62203709  1.0
  H  H30  1  0.70883392  0.66982699  0.63120237  1.0
  H  H31  1  0.71698488  0.70099313  0.71772792  1.0
  H  H32  1  0.78940627  0.63778961  0.68611503  1.0
  H  H33  1  0.69112279  0.56704807  0.75544014  1.0
  H  H34  1  0.66646499  0.54633649  0.66891814  1.0
  H  H35  1  0.41858594  0.61111624  0.05840831  1.0
  H  H36  1  0.54926758  0.63568665  0.67062200  1.0
  H  H37  1  0.57770975  0.66038547  0.75578968  1.0
  H  H38  1  0.30445082  0.32253765  0.58599521  1.0
  H  H39  1  0.27278708  0.27999151  0.66366134  1.0
  H  H40  1  0.20624600  0.34314632  0.62146170  1.0
  H  H41  1  0.27604711  0.40579547  0.72099139  1.0
  H  H42  1  0.31216634  0.44366868  0.64415542  1.0
  H  H43  1  0.43900167  0.36343797  0.65135598  1.0
  H  H44  1  0.40258957  0.32768009  0.72979698  1.0
  H  H45  1  0.50805473  0.60621736  0.15030759  1.0
  H  H46  1  0.40054140  0.38972230  0.15892272  1.0
  H  H47  1  0.52835372  0.60507702  0.27707629  1.0
  H  H48  1  0.42489612  0.38808962  0.28501222  1.0
  H  H49  1  0.59318407  0.31514431  0.57728014  1.0
  C  C50  1  0.49430278  0.49509161  0.36441440  1.0
  C  C51  1  0.43276886  0.43986809  0.80769480  1.0
  C  C52  1  0.46395386  0.49672929  0.84904434  1.0
  C  C53  1  0.48851121  0.49688355  0.70598932  1.0
  C  C54  1  0.46424199  0.43169674  0.96177840  1.0
  C  C55  1  0.43646816  0.56049218  0.96031327  1.0
  C  C56  1  0.34026448  0.50177345  0.50124654  1.0
  C  C57  1  0.46152068  0.43201876  0.03303430  1.0
  C  C58  1  0.43319320  0.56072873  0.03157716  1.0
  C  C59  1  0.44757921  0.49678986  0.06955535  1.0
  C  C60  1  0.45368889  0.49625441  0.92405922  1.0
  C  C61  1  0.95678448  0.55542527  0.57828587  1.0
  C  C62  1  0.48810686  0.55877762  0.17980961  1.0
  C  C63  1  0.42992536  0.43671462  0.18436845  1.0
  C  C64  1  0.50034061  0.55821517  0.25054624  1.0
  C  C65  1  0.44292660  0.43568578  0.25503978  1.0
  C  C66  1  0.47908683  0.49621346  0.28881059  1.0
  C  C67  1  0.45365227  0.49774537  0.14515160  1.0
  C  C68  1  0.55459057  0.27793387  0.54614007  1.0
  C  C69  1  0.55808169  0.72169210  0.53842038  1.0
  C  C70  1  0.56356014  0.20264542  0.55044972  1.0
  C  C71  1  0.56605216  0.79704870  0.54465376  1.0
  C  C72  1  0.05358481  0.54466353  0.58673169  1.0
  C  C73  1  0.51382369  0.15668286  0.50845500  1.0
  C  C74  1  0.51864467  0.84231701  0.50140840  1.0
  C  C75  1  0.49917489  0.49846476  0.62957428  1.0
  C  C76  1  0.45518555  0.19034100  0.46516075  1.0
  C  C77  1  0.46528224  0.80765324  0.45347296  1.0
  C  C78  1  0.44885618  0.26586854  0.46402459  1.0
  C  C79  1  0.46096019  0.73198020  0.44960935  1.0
  C  C80  1  0.50789014  0.03862704  0.44590778  1.0
  C  C81  1  0.50927443  0.96307514  0.44412654  1.0
  C  C82  1  0.52322330  0.92261235  0.50435063  1.0
  C  C83  1  0.83060915  0.50964338  0.51333975  1.0
  C  C84  1  0.52087731  0.07661376  0.50796083  1.0
  C  C85  1  0.53878713  0.96052697  0.56607156  1.0
  C  C86  1  0.53780156  0.03647478  0.56784567  1.0
  C  C87  1  0.66481033  0.50270591  0.50275860  1.0
  C  C88  1  0.04774158  0.42886104  0.51309625  1.0
  C  C89  1  0.05122848  0.55160546  0.45558798  1.0
  C  C90  1  0.95636975  0.53974698  0.44756307  1.0
  C  C91  1  0.95291343  0.43081418  0.52442866  1.0
  C  C92  1  0.75499403  0.50510302  0.50850347  1.0
  C  C93  1  0.08512519  0.50718993  0.51745374  1.0
  C  C94  1  0.17559153  0.50569046  0.51568192  1.0
  C  C95  1  0.92127990  0.51011257  0.51602233  1.0
  C  C96  1  0.38299526  0.29975544  0.41893641  1.0
  C  C97  1  0.40550400  0.69731687  0.39533811  1.0
  C  C98  1  0.07759420  0.49250719  0.64548861  1.0
  C  C99  1  0.10431318  0.61499115  0.59523641  1.0
  C  C100  1  0.91244150  0.53549210  0.64443069  1.0
  C  C101  1  0.93237592  0.63880591  0.57395481  1.0
  C  C102  1  0.57623770  0.61492370  0.71876752  1.0
  C  C103  1  0.66654392  0.59051368  0.70728106  1.0
  C  C104  1  0.72334592  0.65312017  0.68417915  1.0
  C  C105  1  0.25070170  0.50296995  0.50913538  1.0
  C  C106  1  0.40304778  0.37658032  0.69693975  1.0
  C  C107  1  0.31267056  0.39367641  0.67520625  1.0
  C  C108  1  0.27177036  0.33131424  0.63440462  1.0
  C  C109  1  0.52144816  0.55469355  0.74692641  1.0
  C  C110  1  0.44431584  0.43842510  0.73676609  1.0
  C  C111  1  0.50844524  0.55344412  0.81752332  1.0
  N  N112  1  0.49874508  0.30945439  0.50359894  1.0
  N  N113  1  0.50656264  0.68919464  0.49210882  1.0
  O  O114  1  0.48241720  0.43462203  0.39556843  1.0
  O  O115  1  0.36282032  0.73442608  0.35655749  1.0
  O  O116  1  0.14525954  0.49422379  0.67470986  1.0
  O  O117  1  0.08076045  0.67380321  0.57344153  1.0
  O  O118  1  0.94064294  0.55256446  0.70103542  1.0
  O  O119  1  0.89166450  0.66446618  0.52711283  1.0
  O  O120  1  0.51747263  0.55458289  0.39347125  1.0
  O  O121  1  0.37630331  0.44172271  0.51387398  1.0
  O  O122  1  0.37463135  0.56115632  0.48225566  1.0
  O  O123  1  0.52498473  0.44073839  0.60044767  1.0
  O  O124  1  0.48081603  0.55727741  0.59825577  1.0
  O  O125  1  0.63108778  0.44185628  0.48608949  1.0
  O  O126  1  0.62803860  0.56242246  0.51526567  1.0
  O  O127  1  0.34308679  0.26351791  0.37662742  1.0
