# generated using pymatgen
data_Zn2H13C22N2ClO13
_symmetry_space_group_name_H-M   'P 1'
_cell_length_a   9.90582424
_cell_length_b   11.15372563
_cell_length_c   16.01690993
_cell_angle_alpha   89.24820281
_cell_angle_beta   86.43954557
_cell_angle_gamma   89.50525856
_symmetry_Int_Tables_number   1
_chemical_formula_structural   Zn2H13C22N2ClO13
_chemical_formula_sum   'Zn2 H13 C22 N2 Cl1 O13'
_cell_volume   1766.03585067
_cell_formula_units_Z   1
loop_
 _symmetry_equiv_pos_site_id
 _symmetry_equiv_pos_as_xyz
  1  'x, y, z'
loop_
 _atom_site_type_symbol
 _atom_site_label
 _atom_site_symmetry_multiplicity
 _atom_site_fract_x
 _atom_site_fract_y
 _atom_site_fract_z
 _atom_site_occupancy
  Zn  Zn0  1  0.36702827  0.51533844  0.52033948  1.0
  Zn  Zn1  1  0.65143409  0.52023141  0.48645657  1.0
  H  H2  1  0.58075712  0.30952334  0.07083461  1.0
  H  H3  1  0.85107360  0.50962213  0.60890013  1.0
  H  H4  1  0.92242302  0.52333829  0.42967563  1.0
  H  H5  1  0.37466519  0.31250687  0.95571649  1.0
  H  H6  1  0.73626459  0.46750254  0.96400757  1.0
  H  H7  1  0.61171101  0.66571190  0.04924675  1.0
  H  H8  1  0.40642053  0.66868088  0.93335823  1.0
  H  H9  1  0.25055112  0.51109600  0.04051649  1.0
  H  H10  1  0.32347363  0.18129283  0.46006754  1.0
  H  H11  1  0.02624147  0.49960651  0.68086287  1.0
  H  H12  1  0.21689290  0.54010599  0.39142672  1.0
  H  H13  1  0.79269126  0.97481404  0.48126148  1.0
  H  H14  1  0.71693079  0.21813169  0.51562227  1.0
  C  C15  1  0.50907104  0.28384072  0.48862468  1.0
  C  C16  1  0.47338041  0.49924247  0.08762099  1.0
  C  C17  1  0.44446261  0.58916957  0.96519230  1.0
  C  C18  1  0.51355049  0.47897690  0.91689925  1.0
  C  C19  1  0.55996817  0.58714016  0.02715557  1.0
  C  C20  1  0.62830826  0.47734747  0.98148182  1.0
  C  C21  1  0.46263884  0.51069479  0.17559650  1.0
  C  C22  1  0.52883929  0.47350766  0.82865403  1.0
  C  C23  1  0.60986566  0.94898707  0.51450010  1.0
  C  C24  1  0.50571376  0.87344193  0.54000040  1.0
  C  C25  1  0.60447554  0.08027882  0.51312634  1.0
  C  C26  1  0.47949658  0.52870702  0.33982752  1.0
  C  C27  1  0.49933225  0.15225882  0.49027030  1.0
  C  C28  1  0.06281810  0.51214800  0.56186891  1.0
  C  C29  1  0.91727268  0.51357211  0.55112822  1.0
  C  C30  1  0.50580595  0.74282780  0.52526975  1.0
  C  C31  1  0.53020275  0.48087908  0.66262672  1.0
  C  C32  1  0.42686392  0.39126842  0.97719148  1.0
  C  C33  1  0.54237612  0.38920203  0.03934155  1.0
  C  C34  1  0.46487686  0.52055293  0.25128279  1.0
  C  C35  1  0.53554871  0.47295158  0.75236401  1.0
  C  C36  1  0.35849239  0.50108665  0.02307248  1.0
  N  N37  1  0.16062373  0.51821920  0.50411847  1.0
  N  N38  1  0.85780010  0.51845533  0.48218239  1.0
  Cl  Cl39  1  0.36599457  0.92930054  0.59656584  1.0
  O  O40  1  0.39974182  0.34088823  0.47587562  1.0
  O  O41  1  0.62396421  0.33318915  0.49936854  1.0
  O  O42  1  0.37538334  0.55798014  0.38739902  1.0
  O  O43  1  0.59615252  0.50607380  0.36491881  1.0
  O  O44  1  0.39846827  0.68559137  0.54912556  1.0
  O  O45  1  0.61140001  0.69615635  0.48868331  1.0
  O  O46  1  0.41697585  0.45440889  0.63402180  1.0
  O  O47  1  0.63620244  0.51483989  0.61983744  1.0
  O  O48  1  0.37967121  0.10884770  0.46676690  1.0
  O  O49  1  0.10417213  0.50247273  0.64074285  1.0
  O  O50  1  0.12469204  0.52780828  0.42295545  1.0
  O  O51  1  0.73370112  0.90456133  0.48855948  1.0
  O  O52  1  0.72850047  0.12893597  0.52532215  1.0
