# generated using pymatgen
data_ZnH9C24Br2N(O2F)2
_symmetry_space_group_name_H-M   'P 1'
_cell_length_a   21.57194214
_cell_length_b   21.68134899
_cell_length_c   21.90710374
_cell_angle_alpha   60.41079341
_cell_angle_beta   63.72385404
_cell_angle_gamma   89.99554524
_symmetry_Int_Tables_number   1
_chemical_formula_structural   ZnH9C24Br2N(O2F)2
_chemical_formula_sum   'Zn4 H36 C96 Br8 N4 O16 F8'
_cell_volume   7669.12695251
_cell_formula_units_Z   4
loop_
 _symmetry_equiv_pos_site_id
 _symmetry_equiv_pos_as_xyz
  1  'x, y, z'
loop_
 _atom_site_type_symbol
 _atom_site_label
 _atom_site_symmetry_multiplicity
 _atom_site_fract_x
 _atom_site_fract_y
 _atom_site_fract_z
 _atom_site_occupancy
  Zn  Zn0  1  0.53867003  0.04267058  0.91434950  1.0
  Zn  Zn1  1  0.46133479  0.95722730  0.08561357  1.0
  Zn  Zn2  1  0.96258248  0.45758374  0.08469295  1.0
  Zn  Zn3  1  0.03738385  0.54211883  0.91542928  1.0
  H  H4  1  0.80897678  0.39329285  0.21386445  1.0
  H  H5  1  0.73268017  0.31753271  0.36563822  1.0
  H  H6  1  0.56962434  0.18766044  0.62568918  1.0
  H  H7  1  0.77057962  0.18569069  0.62832977  1.0
  H  H8  1  0.82105494  0.25035393  0.49942091  1.0
  H  H9  1  0.67908805  0.25173555  0.49724845  1.0
  H  H10  1  0.19018578  0.60670828  0.78650487  1.0
  H  H11  1  0.26690843  0.68267400  0.63446329  1.0
  H  H12  1  0.43017872  0.81258501  0.37494959  1.0
  H  H13  1  0.22930144  0.81380074  0.37226334  1.0
  H  H14  1  0.17891400  0.74969245  0.50047621  1.0
  H  H15  1  0.32057298  0.74822579  0.50336813  1.0
  H  H16  1  0.57933209  0.07397901  0.13066466  1.0
  H  H17  1  0.61432299  0.10557004  0.20745189  1.0
  H  H18  1  0.69784417  0.20337580  0.86945045  1.0
  H  H19  1  0.91941341  0.42548674  0.87106116  1.0
  H  H20  1  0.88438166  0.39381968  0.79400783  1.0
  H  H21  1  0.80099959  0.29524796  0.13234104  1.0
  H  H22  1  0.30112933  0.79488866  0.13153798  1.0
  H  H23  1  0.19674050  0.68695391  0.20667502  1.0
  H  H24  1  0.42104986  0.92620426  0.87035304  1.0
  H  H25  1  0.20064100  0.70628343  0.86588161  1.0
  H  H26  1  0.30480075  0.81374498  0.79100269  1.0
  H  H27  1  0.08093161  0.57410892  0.12716555  1.0
  H  H28  1  0.30058303  0.07327985  0.13196579  1.0
  H  H29  1  0.19566059  0.10582821  0.20690484  1.0
  H  H30  1  0.42116911  0.20282083  0.87079833  1.0
  H  H31  1  0.20050119  0.42702165  0.86571779  1.0
  H  H32  1  0.30489307  0.39435528  0.79103796  1.0
  H  H33  1  0.08017246  0.29825587  0.12698752  1.0
  H  H34  1  0.57869144  0.79497952  0.13091473  1.0
  H  H35  1  0.61320948  0.68635187  0.20774676  1.0
  H  H36  1  0.69725124  0.92607019  0.86969604  1.0
  H  H37  1  0.91856609  0.70202161  0.87161713  1.0
  H  H38  1  0.88357253  0.81055676  0.79446510  1.0
  H  H39  1  0.80004233  0.57162000  0.13290851  1.0
  C  C40  1  0.41430518  0.91358430  0.00132395  1.0
  C  C41  1  0.41421045  0.08477500  0.00182851  1.0
  C  C42  1  0.58518731  0.08562518  0.99988048  1.0
  C  C43  1  0.58479086  0.91398318  0.00017218  1.0
  C  C44  1  0.08796239  0.41691857  0.99494215  1.0
  C  C45  1  0.08802814  0.58759255  0.99519081  1.0
  C  C46  1  0.91245460  0.58331989  0.00348711  1.0
  C  C47  1  0.91298179  0.41299298  0.00291691  1.0
  C  C48  1  0.83261106  0.37381530  0.25259967  1.0
  C  C49  1  0.79110367  0.33181281  0.33677165  1.0
  C  C50  1  0.82424598  0.30785182  0.38449873  1.0
  C  C51  1  0.89967784  0.32935054  0.34111401  1.0
  C  C52  1  0.93775505  0.37184818  0.25593007  1.0
  C  C53  1  0.78638146  0.26356296  0.47318452  1.0
  C  C54  1  0.71412916  0.23871004  0.52311856  1.0
  C  C55  1  0.60094301  0.17237582  0.65589604  1.0
  C  C56  1  0.67664459  0.19420050  0.61200467  1.0
  C  C57  1  0.71226435  0.17161474  0.65671343  1.0
  C  C58  1  0.67062593  0.12934769  0.74092993  1.0
  C  C59  1  0.56577019  0.13002950  0.74036702  1.0
  C  C60  1  0.16684736  0.62621358  0.74746990  1.0
  C  C61  1  0.20848639  0.66825781  0.66332117  1.0
  C  C62  1  0.17541042  0.69215880  0.61553935  1.0
  C  C63  1  0.10001135  0.67061780  0.65871188  1.0
  C  C64  1  0.06184802  0.62804420  0.74387885  1.0
  C  C65  1  0.21341412  0.73645292  0.52692568  1.0
  C  C66  1  0.28567825  0.76126620  0.47730723  1.0
  C  C67  1  0.39891806  0.82772952  0.34467093  1.0
  C  C68  1  0.32324640  0.80573092  0.38849092  1.0
  C  C69  1  0.28762143  0.82807702  0.34381440  1.0
  C  C70  1  0.32928769  0.87027262  0.25960904  1.0
  C  C71  1  0.43405469  0.87006184  0.26019578  1.0
  C  C72  1  0.62352280  0.12068061  0.07387236  1.0
  C  C73  1  0.66878677  0.16585690  0.07512941  1.0
  C  C74  1  0.65839840  0.15219280  0.15047489  1.0
  C  C75  1  0.69066495  0.19397726  0.92606402  1.0
  C  C76  1  0.73724191  0.24063394  0.92433896  1.0
  C  C77  1  0.79611745  0.30271670  0.85055228  1.0
  C  C78  1  0.87520040  0.37874321  0.92781644  1.0
  C  C79  1  0.83000942  0.33361603  0.92636887  1.0
  C  C80  1  0.84036559  0.34716965  0.85105854  1.0
  C  C81  1  0.80803305  0.30504244  0.07564831  1.0
  C  C82  1  0.76154118  0.25856175  0.07718323  1.0
  C  C83  1  0.70273466  0.19650981  0.15097518  1.0
  C  C84  1  0.63429321  0.13465172  0.99999139  1.0
  C  C85  1  0.72652328  0.22681893  0.99999438  1.0
  C  C86  1  0.86429119  0.36451528  0.00188678  1.0
  C  C87  1  0.77226394  0.27258259  0.00146107  1.0
  C  C88  1  0.30898501  0.80509033  0.07429475  1.0
  C  C89  1  0.26303760  0.75914153  0.07449121  1.0
  C  C90  1  0.20497067  0.69768381  0.14912438  1.0
  C  C91  1  0.37677063  0.87930477  0.92648595  1.0
  C  C92  1  0.33227176  0.83496151  0.92367885  1.0
  C  C93  1  0.34105237  0.84714542  0.84917952  1.0
  C  C94  1  0.19294029  0.69564893  0.92321446  1.0
  C  C95  1  0.23877406  0.74148426  0.92317598  1.0
  C  C96  1  0.29675793  0.80294296  0.84850697  1.0
  C  C97  1  0.12520438  0.62102659  0.07102722  1.0
  C  C98  1  0.16963193  0.66536270  0.07397395  1.0
  C  C99  1  0.16085347  0.65322780  0.14848547  1.0
  C  C100  1  0.36541435  0.86461416  0.00091529  1.0
  C  C101  1  0.27418260  0.77352464  0.99873942  1.0
  C  C102  1  0.13663102  0.63595493  0.99644625  1.0
  C  C103  1  0.22766405  0.72690159  0.99897784  1.0
  C  C104  1  0.30855380  0.12022386  0.07467573  1.0
  C  C105  1  0.26250331  0.16587941  0.07475277  1.0
  C  C106  1  0.20407326  0.15263190  0.14931813  1.0
  C  C107  1  0.37670652  0.19364784  0.92686780  1.0
  C  C108  1  0.33212835  0.24071941  0.92394757  1.0
  C  C109  1  0.34109867  0.30293446  0.84938134  1.0
  C  C110  1  0.19265894  0.38037435  0.92309333  1.0
  C  C111  1  0.23846747  0.33453795  0.92317643  1.0
  C  C112  1  0.29669752  0.34770959  0.84858384  1.0
  C  C113  1  0.12455883  0.30735723  0.07090205  1.0
  C  C114  1  0.16887446  0.25996896  0.07396533  1.0
  C  C115  1  0.15976097  0.19754397  0.14855341  1.0
  C  C116  1  0.36520861  0.13404373  0.00134795  1.0
  C  C117  1  0.27378519  0.22711040  0.99894069  1.0
  C  C118  1  0.13628702  0.36703444  0.99626208  1.0
  C  C119  1  0.22717134  0.27341240  0.99903608  1.0
  C  C120  1  0.62287092  0.80486338  0.07414129  1.0
  C  C121  1  0.66797669  0.75826792  0.07545063  1.0
  C  C122  1  0.65737617  0.69660637  0.15081190  1.0
  C  C123  1  0.69001263  0.87896813  0.92633530  1.0
  C  C124  1  0.73647425  0.83388801  0.92465749  1.0
  C  C125  1  0.79534001  0.84533261  0.85091072  1.0
  C  C126  1  0.87433451  0.69215058  0.92835853  1.0
  C  C127  1  0.82911415  0.73871017  0.92684731  1.0
  C  C128  1  0.83953861  0.80031102  0.85149282  1.0
  C  C129  1  0.80706714  0.61835114  0.07619163  1.0
  C  C130  1  0.76048748  0.66323902  0.07766291  1.0
  C  C131  1  0.70152949  0.65160460  0.15139676  1.0
  C  C132  1  0.63372630  0.86466903  0.00024199  1.0
  C  C133  1  0.72569118  0.77218790  0.00034145  1.0
  C  C134  1  0.86347324  0.63255083  0.00245696  1.0
  C  C135  1  0.77132866  0.72485048  0.00190080  1.0
  Br  Br136  1  0.68545109  0.17446024  0.25402945  1.0
  Br  Br137  1  0.81361284  0.32466135  0.74750513  1.0
  Br  Br138  1  0.08514413  0.57206163  0.25069580  1.0
  Br  Br139  1  0.41722286  0.92785235  0.74693888  1.0
  Br  Br140  1  0.08310425  0.17601702  0.25063833  1.0
  Br  Br141  1  0.41774075  0.32450609  0.74724944  1.0
  Br  Br142  1  0.68358284  0.57037237  0.25455097  1.0
  Br  Br143  1  0.81296497  0.92618423  0.74778485  1.0
  N  N144  1  0.90559287  0.39364043  0.21257074  1.0
  N  N145  1  0.59849798  0.10800553  0.78386099  1.0
  N  N146  1  0.09392120  0.60633840  0.78725767  1.0
  N  N147  1  0.40135952  0.89179248  0.21672783  1.0
  O  O148  1  0.46422543  0.96711109  0.93224559  1.0
  O  O149  1  0.40170755  0.89760501  0.07077753  1.0
  O  O150  1  0.40153906  0.03142936  0.07130317  1.0
  O  O151  1  0.46428332  0.10028843  0.93276796  1.0
  O  O152  1  0.53511093  0.03228529  0.06915792  1.0
  O  O153  1  0.59767573  0.10131294  0.93062784  1.0
  O  O154  1  0.59723017  0.96738943  0.93094264  1.0
  O  O155  1  0.53488701  0.89833238  0.06947652  1.0
  O  O156  1  0.03653936  0.40067348  0.06369641  1.0
  O  O157  1  0.10205276  0.47151398  0.92533554  1.0
  O  O158  1  0.10210291  0.60244214  0.92558696  1.0
  O  O159  1  0.03639379  0.53545862  0.06392533  1.0
  O  O160  1  0.96420238  0.60015664  0.93452982  1.0
  O  O161  1  0.89866841  0.52878140  0.07287460  1.0
  O  O162  1  0.89920042  0.39822619  0.07232498  1.0
  O  O163  1  0.96444805  0.46527502  0.93395499  1.0
  F  F164  1  0.00957211  0.39152745  0.21618511  1.0
  F  F165  1  0.93697536  0.30957866  0.38047609  1.0
  F  F166  1  0.70328924  0.10717045  0.78459384  1.0
  F  F167  1  0.49381405  0.10882270  0.78309585  1.0
  F  F168  1  0.98999491  0.60829099  0.78342313  1.0
  F  F169  1  0.06285666  0.69043577  0.61915936  1.0
  F  F170  1  0.29649208  0.89208093  0.21604324  1.0
  F  F171  1  0.50605015  0.89148295  0.21758915  1.0
