# generated using pymatgen
data_Zn4H36C58O13
_symmetry_space_group_name_H-M   'P 1'
_cell_length_a   21.63713459
_cell_length_b   21.63714775
_cell_length_c   34.59261206
_cell_angle_alpha   89.99991345
_cell_angle_beta   89.99984332
_cell_angle_gamma   89.99993222
_symmetry_Int_Tables_number   1
_chemical_formula_structural   Zn4H36C58O13
_chemical_formula_sum   'Zn8 H72 C116 O26'
_cell_volume   16195.08059765
_cell_formula_units_Z   2
loop_
 _symmetry_equiv_pos_site_id
 _symmetry_equiv_pos_as_xyz
  1  'x, y, z'
loop_
 _atom_site_type_symbol
 _atom_site_label
 _atom_site_symmetry_multiplicity
 _atom_site_fract_x
 _atom_site_fract_y
 _atom_site_fract_z
 _atom_site_occupancy
  Zn  Zn0  1  0.44782806  0.55222880  0.03297315  1.0
  Zn  Zn1  1  0.44782792  0.44776936  0.96702900  1.0
  Zn  Zn2  1  0.55217096  0.44777181  0.03297282  1.0
  Zn  Zn3  1  0.55217300  0.55222715  0.96702828  1.0
  Zn  Zn4  1  0.55222777  0.44782860  0.46702793  1.0
  Zn  Zn5  1  0.44777341  0.44782904  0.53297331  1.0
  Zn  Zn6  1  0.44777211  0.55217236  0.46702826  1.0
  Zn  Zn7  1  0.55222988  0.55217129  0.53297259  1.0
  H  H8  1  0.56940022  0.25692131  0.04434469  1.0
  H  H9  1  0.56979359  0.14172313  0.04441817  1.0
  H  H10  1  0.43059934  0.25691890  0.95565586  1.0
  H  H11  1  0.43020795  0.14172165  0.95558220  1.0
  H  H12  1  0.49993308  0.05714764  0.93775294  1.0
  H  H13  1  0.50006811  0.05714823  0.06224635  1.0
  H  H14  1  0.43060013  0.74307882  0.04434515  1.0
  H  H15  1  0.43020768  0.85827653  0.04441852  1.0
  H  H16  1  0.56940209  0.74307763  0.95565552  1.0
  H  H17  1  0.56979440  0.85827627  0.95558290  1.0
  H  H18  1  0.49993263  0.94285046  0.06224622  1.0
  H  H19  1  0.50006797  0.94284987  0.93775310  1.0
  H  H20  1  0.55900757  0.42020103  0.15203784  1.0
  H  H21  1  0.44099508  0.57979792  0.15203787  1.0
  H  H22  1  0.42020171  0.55900567  0.34796326  1.0
  H  H23  1  0.57979823  0.44099326  0.34796433  1.0
  H  H24  1  0.53407619  0.36841684  0.23965515  1.0
  H  H25  1  0.60288942  0.38372846  0.21370446  1.0
  H  H26  1  0.46592515  0.63158142  0.23965480  1.0
  H  H27  1  0.39711250  0.61627033  0.21370395  1.0
  H  H28  1  0.36841826  0.53407507  0.26034634  1.0
  H  H29  1  0.38372934  0.60288817  0.28629692  1.0
  H  H30  1  0.63158253  0.46592407  0.26034615  1.0
  H  H31  1  0.61627180  0.39711091  0.28629711  1.0
  H  H32  1  0.55900779  0.57979700  0.84796382  1.0
  H  H33  1  0.44099503  0.42020072  0.84796429  1.0
  H  H34  1  0.42020250  0.44099298  0.65203807  1.0
  H  H35  1  0.57979934  0.55900567  0.65203787  1.0
  H  H36  1  0.53407582  0.63158122  0.76034627  1.0
  H  H37  1  0.60288849  0.61626998  0.78629684  1.0
  H  H38  1  0.46592462  0.36841718  0.76034645  1.0
  H  H39  1  0.39711138  0.38372789  0.78629742  1.0
  H  H40  1  0.36841771  0.46592364  0.73965536  1.0
  H  H41  1  0.38372898  0.39711053  0.71370446  1.0
  H  H42  1  0.63158236  0.53407480  0.73965511  1.0
  H  H43  1  0.61627213  0.60288844  0.71370417  1.0
  H  H44  1  0.74308486  0.42896976  0.04334309  1.0
  H  H45  1  0.85826878  0.42874138  0.04349244  1.0
  H  H46  1  0.74308646  0.57102897  0.95665827  1.0
  H  H47  1  0.85827038  0.57125768  0.95650842  1.0
  H  H48  1  0.94283138  0.59954226  0.99996444  1.0
  H  H49  1  0.94283092  0.40045577  0.00003599  1.0
  H  H50  1  0.25691543  0.42896987  0.95665846  1.0
  H  H51  1  0.14173151  0.42874163  0.95650852  1.0
  H  H52  1  0.25691504  0.57102852  0.04334343  1.0
  H  H53  1  0.14173019  0.57125828  0.04349270  1.0
  H  H54  1  0.05717032  0.40045601  0.99996413  1.0
  H  H55  1  0.05717009  0.59954215  0.00003608  1.0
  H  H56  1  0.25691968  0.56940211  0.45565373  1.0
  H  H57  1  0.14172143  0.56979317  0.45558155  1.0
  H  H58  1  0.25692373  0.43060229  0.54434354  1.0
  H  H59  1  0.14172640  0.43020674  0.54441822  1.0
  H  H60  1  0.05714950  0.49993176  0.56224634  1.0
  H  H61  1  0.05714931  0.50006686  0.43775300  1.0
  H  H62  1  0.74307794  0.43059887  0.45565627  1.0
  H  H63  1  0.85827573  0.43020596  0.45558274  1.0
  H  H64  1  0.74308044  0.56939987  0.54434595  1.0
  H  H65  1  0.85827776  0.56979172  0.54441841  1.0
  H  H66  1  0.94285116  0.49993277  0.43775369  1.0
  H  H67  1  0.94285181  0.50006665  0.56224646  1.0
  H  H68  1  0.42897239  0.74308525  0.45665834  1.0
  H  H69  1  0.42874263  0.85826910  0.45650883  1.0
  H  H70  1  0.57102983  0.74308368  0.54334349  1.0
  H  H71  1  0.57125900  0.85826891  0.54349318  1.0
  H  H72  1  0.59954375  0.94283000  0.50003643  1.0
  H  H73  1  0.40045731  0.94282966  0.49996491  1.0
  H  H74  1  0.42897157  0.25691478  0.54334326  1.0
  H  H75  1  0.42874194  0.14173047  0.54349306  1.0
  H  H76  1  0.57103077  0.25691480  0.45665787  1.0
  H  H77  1  0.57125869  0.14173095  0.45650905  1.0
  H  H78  1  0.40045784  0.05716856  0.50003615  1.0
  H  H79  1  0.59954381  0.05716890  0.49996458  1.0
  C  C80  1  0.33282356  0.50000206  0.00000264  1.0
  C  C81  1  0.49999691  0.33277336  0.00000143  1.0
  C  C82  1  0.49999842  0.50000184  0.10494023  1.0
  C  C83  1  0.66717941  0.50000482  0.99999710  1.0
  C  C84  1  0.49999809  0.66722410  0.00000011  1.0
  C  C85  1  0.50000408  0.50000042  0.89506096  1.0
  C  C86  1  0.49999581  0.33282175  0.50000443  1.0
  C  C87  1  0.33277532  0.50000238  0.50000045  1.0
  C  C88  1  0.49999917  0.50000056  0.39506085  1.0
  C  C89  1  0.49999931  0.66717728  0.50000167  1.0
  C  C90  1  0.66722534  0.50000403  0.50000103  1.0
  C  C91  1  0.49999871  0.49999707  0.60494063  1.0
  C  C92  1  0.49999926  0.26384099  0.00000204  1.0
  C  C93  1  0.53888376  0.23113838  0.02516548  1.0
  C  C94  1  0.53865456  0.16688453  0.02524790  1.0
  C  C95  1  0.46111306  0.23113774  0.97483538  1.0
  C  C96  1  0.46134649  0.16688343  0.97475389  1.0
  C  C97  1  0.49999991  0.13366550  0.99999944  1.0
  C  C98  1  0.50000088  0.06547722  0.99999976  1.0
  C  C99  1  0.49964372  0.03214985  0.96514320  1.0
  C  C100  1  0.50035704  0.03214913  0.03485525  1.0
  C  C101  1  0.49999817  0.73615804  0.99999944  1.0
  C  C102  1  0.46111344  0.76885856  0.02516472  1.0
  C  C103  1  0.46134495  0.83311610  0.02524765  1.0
  C  C104  1  0.53888598  0.76885968  0.97483477  1.0
  C  C105  1  0.53865532  0.83311583  0.97475264  1.0
  C  C106  1  0.50000029  0.86633306  0.00000002  1.0
  C  C107  1  0.50000036  0.93452198  0.99999993  1.0
  C  C108  1  0.49964336  0.96784825  0.03485568  1.0
  C  C109  1  0.50035675  0.96784758  0.96514478  1.0
  C  C110  1  0.56690678  0.40535747  0.23156870  1.0
  C  C111  1  0.43309505  0.59464220  0.23156843  1.0
  C  C112  1  0.40535795  0.56690469  0.26843241  1.0
  C  C113  1  0.59464280  0.43309443  0.26843231  1.0
  C  C114  1  0.53331049  0.45484930  0.16833844  1.0
  C  C115  1  0.53326326  0.45410563  0.20856264  1.0
  C  C116  1  0.46669071  0.54515145  0.16833759  1.0
  C  C117  1  0.46674007  0.54589225  0.20856265  1.0
  C  C118  1  0.45484868  0.53330959  0.33166381  1.0
  C  C119  1  0.45410745  0.53326064  0.29143816  1.0
  C  C120  1  0.54515041  0.46668892  0.33166318  1.0
  C  C121  1  0.54589413  0.46673750  0.29143870  1.0
  C  C122  1  0.50000295  0.49999809  0.14803382  1.0
  C  C123  1  0.50000093  0.49999984  0.22884038  1.0
  C  C124  1  0.50000112  0.49999830  0.35196725  1.0
  C  C125  1  0.50000083  0.49999933  0.27116127  1.0
  C  C126  1  0.56690642  0.59464194  0.76843238  1.0
  C  C127  1  0.43309491  0.40535644  0.76843287  1.0
  C  C128  1  0.40535701  0.43309352  0.73156952  1.0
  C  C129  1  0.59464309  0.56690541  0.73156900  1.0
  C  C130  1  0.53331221  0.54514922  0.83166356  1.0
  C  C131  1  0.53326239  0.54589151  0.79143850  1.0
  C  C132  1  0.46669069  0.45484900  0.83166337  1.0
  C  C133  1  0.46673931  0.45410542  0.79143946  1.0
  C  C134  1  0.45484844  0.46668903  0.66833775  1.0
  C  C135  1  0.45410703  0.46673843  0.70856310  1.0
  C  C136  1  0.54515102  0.53330912  0.66833793  1.0
  C  C137  1  0.54589318  0.53326055  0.70856299  1.0
  C  C138  1  0.50000187  0.49999770  0.85196823  1.0
  C  C139  1  0.50000112  0.49999918  0.77116167  1.0
  C  C140  1  0.50000047  0.49999887  0.64803394  1.0
  C  C141  1  0.49999983  0.49999924  0.72884050  1.0
  C  C142  1  0.73612234  0.49999859  0.00000172  1.0
  C  C143  1  0.76883321  0.45969194  0.02427655  1.0
  C  C144  1  0.83308894  0.45951674  0.02409929  1.0
  C  C145  1  0.76883430  0.54030954  0.97572389  1.0
  C  C146  1  0.83309050  0.54048189  0.97590277  1.0
  C  C147  1  0.86632962  0.50000100  0.99999924  1.0
  C  C148  1  0.93452153  0.49999940  0.00000069  1.0
  C  C149  1  0.96785967  0.55574627  0.99978347  1.0
  C  C150  1  0.96786055  0.44425173  0.00021749  1.0
  C  C151  1  0.26387774  0.49999933  0.00000039  1.0
  C  C152  1  0.23116658  0.45969064  0.97572410  1.0
  C  C153  1  0.16691130  0.45951737  0.97590222  1.0
  C  C154  1  0.23116538  0.54031009  0.02427755  1.0
  C  C155  1  0.16691150  0.54048205  0.02409866  1.0
  C  C156  1  0.13367161  0.49999959  0.99999986  1.0
  C  C157  1  0.06547947  0.49999853  0.00000056  1.0
  C  C158  1  0.03214157  0.44425200  0.99978317  1.0
  C  C159  1  0.03214138  0.55574665  0.00021766  1.0
  C  C160  1  0.26384244  0.50000335  0.49999993  1.0
  C  C161  1  0.23113851  0.53888838  0.47483416  1.0
  C  C162  1  0.16688278  0.53865456  0.47475212  1.0
  C  C163  1  0.23114076  0.46111697  0.52516488  1.0
  C  C164  1  0.16688641  0.46134625  0.52524704  1.0
  C  C165  1  0.13366716  0.49999973  0.49999888  1.0
  C  C166  1  0.06547838  0.49999838  0.50000010  1.0
  C  C167  1  0.03215134  0.49964157  0.53485583  1.0
  C  C168  1  0.03215149  0.50035570  0.46514355  1.0
  C  C169  1  0.73615868  0.49999937  0.49999953  1.0
  C  C170  1  0.76886133  0.46111487  0.47483547  1.0
  C  C171  1  0.83311476  0.46134545  0.47475303  1.0
  C  C172  1  0.76886118  0.53888615  0.52516584  1.0
  C  C173  1  0.83311691  0.53865410  0.52524672  1.0
  C  C174  1  0.86633396  0.49999976  0.50000028  1.0
  C  C175  1  0.93452228  0.49999879  0.49999993  1.0
  C  C176  1  0.96784932  0.49964295  0.46514391  1.0
  C  C177  1  0.96785010  0.50035506  0.53485561  1.0
  C  C178  1  0.49999880  0.73612213  0.50000222  1.0
  C  C179  1  0.45969082  0.76883444  0.47572480  1.0
  C  C180  1  0.45951839  0.83308968  0.47590255  1.0
  C  C181  1  0.54030860  0.76883341  0.52427816  1.0
  C  C182  1  0.54048280  0.83308772  0.52409948  1.0
  C  C183  1  0.50000011  0.86632829  0.50000042  1.0
  C  C184  1  0.50000007  0.93451982  0.50000126  1.0
  C  C185  1  0.55574912  0.96785874  0.50021800  1.0
  C  C186  1  0.44425376  0.96785881  0.49978361  1.0
  C  C187  1  0.50000001  0.26387828  0.49999955  1.0
  C  C188  1  0.45968965  0.23116648  0.52427704  1.0
  C  C189  1  0.45951822  0.16691124  0.52409871  1.0
  C  C190  1  0.54030856  0.23116649  0.47572440  1.0
  C  C191  1  0.54048330  0.16691125  0.47590251  1.0
  C  C192  1  0.50000101  0.13367119  0.50000019  1.0
  C  C193  1  0.50000151  0.06547875  0.50000080  1.0
  C  C194  1  0.44425293  0.03213982  0.50021767  1.0
  C  C195  1  0.55574875  0.03214022  0.49978367  1.0
  O  O196  1  0.50000062  0.49999983  0.99999984  1.0
  O  O197  1  0.35958535  0.53705173  0.02341049  1.0
  O  O198  1  0.46344046  0.35952203  0.97629054  1.0
  O  O199  1  0.53683331  0.46236518  0.08815542  1.0
  O  O200  1  0.35958792  0.46294330  0.97659122  1.0
  O  O201  1  0.46317286  0.53762837  0.08815602  1.0
  O  O202  1  0.53655251  0.35952314  0.02371165  1.0
  O  O203  1  0.64041140  0.46294383  0.02341000  1.0
  O  O204  1  0.53655626  0.64047445  0.97629064  1.0
  O  O205  1  0.64041712  0.53705411  0.97659210  1.0
  O  O206  1  0.46344239  0.64047611  0.02370984  1.0
  O  O207  1  0.46317063  0.46236746  0.91184725  1.0
  O  O208  1  0.53683330  0.53762965  0.91184542  1.0
  O  O209  1  0.50000125  0.50000044  0.50000059  1.0
  O  O210  1  0.53705667  0.35958730  0.47659245  1.0
  O  O211  1  0.35952421  0.46345224  0.52370550  1.0
  O  O212  1  0.46236983  0.53683074  0.41184624  1.0
  O  O213  1  0.46294832  0.35958312  0.52340858  1.0
  O  O214  1  0.53763215  0.46316711  0.41184650  1.0
  O  O215  1  0.35952335  0.53656313  0.47628667  1.0
  O  O216  1  0.46294410  0.64041779  0.47659065  1.0
  O  O217  1  0.64047634  0.53655967  0.52370985  1.0
  O  O218  1  0.53705085  0.64041307  0.52340838  1.0
  O  O219  1  0.64047326  0.46344427  0.47628907  1.0
  O  O220  1  0.46236763  0.46316786  0.58815559  1.0
  O  O221  1  0.53763171  0.53682956  0.58815434  1.0
