# generated using pymatgen
data_Zn3H24C30(N7O3)2
_symmetry_space_group_name_H-M   'P 1'
_cell_length_a   12.88299294
_cell_length_b   12.88299260
_cell_length_c   12.88301691
_cell_angle_alpha   108.30858651
_cell_angle_beta   108.30875998
_cell_angle_gamma   108.30879233
_symmetry_Int_Tables_number   1
_chemical_formula_structural   Zn3H24C30(N7O3)2
_chemical_formula_sum   'Zn3 H24 C30 N14 O6'
_cell_volume   1713.18142511
_cell_formula_units_Z   1
loop_
 _symmetry_equiv_pos_site_id
 _symmetry_equiv_pos_as_xyz
  1  'x, y, z'
loop_
 _atom_site_type_symbol
 _atom_site_label
 _atom_site_symmetry_multiplicity
 _atom_site_fract_x
 _atom_site_fract_y
 _atom_site_fract_z
 _atom_site_occupancy
  Zn  Zn0  1  0.78609667  0.78609362  0.78609474  1.0
  Zn  Zn1  1  0.04563081  0.04563233  0.04563344  1.0
  Zn  Zn2  1  0.53824696  0.53825110  0.53824779  1.0
  H  H3  1  0.39898807  0.96084770  0.96084807  1.0
  H  H4  1  0.96084636  0.96084577  0.39898453  1.0
  H  H5  1  0.96084590  0.39898538  0.96084594  1.0
  H  H6  1  0.09832084  0.63791799  0.63791873  1.0
  H  H7  1  0.63791703  0.63791695  0.09832218  1.0
  H  H8  1  0.63791782  0.09832259  0.63791689  1.0
  H  H9  1  0.54909171  0.90337702  0.90337724  1.0
  H  H10  1  0.90337735  0.90337537  0.54908748  1.0
  H  H11  1  0.90337588  0.54908909  0.90337581  1.0
  H  H12  1  0.24862890  0.58135536  0.58135459  1.0
  H  H13  1  0.58135599  0.58135643  0.24863027  1.0
  H  H14  1  0.58135557  0.24863043  0.58135561  1.0
  H  H15  1  0.10706950  0.30793551  0.19145351  1.0
  H  H16  1  0.30793597  0.19145357  0.10707066  1.0
  H  H17  1  0.19145350  0.10707068  0.30793503  1.0
  H  H18  1  0.10707004  0.19145384  0.30793559  1.0
  H  H19  1  0.30793535  0.10707014  0.19145395  1.0
  H  H20  1  0.19145359  0.30793578  0.10707044  1.0
  H  H21  1  0.28153064  0.48112197  0.36650604  1.0
  H  H22  1  0.48112170  0.36650594  0.28153033  1.0
  H  H23  1  0.36650584  0.28153163  0.48112103  1.0
  H  H24  1  0.28153109  0.36650623  0.48112163  1.0
  H  H25  1  0.48112191  0.28153109  0.36650644  1.0
  H  H26  1  0.36650560  0.48112132  0.28153072  1.0
  C  C27  1  0.15158245  0.83594790  0.83594890  1.0
  C  C28  1  0.83594985  0.83595007  0.15158317  1.0
  C  C29  1  0.83594844  0.15158383  0.83594816  1.0
  C  C30  1  0.36668649  0.87769889  0.87770032  1.0
  C  C31  1  0.87770136  0.87769958  0.36668482  1.0
  C  C32  1  0.87769876  0.36668656  0.87769871  1.0
  C  C33  1  0.19707436  0.69560542  0.69560618  1.0
  C  C34  1  0.69560497  0.69560514  0.19707254  1.0
  C  C35  1  0.69560411  0.19707311  0.69560300  1.0
  C  C36  1  0.23930022  0.80285837  0.80285983  1.0
  C  C37  1  0.80285842  0.80285832  0.23930163  1.0
  C  C38  1  0.80285956  0.23930253  0.80285863  1.0
  C  C39  1  0.45020147  0.84610737  0.84610852  1.0
  C  C40  1  0.84610904  0.84610679  0.45020109  1.0
  C  C41  1  0.84610859  0.45020211  0.84610890  1.0
  C  C42  1  0.28077624  0.66443403  0.66443421  1.0
  C  C43  1  0.66443258  0.66443341  0.28077779  1.0
  C  C44  1  0.66443435  0.28077749  0.66443370  1.0
  C  C45  1  0.40802703  0.73906003  0.73905967  1.0
  C  C46  1  0.73906156  0.73906108  0.40802587  1.0
  C  C47  1  0.73906079  0.40802777  0.73906061  1.0
  C  C48  1  0.49606616  0.70332312  0.70332241  1.0
  C  C49  1  0.70332529  0.70332377  0.49606372  1.0
  C  C50  1  0.70332747  0.49606996  0.70332756  1.0
  C  C51  1  0.19356998  0.31024940  0.19357057  1.0
  C  C52  1  0.31024905  0.19357034  0.19357074  1.0
  C  C53  1  0.19356914  0.19356996  0.31024851  1.0
  C  C54  1  0.30741466  0.42331692  0.30741454  1.0
  C  C55  1  0.42331557  0.30741525  0.30741447  1.0
  C  C56  1  0.30741404  0.30741489  0.42331633  1.0
  N  N57  1  0.19470268  0.19470401  0.19470437  1.0
  N  N58  1  0.98411979  0.83208787  0.83209060  1.0
  N  N59  1  0.83209168  0.83209290  0.98412225  1.0
  N  N60  1  0.83209053  0.98412163  0.83209023  1.0
  N  N61  1  0.02723261  0.77000742  0.77001142  1.0
  N  N62  1  0.77001029  0.77001157  0.02723256  1.0
  N  N63  1  0.77001030  0.02723260  0.77000950  1.0
  N  N64  1  0.38248054  0.38248274  0.38248224  1.0
  N  N65  1  0.07912069  0.93212573  0.93212844  1.0
  N  N66  1  0.93212691  0.93213023  0.07912153  1.0
  N  N67  1  0.93212972  0.07912328  0.93212940  1.0
  N  N68  1  0.18531280  0.93752090  0.93752498  1.0
  N  N69  1  0.93752393  0.93752601  0.18531444  1.0
  N  N70  1  0.93752496  0.18531396  0.93752459  1.0
  O  O71  1  0.61038565  0.76920231  0.76920213  1.0
  O  O72  1  0.76920801  0.76920377  0.61038603  1.0
  O  O73  1  0.76920989  0.61038802  0.76920778  1.0
  O  O74  1  0.44396818  0.60245439  0.60245218  1.0
  O  O75  1  0.60245462  0.60245583  0.44397033  1.0
  O  O76  1  0.60245587  0.44397115  0.60245690  1.0
