# generated using pymatgen
data_ZnH13C20NO5
_symmetry_space_group_name_H-M   'P 1'
_cell_length_a   16.16724856
_cell_length_b   16.16723395
_cell_length_c   23.21167591
_cell_angle_alpha   72.67753558
_cell_angle_beta   72.67764730
_cell_angle_gamma   66.41576000
_symmetry_Int_Tables_number   1
_chemical_formula_structural   ZnH13C20NO5
_chemical_formula_sum   'Zn4 H52 C80 N4 O20'
_cell_volume   5196.30474245
_cell_formula_units_Z   4
loop_
 _symmetry_equiv_pos_site_id
 _symmetry_equiv_pos_as_xyz
  1  'x, y, z'
loop_
 _atom_site_type_symbol
 _atom_site_label
 _atom_site_symmetry_multiplicity
 _atom_site_fract_x
 _atom_site_fract_y
 _atom_site_fract_z
 _atom_site_occupancy
  Zn  Zn0  1  0.40769000  0.00801931  0.51173809  1.0
  Zn  Zn1  1  0.99198058  0.59231009  0.98826107  1.0
  Zn  Zn2  1  0.59231155  0.99197953  0.48826184  1.0
  Zn  Zn3  1  0.00801921  0.40769013  0.01173808  1.0
  H  H4  1  0.44291192  0.78284707  0.43517346  1.0
  H  H5  1  0.21715251  0.55708785  0.06482715  1.0
  H  H6  1  0.55708957  0.21715385  0.56482519  1.0
  H  H7  1  0.78284733  0.44291030  0.93517413  1.0
  H  H8  1  0.48588543  0.64786380  0.38588957  1.0
  H  H9  1  0.35213637  0.51411509  0.11411044  1.0
  H  H10  1  0.51411453  0.35213781  0.61410926  1.0
  H  H11  1  0.64786300  0.48588444  0.88589066  1.0
  H  H12  1  0.77236570  0.61348592  0.35580737  1.0
  H  H13  1  0.38651338  0.22763401  0.14419144  1.0
  H  H14  1  0.22763561  0.38651361  0.64419204  1.0
  H  H15  1  0.61348599  0.77236552  0.85580665  1.0
  H  H16  1  0.72864813  0.74832176  0.40467548  1.0
  H  H17  1  0.25167786  0.27135147  0.09532318  1.0
  H  H18  1  0.27135230  0.25167847  0.59532354  1.0
  H  H19  1  0.74832128  0.72864875  0.90467480  1.0
  H  H20  1  0.74257923  0.39634995  0.30663094  1.0
  H  H21  1  0.60364780  0.25742090  0.19336778  1.0
  H  H22  1  0.25742103  0.60364890  0.69336797  1.0
  H  H23  1  0.39635045  0.74258001  0.80663198  1.0
  H  H24  1  0.84743685  0.37696562  0.20335136  1.0
  H  H25  1  0.62303371  0.15256319  0.29664711  1.0
  H  H26  1  0.15256293  0.62303460  0.79664736  1.0
  H  H27  1  0.37696519  0.84743772  0.70335251  1.0
  H  H28  1  0.79090014  0.66879563  0.15081360  1.0
  H  H29  1  0.33120424  0.20909971  0.34918676  1.0
  H  H30  1  0.20909964  0.33120459  0.84918641  1.0
  H  H31  1  0.66879425  0.79090051  0.65081308  1.0
  H  H32  1  0.68634797  0.68935662  0.25277239  1.0
  H  H33  1  0.31064295  0.31365119  0.24722724  1.0
  H  H34  1  0.31365117  0.31064360  0.74722732  1.0
  H  H35  1  0.68935595  0.68634972  0.75277195  1.0
  H  H36  1  0.28661906  0.90781067  0.59813768  1.0
  H  H37  1  0.09218793  0.71338259  0.90186343  1.0
  H  H38  1  0.71338232  0.09218679  0.40186429  1.0
  H  H39  1  0.90781161  0.28661832  0.09813735  1.0
  H  H40  1  0.13582367  0.89113891  0.60420418  1.0
  H  H41  1  0.10886137  0.86417661  0.89579507  1.0
  H  H42  1  0.86417740  0.10886131  0.39579600  1.0
  H  H43  1  0.89113882  0.13582431  0.10420342  1.0
  H  H44  1  0.11019118  0.10065566  0.43662003  1.0
  H  H45  1  0.89934542  0.88980836  0.06337922  1.0
  H  H46  1  0.88980860  0.89934456  0.56338084  1.0
  H  H47  1  0.10065672  0.11019256  0.93661887  1.0
  H  H48  1  0.26164482  0.10649386  0.43822154  1.0
  H  H49  1  0.89350536  0.73835550  0.06177845  1.0
  H  H50  1  0.73835632  0.89350430  0.56178034  1.0
  H  H51  1  0.10649660  0.26164403  0.93822255  1.0
  H  H52  1  0.99861364  0.94007567  0.56559408  1.0
  H  H53  1  0.05992309  0.00138711  0.93440713  1.0
  H  H54  1  0.00138702  0.05992387  0.43440718  1.0
  H  H55  1  0.94007516  0.99861380  0.06559262  1.0
  C  C56  1  0.55717028  0.85556800  0.45034722  1.0
  C  C57  1  0.14443196  0.44283066  0.04965223  1.0
  C  C58  1  0.44283103  0.14443154  0.54965218  1.0
  C  C59  1  0.85556758  0.55717025  0.95034726  1.0
  C  C60  1  0.58317856  0.77406749  0.42226250  1.0
  C  C61  1  0.22593203  0.41682130  0.07773733  1.0
  C  C62  1  0.41682211  0.22593205  0.57773704  1.0
  C  C63  1  0.77406711  0.58317893  0.92226238  1.0
  C  C64  1  0.51479548  0.74528491  0.41758120  1.0
  C  C65  1  0.25471417  0.48520524  0.08241981  1.0
  C  C66  1  0.48520584  0.25471463  0.58241864  1.0
  C  C67  1  0.74528585  0.51479429  0.91758115  1.0
  C  C68  1  0.53816961  0.67077961  0.39035191  1.0
  C  C69  1  0.32922015  0.46183043  0.10964787  1.0
  C  C70  1  0.46183130  0.32921924  0.60964816  1.0
  C  C71  1  0.67077946  0.53816842  0.89035289  1.0
  C  C72  1  0.63086682  0.62462531  0.36785240  1.0
  C  C73  1  0.37537378  0.36913326  0.13214759  1.0
  C  C74  1  0.36913385  0.37537423  0.63214671  1.0
  C  C75  1  0.62462471  0.63086696  0.86785355  1.0
  C  C76  1  0.70034475  0.65111026  0.37314933  1.0
  C  C77  1  0.34888993  0.29965468  0.12684929  1.0
  C  C78  1  0.29965551  0.34888858  0.62685087  1.0
  C  C79  1  0.65110986  0.70034555  0.87314986  1.0
  C  C80  1  0.67603438  0.72597368  0.40014160  1.0
  C  C81  1  0.27402635  0.32396567  0.09985730  1.0
  C  C82  1  0.32396694  0.27402586  0.59985780  1.0
  C  C83  1  0.72597432  0.67603386  0.90014181  1.0
  C  C84  1  0.71007853  0.54325803  0.28589406  1.0
  C  C85  1  0.45674040  0.28992140  0.21410574  1.0
  C  C86  1  0.28992149  0.45674151  0.71410518  1.0
  C  C87  1  0.54325850  0.71007951  0.78589431  1.0
  C  C88  1  0.75445124  0.45528432  0.27203567  1.0
  C  C89  1  0.54471399  0.24554811  0.22796393  1.0
  C  C90  1  0.24554813  0.54471522  0.72796414  1.0
  C  C91  1  0.45528491  0.75445280  0.77203613  1.0
  C  C92  1  0.81210629  0.44504099  0.21473675  1.0
  C  C93  1  0.55495825  0.18789326  0.28526265  1.0
  C  C94  1  0.18789373  0.55495854  0.78526292  1.0
  C  C95  1  0.44504065  0.81210765  0.71473740  1.0
  C  C96  1  0.82674127  0.52164987  0.17083367  1.0
  C  C97  1  0.47834883  0.17325884  0.32916612  1.0
  C  C98  1  0.17325899  0.47834898  0.82916610  1.0
  C  C99  1  0.52164983  0.82674276  0.67083341  1.0
  C  C100  1  0.78078256  0.60921120  0.18536886  1.0
  C  C101  1  0.39078799  0.21921631  0.31463100  1.0
  C  C102  1  0.21921657  0.39078902  0.81463042  1.0
  C  C103  1  0.60921027  0.78078460  0.68536918  1.0
  C  C104  1  0.72231869  0.62085159  0.24222718  1.0
  C  C105  1  0.37914712  0.27768079  0.25777262  1.0
  C  C106  1  0.27768092  0.37914725  0.75777272  1.0
  C  C107  1  0.62085178  0.72232012  0.74222700  1.0
  C  C108  1  0.88978463  0.51083446  0.10956418  1.0
  C  C109  1  0.48916666  0.11021450  0.39043579  1.0
  C  C110  1  0.11021492  0.48916645  0.89043531  1.0
  C  C111  1  0.51083312  0.88978573  0.60956422  1.0
  C  C112  1  0.24414442  0.94867061  0.56382264  1.0
  C  C113  1  0.05132931  0.75585596  0.93617842  1.0
  C  C114  1  0.75585712  0.05132824  0.43617902  1.0
  C  C115  1  0.94867112  0.24414426  0.06382189  1.0
  C  C116  1  0.16087400  0.94010099  0.56652845  1.0
  C  C117  1  0.05989954  0.83912618  0.93347206  1.0
  C  C118  1  0.83912507  0.05990130  0.43347301  1.0
  C  C119  1  0.94010218  0.16087405  0.06652755  1.0
  C  C120  1  0.11003333  0.99348203  0.52027940  1.0
  C  C121  1  0.00651839  0.88996734  0.97972140  1.0
  C  C122  1  0.88996669  0.00651750  0.47972200  1.0
  C  C123  1  0.99348310  0.11003358  0.02027812  1.0
  C  C124  1  0.14648015  0.05560361  0.47333975  1.0
  C  C125  1  0.94439728  0.85351980  0.02666036  1.0
  C  C126  1  0.85351981  0.94439800  0.52666166  1.0
  C  C127  1  0.05560444  0.14648043  0.97333924  1.0
  C  C128  1  0.22988592  0.06043196  0.47391151  1.0
  C  C129  1  0.93956785  0.77011417  0.02608841  1.0
  C  C130  1  0.77011410  0.93956757  0.52609032  1.0
  C  C131  1  0.06043412  0.22988537  0.97391173  1.0
  C  C132  1  0.02407793  0.98205456  0.52277467  1.0
  C  C133  1  0.01794533  0.97592408  0.97722549  1.0
  C  C134  1  0.97592474  0.01794291  0.47722575  1.0
  C  C135  1  0.98205615  0.02407684  0.02277446  1.0
  N  N136  1  0.27810169  0.00776782  0.51823165  1.0
  N  N137  1  0.99223131  0.72189889  0.98176835  1.0
  N  N138  1  0.72189881  0.99223033  0.48176993  1.0
  N  N139  1  0.00776912  0.27810133  0.01823153  1.0
  O  O140  1  0.47165753  0.89403762  0.47106855  1.0
  O  O141  1  0.10596115  0.52834299  0.02893117  1.0
  O  O142  1  0.52834338  0.10596123  0.52893065  1.0
  O  O143  1  0.89403775  0.47165792  0.97106845  1.0
  O  O144  1  0.62219099  0.88053370  0.45123558  1.0
  O  O145  1  0.11946727  0.37780946  0.04876379  1.0
  O  O146  1  0.37780986  0.11946722  0.54876321  1.0
  O  O147  1  0.88053316  0.62219077  0.95123565  1.0
  O  O148  1  0.65161675  0.54887099  0.34275254  1.0
  O  O149  1  0.45112862  0.34838224  0.15724761  1.0
  O  O150  1  0.34838327  0.45112854  0.65724713  1.0
  O  O151  1  0.54887164  0.65161660  0.84275302  1.0
  O  O152  1  0.92167694  0.43140288  0.09601033  1.0
  O  O153  1  0.56859751  0.07832284  0.40398928  1.0
  O  O154  1  0.07832260  0.56859803  0.90398872  1.0
  O  O155  1  0.43140204  0.92167808  0.59601064  1.0
  O  O156  1  0.90726656  0.58220360  0.07514506  1.0
  O  O157  1  0.41779716  0.09273275  0.42485448  1.0
  O  O158  1  0.09273234  0.41779731  0.92485499  1.0
  O  O159  1  0.58220263  0.90726747  0.57514510  1.0
