# generated using pymatgen
data_ZnSiH12C16(N2F3)2
_symmetry_space_group_name_H-M   'P 1'
_cell_length_a   7.82905337
_cell_length_b   9.26617116
_cell_length_c   9.26615173
_cell_angle_alpha   88.69310816
_cell_angle_beta   81.03755524
_cell_angle_gamma   81.03801507
_symmetry_Int_Tables_number   1
_chemical_formula_structural   ZnSiH12C16(N2F3)2
_chemical_formula_sum   'Zn1 Si1 H12 C16 N4 F6'
_cell_volume   655.90188265
_cell_formula_units_Z   1
loop_
 _symmetry_equiv_pos_site_id
 _symmetry_equiv_pos_as_xyz
  1  'x, y, z'
loop_
 _atom_site_type_symbol
 _atom_site_label
 _atom_site_symmetry_multiplicity
 _atom_site_fract_x
 _atom_site_fract_y
 _atom_site_fract_z
 _atom_site_occupancy
  Zn  Zn0  1  0.50000064  0.49999985  0.49999751  1.0
  Si  Si1  1  0.00000186  0.50000126  0.49999752  1.0
  H  H2  1  0.27454180  0.50119663  0.26313134  1.0
  H  H3  1  0.80941108  0.49915428  0.24512687  1.0
  H  H4  1  0.85904153  0.49865184  0.96992395  1.0
  H  H5  1  0.72546099  0.49880197  0.73685919  1.0
  H  H6  1  0.19059446  0.50084323  0.75487089  1.0
  H  H7  1  0.14096571  0.50134349  0.03007256  1.0
  H  H8  1  0.27454616  0.26313620  0.50117791  1.0
  H  H9  1  0.80941118  0.24512533  0.49913353  1.0
  H  H10  1  0.85903466  0.96992439  0.49866035  1.0
  H  H11  1  0.72544969  0.73686460  0.49882749  1.0
  H  H12  1  0.19058925  0.75487218  0.50085301  1.0
  H  H13  1  0.14096164  0.03007421  0.50133641  1.0
  C  C14  1  0.40184229  0.50071095  0.19597164  1.0
  C  C15  1  0.70236916  0.49943442  0.18275164  1.0
  C  C16  1  0.72890285  0.49918037  0.03238374  1.0
  C  C17  1  0.58420016  0.49956721  0.95811511  1.0
  C  C18  1  0.59815980  0.49928437  0.80402230  1.0
  C  C19  1  0.29763381  0.50056309  0.81724429  1.0
  C  C20  1  0.27110180  0.50081496  0.96761526  1.0
  C  C21  1  0.41580472  0.50042702  0.04187849  1.0
  C  C22  1  0.40184505  0.19597295  0.50069893  1.0
  C  C23  1  0.70237081  0.18275305  0.49942207  1.0
  C  C24  1  0.72889769  0.03238276  0.49918168  1.0
  C  C25  1  0.58419292  0.95811802  0.49957653  1.0
  C  C26  1  0.59815123  0.80402566  0.49930323  1.0
  C  C27  1  0.29762810  0.81724555  0.50056895  1.0
  C  C28  1  0.27109731  0.96761585  0.50081525  1.0
  C  C29  1  0.41580077  0.04188059  0.50042380  1.0
  N  N30  1  0.53961689  0.50009309  0.26338736  1.0
  N  N31  1  0.46038757  0.49990334  0.73660840  1.0
  N  N32  1  0.53961698  0.26338965  0.50007693  1.0
  N  N33  1  0.46038171  0.73661005  0.49991842  1.0
  F  F34  1  0.22319760  0.50582384  0.50582248  1.0
  F  F35  1  0.77680387  0.49417476  0.49417469  1.0
  F  F36  1  0.00000531  0.63126905  0.36872589  1.0
  F  F37  1  0.00000379  0.36873238  0.63126848  1.0
  F  F38  1  0.05678145  0.36865150  0.36864893  1.0
  F  F39  1  0.94321922  0.63135148  0.63134501  1.0
