# generated using pymatgen
data_Ni2H72W(C5N2)8
_symmetry_space_group_name_H-M   'P 1'
_cell_length_a   15.65015402
_cell_length_b   15.65068447
_cell_length_c   15.90651595
_cell_angle_alpha   111.83294208
_cell_angle_beta   106.53045576
_cell_angle_gamma   109.44054255
_symmetry_Int_Tables_number   1
_chemical_formula_structural   Ni2H72W(C5N2)8
_chemical_formula_sum   'Ni4 H144 W2 C80 N32'
_cell_volume   3016.68550187
_cell_formula_units_Z   2
loop_
 _symmetry_equiv_pos_site_id
 _symmetry_equiv_pos_as_xyz
  1  'x, y, z'
loop_
 _atom_site_type_symbol
 _atom_site_label
 _atom_site_symmetry_multiplicity
 _atom_site_fract_x
 _atom_site_fract_y
 _atom_site_fract_z
 _atom_site_occupancy
  Ni  Ni0  1  0.00000093  0.50000176  0.00000172  1.0
  Ni  Ni1  1  0.49999749  0.49999877  0.49999938  1.0
  Ni  Ni2  1  0.00000110  0.50000022  0.50000255  1.0
  Ni  Ni3  1  0.99999874  0.99999874  0.99999874  1.0
  H  H4  1  0.01188804  0.44632477  0.77203466  1.0
  H  H5  1  0.67431649  0.73983949  0.72797516  1.0
  H  H6  1  0.98811477  0.55367832  0.22796583  1.0
  H  H7  1  0.32568297  0.26015558  0.27202269  1.0
  H  H8  1  0.06764012  0.36501366  0.74785964  1.0
  H  H9  1  0.61719021  0.81976918  0.75215114  1.0
  H  H10  1  0.93236302  0.63498795  0.25214167  1.0
  H  H11  1  0.38281594  0.18023151  0.24785310  1.0
  H  H12  1  0.00233267  0.30251338  0.86027479  1.0
  H  H13  1  0.44225612  0.64207845  0.63974033  1.0
  H  H14  1  0.99766979  0.69748962  0.13972790  1.0
  H  H15  1  0.55774433  0.35792387  0.36026321  1.0
  H  H16  1  0.14288840  0.74373943  0.10603060  1.0
  H  H17  1  0.63772571  0.53682773  0.39397588  1.0
  H  H18  1  0.85711367  0.25626180  0.89397034  1.0
  H  H19  1  0.36227155  0.46317347  0.60602653  1.0
  H  H20  1  0.23959287  0.76897031  0.21916996  1.0
  H  H21  1  0.54983694  0.52041763  0.28084362  1.0
  H  H22  1  0.76040883  0.23103200  0.78083051  1.0
  H  H23  1  0.45016111  0.47958225  0.71915899  1.0
  H  H24  1  0.24164810  0.60557331  0.11516573  1.0
  H  H25  1  0.49047073  0.62650763  0.38485009  1.0
  H  H26  1  0.75835149  0.39442710  0.88483666  1.0
  H  H27  1  0.50952752  0.37349313  0.61515341  1.0
  H  H28  1  0.27814738  0.70070153  0.07790616  1.0
  H  H29  1  0.62286990  0.70023805  0.42212482  1.0
  H  H30  1  0.72185679  0.29930005  0.92209589  1.0
  H  H31  1  0.37712822  0.29976264  0.57787708  1.0
  H  H32  1  0.20598570  0.38309730  0.88942720  1.0
  H  H33  1  0.49371866  0.81656781  0.61059021  1.0
  H  H34  1  0.79401826  0.61690582  0.11057562  1.0
  H  H35  1  0.50628577  0.18343673  0.38941632  1.0
  H  H36  1  0.16143492  0.40699315  0.98255223  1.0
  H  H37  1  0.42448169  0.67889963  0.51745850  1.0
  H  H38  1  0.83856644  0.59300907  0.01745044  1.0
  H  H39  1  0.57552124  0.32110352  0.48254358  1.0
  H  H40  1  0.28098399  0.50237108  0.00956048  1.0
  H  H41  1  0.49286863  0.77143410  0.49045890  1.0
  H  H42  1  0.71901806  0.49763259  0.99044210  1.0
  H  H43  1  0.50713600  0.22857133  0.50954851  1.0
  H  H44  1  0.18302061  0.59387768  0.83739803  1.0
  H  H45  1  0.75651942  0.84559387  0.66261320  1.0
  H  H46  1  0.81698062  0.40612447  0.16260305  1.0
  H  H47  1  0.24348441  0.15440520  0.33738940  1.0
  H  H48  1  0.23486705  0.50630924  0.81651991  1.0
  H  H49  1  0.68985352  0.91833799  0.68349600  1.0
  H  H50  1  0.76513477  0.49369313  0.18348216  1.0
  H  H51  1  0.31015249  0.08166507  0.31650829  1.0
  H  H52  1  0.29312949  0.62111270  0.93849757  1.0
  H  H53  1  0.68268078  0.85462347  0.56151969  1.0
  H  H54  1  0.70687005  0.37888845  0.06150250  1.0
  H  H55  1  0.31732454  0.14537814  0.43848469  1.0
  H  H56  1  0.83720271  0.16110060  0.70017287  1.0
  H  H57  1  0.46094732  0.63704299  0.79983878  1.0
  H  H58  1  0.16279927  0.83890225  0.29983043  1.0
  H  H59  1  0.53905450  0.36295782  0.20016631  1.0
  H  H60  1  0.94052611  0.19327980  0.67118444  1.0
  H  H61  1  0.52213235  0.76934799  0.82883189  1.0
  H  H62  1  0.05947514  0.80672120  0.32881931  1.0
  H  H63  1  0.47787269  0.23065435  0.17117398  1.0
  H  H64  1  0.85436799  0.24300381  0.64676441  1.0
  H  H65  1  0.59625987  0.70759953  0.85324206  1.0
  H  H66  1  0.14563314  0.75699712  0.35323774  1.0
  H  H67  1  0.40374375  0.29240108  0.14676131  1.0
  H  H68  1  0.87612804  0.24061821  0.29437597  1.0
  H  H69  1  0.94621102  0.08176061  0.20560241  1.0
  H  H70  1  0.12387604  0.75938128  0.70562247  1.0
  H  H71  1  0.05378785  0.91823823  0.79439307  1.0
  H  H72  1  0.77736840  0.15762336  0.30498814  1.0
  H  H73  1  0.85260221  0.97240969  0.19499822  1.0
  H  H74  1  0.22263585  0.84237661  0.69501154  1.0
  H  H75  1  0.14739438  0.02758920  0.80499959  1.0
  H  H76  1  0.88534786  0.30242401  0.50447483  1.0
  H  H77  1  0.79795636  0.88088368  0.99550899  1.0
  H  H78  1  0.11465459  0.69757373  0.49552492  1.0
  H  H79  1  0.20204029  0.11911602  0.00448811  1.0
  H  H80  1  0.93506149  0.58879988  0.36260157  1.0
  H  H81  1  0.22618493  0.07242547  0.13740113  1.0
  H  H82  1  0.06494220  0.41120154  0.63740109  1.0
  H  H83  1  0.77381357  0.92757445  0.86259388  1.0
  H  H84  1  0.87556614  0.65276430  0.42235623  1.0
  H  H85  1  0.23038397  0.95317858  0.07764798  1.0
  H  H86  1  0.12443836  0.34723579  0.57764664  1.0
  H  H87  1  0.76961572  0.04682177  0.92234900  1.0
  H  H88  1  0.79190824  0.49798611  0.44116658  1.0
  H  H89  1  0.05678048  0.85073324  0.05883692  1.0
  H  H90  1  0.20809625  0.50201399  0.55883629  1.0
  H  H91  1  0.94322054  0.14926519  0.94116198  1.0
  H  H92  1  0.75160667  0.46462337  0.31145317  1.0
  H  H93  1  0.15314137  0.94014136  0.18855119  1.0
  H  H94  1  0.24839593  0.53537727  0.68854947  1.0
  H  H95  1  0.84686106  0.05986280  0.81144883  1.0
  H  H96  1  0.64387684  0.16681082  0.19178885  1.0
  H  H97  1  0.97500219  0.95216210  0.30824098  1.0
  H  H98  1  0.35612618  0.83318829  0.80820922  1.0
  H  H99  1  0.02499413  0.04783382  0.69175234  1.0
  H  H100  1  0.74221357  0.24059606  0.17174830  1.0
  H  H101  1  0.06882726  0.07050236  0.32825163  1.0
  H  H102  1  0.25779005  0.75940328  0.82825075  1.0
  H  H103  1  0.93116955  0.92949256  0.67174376  1.0
  H  H104  1  0.66229060  0.29041224  0.20648320  1.0
  H  H105  1  0.08391155  0.95585955  0.29355186  1.0
  H  H106  1  0.33771282  0.70958621  0.79351498  1.0
  H  H107  1  0.91608270  0.04413244  0.70644137  1.0
  H  H108  1  0.77033889  0.34504678  0.47752611  1.0
  H  H109  1  0.86751441  0.79283053  0.02250278  1.0
  H  H110  1  0.22966323  0.65495244  0.52247281  1.0
  H  H111  1  0.13248067  0.20716697  0.97749058  1.0
  H  H112  1  0.66981930  0.21944660  0.37098670  1.0
  H  H113  1  0.84843201  0.79887935  0.12903400  1.0
  H  H114  1  0.33018346  0.78055082  0.62901121  1.0
  H  H115  1  0.15156216  0.20111825  0.87096023  1.0
  H  H116  1  0.67105558  0.33618535  0.38124580  1.0
  H  H117  1  0.95491994  0.78984847  0.11881116  1.0
  H  H118  1  0.32894508  0.66381173  0.61875099  1.0
  H  H119  1  0.04507571  0.21014641  0.88118190  1.0
  H  H120  1  0.95252751  0.15013101  0.39398123  1.0
  H  H121  1  0.75610344  0.05853119  0.10597218  1.0
  H  H122  1  0.04747462  0.84986578  0.60601604  1.0
  H  H123  1  0.24389757  0.94147123  0.89402535  1.0
  H  H124  1  0.84851361  0.11529432  0.42341027  1.0
  H  H125  1  0.69183539  0.92507464  0.07652566  1.0
  H  H126  1  0.15148685  0.88470430  0.57658729  1.0
  H  H127  1  0.30816252  0.07492633  0.92347270  1.0
  H  H128  1  0.97590817  0.20040367  0.52337515  1.0
  H  H129  1  0.67700553  0.95251466  0.97656499  1.0
  H  H130  1  0.02409391  0.79959514  0.47662414  1.0
  H  H131  1  0.32299502  0.04748761  0.02343315  1.0
  H  H132  1  0.10321717  0.60289886  0.94334176  1.0
  H  H133  1  0.65958029  0.65985198  0.55667294  1.0
  H  H134  1  0.89678613  0.39710322  0.05666079  1.0
  H  H135  1  0.34041663  0.34014544  0.44332569  1.0
  H  H136  1  0.87223920  0.38981166  0.80418812  1.0
  H  H137  1  0.58560783  0.56802234  0.69580793  1.0
  H  H138  1  0.12776475  0.61019146  0.19581470  1.0
  H  H139  1  0.41439340  0.43197582  0.30419453  1.0
  H  H140  1  0.88033473  0.40769433  0.31578170  1.0
  H  H141  1  0.09191436  0.06456736  0.18422535  1.0
  H  H142  1  0.11967078  0.59230816  0.68422356  1.0
  H  H143  1  0.90808101  0.93543068  0.81577085  1.0
  H  H144  1  0.03558327  0.34276355  0.42889312  1.0
  H  H145  1  0.91388115  0.10670370  0.07111012  1.0
  H  H146  1  0.96442129  0.65723979  0.57111069  1.0
  H  H147  1  0.08612041  0.89329571  0.92888746  1.0
  W  W148  1  0.14465852  0.39465416  0.25000124  1.0
  W  W149  1  0.85533494  0.60534044  0.74999610  1.0
  C  C150  1  0.07902471  0.40303741  0.11913203  1.0
  C  C151  1  0.28392699  0.45991970  0.38086718  1.0
  C  C152  1  0.92096414  0.59695832  0.88086030  1.0
  C  C153  1  0.71606930  0.54007338  0.61912486  1.0
  C  C154  1  0.09271781  0.46955355  0.34886875  1.0
  C  C155  1  0.12067508  0.24383805  0.15112474  1.0
  C  C156  1  0.90728031  0.53044187  0.65113021  1.0
  C  C157  1  0.87932063  0.75616135  0.84887357  1.0
  C  C158  1  0.97982338  0.29905191  0.17568066  1.0
  C  C159  1  0.12342867  0.30417673  0.32435747  1.0
  C  C160  1  0.02016895  0.70093907  0.82431537  1.0
  C  C161  1  0.87656863  0.69581719  0.67563998  1.0
  C  C162  1  0.21861302  0.56115218  0.30081466  1.0
  C  C163  1  0.26033133  0.41777878  0.19916070  1.0
  C  C164  1  0.78138388  0.43884240  0.69918268  1.0
  C  C165  1  0.73966260  0.58221071  0.80083309  1.0
  C  C166  1  0.14944976  0.49318609  0.90214308  1.0
  C  C167  1  0.59107894  0.74730364  0.59787074  1.0
  C  C168  1  0.85055187  0.50681540  0.09785810  1.0
  C  C169  1  0.40892208  0.25269607  0.40213249  1.0
  C  C170  1  0.04704573  0.40759670  0.80397513  1.0
  C  C171  1  0.60365602  0.74306608  0.69603685  1.0
  C  C172  1  0.95295706  0.59240483  0.19602839  1.0
  C  C173  1  0.39634977  0.25693568  0.30396692  1.0
  C  C174  1  0.96482126  0.32338671  0.80749660  1.0
  C  C175  1  0.51591673  0.65732600  0.69251657  1.0
  C  C176  1  0.03518099  0.67661783  0.19250687  1.0
  C  C177  1  0.48408329  0.34267258  0.30748859  1.0
  C  C178  1  0.17496648  0.70655737  0.14276624  1.0
  C  C179  1  0.56382195  0.53219741  0.35724707  1.0
  C  C180  1  0.82503463  0.29344472  0.85723324  1.0
  C  C181  1  0.43617922  0.46780393  0.64275473  1.0
  C  C182  1  0.21359483  0.64521282  0.07925800  1.0
  C  C183  1  0.56600376  0.63434022  0.42076594  1.0
  C  C184  1  0.78640389  0.35478809  0.92074489  1.0
  C  C185  1  0.43399358  0.36565937  0.57923410  1.0
  C  C186  1  0.20211652  0.44375971  0.94908863  1.0
  C  C187  1  0.49471885  0.75304232  0.55092891  1.0
  C  C188  1  0.79788686  0.55624603  0.05091450  1.0
  C  C189  1  0.50528600  0.24696313  0.44907470  1.0
  C  C190  1  0.21910083  0.55757207  0.87177247  1.0
  C  C191  1  0.68585912  0.84732379  0.62824207  1.0
  C  C192  1  0.78089706  0.44242606  0.12822459  1.0
  C  C193  1  0.31414501  0.15267738  0.37176033  1.0
  C  C194  1  0.89502859  0.22441893  0.70010428  1.0
  C  C195  1  0.52433305  0.69493004  0.79990812  1.0
  C  C196  1  0.10497254  0.77558200  0.29989788  1.0
  C  C197  1  0.47566919  0.30506924  0.20009241  1.0
  C  C198  1  0.77839504  0.30200029  0.33279387  1.0
  C  C199  1  0.96919927  0.94562646  0.16722282  1.0
  C  C200  1  0.22160763  0.69799874  0.66720640  1.0
  C  C201  1  0.03079704  0.05436946  0.83277051  1.0
  C  C202  1  0.83654517  0.24051510  0.34175282  1.0
  C  C203  1  0.89872325  0.99481748  0.15822793  1.0
  C  C204  1  0.16345990  0.75948637  0.65824837  1.0
  C  C205  1  0.10127749  0.00518198  0.84176511  1.0
  C  C206  1  0.91264387  0.27387701  0.44893854  1.0
  C  C207  1  0.82493105  0.96371113  0.05104304  1.0
  C  C208  1  0.08735624  0.72612152  0.55106123  1.0
  C  C209  1  0.17506487  0.03628546  0.94895017  1.0
  C  C210  1  0.90461676  0.59677848  0.41769188  1.0
  C  C211  1  0.17907316  0.98689599  0.08232257  1.0
  C  C212  1  0.09538770  0.40322121  0.58231135  1.0
  C  C213  1  0.82092494  0.01310458  0.91767234  1.0
  C  C214  1  0.81714335  0.48986611  0.38222449  1.0
  C  C215  1  0.10760133  0.93489788  0.11777231  1.0
  C  C216  1  0.18286130  0.51013446  0.61777962  1.0
  C  C217  1  0.89240120  0.06510594  0.88222967  1.0
  C  C218  1  0.70238534  0.24701017  0.21877411  1.0
  C  C219  1  0.02822718  0.98365480  0.28125956  1.0
  C  C220  1  0.29761483  0.75298791  0.78122062  1.0
  C  C221  1  0.97176856  0.01633974  0.71873545  1.0
  C  C222  1  0.72002656  0.30150286  0.39501960  1.0
  C  C223  1  0.90646118  0.82502275  0.10500583  1.0
  C  C224  1  0.27997564  0.69849474  0.60497696  1.0
  C  C225  1  0.09353426  0.17497610  0.89498965  1.0
  C  C226  1  0.92347920  0.17950918  0.44737153  1.0
  C  C227  1  0.73212666  0.97609249  0.05257276  1.0
  C  C228  1  0.07652488  0.82049401  0.55263289  1.0
  C  C229  1  0.26787235  0.02390798  0.94742129  1.0
  N  N230  1  0.04768627  0.41457747  0.04985986  1.0
  N  N231  1  0.36475008  0.49787902  0.45014047  1.0
  N  N232  1  0.95231458  0.58542419  0.95014378  1.0
  N  N233  1  0.63524486  0.50211812  0.54985865  1.0
  N  N234  1  0.05968165  0.50277027  0.40331699  1.0
  N  N235  1  0.09944069  0.15636137  0.09667527  1.0
  N  N236  1  0.94031997  0.49722966  0.59668723  1.0
  N  N237  1  0.90055383  0.84363232  0.90331812  1.0
  N  N238  1  0.88976438  0.24877261  0.13321057  1.0
  N  N239  1  0.11563477  0.25660341  0.36683884  1.0
  N  N240  1  0.11023332  0.75122192  0.86679131  1.0
  N  N241  1  0.88437229  0.74339718  0.63316454  1.0
  N  N242  1  0.25769377  0.65162867  0.32817351  1.0
  N  N243  1  0.32346531  0.42951589  0.17181963  1.0
  N  N244  1  0.74230187  0.34836466  0.67182258  1.0
  N  N245  1  0.67652447  0.57047089  0.82816992  1.0
  N  N246  1  0.12774313  0.56427294  0.97578589  1.0
  N  N247  1  0.58852334  0.65194781  0.52422286  1.0
  N  N248  1  0.87225798  0.43572914  0.02421360  1.0
  N  N249  1  0.41147854  0.34805381  0.47578151  1.0
  N  N250  1  0.90712231  0.36756461  0.85097761  1.0
  N  N251  1  0.51657554  0.55613902  0.64902074  1.0
  N  N252  1  0.09287959  0.63243858  0.14902374  1.0
  N  N253  1  0.48341824  0.44386052  0.35097770  1.0
  N  N254  1  0.85417718  0.41291300  0.36876222  1.0
  N  N255  1  0.04413155  0.98539964  0.13123033  1.0
  N  N256  1  0.14582668  0.58708519  0.63123571  1.0
  N  N257  1  0.95586492  0.01459675  0.86876423  1.0
  N  N258  1  0.01155418  0.36514990  0.48315151  1.0
  N  N259  1  0.88200223  0.02840897  0.01685575  1.0
  N  N260  1  0.98844885  0.63485049  0.51685087  1.0
  N  N261  1  0.11799470  0.97158601  0.98314123  1.0
