# generated using pymatgen
data_Zn6H31C40S3ClO33
_symmetry_space_group_name_H-M   'P 1'
_cell_length_a   18.67236489
_cell_length_b   18.76243103
_cell_length_c   18.81675779
_cell_angle_alpha   110.01792014
_cell_angle_beta   108.80271335
_cell_angle_gamma   109.00743338
_symmetry_Int_Tables_number   1
_chemical_formula_structural   Zn6H31C40S3ClO33
_chemical_formula_sum   'Zn6 H31 C40 S3 Cl1 O33'
_cell_volume   5110.56052842
_cell_formula_units_Z   1
loop_
 _symmetry_equiv_pos_site_id
 _symmetry_equiv_pos_as_xyz
  1  'x, y, z'
loop_
 _atom_site_type_symbol
 _atom_site_label
 _atom_site_symmetry_multiplicity
 _atom_site_fract_x
 _atom_site_fract_y
 _atom_site_fract_z
 _atom_site_occupancy
  Zn  Zn0  1  0.07979176  0.50666843  0.08902394  1.0
  Zn  Zn1  1  0.95587774  0.49741260  0.95553384  1.0
  Zn  Zn2  1  0.93042981  0.93875420  0.48417741  1.0
  Zn  Zn3  1  0.05747274  0.06190115  0.48508658  1.0
  Zn  Zn4  1  0.48291557  0.05310405  0.05033729  1.0
  Zn  Zn5  1  0.47605122  0.92907505  0.91727465  1.0
  H  H6  1  0.02431148  0.64904648  0.25308564  1.0
  H  H7  1  0.92547172  0.84733781  0.19702780  1.0
  H  H8  1  0.10859066  0.79838520  0.17205978  1.0
  H  H9  1  0.08947157  0.90926363  0.25546296  1.0
  H  H10  1  0.71091819  0.12608179  0.94646380  1.0
  H  H11  1  0.76100584  0.32128232  0.95984357  1.0
  H  H12  1  0.89200182  0.13613415  0.62851816  1.0
  H  H13  1  0.08314629  0.27531594  0.71260754  1.0
  H  H14  1  0.90379852  0.28867176  0.71998164  1.0
  H  H15  1  0.91629072  0.62937807  0.20411178  1.0
  H  H16  1  0.26573488  0.67410539  0.85907200  1.0
  H  H17  1  0.31949199  0.81101888  0.04214840  1.0
  H  H18  1  0.14079317  0.59630435  0.88149323  1.0
  H  H19  1  0.29024924  0.68364972  0.06733092  1.0
  H  H20  1  0.21876191  0.87052818  0.75508471  1.0
  H  H21  1  0.26580884  0.06060690  0.86517313  1.0
  H  H22  1  0.07563910  0.86002691  0.66516226  1.0
  H  H23  1  0.20950248  0.03832463  0.70801948  1.0
  H  H24  1  0.70908432  0.12772277  0.29191872  1.0
  H  H25  1  0.96028965  0.74577776  0.33802208  1.0
  H  H26  1  0.69591375  0.96997276  0.15184640  1.0
  H  H27  1  0.72142726  0.94311989  0.28684822  1.0
  H  H28  1  0.07169831  0.78366208  0.37034925  1.0
  H  H29  1  0.13903045  0.77114060  0.25395384  1.0
  H  H30  1  0.15189699  0.90339474  0.34391280  1.0
  H  H31  1  0.94827187  0.75808648  0.09401820  1.0
  H  H32  1  0.86779964  0.67092914  0.08794123  1.0
  H  H33  1  0.87269124  0.76262156  0.21396154  1.0
  H  H34  1  0.91720610  0.42791394  0.26067635  1.0
  H  H35  1  0.98954724  0.18715195  0.92944111  1.0
  H  H36  1  0.86928403  0.24541373  0.32877656  1.0
  C  C37  1  0.92448134  0.40161489  0.06104949  1.0
  C  C38  1  0.01274357  0.83356856  0.29469823  1.0
  C  C39  1  0.09174937  0.86518760  0.28133300  1.0
  C  C40  1  0.92967496  0.79465003  0.20815351  1.0
  C  C41  1  0.69436316  0.23378844  0.99715008  1.0
  C  C42  1  0.66947207  0.14859924  0.96524087  1.0
  C  C43  1  0.77235697  0.29842914  0.00666224  1.0
  C  C44  1  0.85614086  0.33719137  0.06703268  1.0
  C  C45  1  0.95122313  0.19839374  0.67716938  1.0
  C  C46  1  0.02324650  0.21305276  0.67018511  1.0
  C  C47  1  0.94504356  0.26204214  0.74219490  1.0
  C  C48  1  0.99766473  0.62935847  0.10190096  1.0
  C  C49  1  0.98502779  0.29301456  0.82838613  1.0
  C  C50  1  0.26800604  0.69908267  0.92194744  1.0
  C  C51  1  0.32190160  0.78385333  0.98215078  1.0
  C  C52  1  0.20654202  0.64251228  0.93601520  1.0
  C  C53  1  0.22448977  0.64491860  0.01247643  1.0
  C  C54  1  0.07816984  0.97370257  0.60337698  1.0
  C  C55  1  0.01445196  0.90523793  0.36582633  1.0
  C  C56  1  0.85446786  0.98795496  0.38003542  1.0
  C  C57  1  0.02217475  0.14356130  0.60142400  1.0
  C  C58  1  0.35003849  0.00669965  0.90386565  1.0
  C  C59  1  0.15601468  0.59342932  0.02513446  1.0
  C  C60  1  0.59164251  0.08189338  0.95509124  1.0
  C  C61  1  0.60699611  0.01947615  0.11825599  1.0
  C  C62  1  0.37969344  0.84914257  0.97101076  1.0
  C  C63  1  0.21156153  0.92860372  0.76814635  1.0
  C  C64  1  0.27241038  0.00234376  0.84391795  1.0
  C  C65  1  0.13773244  0.92029064  0.70127877  1.0
  C  C66  1  0.14625991  0.98108978  0.67717134  1.0
  C  C67  1  0.72398080  0.07619059  0.26588239  1.0
  C  C68  1  0.67893169  0.01874411  0.18043867  1.0
  C  C69  1  0.79553339  0.07344037  0.32438223  1.0
  C  C70  1  0.98322516  0.36742269  0.88933907  1.0
  C  C71  1  0.78632948  0.99985563  0.32631830  1.0
  C  C72  1  0.98487710  0.67890302  0.23553639  1.0
  C  C73  1  0.00825660  0.76024058  0.31609886  1.0
  C  C74  1  0.09125378  0.78555980  0.21871485  1.0
  C  C75  1  0.93185888  0.72941016  0.13247013  1.0
  C  C76  1  0.99989650  0.70445577  0.16942338  1.0
  S  S77  1  0.89059022  0.31546497  0.15386678  1.0
  S  S78  1  0.05017646  0.25235661  0.87596141  1.0
  S  S79  1  0.89693533  0.17548872  0.39332693  1.0
  Cl  Cl80  1  0.63406310  0.28085776  0.02264141  1.0
  O  O81  1  0.00406020  0.42984677  0.11314644  1.0
  O  O82  1  0.10548888  0.02261352  0.57431562  1.0
  O  O83  1  0.96015359  0.88159787  0.39110729  1.0
  O  O84  1  0.06924016  0.98504030  0.39549208  1.0
  O  O85  1  0.82737735  0.93060180  0.40191307  1.0
  O  O86  1  0.93207178  0.03292102  0.39932824  1.0
  O  O87  1  0.96568348  0.06548054  0.57086399  1.0
  O  O88  1  0.07924272  0.16684591  0.57757677  1.0
  O  O89  1  0.38673009  0.06361057  0.98498022  1.0
  O  O90  1  0.37601632  0.95519145  0.87220832  1.0
  O  O91  1  0.55992042  0.10613116  0.00286271  1.0
  O  O92  1  0.89714232  0.42204785  0.00438324  1.0
  O  O93  1  0.56279267  0.00191929  0.89941594  1.0
  O  O94  1  0.58057956  0.07269197  0.14790830  1.0
  O  O95  1  0.57652202  0.96658750  0.03873596  1.0
  O  O96  1  0.40637220  0.92798755  0.02425402  1.0
  O  O97  1  0.39877795  0.82423649  0.91004457  1.0
  O  O98  1  0.04934651  0.60321715  0.13057187  1.0
  O  O99  1  0.94487303  0.59553062  0.02078868  1.0
  O  O100  1  0.18109223  0.57974927  0.08934199  1.0
  O  O101  1  0.07744482  0.56706392  0.97316434  1.0
  O  O102  1  0.03633019  0.40292187  0.96880091  1.0
  O  O103  1  0.92989696  0.39185191  0.85731998  1.0
  O  O104  1  0.99746155  0.91980008  0.57243252  1.0
  O  O105  1  0.81768524  0.27531976  0.16486779  1.0
  O  O106  1  0.94494381  0.27799359  0.14519401  1.0
  O  O107  1  0.95280202  0.41326527  0.23618711  1.0
  O  O108  1  0.01876795  0.16338662  0.81398896  1.0
  O  O109  1  0.13965939  0.31704437  0.91952007  1.0
  O  O110  1  0.02414084  0.24890569  0.94942753  1.0
  O  O111  1  0.92210107  0.20026060  0.48221343  1.0
  O  O112  1  0.95460182  0.17433148  0.35809053  1.0
  O  O113  1  0.86414758  0.24178238  0.37784979  1.0
