# generated using pymatgen
data_Zn4H9C28S2ClO13F4
_symmetry_space_group_name_H-M   'P 1'
_cell_length_a   18.56878350
_cell_length_b   19.73684677
_cell_length_c   32.85178988
_cell_angle_alpha   86.05951877
_cell_angle_beta   73.58855934
_cell_angle_gamma   61.94477591
_symmetry_Int_Tables_number   1
_chemical_formula_structural   Zn4H9C28S2ClO13F4
_chemical_formula_sum   'Zn16 H36 C112 S8 Cl4 O52 F16'
_cell_volume   10162.87524529
_cell_formula_units_Z   4
loop_
 _symmetry_equiv_pos_site_id
 _symmetry_equiv_pos_as_xyz
  1  'x, y, z'
loop_
 _atom_site_type_symbol
 _atom_site_label
 _atom_site_symmetry_multiplicity
 _atom_site_fract_x
 _atom_site_fract_y
 _atom_site_fract_z
 _atom_site_occupancy
  Zn  Zn0  1  0.87429586  0.55574630  0.51870837  1.0
  Zn  Zn1  1  0.03824202  0.48533248  0.43838083  1.0
  Zn  Zn2  1  0.04176086  0.39809386  0.52354084  1.0
  Zn  Zn3  1  0.04683585  0.56003878  0.51846156  1.0
  Zn  Zn4  1  0.62508476  0.19048106  0.73198684  1.0
  Zn  Zn5  1  0.46495101  0.34966829  0.72561312  1.0
  Zn  Zn6  1  0.45830284  0.26560194  0.81264912  1.0
  Zn  Zn7  1  0.45221060  0.19298977  0.72947131  1.0
  Zn  Zn8  1  0.46196221  0.76359222  0.31307529  1.0
  Zn  Zn9  1  0.45322845  0.69292589  0.23089345  1.0
  Zn  Zn10  1  0.62530741  0.69264676  0.22922523  1.0
  Zn  Zn11  1  0.45884573  0.85145118  0.22615551  1.0
  Zn  Zn12  1  0.03618042  0.89893134  0.02385893  1.0
  Zn  Zn13  1  0.04979364  0.05727666  0.01903993  1.0
  Zn  Zn14  1  0.87633320  0.05873766  0.01963655  1.0
  Zn  Zn15  1  0.03623644  0.98514955  0.93751139  1.0
  H  H16  1  0.80297828  0.96632768  0.65549829  1.0
  H  H17  1  0.31136107  0.97582334  0.40161115  1.0
  H  H18  1  0.54301441  0.48227009  0.62175915  1.0
  H  H19  1  0.54816423  0.52251071  0.66708209  1.0
  H  H20  1  0.64423109  0.57067520  0.61898135  1.0
  H  H21  1  0.63901636  0.53044826  0.57363744  1.0
  H  H22  1  0.35299947  0.67389869  0.43100255  1.0
  H  H23  1  0.26228944  0.76213323  0.42843482  1.0
  H  H24  1  0.16602644  0.71407197  0.47637794  1.0
  H  H25  1  0.25660558  0.62584086  0.47894236  1.0
  H  H26  1  0.54726439  0.76229248  0.42816412  1.0
  H  H27  1  0.54228699  0.67404315  0.43059109  1.0
  H  H28  1  0.63840598  0.62588097  0.47864215  1.0
  H  H29  1  0.64353256  0.71404098  0.47619826  1.0
  H  H30  1  0.33371889  0.17930107  0.63110726  1.0
  H  H31  1  0.24313552  0.21943540  0.67648695  1.0
  H  H32  1  0.14684642  0.26753290  0.62840277  1.0
  H  H33  1  0.23757468  0.22735628  0.58307394  1.0
  H  H34  1  0.18890566  0.65978056  0.96263630  1.0
  H  H35  1  0.95710870  0.07645842  0.81942327  1.0
  H  H36  1  0.95195227  0.98836161  0.82198655  1.0
  H  H37  1  0.85593101  0.03624134  0.77392577  1.0
  H  H38  1  0.86083634  0.12448916  0.77134355  1.0
  H  H39  1  0.16626583  0.21370068  0.97599733  1.0
  H  H40  1  0.25701340  0.12556234  0.97857657  1.0
  H  H41  1  0.35306371  0.17366155  0.93043804  1.0
  H  H42  1  0.26233122  0.26175026  0.92793463  1.0
  H  H43  1  0.92634643  0.28348723  0.09451549  1.0
  H  H44  1  0.25682057  0.03110714  0.07344132  1.0
  H  H45  1  0.16597133  0.07142251  0.11877346  1.0
  H  H46  1  0.26194241  0.02325103  0.16690574  1.0
  H  H47  1  0.35272384  0.98301801  0.12162152  1.0
  H  H48  1  0.95196492  0.72689621  0.08315756  1.0
  H  H49  1  0.95716652  0.76713223  0.12848034  1.0
  H  H50  1  0.86082866  0.71926872  0.17656848  1.0
  H  H51  1  0.85581872  0.67888649  0.13124514  1.0
  C  C52  1  0.86228907  0.56816085  0.43109124  1.0
  C  C53  1  0.12334816  0.31585359  0.43857119  1.0
  C  C54  1  0.86338704  0.43026068  0.56848074  1.0
  C  C55  1  0.13807260  0.43206563  0.56842152  1.0
  C  C56  1  0.87605757  0.68383431  0.56079931  1.0
  C  C57  1  0.13740911  0.56921443  0.43100772  1.0
  C  C58  1  0.63908428  0.31741371  0.68129763  1.0
  C  C59  1  0.37750533  0.43419077  0.81087741  1.0
  C  C60  1  0.63639006  0.18122662  0.81927844  1.0
  C  C61  1  0.36172559  0.18129435  0.81824366  1.0
  C  C62  1  0.62335428  0.06551224  0.68850768  1.0
  C  C63  1  0.36346655  0.31911016  0.68068082  1.0
  C  C64  1  0.36291799  0.68115599  0.31895900  1.0
  C  C65  1  0.62256403  0.56623455  0.18829690  1.0
  C  C66  1  0.63757807  0.68119602  0.31848735  1.0
  C  C67  1  0.63643369  0.81938123  0.18082821  1.0
  C  C68  1  0.37664115  0.93356582  0.31187279  1.0
  C  C69  1  0.36186837  0.81871113  0.18115529  1.0
  C  C70  1  0.13719279  0.93098283  0.06862049  1.0
  C  C71  1  0.87914329  0.18431216  0.06140258  1.0
  C  C72  1  0.86179706  0.93159509  0.06878281  1.0
  C  C73  1  0.86175635  0.06925616  0.93145275  1.0
  C  C74  1  0.12148616  0.81548147  0.93878370  1.0
  C  C75  1  0.13724537  0.06848204  0.93108189  1.0
  C  C76  1  0.73690208  0.80269043  0.60084243  1.0
  C  C77  1  0.76041085  0.94754420  0.64926119  1.0
  C  C78  1  0.82500250  0.75832463  0.58596554  1.0
  C  C79  1  0.67268711  0.99061307  0.66356924  1.0
  C  C80  1  0.78413197  0.87882953  0.62626481  1.0
  C  C81  1  0.71358455  0.87143003  0.62377064  1.0
  C  C82  1  0.20195140  0.22722269  0.36886111  1.0
  C  C83  1  0.29883287  0.02215344  0.38036988  1.0
  C  C84  1  0.17270839  0.24197087  0.41298988  1.0
  C  C85  1  0.32725987  0.00873026  0.33650745  1.0
  C  C86  1  0.25305810  0.10189943  0.39229860  1.0
  C  C87  1  0.24784068  0.14722275  0.35710796  1.0
  C  C88  1  0.69708138  0.34451468  0.65290300  1.0
  C  C89  1  0.80821638  0.40046462  0.59706429  1.0
  C  C90  1  0.66648012  0.41690760  0.63651249  1.0
  C  C91  1  0.83994109  0.32736199  0.61345764  1.0
  C  C92  1  0.71942188  0.44349939  0.60992851  1.0
  C  C93  1  0.78660026  0.30050535  0.64022864  1.0
  C  C94  1  0.58578918  0.48981476  0.63607372  1.0
  C  C95  1  0.64591493  0.52000585  0.60593693  1.0
  C  C96  1  0.30599797  0.65218563  0.34644862  1.0
  C  C97  1  0.19430791  0.59661926  0.40193965  1.0
  C  C98  1  0.28031612  0.66365583  0.39080350  1.0
  C  C99  1  0.21976866  0.58444022  0.35717220  1.0
  C  C100  1  0.22713694  0.63723805  0.41722552  1.0
  C  C101  1  0.27336045  0.61122432  0.33049274  1.0
  C  C102  1  0.28838460  0.69928005  0.42757522  1.0
  C  C103  1  0.22803738  0.66918147  0.45759086  1.0
  C  C104  1  0.69587302  0.65227383  0.34612585  1.0
  C  C105  1  0.80721755  0.59626114  0.40191947  1.0
  C  C106  1  0.66550296  0.66381821  0.39051018  1.0
  C  C107  1  0.83891098  0.58430867  0.35715072  1.0
  C  C108  1  0.71849409  0.63717496  0.41703727  1.0
  C  C109  1  0.78539694  0.61124974  0.33037707  1.0
  C  C110  1  0.58491730  0.69943898  0.42723994  1.0
  C  C111  1  0.64516609  0.66922674  0.45734376  1.0
  C  C112  1  0.30601411  0.34934039  0.65267657  1.0
  C  C113  1  0.19438711  0.40523542  0.59703867  1.0
  C  C114  1  0.27274569  0.30641036  0.64007203  1.0
  C  C115  1  0.22718299  0.44934629  0.60967252  1.0
  C  C116  1  0.21963328  0.33298347  0.61356120  1.0
  C  C117  1  0.28073805  0.42254990  0.63638289  1.0
  C  C118  1  0.27170959  0.22993151  0.64417376  1.0
  C  C119  1  0.21144757  0.26004826  0.61408132  1.0
  C  C120  1  0.29837244  0.58310527  0.82054227  1.0
  C  C121  1  0.20131586  0.66842180  0.92883417  1.0
  C  C122  1  0.32779467  0.50950403  0.83512886  1.0
  C  C123  1  0.17233202  0.74089587  0.91357121  1.0
  C  C124  1  0.24736573  0.61059961  0.89491477  1.0
  C  C125  1  0.25240051  0.64071791  0.85465090  1.0
  C  C126  1  0.80346170  0.09832448  0.90389409  1.0
  C  C127  1  0.69182505  0.15381046  0.84829809  1.0
  C  C128  1  0.83374216  0.08684230  0.85951530  1.0
  C  C129  1  0.66038285  0.16586707  0.89305519  1.0
  C  C130  1  0.78063688  0.11326238  0.83302206  1.0
  C  C131  1  0.71393827  0.13925783  0.91977574  1.0
  C  C132  1  0.91433396  0.05120968  0.82282494  1.0
  C  C133  1  0.85409629  0.08123425  0.79272160  1.0
  C  C134  1  0.19406964  0.09601097  0.90188006  1.0
  C  C135  1  0.30534828  0.15186502  0.84598541  1.0
  C  C136  1  0.22718439  0.13661928  0.91695309  1.0
  C  C137  1  0.27253544  0.11080002  0.83030545  1.0
  C  C138  1  0.28011986  0.16323070  0.89037748  1.0
  C  C139  1  0.21910330  0.08403688  0.85711775  1.0
  C  C140  1  0.22827277  0.16877792  0.95720740  1.0
  C  C141  1  0.28843290  0.19890507  0.92706269  1.0
  C  C142  1  0.64197119  0.44695098  0.14901764  1.0
  C  C143  1  0.85881668  0.30214998  0.10074189  1.0
  C  C144  1  0.67111026  0.49137781  0.16367798  1.0
  C  C145  1  0.82857305  0.25906438  0.08636795  1.0
  C  C146  1  0.79079679  0.37080368  0.12367834  1.0
  C  C147  1  0.71040146  0.37813083  0.12615925  1.0
  C  C148  1  0.19392358  0.90118020  0.09699515  1.0
  C  C149  1  0.30531530  0.84545037  0.15272772  1.0
  C  C150  1  0.22685821  0.94427694  0.10975475  1.0
  C  C151  1  0.27266685  0.80118983  0.14009260  1.0
  C  C152  1  0.27981374  0.91774960  0.13631573  1.0
  C  C153  1  0.21913256  0.82801541  0.11335423  1.0
  C  C154  1  0.22795565  0.02074616  0.10573178  1.0
  C  C155  1  0.28808354  0.99058235  0.13589070  1.0
  C  C156  1  0.80355348  0.90481275  0.09713307  1.0
  C  C157  1  0.69189378  0.84927856  0.15270920  1.0
  C  C158  1  0.83383999  0.83251982  0.11359263  1.0
  C  C159  1  0.66044204  0.92247899  0.13639993  1.0
  C  C160  1  0.78068863  0.80606788  0.14007681  1.0
  C  C161  1  0.71403420  0.94917605  0.10970070  1.0
  C  C162  1  0.91437646  0.75963642  0.11415426  1.0
  C  C163  1  0.85407208  0.72960109  0.14425289  1.0
  S  S164  1  0.87879675  0.80099590  0.60024146  1.0
  S  S165  1  0.61843368  0.94847497  0.64941036  1.0
  S  S166  1  0.20144404  0.15802581  0.43973876  1.0
  S  S167  1  0.29898244  0.09224359  0.30947022  1.0
  S  S168  1  0.29913517  0.51135042  0.89049873  1.0
  S  S169  1  0.20076977  0.73964640  0.85829240  1.0
  S  S170  1  0.78180297  0.44870414  0.14949465  1.0
  S  S171  1  0.71802619  0.30109386  0.10045030  1.0
  Cl  Cl172  1  0.66240885  0.78082157  0.59359095  1.0
  Cl  Cl173  1  0.18715401  0.29372625  0.33184526  1.0
  Cl  Cl174  1  0.31287790  0.60552813  0.76873672  1.0
  Cl  Cl175  1  0.53851973  0.46886207  0.15631898  1.0
  O  O176  1  0.99935344  0.50020792  0.50079081  1.0
  O  O177  1  0.82343910  0.58340452  0.47089401  1.0
  O  O178  1  0.10216161  0.37657514  0.41849193  1.0
  O  O179  1  0.94345526  0.38728210  0.55880871  1.0
  O  O180  1  0.94226158  0.53176570  0.41429330  1.0
  O  O181  1  0.82405688  0.49744398  0.55619586  1.0
  O  O182  1  0.10604396  0.31235706  0.47910500  1.0
  O  O183  1  0.11550323  0.38413955  0.55955504  1.0
  O  O184  1  0.95696976  0.65709789  0.55110414  1.0
  O  O185  1  0.11756532  0.49902250  0.55535902  1.0
  O  O186  1  0.83605815  0.65284279  0.55091200  1.0
  O  O187  1  0.11210130  0.53141172  0.41421266  1.0
  O  O188  1  0.11899413  0.58646338  0.47075984  1.0
  O  O189  1  0.50020147  0.24926925  0.75012848  1.0
  O  O190  1  0.67233955  0.25054869  0.69448654  1.0
  O  O191  1  0.39988255  0.43387046  0.77045337  1.0
  O  O192  1  0.55634140  0.21849724  0.83586867  1.0
  O  O193  1  0.55968472  0.36504788  0.68985409  1.0
  O  O194  1  0.67553661  0.16424102  0.77957243  1.0
  O  O195  1  0.39390294  0.37526416  0.83291464  1.0
  O  O196  1  0.38438968  0.21861027  0.83767531  1.0
  O  O197  1  0.54231009  0.09550192  0.69728176  1.0
  O  O198  1  0.38227642  0.16723829  0.77823142  1.0
  O  O199  1  0.66565459  0.09349521  0.69901783  1.0
  O  O200  1  0.39051467  0.36229902  0.69053859  1.0
  O  O201  1  0.38060527  0.25129477  0.69230768  1.0
  O  O202  1  0.50037031  0.75091954  0.25058033  1.0
  O  O203  1  0.38669032  0.71758640  0.33835718  1.0
  O  O204  1  0.54173538  0.59631254  0.19873198  1.0
  O  O205  1  0.67098620  0.66793401  0.27848763  1.0
  O  O206  1  0.38297279  0.66741795  0.27899397  1.0
  O  O207  1  0.55808416  0.71717298  0.33809980  1.0
  O  O208  1  0.66642671  0.59469803  0.19704696  1.0
  O  O209  1  0.67534387  0.75141338  0.19226945  1.0
  O  O210  1  0.39466976  0.93551578  0.27137132  1.0
  O  O211  1  0.55638753  0.86298071  0.19093644  1.0
  O  O212  1  0.39665377  0.87381472  0.33299413  1.0
  O  O213  1  0.38308565  0.75144199  0.19378524  1.0
  O  O214  1  0.38418624  0.86663351  0.19036522  1.0
  O  O215  1  0.00120044  0.99990360  0.99994037  1.0
  O  O216  1  0.11036390  0.88757091  0.05881007  1.0
  O  O217  1  0.96008753  0.15509808  0.05160881  1.0
  O  O218  1  0.82854969  0.99908830  0.05638151  1.0
  O  O219  1  0.12061329  0.99851456  0.05663108  1.0
  O  O220  1  0.94117822  0.88344256  0.05941836  1.0
  O  O221  1  0.83655396  0.15548563  0.05181268  1.0
  O  O222  1  0.82852272  0.08435480  0.97139920  1.0
  O  O223  1  0.10158470  0.87537620  0.91761565  1.0
  O  O224  1  0.94113541  0.03122401  0.91201793  1.0
  O  O225  1  0.10179886  0.81364484  0.97919357  1.0
  O  O226  1  0.12068475  0.08439724  0.97082587  1.0
  O  O227  1  0.11034068  0.03207492  0.91433314  1.0
  F  F228  1  0.92420826  0.27856670  0.60428182  1.0
  F  F229  1  0.82646647  0.22938256  0.65332561  1.0
  F  F230  1  0.19376576  0.54625254  0.33725868  1.0
  F  F231  1  0.29174959  0.59538438  0.28841719  1.0
  F  F232  1  0.92303178  0.54603730  0.33733248  1.0
  F  F233  1  0.82517044  0.59536138  0.28828306  1.0
  F  F234  1  0.20902674  0.52044872  0.59653258  1.0
  F  F235  1  0.30707930  0.47138317  0.64549355  1.0
  F  F236  1  0.57615805  0.20385040  0.91293523  1.0
  F  F237  1  0.67433128  0.15501490  0.96185978  1.0
  F  F238  1  0.29062061  0.09490346  0.78819801  1.0
  F  F239  1  0.19277008  0.04592622  0.83728345  1.0
  F  F240  1  0.29087832  0.73015615  0.15317909  1.0
  F  F241  1  0.19288292  0.77915495  0.10422039  1.0
  F  F242  1  0.57623658  0.97139000  0.14548272  1.0
  F  F243  1  0.67448797  0.02018066  0.09653054  1.0
