# generated using pymatgen
data_AlH15(C5O3)6
_symmetry_space_group_name_H-M   'P 1'
_cell_length_a   4.08402715
_cell_length_b   28.89857377
_cell_length_c   28.89857656
_cell_angle_alpha   120.00001386
_cell_angle_beta   90.00037431
_cell_angle_gamma   89.99984235
_symmetry_Int_Tables_number   1
_chemical_formula_structural   AlH15(C5O3)6
_chemical_formula_sum   'Al2 H30 C60 O36'
_cell_volume   2953.73856028
_cell_formula_units_Z   2
loop_
 _symmetry_equiv_pos_site_id
 _symmetry_equiv_pos_as_xyz
  1  'x, y, z'
loop_
 _atom_site_type_symbol
 _atom_site_label
 _atom_site_symmetry_multiplicity
 _atom_site_fract_x
 _atom_site_fract_y
 _atom_site_fract_z
 _atom_site_occupancy
  Al  Al0  1  0.99874213  0.49999975  0.99999898  1.0
  Al  Al1  1  0.99873700  0.83333320  0.66666570  1.0
  H  H2  1  0.53163773  0.64426874  0.41353661  1.0
  H  H3  1  0.47037581  0.79817673  0.42253851  1.0
  H  H4  1  0.47038165  0.53511764  0.24411366  1.0
  H  H5  1  0.53162137  0.68903388  0.25313280  1.0
  H  H6  1  0.49717412  0.72164070  0.33676600  1.0
  H  H7  1  0.49717015  0.61165044  0.32989219  1.0
  H  H8  1  0.53163106  0.76926776  0.85572883  1.0
  H  H9  1  0.47040017  0.62436089  0.70182078  1.0
  H  H10  1  0.47039068  0.70899516  0.96487935  1.0
  H  H11  1  0.53160266  0.56409700  0.81096177  1.0
  H  H12  1  0.49717951  0.61512430  0.77835644  1.0
  H  H13  1  0.49716877  0.71824081  0.88834731  1.0
  H  H14  1  0.53164224  0.08646259  0.73073201  1.0
  H  H15  1  0.47037769  0.07746002  0.87563726  1.0
  H  H16  1  0.47038134  0.25588523  0.79100156  1.0
  H  H17  1  0.53161843  0.24686393  0.93589848  1.0
  H  H18  1  0.49717904  0.16323347  0.88487375  1.0
  H  H19  1  0.49717660  0.17010545  0.78175591  1.0
  H  H20  1  0.07363777  0.85556909  0.56536664  1.0
  H  H21  1  0.92537911  0.71699588  0.55667879  1.0
  H  H22  1  0.92540903  0.61632433  0.10999221  1.0
  H  H23  1  0.07362104  0.47774496  0.10128514  1.0
  H  H24  1  0.07363612  0.70979779  0.64442916  1.0
  H  H25  1  0.92538799  0.83968260  0.78300209  1.0
  H  H26  1  0.92538056  0.49366481  0.88366931  1.0
  H  H27  1  0.07363249  0.62354183  0.02225300  1.0
  H  H28  1  0.07363970  0.93463218  0.79020194  1.0
  H  H29  1  0.92537926  0.94332090  0.66031572  1.0
  H  H30  1  0.92539663  0.39000564  0.00633331  1.0
  H  H31  1  0.07361911  0.39871251  0.87645783  1.0
  C  C32  1  0.49868890  0.41631755  0.95386875  1.0
  C  C33  1  0.49869313  0.53755109  0.08368110  1.0
  C  C34  1  0.49869517  0.54612921  0.96244715  1.0
  C  C35  1  0.49870450  0.79576628  0.58298110  1.0
  C  C36  1  0.49870491  0.78721409  0.70423023  1.0
  C  C37  1  0.49870628  0.91701786  0.71278385  1.0
  C  C38  1  0.49862258  0.76874777  0.52287736  1.0
  C  C39  1  0.52323291  0.71254188  0.49104881  1.0
  C  C40  1  0.51743858  0.68775226  0.43552535  1.0
  C  C41  1  0.49951665  0.71733235  0.40909099  1.0
  C  C42  1  0.48191411  0.77315322  0.44091355  1.0
  C  C43  1  0.47491959  0.79868562  0.49660762  1.0
  C  C44  1  0.49941762  0.69312671  0.35116092  1.0
  C  C45  1  0.49941732  0.64016776  0.31550047  1.0
  C  C46  1  0.48191127  0.56014498  0.22574144  1.0
  C  C47  1  0.49951662  0.61596617  0.25756881  1.0
  C  C48  1  0.51742452  0.64555024  0.23113966  1.0
  C  C49  1  0.52325352  0.62076625  0.17561500  1.0
  C  C50  1  0.49861100  0.56456023  0.14378203  1.0
  C  C51  1  0.47491959  0.53461802  0.17004855  1.0
  C  C52  1  0.49862995  0.75412881  0.73124835  1.0
  C  C53  1  0.52324552  0.77850638  0.78745510  1.0
  C  C54  1  0.51743840  0.74777247  0.81224481  1.0
  C  C55  1  0.49952458  0.69175765  0.78266422  1.0
  C  C56  1  0.48193305  0.66775937  0.72684307  1.0
  C  C57  1  0.47492928  0.69792172  0.70131094  1.0
  C  C58  1  0.49942262  0.65803365  0.80687057  1.0
  C  C59  1  0.49941632  0.67533189  0.85982919  1.0
  C  C60  1  0.48192082  0.66559477  0.93985187  1.0
  C  C61  1  0.49951760  0.64160134  0.88403074  1.0
  C  C62  1  0.51741892  0.58558744  0.85444577  1.0
  C  C63  1  0.52323757  0.55484782  0.87923030  1.0
  C  C64  1  0.49861832  0.57921995  0.93543581  1.0
  C  C65  1  0.47493350  0.63542913  0.96537880  1.0
  C  C66  1  0.49862075  0.97712149  0.74586985  1.0
  C  C67  1  0.52323687  0.00895043  0.72149273  1.0
  C  C68  1  0.51744128  0.06447326  0.75222647  1.0
  C  C69  1  0.49951637  0.09090799  0.80824139  1.0
  C  C70  1  0.48192185  0.05908465  0.83223916  1.0
  C  C71  1  0.47492126  0.00338970  0.80207680  1.0
  C  C72  1  0.49942597  0.14883792  0.84196431  1.0
  C  C73  1  0.49942523  0.18449734  0.82466494  1.0
  C  C74  1  0.48191244  0.27425764  0.83440207  1.0
  C  C75  1  0.49952093  0.24242899  0.85839546  1.0
  C  C76  1  0.51743075  0.26885679  0.91440760  1.0
  C  C77  1  0.52324624  0.32438263  0.94515013  1.0
  C  C78  1  0.49861282  0.35621602  0.92077795  1.0
  C  C79  1  0.47492194  0.32994925  0.86456881  1.0
  C  C80  1  0.44990269  0.85850329  0.52559003  1.0
  C  C81  1  0.55220520  0.67600290  0.51377836  1.0
  C  C82  1  0.55220935  0.65730962  0.15289427  1.0
  C  C83  1  0.44986826  0.47480070  0.14105852  1.0
  C  C84  1  0.44989988  0.66708628  0.64149409  1.0
  C  C85  1  0.55220338  0.83777475  0.82399260  1.0
  C  C86  1  0.55217689  0.49558150  0.84268443  1.0
  C  C87  1  0.44989311  0.66625861  0.02519682  1.0
  C  C88  1  0.44990860  0.97440961  0.83291497  1.0
  C  C89  1  0.55219576  0.98622067  0.66222309  1.0
  C  C90  1  0.55218695  0.34710424  0.00441478  1.0
  C  C91  1  0.44987704  0.35894134  0.83374238  1.0
  O  O92  1  0.73595429  0.55234936  0.99397014  1.0
  O  O93  1  0.73594942  0.44162157  0.94764917  1.0
  O  O94  1  0.73595132  0.50602793  0.05837723  1.0
  O  O95  1  0.26167675  0.51345236  0.95232032  1.0
  O  O96  1  0.26168381  0.54767755  0.06113044  1.0
  O  O97  1  0.26167582  0.43886769  0.98654548  1.0
  O  O98  1  0.73594555  0.89171637  0.71901006  1.0
  O  O99  1  0.73594609  0.82729498  0.60828239  1.0
  O  O100  1  0.73595292  0.78098795  0.67270306  1.0
  O  O101  1  0.26168480  0.89446217  0.68010968  1.0
  O  O102  1  0.26167897  0.81988820  0.71435003  1.0
  O  O103  1  0.26168171  0.78564881  0.60553710  1.0
  O  O104  1  0.23908455  0.88101482  0.56727028  1.0
  O  O105  1  0.61648037  0.88508999  0.51285782  1.0
  O  O106  1  0.76316933  0.69122592  0.55503607  1.0
  O  O107  1  0.39011274  0.63553718  0.49652404  1.0
  O  O108  1  0.76318169  0.64209356  0.11163956  1.0
  O  O109  1  0.39011199  0.69777569  0.17015122  1.0
  O  O110  1  0.23906334  0.45229641  0.09937806  1.0
  O  O111  1  0.61644459  0.44820663  0.15378650  1.0
  O  O112  1  0.23908765  0.68625641  0.61898421  1.0
  O  O113  1  0.61647789  0.62776593  0.61490517  1.0
  O  O114  1  0.76317101  0.86380916  0.80877029  1.0
  O  O115  1  0.39010828  0.86098605  0.86445778  1.0
  O  O116  1  0.76315552  0.46954317  0.85789975  1.0
  O  O117  1  0.39007394  0.47237531  0.80222108  1.0
  O  O118  1  0.23907739  0.64708255  0.04770090  1.0
  O  O119  1  0.61646911  0.70557988  0.05178910  1.0
  O  O120  1  0.23908725  0.93272930  0.81374429  1.0
  O  O121  1  0.61649005  0.98714128  0.87223234  1.0
  O  O122  1  0.76316626  0.94496348  0.63618840  1.0
  O  O123  1  0.39009928  0.00347513  0.63901262  1.0
  O  O124  1  0.76315783  0.38835895  0.03045368  1.0
  O  O125  1  0.39007561  0.32984640  0.02762092  1.0
  O  O126  1  0.23906554  0.40062151  0.85291884  1.0
  O  O127  1  0.61645449  0.34621460  0.79442116  1.0
