# generated using pymatgen
data_Zn4C24S4N4O21F4
_symmetry_space_group_name_H-M   'P 1'
_cell_length_a   19.55924722
_cell_length_b   19.59725228
_cell_length_c   33.27211166
_cell_angle_alpha   78.96635423
_cell_angle_beta   79.07319459
_cell_angle_gamma   63.85398072
_symmetry_Int_Tables_number   1
_chemical_formula_structural   Zn4C24S4N4O21F4
_chemical_formula_sum   'Zn16 C96 S16 N16 O84 F16'
_cell_volume   11156.40183822
_cell_formula_units_Z   4
loop_
 _symmetry_equiv_pos_site_id
 _symmetry_equiv_pos_as_xyz
  1  'x, y, z'
loop_
 _atom_site_type_symbol
 _atom_site_label
 _atom_site_symmetry_multiplicity
 _atom_site_fract_x
 _atom_site_fract_y
 _atom_site_fract_z
 _atom_site_occupancy
  Zn  Zn0  1  0.59871426  0.94253411  0.52345312  1.0
  Zn  Zn1  1  0.51510722  0.01622280  0.44015262  1.0
  Zn  Zn2  1  0.43933260  0.93895044  0.51792988  1.0
  Zn  Zn3  1  0.44737121  0.09949100  0.52126508  1.0
  Zn  Zn4  1  0.64972762  0.30428577  0.72976740  1.0
  Zn  Zn5  1  0.81360826  0.30671556  0.73501474  1.0
  Zn  Zn6  1  0.73232186  0.23213754  0.81119861  1.0
  Zn  Zn7  1  0.80504663  0.15114219  0.72774373  1.0
  Zn  Zn8  1  0.23324676  0.73414403  0.31137240  1.0
  Zn  Zn9  1  0.30581469  0.65041883  0.22889687  1.0
  Zn  Zn10  1  0.15002513  0.80404589  0.22977731  1.0
  Zn  Zn11  1  0.31374634  0.80711559  0.23506064  1.0
  Zn  Zn12  1  0.93944136  0.43870204  0.01777695  1.0
  Zn  Zn13  1  0.94656778  0.59888628  0.02234953  1.0
  Zn  Zn14  1  0.09849552  0.44262987  0.02322363  1.0
  Zn  Zn15  1  0.01203180  0.51823518  0.94017192  1.0
  C  C16  1  0.68094647  0.93598614  0.44055055  1.0
  C  C17  1  0.42905539  0.93182415  0.43329339  1.0
  C  C18  1  0.56023710  0.81630925  0.56255967  1.0
  C  C19  1  0.31922006  0.06189603  0.56102405  1.0
  C  C20  1  0.57118699  0.06764705  0.56825541  1.0
  C  C21  1  0.44140884  0.18162043  0.43921853  1.0
  C  C22  1  0.69076161  0.43007125  0.69130758  1.0
  C  C23  1  0.81828549  0.31531564  0.82050449  1.0
  C  C24  1  0.56592877  0.30945124  0.81167727  1.0
  C  C25  1  0.80916714  0.06755710  0.81035183  1.0
  C  C26  1  0.68139307  0.18323721  0.68102477  1.0
  C  C27  1  0.93360311  0.18783634  0.69031024  1.0
  C  C28  1  0.31179087  0.56854355  0.31139500  1.0
  C  C29  1  0.18247412  0.68130606  0.18160727  1.0
  C  C30  1  0.06725180  0.80819980  0.31193187  1.0
  C  C31  1  0.19046481  0.93037074  0.19153560  1.0
  C  C32  1  0.31828777  0.81819866  0.31990368  1.0
  C  C33  1  0.43337638  0.68858203  0.19003520  1.0
  C  C34  1  0.81947066  0.56055970  0.06156747  1.0
  C  C35  1  0.07142922  0.56773074  0.06799789  1.0
  C  C36  1  0.06074053  0.31611778  0.06226502  1.0
  C  C37  1  0.17878657  0.43837689  0.93965039  1.0
  C  C38  1  0.92815292  0.43131128  0.93325250  1.0
  C  C39  1  0.93747478  0.68214955  0.93967593  1.0
  C  C40  1  0.59932630  0.09703560  0.59710374  1.0
  C  C41  1  0.65327876  0.15386230  0.65217373  1.0
  C  C42  1  0.55514686  0.16914531  0.61095215  1.0
  C  C43  1  0.69737600  0.08160200  0.63846615  1.0
  C  C44  1  0.58150974  0.19680025  0.63755798  1.0
  C  C45  1  0.67119576  0.05416892  0.61162773  1.0
  C  C46  1  0.40064736  0.90283363  0.40439407  1.0
  C  C47  1  0.34623100  0.84747338  0.34884891  1.0
  C  C48  1  0.35756120  0.85961246  0.41886784  1.0
  C  C49  1  0.38911854  0.89087070  0.33437837  1.0
  C  C50  1  0.33125794  0.83256792  0.39188788  1.0
  C  C51  1  0.41578570  0.91756724  0.36132887  1.0
  C  C52  1  0.54732297  0.69102778  0.59912149  1.0
  C  C53  1  0.70811201  0.55027676  0.64994476  1.0
  C  C54  1  0.58539055  0.73836162  0.58563564  1.0
  C  C55  1  0.66929160  0.50378904  0.66403035  1.0
  C  C56  1  0.66246973  0.62027751  0.62785489  1.0
  C  C57  1  0.59056825  0.62406728  0.62414261  1.0
  C  C58  1  0.42229864  0.27447462  0.37021129  1.0
  C  C59  1  0.32271153  0.47578676  0.38008756  1.0
  C  C60  1  0.41369122  0.25628197  0.41288152  1.0
  C  C61  1  0.33255012  0.49369581  0.33746203  1.0
  C  C62  1  0.35853043  0.39595215  0.39234480  1.0
  C  C63  1  0.39229883  0.35452009  0.35835456  1.0
  C  C64  1  0.77320949  0.92595948  0.37179992  1.0
  C  C65  1  0.97515447  0.82680025  0.38115890  1.0
  C  C66  1  0.75577096  0.91565984  0.41444203  1.0
  C  C67  1  0.99276336  0.83571474  0.33845926  1.0
  C  C68  1  0.89508753  0.85651339  0.39324673  1.0
  C  C69  1  0.85306188  0.89042540  0.35940328  1.0
  C  C70  1  0.19764950  0.15933976  0.60097945  1.0
  C  C71  1  0.05080949  0.09453893  0.64576530  1.0
  C  C72  1  0.24169438  0.09063030  0.58450114  1.0
  C  C73  1  0.00721105  0.16265183  0.66295371  1.0
  C  C74  1  0.12183567  0.09184479  0.62480024  1.0
  C  C75  1  0.12955740  0.15966311  0.62499857  1.0
  C  C76  1  0.84607084  0.34500142  0.84936571  1.0
  C  C77  1  0.90004729  0.40166098  0.90452592  1.0
  C  C78  1  0.83123480  0.33049878  0.89243708  1.0
  C  C79  1  0.91505471  0.41599676  0.86144545  1.0
  C  C80  1  0.85728616  0.35819116  0.91921607  1.0
  C  C81  1  0.88860868  0.38871488  0.83468552  1.0
  C  C82  1  0.47314159  0.32878377  0.88065369  1.0
  C  C83  1  0.27140276  0.42850855  0.87081848  1.0
  C  C84  1  0.49119133  0.33771702  0.83798910  1.0
  C  C85  1  0.25360646  0.41809719  0.91343297  1.0
  C  C86  1  0.35134831  0.39286939  0.85858400  1.0
  C  C87  1  0.39301670  0.35870723  0.89255619  1.0
  C  C88  1  0.87907033  0.91814524  0.82220231  1.0
  C  C89  1  0.87618317  0.83198119  0.92784924  1.0
  C  C90  1  0.83904672  0.99092679  0.83463678  1.0
  C  C91  1  0.91501734  0.75896907  0.91553209  1.0
  C  C92  1  0.85999494  0.88988000  0.89377193  1.0
  C  C93  1  0.88968960  0.85977251  0.85600121  1.0
  C  C94  1  0.15436714  0.65255615  0.15236697  1.0
  C  C95  1  0.10008459  0.59698336  0.09667993  1.0
  C  C96  1  0.08229606  0.69559316  0.13800496  1.0
  C  C97  1  0.17231985  0.55418262  0.11080137  1.0
  C  C98  1  0.05576363  0.66858358  0.11111403  1.0
  C  C99  1  0.19861590  0.58090583  0.13793899  1.0
  C  C100  1  0.54994848  0.59521646  0.14528206  1.0
  C  C101  1  0.69766861  0.65881773  0.10072349  1.0
  C  C102  1  0.50653696  0.66353464  0.16230866  1.0
  C  C103  1  0.74164632  0.58978626  0.08458557  1.0
  C  C104  1  0.62915449  0.65976449  0.12445461  1.0
  C  C105  1  0.62114019  0.59206110  0.12437922  1.0
  C  C106  1  0.20811480  0.05039782  0.15003014  1.0
  C  C107  1  0.04753645  0.19112602  0.09903707  1.0
  C  C108  1  0.16911635  0.00407735  0.16422199  1.0
  C  C109  1  0.08579858  0.23828165  0.08544827  1.0
  C  C110  1  0.09060087  0.12426465  0.12417943  1.0
  C  C111  1  0.16257230  0.12033723  0.12784595  1.0
  S  S112  1  0.67499603  0.69978121  0.60274437  1.0
  S  S113  1  0.57765022  0.54483291  0.64926777  1.0
  S  S114  1  0.36700124  0.33728374  0.43835209  1.0
  S  S115  1  0.38375579  0.41275503  0.31225798  1.0
  S  S116  1  0.83726800  0.86445111  0.43943409  1.0
  S  S117  1  0.91112826  0.88225381  0.31326185  1.0
  S  S118  1  0.19884486  0.02713276  0.59745838  1.0
  S  S119  1  0.05233247  0.22417584  0.65241003  1.0
  S  S120  1  0.40987569  0.38464647  0.81258409  1.0
  S  S121  1  0.33483343  0.36659294  0.93861478  1.0
  S  S122  1  0.81622263  0.98805832  0.88777580  1.0
  S  S123  1  0.93345887  0.76149210  0.86225711  1.0
  S  S124  1  0.55199902  0.72471308  0.15165514  1.0
  S  S125  1  0.69821585  0.52678906  0.09741691  1.0
  S  S126  1  0.07751545  0.04519162  0.14943048  1.0
  S  S127  1  0.17538031  0.19961293  0.10260441  1.0
  N  N128  1  0.47448470  0.70071850  0.58834219  1.0
  N  N129  1  0.78757664  0.53249096  0.65329966  1.0
  N  N130  1  0.45147924  0.22292368  0.33854364  1.0
  N  N131  1  0.27725125  0.52779290  0.41075985  1.0
  N  N132  1  0.72095740  0.97173584  0.34114621  1.0
  N  N133  1  0.02724848  0.79745642  0.41269100  1.0
  N  N134  1  0.21185500  0.22796867  0.59382034  1.0
  N  N135  1  0.02950467  0.03244237  0.64456922  1.0
  N  N136  1  0.52521249  0.29858147  0.91218363  1.0
  N  N137  1  0.21936848  0.47397812  0.84004691  1.0
  N  N138  1  0.91336358  0.89839139  0.78076601  1.0
  N  N139  1  0.85721812  0.85360401  0.96948121  1.0
  N  N140  1  0.52840253  0.53324533  0.14444714  1.0
  N  N141  1  0.71224132  0.72728299  0.09342633  1.0
  N  N142  1  0.28765133  0.03262954  0.15323464  1.0
  N  N143  1  0.97471814  0.20085529  0.08821681  1.0
  O  O144  1  0.50037948  0.99903146  0.50087687  1.0
  O  O145  1  0.68334338  0.93530714  0.47882955  1.0
  O  O146  1  0.44516966  0.98872538  0.41876951  1.0
  O  O147  1  0.48893519  0.85618689  0.56119820  1.0
  O  O148  1  0.62286120  0.94954272  0.42338116  1.0
  O  O149  1  0.61446693  0.83677735  0.54708685  1.0
  O  O150  1  0.43462043  0.89725040  0.46988589  1.0
  O  O151  1  0.33602607  0.00390686  0.54252999  1.0
  O  O152  1  0.51968290  0.11759806  0.54678124  1.0
  O  O153  1  0.36197765  0.09466457  0.56225949  1.0
  O  O154  1  0.60111886  0.99544749  0.56762989  1.0
  O  O155  1  0.49498165  0.12440890  0.42351950  1.0
  O  O156  1  0.40904078  0.18310327  0.47651804  1.0
  O  O157  1  0.74964683  0.24952270  0.75071594  1.0
  O  O158  1  0.64987334  0.39413251  0.69090636  1.0
  O  O159  1  0.85409223  0.30894924  0.78424232  1.0
  O  O160  1  0.62274090  0.25503183  0.82740261  1.0
  O  O161  1  0.74461609  0.41075574  0.71304493  1.0
  O  O162  1  0.56487155  0.34208300  0.77442977  1.0
  O  O163  1  0.76139497  0.29892696  0.83465510  1.0
  O  O164  1  0.79157520  0.12350417  0.83066028  1.0
  O  O165  1  0.75359760  0.15397773  0.68193305  1.0
  O  O166  1  0.80146310  0.07132085  0.77284994  1.0
  O  O167  1  0.63079854  0.23480850  0.70217454  1.0
  O  O168  1  0.90037284  0.25977638  0.69326304  1.0
  O  O169  1  0.91128171  0.13712479  0.70909331  1.0
  O  O170  1  0.25002409  0.74958939  0.25059707  1.0
  O  O171  1  0.29923104  0.62635565  0.32837183  1.0
  O  O172  1  0.25438790  0.65007851  0.18371918  1.0
  O  O173  1  0.06538940  0.84057661  0.27460777  1.0
  O  O174  1  0.31107884  0.56646049  0.27324217  1.0
  O  O175  1  0.12469525  0.75463510  0.32757648  1.0
  O  O176  1  0.13203238  0.73440622  0.20185452  1.0
  O  O177  1  0.14957315  0.89445050  0.19111019  1.0
  O  O178  1  0.35456255  0.81095054  0.28376131  1.0
  O  O179  1  0.24426012  0.91111199  0.21327799  1.0
  O  O180  1  0.26066208  0.80290877  0.33385564  1.0
  O  O181  1  0.41184368  0.63758237  0.20926294  1.0
  O  O182  1  0.39992512  0.76051510  0.19288325  1.0
  O  O183  1  0.00016958  0.49916637  0.00068060  1.0
  O  O184  1  0.83610811  0.50329583  0.04251256  1.0
  O  O185  1  0.01925550  0.61766004  0.04688866  1.0
  O  O186  1  0.11490074  0.33666047  0.04671557  1.0
  O  O187  1  0.86268930  0.59232132  0.06371681  1.0
  O  O188  1  0.98941836  0.35596408  0.06089836  1.0
  O  O189  1  0.10152493  0.49553573  0.06721003  1.0
  O  O190  1  0.18196192  0.43630348  0.97797685  1.0
  O  O191  1  0.94347600  0.48863996  0.91858847  1.0
  O  O192  1  0.12031000  0.45324521  0.92252161  1.0
  O  O193  1  0.93430347  0.39683158  0.96983686  1.0
  O  O194  1  0.90478344  0.67734788  0.97621161  1.0
  O  O195  1  0.98715695  0.62677455  0.92024077  1.0
  O  O196  1  0.44156933  0.66545653  0.61347354  1.0
  O  O197  1  0.45207398  0.73882046  0.55558373  1.0
  O  O198  1  0.80116877  0.58932169  0.65222765  1.0
  O  O199  1  0.83544259  0.46523162  0.65507617  1.0
  O  O200  1  0.47446034  0.24972418  0.30434864  1.0
  O  O201  1  0.44846075  0.16020699  0.34638914  1.0
  O  O202  1  0.29758305  0.50507680  0.44603174  1.0
  O  O203  1  0.22153265  0.58709010  0.40083309  1.0
  O  O204  1  0.74363557  0.95185776  0.30582032  1.0
  O  O205  1  0.66164866  0.02728688  0.35108681  1.0
  O  O206  1  0.00094757  0.77395310  0.44688992  1.0
  O  O207  1  0.08985788  0.80087736  0.40472799  1.0
  O  O208  1  0.18271945  0.26991454  0.62192221  1.0
  O  O209  1  0.24753129  0.24167968  0.56089668  1.0
  O  O210  1  0.08481345  0.96959677  0.63912940  1.0
  O  O211  1  0.96122636  0.04584372  0.64687506  1.0
  O  O212  1  0.49901419  0.27448902  0.94624109  1.0
  O  O213  1  0.58811595  0.30148760  0.90435105  1.0
  O  O214  1  0.24211507  0.45373617  0.80480419  1.0
  O  O215  1  0.15998523  0.52965555  0.84982104  1.0
  O  O216  1  0.92148515  0.83443613  0.77440766  1.0
  O  O217  1  0.93457000  0.94283306  0.75607781  1.0
  O  O218  1  0.80373846  0.91823171  0.97323537  1.0
  O  O219  1  0.89578420  0.81045199  0.99687330  1.0
  O  O220  1  0.58349154  0.47010431  0.13928350  1.0
  O  O221  1  0.46001837  0.54673898  0.14691009  1.0
  O  O222  1  0.68246602  0.76978542  0.12125827  1.0
  O  O223  1  0.74871249  0.74024171  0.06066233  1.0
  O  O224  1  0.30141206  0.08956417  0.15153362  1.0
  O  O225  1  0.33542103  0.96533063  0.15545128  1.0
  O  O226  1  0.94153265  0.16597599  0.11343275  1.0
  O  O227  1  0.95258061  0.23858810  0.05532386  1.0
  F  F228  1  0.48487831  0.21423376  0.59975050  1.0
  F  F229  1  0.76601988  0.03511236  0.65118801  1.0
  F  F230  1  0.53545969  0.26725252  0.64803961  1.0
  F  F231  1  0.71861408  0.98513508  0.59974932  1.0
  F  F232  1  0.33865650  0.84352285  0.45937093  1.0
  F  F233  1  0.40520190  0.90976112  0.29383211  1.0
  F  F234  1  0.29220899  0.79037248  0.40893254  1.0
  F  F235  1  0.45775964  0.95684590  0.34420256  1.0
  F  F236  1  0.79246532  0.28811053  0.90974024  1.0
  F  F237  1  0.95682203  0.45545827  0.84405862  1.0
  F  F238  1  0.83847697  0.34246784  0.95976217  1.0
  F  F239  1  0.90461905  0.40742120  0.79410363  1.0
  F  F240  1  0.03583039  0.76547967  0.14908120  1.0
  F  F241  1  0.22003755  0.48574073  0.09822627  1.0
  F  F242  1  0.98525879  0.71354938  0.10034281  1.0
  F  F243  1  0.26771553  0.53425370  0.15012262  1.0
