# generated using pymatgen
data_Zn3H16C23O16
_symmetry_space_group_name_H-M   'P 1'
_cell_length_a   11.74510114
_cell_length_b   15.46041129
_cell_length_c   16.50388186
_cell_angle_alpha   89.99997696
_cell_angle_beta   90.00009477
_cell_angle_gamma   89.99988587
_symmetry_Int_Tables_number   1
_chemical_formula_structural   Zn3H16C23O16
_chemical_formula_sum   'Zn6 H32 C46 O32'
_cell_volume   2996.84243943
_cell_formula_units_Z   2
loop_
 _symmetry_equiv_pos_site_id
 _symmetry_equiv_pos_as_xyz
  1  'x, y, z'
loop_
 _atom_site_type_symbol
 _atom_site_label
 _atom_site_symmetry_multiplicity
 _atom_site_fract_x
 _atom_site_fract_y
 _atom_site_fract_z
 _atom_site_occupancy
  Zn  Zn0  1  0.40051312  0.17350491  0.89988560  1.0
  Zn  Zn1  1  0.59948613  0.67350511  0.60011251  1.0
  Zn  Zn2  1  0.59948930  0.67350192  0.39988507  1.0
  Zn  Zn3  1  0.40051303  0.17349991  0.10011436  1.0
  Zn  Zn4  1  0.65275635  0.11737230  0.99999735  1.0
  Zn  Zn5  1  0.34724305  0.61737357  0.50000077  1.0
  H  H6  1  0.44607196  0.05513091  0.99999906  1.0
  H  H7  1  0.55392930  0.55513186  0.50000090  1.0
  H  H8  1  0.66666667  0.95748191  0.92080735  1.0
  H  H9  1  0.33333333  0.45748002  0.57919247  1.0
  H  H10  1  0.33333333  0.45748005  0.42080852  1.0
  H  H11  1  0.66666667  0.95747886  0.07919384  1.0
  H  H12  1  0.59400927  0.02347642  0.86964679  1.0
  H  H13  1  0.40599293  0.52347561  0.63035319  1.0
  H  H14  1  0.40599177  0.52347631  0.36964846  1.0
  H  H15  1  0.59400500  0.02347723  0.13035405  1.0
  H  H16  1  0.87208608  0.08165964  0.95251775  1.0
  H  H17  1  0.12791767  0.58165928  0.54748402  1.0
  H  H18  1  0.12791926  0.58166448  0.45251970  1.0
  H  H19  1  0.87208076  0.08166307  0.04748158  1.0
  H  H20  1  0.53171037  0.38392615  0.77063240  1.0
  H  H21  1  0.46828918  0.88392455  0.72936926  1.0
  H  H22  1  0.46829120  0.88392594  0.27063839  1.0
  H  H23  1  0.53171144  0.38392174  0.22936399  1.0
  H  H24  1  0.83310219  0.54242430  0.75748171  1.0
  H  H25  1  0.16689571  0.04242000  0.74252129  1.0
  H  H26  1  0.16689769  0.04242204  0.25748510  1.0
  H  H27  1  0.83310073  0.54242118  0.24251862  1.0
  H  H28  1  0.83132490  0.31059408  0.90413209  1.0
  H  H29  1  0.16868080  0.81059299  0.59586475  1.0
  H  H30  1  0.16867547  0.81058786  0.40413288  1.0
  H  H31  1  0.83132821  0.31058714  0.09586892  1.0
  H  H32  1  0.87495031  0.48871888  0.00000177  1.0
  H  H33  1  0.12504694  0.98871767  0.49999997  1.0
  H  H34  1  0.12836365  0.34240296  0.86915506  1.0
  H  H35  1  0.87162749  0.84240597  0.63084359  1.0
  H  H36  1  0.87162974  0.84240602  0.36915546  1.0
  H  H37  1  0.12836789  0.34240377  0.13084391  1.0
  C  C38  1  0.67626354  0.33935606  0.83996346  1.0
  C  C39  1  0.32373698  0.83935536  0.66003640  1.0
  C  C40  1  0.32373575  0.83935413  0.33996503  1.0
  C  C41  1  0.67626785  0.33935233  0.16003494  1.0
  C  C42  1  0.61971558  0.39595681  0.78772601  1.0
  C  C43  1  0.38028479  0.89595470  0.71227625  1.0
  C  C44  1  0.38028685  0.89595674  0.28773128  1.0
  C  C45  1  0.61971405  0.39595241  0.21227048  1.0
  C  C46  1  0.67660470  0.46849818  0.75737014  1.0
  C  C47  1  0.32339463  0.96849485  0.74263270  1.0
  C  C48  1  0.32339577  0.96849690  0.25737232  1.0
  C  C49  1  0.67660239  0.46849571  0.24262882  1.0
  C  C50  1  0.78907627  0.48551381  0.78054960  1.0
  C  C51  1  0.21092046  0.98551001  0.71945203  1.0
  C  C52  1  0.21092505  0.98551334  0.28055407  1.0
  C  C53  1  0.78907476  0.48551135  0.21944827  1.0
  C  C54  1  0.84386776  0.42936389  0.83413824  1.0
  C  C55  1  0.15613167  0.92936085  0.66586098  1.0
  C  C56  1  0.15613468  0.92936092  0.33414265  1.0
  C  C57  1  0.84386954  0.42935951  0.16586031  1.0
  C  C58  1  0.78883218  0.35566278  0.86340589  1.0
  C  C59  1  0.21116914  0.85566226  0.63659215  1.0
  C  C60  1  0.21116967  0.85565908  0.36340733  1.0
  C  C61  1  0.78883389  0.35565906  0.13659445  1.0
  C  C62  1  0.61656560  0.26129932  0.87263818  1.0
  C  C63  1  0.38343342  0.76129789  0.62736171  1.0
  C  C64  1  0.38342801  0.76129600  0.37263800  1.0
  C  C65  1  0.61657580  0.26129236  0.12736079  1.0
  C  C66  1  0.61500270  0.52820817  0.70081734  1.0
  C  C67  1  0.38499523  0.02820674  0.79918324  1.0
  C  C68  1  0.38499538  0.02821334  0.20082462  1.0
  C  C69  1  0.61500393  0.52821084  0.29917789  1.0
  C  C70  1  0.99743149  0.41841579  0.92723886  1.0
  C  C71  1  0.00256882  0.91841561  0.57276037  1.0
  C  C72  1  0.00256695  0.91841500  0.42723824  1.0
  C  C73  1  0.99743389  0.41841469  0.07276110  1.0
  C  C74  1  0.94880669  0.44609964  0.00000061  1.0
  C  C75  1  0.05119238  0.94609920  0.49999872  1.0
  C  C76  1  0.09173821  0.36397097  0.92627432  1.0
  C  C77  1  0.90825969  0.86397588  0.57372432  1.0
  C  C78  1  0.90825611  0.86397527  0.42627476  1.0
  C  C79  1  0.09174146  0.36397051  0.07372338  1.0
  C  C80  1  0.13848122  0.33659972  0.99999883  1.0
  C  C81  1  0.86151420  0.83660344  0.49999982  1.0
  C  C82  1  0.23685679  0.27497709  0.99999647  1.0
  C  C83  1  0.76313794  0.77498355  0.49999917  1.0
  O  O84  1  0.67547454  0.20669593  0.91158057  1.0
  O  O85  1  0.32452207  0.70669396  0.58841630  1.0
  O  O86  1  0.32451591  0.70669076  0.41158094  1.0
  O  O87  1  0.67549400  0.20669029  0.08841787  1.0
  O  O88  1  0.50950479  0.25671414  0.85847175  1.0
  O  O89  1  0.49049595  0.75671190  0.64152693  1.0
  O  O90  1  0.49049051  0.75670808  0.35847655  1.0
  O  O91  1  0.50951586  0.25670395  0.14152224  1.0
  O  O92  1  0.51125817  0.51461741  0.68671878  1.0
  O  O93  1  0.48874065  0.01461517  0.81328241  1.0
  O  O94  1  0.48873566  0.01463083  0.18672558  1.0
  O  O95  1  0.51126369  0.51462202  0.31328178  1.0
  O  O96  1  0.67472109  0.59044839  0.67020093  1.0
  O  O97  1  0.32528008  0.09044769  0.82979781  1.0
  O  O98  1  0.32526909  0.09045301  0.17020875  1.0
  O  O99  1  0.67472580  0.59045234  0.32978707  1.0
  O  O100  1  0.95574334  0.44867700  0.85365735  1.0
  O  O101  1  0.04425689  0.94867608  0.64634186  1.0
  O  O102  1  0.04425740  0.94867549  0.35365860  1.0
  O  O103  1  0.95574422  0.44867586  0.14634254  1.0
  O  O104  1  0.27419230  0.25079920  0.93117269  1.0
  O  O105  1  0.72580334  0.75080439  0.56882114  1.0
  O  O106  1  0.72580488  0.75079989  0.43117837  1.0
  O  O107  1  0.27419129  0.25079680  0.06881739  1.0
  O  O108  1  0.46850677  0.11576834  0.99999846  1.0
  O  O109  1  0.53149604  0.61576933  0.49999846  1.0
  O  O110  1  0.66120159  0.01872811  0.90828683  1.0
  O  O111  1  0.33880062  0.51872676  0.59171194  1.0
  O  O112  1  0.33879955  0.51872745  0.40828903  1.0
  O  O113  1  0.66119553  0.01872764  0.09171167  1.0
  O  O114  1  0.84279048  0.11161358  0.99999746  1.0
  O  O115  1  0.15721149  0.61161384  0.50000369  1.0
