# generated using pymatgen
data_Zn4H32(C12O5)3
_symmetry_space_group_name_H-M   'P 1'
_cell_length_a   17.79969331
_cell_length_b   18.69838965
_cell_length_c   23.38899125
_cell_angle_alpha   113.55476379
_cell_angle_beta   110.28692466
_cell_angle_gamma   90.06420238
_symmetry_Int_Tables_number   1
_chemical_formula_structural   Zn4H32(C12O5)3
_chemical_formula_sum   'Zn8 H64 C72 O30'
_cell_volume   6604.28264743
_cell_formula_units_Z   2
loop_
 _symmetry_equiv_pos_site_id
 _symmetry_equiv_pos_as_xyz
  1  'x, y, z'
loop_
 _atom_site_type_symbol
 _atom_site_label
 _atom_site_symmetry_multiplicity
 _atom_site_fract_x
 _atom_site_fract_y
 _atom_site_fract_z
 _atom_site_occupancy
  Zn  Zn0  1  0.11773652  0.52585536  0.05591162  1.0
  Zn  Zn1  1  0.97166558  0.38885118  0.94842705  1.0
  Zn  Zn2  1  0.97662422  0.56150373  0.95119111  1.0
  Zn  Zn3  1  0.93819470  0.53444184  0.06558550  1.0
  Zn  Zn4  1  0.38535332  0.97500548  0.95263384  1.0
  Zn  Zn5  1  0.52879798  0.94574714  0.06109994  1.0
  Zn  Zn6  1  0.52438087  0.11716457  0.06341099  1.0
  Zn  Zn7  1  0.56781935  0.97623835  0.94877852  1.0
  H  H8  1  0.49436946  0.86952433  0.73836162  1.0
  H  H9  1  0.43392905  0.80644511  0.61231285  1.0
  H  H10  1  0.19414969  0.80970263  0.61919231  1.0
  H  H11  1  0.31978625  0.69512157  0.38977323  1.0
  H  H12  1  0.01904790  0.63742185  0.27470083  1.0
  H  H13  1  0.08201568  0.70051591  0.40066388  1.0
  H  H14  1  0.62881870  0.24668809  0.26963349  1.0
  H  H15  1  0.69911944  0.31175418  0.39534302  1.0
  H  H16  1  0.70085816  0.08100117  0.39641658  1.0
  H  H17  1  0.81032242  0.42402382  0.61413716  1.0
  H  H18  1  0.86865502  0.25995069  0.74274774  1.0
  H  H19  1  0.80960729  0.19391905  0.61652585  1.0
  H  H20  1  0.19740818  0.78741461  0.08901819  1.0
  H  H21  1  0.12542384  0.78260334  0.01243725  1.0
  H  H22  1  0.21413821  0.87686438  0.01499932  1.0
  H  H23  1  0.28581674  0.88105242  0.09145743  1.0
  H  H24  1  0.21416251  0.78056180  0.90397655  1.0
  H  H25  1  0.28620912  0.71591505  0.89974894  1.0
  H  H26  1  0.12617032  0.68501246  0.90101752  1.0
  H  H27  1  0.19940543  0.62158434  0.89820378  1.0
  H  H28  1  0.30219935  0.69505235  0.08581328  1.0
  H  H29  1  0.30296891  0.62688491  0.00814009  1.0
  H  H30  1  0.39113249  0.72059884  0.00962458  1.0
  H  H31  1  0.39093051  0.78836020  0.08757148  1.0
  H  H32  1  0.89114412  0.29497845  0.09550710  1.0
  H  H33  1  0.88827016  0.22797178  0.01546039  1.0
  H  H34  1  0.79998303  0.13439766  0.01421997  1.0
  H  H35  1  0.80295435  0.20207888  0.09411798  1.0
  H  H36  1  0.69637560  0.13143176  0.90839314  1.0
  H  H37  1  0.62376685  0.19555858  0.91146633  1.0
  H  H38  1  0.78333731  0.22608631  0.90935948  1.0
  H  H39  1  0.71099500  0.29043712  0.91408382  1.0
  H  H40  1  0.78893063  0.38961740  0.10298021  1.0
  H  H41  1  0.71573690  0.38844072  0.02914867  1.0
  H  H42  1  0.62690420  0.29454197  0.02678928  1.0
  H  H43  1  0.69973764  0.29618898  0.10088168  1.0
  H  H44  1  0.16180252  0.26979716  0.06265162  1.0
  H  H45  1  0.24586475  0.34692599  0.10370620  1.0
  H  H46  1  0.33336805  0.25445610  0.10693959  1.0
  H  H47  1  0.24879592  0.17764549  0.06474818  1.0
  H  H48  1  0.39401950  0.29619073  0.03977979  1.0
  H  H49  1  0.35334563  0.24817579  0.95083657  1.0
  H  H50  1  0.30523203  0.38789729  0.03584177  1.0
  H  H51  1  0.26455052  0.33868912  0.94688840  1.0
  H  H52  1  0.10193584  0.19941686  0.93450762  1.0
  H  H53  1  0.14328627  0.22768248  0.88708162  1.0
  H  H54  1  0.23229751  0.13644428  0.89018927  1.0
  H  H55  1  0.19042441  0.10787048  0.93717562  1.0
  H  H56  1  0.89944628  0.80350749  0.07114180  1.0
  H  H57  1  0.85499956  0.77349914  0.11667262  1.0
  H  H58  1  0.76887643  0.86725580  0.11438600  1.0
  H  H59  1  0.81237822  0.89529502  0.06736218  1.0
  H  H60  1  0.64915539  0.75696006  0.05452836  1.0
  H  H61  1  0.60653470  0.70870702  0.96562359  1.0
  H  H62  1  0.73614518  0.66335800  0.05556619  1.0
  H  H63  1  0.69382800  0.61645127  0.96664110  1.0
  H  H64  1  0.83998960  0.73725743  0.94329556  1.0
  H  H65  1  0.75717163  0.65981702  0.89970065  1.0
  H  H66  1  0.66758337  0.75062401  0.89768558  1.0
  H  H67  1  0.75066516  0.82769445  0.93942282  1.0
  H  H68  1  0.27708035  0.89704906  0.79676190  1.0
  H  H69  1  0.23306250  0.60615252  0.21208831  1.0
  H  H70  1  0.60059372  0.98734989  0.21937495  1.0
  H  H71  1  0.89453394  0.51901464  0.79209754  1.0
  C  C72  1  0.14135623  0.36108990  0.99596357  1.0
  C  C73  1  0.90760528  0.41354216  0.82322915  1.0
  C  C74  1  0.14443590  0.63510354  0.99862331  1.0
  C  C75  1  0.86128555  0.64453046  0.01091152  1.0
  C  C76  1  0.09298172  0.59374762  0.18732234  1.0
  C  C77  1  0.86085037  0.36742254  0.01097642  1.0
  C  C78  1  0.35984163  0.86137214  0.00319130  1.0
  C  C79  1  0.58382686  0.09335626  0.18893041  1.0
  C  C80  1  0.35629448  0.13979452  0.00283649  1.0
  C  C81  1  0.64520063  0.14202682  0.00821777  1.0
  C  C82  1  0.41740819  0.91199710  0.82385468  1.0
  C  C83  1  0.64708317  0.86761176  0.00721417  1.0
  C  C84  1  0.37958395  0.87483190  0.74962379  1.0
  C  C85  1  0.42874859  0.85589116  0.71122758  1.0
  C  C86  1  0.39550995  0.82108359  0.64156805  1.0
  C  C87  1  0.30985612  0.80403073  0.60744050  1.0
  C  C88  1  0.25995058  0.82245342  0.64470213  1.0
  C  C89  1  0.29357354  0.85739138  0.71525005  1.0
  C  C90  1  0.27415869  0.76851408  0.53616776  1.0
  C  C91  1  0.24204726  0.73780682  0.47473916  1.0
  C  C92  1  0.20528239  0.70204221  0.40349940  1.0
  C  C93  1  0.25388338  0.68277383  0.36512720  1.0
  C  C94  1  0.21878871  0.64740353  0.29459720  1.0
  C  C95  1  0.13264080  0.63080814  0.26144407  1.0
  C  C96  1  0.08479854  0.65058675  0.30096365  1.0
  C  C97  1  0.11943722  0.68546957  0.37055679  1.0
  C  C98  1  0.62498177  0.12874081  0.26270021  1.0
  C  C99  1  0.64513653  0.21168324  0.29849948  1.0
  C  C100  1  0.68399502  0.24767511  0.36774654  1.0
  C  C101  1  0.70420569  0.20030813  0.40379856  1.0
  C  C102  1  0.68538722  0.11772621  0.36909865  1.0
  C  C103  1  0.64575470  0.08124738  0.29889977  1.0
  C  C104  1  0.74197700  0.23647687  0.47480789  1.0
  C  C105  1  0.77250357  0.26844627  0.53624352  1.0
  C  C106  1  0.80631597  0.30500116  0.60740854  1.0
  C  C107  1  0.82294037  0.38764645  0.64187171  1.0
  C  C108  1  0.85596489  0.42467695  0.71239526  1.0
  C  C109  1  0.87247526  0.37764774  0.74911859  1.0
  C  C110  1  0.85525899  0.29459515  0.71348017  1.0
  C  C111  1  0.82282440  0.25806481  0.64393651  1.0
  C  C112  1  0.18890071  0.77814847  0.03751584  1.0
  C  C113  1  0.24788932  0.84070762  0.03912565  1.0
  C  C114  1  0.30304681  0.79903397  0.00150297  1.0
  C  C115  1  0.24806587  0.74440613  0.92794079  1.0
  C  C116  1  0.18975428  0.68153307  0.92646903  1.0
  C  C117  1  0.20406567  0.69381585  0.99902307  1.0
  C  C118  1  0.29244281  0.68708547  0.03451105  1.0
  C  C119  1  0.35103806  0.74915165  0.03567555  1.0
  C  C120  1  0.85017613  0.25686086  0.04346589  1.0
  C  C121  1  0.79134701  0.19467092  0.04254046  1.0
  C  C122  1  0.70235433  0.20388571  0.00932740  1.0
  C  C123  1  0.68742623  0.19152321  0.93666723  1.0
  C  C124  1  0.74555189  0.25420286  0.93782198  1.0
  C  C125  1  0.80148332  0.30882797  0.01121077  1.0
  C  C126  1  0.74927201  0.35026992  0.05099978  1.0
  C  C127  1  0.69035419  0.28812104  0.04960668  1.0
  C  C128  1  0.21853025  0.28941945  0.06033574  1.0
  C  C129  1  0.27682180  0.22818726  0.06221180  1.0
  C  C130  1  0.29728223  0.19793888  0.99811954  1.0
  C  C131  1  0.33714360  0.26936387  0.99554096  1.0
  C  C132  1  0.27823134  0.32996051  0.99305911  1.0
  C  C133  1  0.19831118  0.30033988  0.99459386  1.0
  C  C134  1  0.15927063  0.22001683  0.93386771  1.0
  C  C135  1  0.21811314  0.15935577  0.93583775  1.0
  C  C136  1  0.84140689  0.78276481  0.07081187  1.0
  C  C137  1  0.78348667  0.84450193  0.06898201  1.0
  C  C138  1  0.70372433  0.80646941  0.00598174  1.0
  C  C139  1  0.66415429  0.73536250  0.00936186  1.0
  C  C140  1  0.72218437  0.67371860  0.01022425  1.0
  C  C141  1  0.80186570  0.70290642  0.00827546  1.0
  C  C142  1  0.78298746  0.71660869  0.94434014  1.0
  C  C143  1  0.72402789  0.77705850  0.94254418  1.0
  O  O144  1  0.00020601  0.50284933  0.00642601  1.0
  O  O145  1  0.17166498  0.43257659  0.03893190  1.0
  O  O146  1  0.92012431  0.36826334  0.85308897  1.0
  O  O147  1  0.07036881  0.62534721  0.95989381  1.0
  O  O148  1  0.06751035  0.33631851  0.95556837  1.0
  O  O149  1  0.17190550  0.60118619  0.03762365  1.0
  O  O150  1  0.92390889  0.49030498  0.85392531  1.0
  O  O151  1  0.90144615  0.63346003  0.97318245  1.0
  O  O152  1  0.01577659  0.58027633  0.16029070  1.0
  O  O153  1  0.86789893  0.61218405  0.05096763  1.0
  O  O154  1  0.14056638  0.57700778  0.15384961  1.0
  O  O155  1  0.89949458  0.33756086  0.97227987  1.0
  O  O156  1  0.86811142  0.44064260  0.04884414  1.0
  O  O157  1  0.50208579  0.00332378  0.00499072  1.0
  O  O158  1  0.32816758  0.89935201  0.96828571  1.0
  O  O159  1  0.56538871  0.01668627  0.15824195  1.0
  O  O160  1  0.42863288  0.16872650  0.04608437  1.0
  O  O161  1  0.43483607  0.87160243  0.03962456  1.0
  O  O162  1  0.32926447  0.06668204  0.96420715  1.0
  O  O163  1  0.56849876  0.13875763  0.15919653  1.0
  O  O164  1  0.60719084  0.16711216  0.04777903  1.0
  O  O165  1  0.49446916  0.92854711  0.85254383  1.0
  O  O166  1  0.63988952  0.06986939  0.96804584  1.0
  O  O167  1  0.36819432  0.92572584  0.85577188  1.0
  O  O168  1  0.61772750  0.88678852  0.05307848  1.0
  O  O169  1  0.63336870  0.89553335  0.96359309  1.0
  O  O170  1  0.24177449  0.87317035  0.74763979  1.0
  O  O171  1  0.26926252  0.63054967  0.26095490  1.0
  O  O172  1  0.62883439  0.00162053  0.26854252  1.0
  O  O173  1  0.87077169  0.50437084  0.74261836  1.0
