# generated using pymatgen
data_Zr3H23C44Br5O16
_symmetry_space_group_name_H-M   'P 1'
_cell_length_a   19.03243955
_cell_length_b   19.16532987
_cell_length_c   19.16526363
_cell_angle_alpha   89.63197488
_cell_angle_beta   60.28955323
_cell_angle_gamma   119.70953357
_symmetry_Int_Tables_number   1
_chemical_formula_structural   Zr3H23C44Br5O16
_chemical_formula_sum   'Zr6 H46 C88 Br10 O32'
_cell_volume   4970.55924819
_cell_formula_units_Z   2
loop_
 _symmetry_equiv_pos_site_id
 _symmetry_equiv_pos_as_xyz
  1  'x, y, z'
loop_
 _atom_site_type_symbol
 _atom_site_label
 _atom_site_symmetry_multiplicity
 _atom_site_fract_x
 _atom_site_fract_y
 _atom_site_fract_z
 _atom_site_occupancy
  Zr  Zr0  1  0.50132736  0.09275756  0.90719737  1.0
  Zr  Zr1  1  0.49955185  0.90718439  0.09274605  1.0
  Zr  Zr2  1  0.31515586  0.90896942  0.09114066  1.0
  Zr  Zr3  1  0.68572322  0.09114188  0.90894862  1.0
  Zr  Zr4  1  0.50040122  0.09180181  0.09183323  1.0
  Zr  Zr5  1  0.50041347  0.90818789  0.90818787  1.0
  H  H6  1  0.35519862  0.07340280  0.07109260  1.0
  H  H7  1  0.64561273  0.07111176  0.07344891  1.0
  H  H8  1  0.35472784  0.78278910  0.07240388  1.0
  H  H9  1  0.64612117  0.07241936  0.78281166  1.0
  H  H10  1  0.49929524  0.54497627  0.11402090  1.0
  H  H11  1  0.49855961  0.45323449  0.88708425  1.0
  H  H12  1  0.50377780  0.31874119  0.10345883  1.0
  H  H13  1  0.50028058  0.44481860  0.11175772  1.0
  H  H14  1  0.50361574  0.68445339  0.89310782  1.0
  H  H15  1  0.50069568  0.55516362  0.88783317  1.0
  H  H16  1  0.50119610  0.88680250  0.45386637  1.0
  H  H17  1  0.50047794  0.11375820  0.54558310  1.0
  H  H18  1  0.49665393  0.89298742  0.68469415  1.0
  H  H19  1  0.49910452  0.88756608  0.55564316  1.0
  H  H20  1  0.49638374  0.10324030  0.31897401  1.0
  H  H21  1  0.49945892  0.11145389  0.44528595  1.0
  H  H22  1  0.16045214  0.54672835  0.88687741  1.0
  H  H23  1  0.83993673  0.45264643  0.11432402  1.0
  H  H24  1  0.92343821  0.32149260  0.89222060  1.0
  H  H25  1  0.05810652  0.44766501  0.88702131  1.0
  H  H26  1  0.07719115  0.68305557  0.10394336  1.0
  H  H27  1  0.94247191  0.55348531  0.11264149  1.0
  H  H28  1  0.16061555  0.11460433  0.45218368  1.0
  H  H29  1  0.84008690  0.88714333  0.54625328  1.0
  H  H30  1  0.92352500  0.10404092  0.68270744  1.0
  H  H31  1  0.05815643  0.11289585  0.55292799  1.0
  H  H32  1  0.07729950  0.89238462  0.32109963  1.0
  H  H33  1  0.94256043  0.88732565  0.44706732  1.0
  H  H34  1  0.93278550  0.12122102  0.89992618  1.0
  H  H35  1  0.71211781  0.87587162  0.09689412  1.0
  H  H36  1  0.06807386  0.89996926  0.12122058  1.0
  H  H37  1  0.28869230  0.09681632  0.87578152  1.0
  H  H38  1  0.11211557  0.18620936  0.92300446  1.0
  H  H39  1  0.10863108  0.18157037  0.83245445  1.0
  H  H40  1  0.84741519  0.81208984  0.07853292  1.0
  H  H41  1  0.75990942  0.81918484  0.16808455  1.0
  H  H42  1  0.88880693  0.92307117  0.18621002  1.0
  H  H43  1  0.89224180  0.83249237  0.18158271  1.0
  H  H44  1  0.15342605  0.07851388  0.81201257  1.0
  H  H45  1  0.24093845  0.16802458  0.81913527  1.0
  H  H46  1  0.93152449  0.54541062  0.45358090  1.0
  H  H47  1  0.06924411  0.45370423  0.54528629  1.0
  H  H48  1  0.71319989  0.31914777  0.68462602  1.0
  H  H49  1  0.83285246  0.44514013  0.55568333  1.0
  H  H50  1  0.28750194  0.68450867  0.31919611  1.0
  H  H51  1  0.16770605  0.55555857  0.44517722  1.0
  C  C52  1  0.50541622  0.23681297  0.99435876  1.0
  C  C53  1  0.49525192  0.99432824  0.23689947  1.0
  C  C54  1  0.50398702  0.76727062  0.00133545  1.0
  C  C55  1  0.49676564  0.00137916  0.76735096  1.0
  C  C56  1  0.26419391  0.99807095  0.99789940  1.0
  C  C57  1  0.73971783  0.23646296  0.76778901  1.0
  C  C58  1  0.73668252  0.99792261  0.99805293  1.0
  C  C59  1  0.26116189  0.76781130  0.23643950  1.0
  C  C60  1  0.26891572  0.00132217  0.23629815  1.0
  C  C61  1  0.26878556  0.76891765  0.99378166  1.0
  C  C62  1  0.73198972  0.99377013  0.76879173  1.0
  C  C63  1  0.73182713  0.23640396  0.00129642  1.0
  C  C64  1  0.50332436  0.68900838  0.00466194  1.0
  C  C65  1  0.50368095  0.31386449  0.99209019  1.0
  C  C66  1  0.50194607  0.64748157  0.06678735  1.0
  C  C67  1  0.50030137  0.57407326  0.06438247  1.0
  C  C68  1  0.50169861  0.35363255  0.93156743  1.0
  C  C69  1  0.49991340  0.42536202  0.93558312  1.0
  C  C70  1  0.50280217  0.34953424  0.05625388  1.0
  C  C71  1  0.50088181  0.42075038  0.06033175  1.0
  C  C72  1  0.50269183  0.65264432  0.94120583  1.0
  C  C73  1  0.50103487  0.57965599  0.93881460  1.0
  C  C74  1  0.50006602  0.53838515  0.00070362  1.0
  C  C75  1  0.49996253  0.46101900  0.99932304  1.0
  C  C76  1  0.49660477  0.99193720  0.31414236  1.0
  C  C77  1  0.49706855  0.00459720  0.68926596  1.0
  C  C78  1  0.49841835  0.93135970  0.35403631  1.0
  C  C79  1  0.49994716  0.93532387  0.42588546  1.0
  C  C80  1  0.49825290  0.06665195  0.64785855  1.0
  C  C81  1  0.49958754  0.06415483  0.57458889  1.0
  C  C82  1  0.49747562  0.94105555  0.65297040  1.0
  C  C83  1  0.49886713  0.93858329  0.58010499  1.0
  C  C84  1  0.49727749  0.05603741  0.34986842  1.0
  C  C85  1  0.49893984  0.06004913  0.42121270  1.0
  C  C86  1  0.49982039  0.99904817  0.46154206  1.0
  C  C87  1  0.49973880  0.00044745  0.53890233  1.0
  C  C88  1  0.19413130  0.68982292  0.99182200  1.0
  C  C89  1  0.80636592  0.31434567  0.00456085  1.0
  C  C90  1  0.21534444  0.64882870  0.93124131  1.0
  C  C91  1  0.13950410  0.57528874  0.93548815  1.0
  C  C92  1  0.78507976  0.35353586  0.06690538  1.0
  C  C93  1  0.86090036  0.42529196  0.06452248  1.0
  C  C94  1  0.90678156  0.35135422  0.94075057  1.0
  C  C95  1  0.98217093  0.42264532  0.93834346  1.0
  C  C96  1  0.09376880  0.65211390  0.05645354  1.0
  C  C97  1  0.01835621  0.57895055  0.06080054  1.0
  C  C98  1  0.03956043  0.53879885  0.99947246  1.0
  C  C99  1  0.96087863  0.46172695  0.00068872  1.0
  C  C100  1  0.19430461  0.00469216  0.31406191  1.0
  C  C101  1  0.80654758  0.99191233  0.68953909  1.0
  C  C102  1  0.21552868  0.06708490  0.35321531  1.0
  C  C103  1  0.13968048  0.06476123  0.42487313  1.0
  C  C104  1  0.78526425  0.93138772  0.64851012  1.0
  C  C105  1  0.86105814  0.93571631  0.57484525  1.0
  C  C106  1  0.90689812  0.05660029  0.65173005  1.0
  C  C107  1  0.98226437  0.06103994  0.57843832  1.0
  C  C108  1  0.09390005  0.94093198  0.35095386  1.0
  C  C109  1  0.01847679  0.93860444  0.42213198  1.0
  C  C110  1  0.03971816  0.00095128  0.46122571  1.0
  C  C111  1  0.96102132  0.99973924  0.53828208  1.0
  C  C112  1  0.09505206  0.14381589  0.88664085  1.0
  C  C113  1  0.83789557  0.85573068  0.11360236  1.0
  C  C114  1  0.90582672  0.88668315  0.14382789  1.0
  C  C115  1  0.16294705  0.11355758  0.85567105  1.0
  C  C116  1  0.91422989  0.06800683  0.94301530  1.0
  C  C117  1  0.98785938  0.06943081  0.94337589  1.0
  C  C118  1  0.78955827  0.92954563  0.05444309  1.0
  C  C119  1  0.86207740  0.92948907  0.05560992  1.0
  C  C120  1  0.08663407  0.94302362  0.06797249  1.0
  C  C121  1  0.01298966  0.94337885  0.06940506  1.0
  C  C122  1  0.21126149  0.05437645  0.92947509  1.0
  C  C123  1  0.13873631  0.05553928  0.92942368  1.0
  C  C124  1  0.81498303  0.99838453  0.99826820  1.0
  C  C125  1  0.96185665  0.99964875  0.99974346  1.0
  C  C126  1  0.18586536  0.99823733  0.99833195  1.0
  C  C127  1  0.03896904  0.99971841  0.99962003  1.0
  C  C128  1  0.18041745  0.68937547  0.31391413  1.0
  C  C129  1  0.82039832  0.31396801  0.68937473  1.0
  C  C130  1  0.07809940  0.64772961  0.35395280  1.0
  C  C131  1  0.00928528  0.57445932  0.42567508  1.0
  C  C132  1  0.92272122  0.35405010  0.64767722  1.0
  C  C133  1  0.99147249  0.42577560  0.57439868  1.0
  C  C134  1  0.79216906  0.34989198  0.65292937  1.0
  C  C135  1  0.86041099  0.42113554  0.58005693  1.0
  C  C136  1  0.20855165  0.65285171  0.34987858  1.0
  C  C137  1  0.14022426  0.57998103  0.42111957  1.0
  C  C138  1  0.03795668  0.53872118  0.46142381  1.0
  C  C139  1  0.96269509  0.46145934  0.53872259  1.0
  Br  Br140  1  0.50209564  0.68363181  0.15947555  1.0
  Br  Br141  1  0.50046609  0.31674090  0.83952668  1.0
  Br  Br142  1  0.49976443  0.83936646  0.31714254  1.0
  Br  Br143  1  0.49832074  0.15942873  0.68396804  1.0
  Br  Br144  1  0.34494440  0.68570382  0.83848432  1.0
  Br  Br145  1  0.65540663  0.31612497  0.15996243  1.0
  Br  Br146  1  0.34516231  0.16013442  0.31590849  1.0
  Br  Br147  1  0.65563322  0.83858865  0.68555530  1.0
  Br  Br148  1  0.02078611  0.68375174  0.31742592  1.0
  Br  Br149  1  0.98011294  0.31756728  0.68362121  1.0
  O  O150  1  0.50735879  0.20528794  0.93552247  1.0
  O  O151  1  0.49349917  0.93556985  0.20529998  1.0
  O  O152  1  0.50336318  0.79931517  0.05959609  1.0
  O  O153  1  0.49764426  0.05974842  0.79929366  1.0
  O  O154  1  0.23571320  0.93931635  0.05813593  1.0
  O  O155  1  0.76520216  0.20367219  0.80076445  1.0
  O  O156  1  0.76515649  0.05813728  0.93927980  1.0
  O  O157  1  0.23571128  0.80087843  0.20370231  1.0
  O  O158  1  0.35973110  0.05879804  0.20377857  1.0
  O  O159  1  0.35958454  0.80157413  0.93604518  1.0
  O  O160  1  0.64116526  0.93602967  0.80151109  1.0
  O  O161  1  0.64099474  0.20372744  0.05888051  1.0
  O  O162  1  0.23687500  0.79757613  0.05348764  1.0
  O  O163  1  0.76394762  0.05337084  0.79752877  1.0
  O  O164  1  0.76388673  0.20715129  0.94227587  1.0
  O  O165  1  0.23691856  0.94228978  0.20703392  1.0
  O  O166  1  0.35422341  0.05664170  0.93885824  1.0
  O  O167  1  0.35002103  0.79553034  0.20767664  1.0
  O  O168  1  0.64665007  0.93887470  0.05663185  1.0
  O  O169  1  0.65084350  0.20771276  0.79558559  1.0
  O  O170  1  0.49724681  0.94144208  0.79599474  1.0
  O  O171  1  0.50344272  0.20705289  0.05553517  1.0
  O  O172  1  0.49729352  0.05552481  0.20707862  1.0
  O  O173  1  0.50350237  0.79594683  0.94140805  1.0
  O  O174  1  0.60518706  0.05184628  0.84459388  1.0
  O  O175  1  0.39567337  0.84457019  0.05184108  1.0
  O  O176  1  0.60427142  0.05119228  0.05262226  1.0
  O  O177  1  0.39658537  0.05262248  0.05119418  1.0
  O  O178  1  0.42312511  0.96165048  0.11447004  1.0
  O  O179  1  0.57771047  0.11442340  0.96168104  1.0
  O  O180  1  0.57716437  0.96134985  0.96235219  1.0
  O  O181  1  0.42366690  0.96233930  0.96135213  1.0
