# generated using pymatgen
data_Cu3H18(C3N)7
_symmetry_space_group_name_H-M   'P 1'
_cell_length_a   29.03984910
_cell_length_b   29.78687666
_cell_length_c   30.47867429
_cell_angle_alpha   87.82356246
_cell_angle_beta   87.35751958
_cell_angle_gamma   89.55592414
_symmetry_Int_Tables_number   1
_chemical_formula_structural   Cu3H18(C3N)7
_chemical_formula_sum   'Cu12 H72 C84 N28'
_cell_volume   26316.74051497
_cell_formula_units_Z   4
loop_
 _symmetry_equiv_pos_site_id
 _symmetry_equiv_pos_as_xyz
  1  'x, y, z'
loop_
 _atom_site_type_symbol
 _atom_site_label
 _atom_site_symmetry_multiplicity
 _atom_site_fract_x
 _atom_site_fract_y
 _atom_site_fract_z
 _atom_site_occupancy
  Cu  Cu0  1  0.12225469  0.91507660  0.14582329  1.0
  Cu  Cu1  1  0.15906581  0.87484349  0.05583488  1.0
  Cu  Cu2  1  0.06985297  0.83376749  0.10617470  1.0
  Cu  Cu3  1  0.87877076  0.57438724  0.66330313  1.0
  Cu  Cu4  1  0.83505365  0.62288682  0.58055737  1.0
  Cu  Cu5  1  0.92096325  0.66616528  0.62454380  1.0
  Cu  Cu6  1  0.62693460  0.08722191  0.34072628  1.0
  Cu  Cu7  1  0.67424002  0.13437422  0.41835667  1.0
  Cu  Cu8  1  0.58160528  0.17492994  0.38067273  1.0
  Cu  Cu9  1  0.37607611  0.41723472  0.84539244  1.0
  Cu  Cu10  1  0.33161693  0.37594950  0.93472201  1.0
  Cu  Cu11  1  0.42142029  0.33111340  0.89024982  1.0
  H  H12  1  0.19585574  0.99151835  0.15659432  1.0
  H  H13  1  0.24147125  0.94168991  0.02999782  1.0
  H  H14  1  0.98645680  0.82141302  0.17724621  1.0
  H  H15  1  0.05896248  0.93205802  0.23063752  1.0
  H  H16  1  0.17111830  0.80809071  0.97692913  1.0
  H  H17  1  0.04781278  0.75441904  0.04449742  1.0
  H  H18  1  0.81457600  0.48867443  0.67601871  1.0
  H  H19  1  0.75531915  0.55475717  0.56251808  1.0
  H  H20  1  0.00032636  0.68055352  0.69163246  1.0
  H  H21  1  0.94252899  0.55448118  0.74298545  1.0
  H  H22  1  0.81737453  0.69584346  0.50489118  1.0
  H  H23  1  0.93642758  0.75297165  0.56216861  1.0
  H  H24  1  0.69645329  0.00699234  0.32373687  1.0
  H  H25  1  0.76209414  0.07073479  0.42978903  1.0
  H  H26  1  0.49589005  0.18829461  0.32012776  1.0
  H  H27  1  0.55597694  0.06647865  0.26846378  1.0
  H  H28  1  0.69125313  0.20204606  0.49312162  1.0
  H  H29  1  0.56451661  0.25708611  0.44327435  1.0
  H  H30  1  0.30683988  0.49831066  0.82706891  1.0
  H  H31  1  0.24686052  0.44208643  0.94971914  1.0
  H  H32  1  0.50484104  0.31320270  0.82074752  1.0
  H  H33  1  0.44386529  0.43335253  0.76275135  1.0
  H  H34  1  0.31675925  0.31130975  0.01980798  1.0
  H  H35  1  0.43989420  0.25255173  0.95942990  1.0
  H  H36  1  0.33586096  0.07900921  0.08018525  1.0
  H  H37  1  0.27357205  0.03155120  0.15376000  1.0
  H  H38  1  0.33565532  0.08032837  0.18184161  1.0
  H  H39  1  0.28649410  0.01983213  0.05394473  1.0
  H  H40  1  0.66266664  0.41704260  0.55486861  1.0
  H  H41  1  0.71082551  0.48356602  0.55647266  1.0
  H  H42  1  0.65893386  0.42050309  0.65602247  1.0
  H  H43  1  0.73780499  0.44575612  0.64706182  1.0
  H  H44  1  0.83725325  0.91634167  0.30832295  1.0
  H  H45  1  0.76969053  0.96486049  0.31352552  1.0
  H  H46  1  0.83172613  0.91369145  0.40972728  1.0
  H  H47  1  0.80630226  0.99213030  0.40169392  1.0
  H  H48  1  0.14566509  0.57551988  0.94978832  1.0
  H  H49  1  0.19868185  0.51171472  0.95155490  1.0
  H  H50  1  0.14832080  0.56498330  0.84921511  1.0
  H  H51  1  0.22667203  0.54138180  0.85634857  1.0
  H  H52  1  0.91875052  0.94637145  0.32877921  1.0
  H  H53  1  0.98694139  0.94295595  0.27774848  1.0
  H  H54  1  0.93187641  0.84360314  0.33631312  1.0
  H  H55  1  0.94829400  0.85061397  0.25741500  1.0
  H  H56  1  0.58445524  0.44240129  0.66696021  1.0
  H  H57  1  0.51819981  0.44081781  0.71931174  1.0
  H  H58  1  0.56817198  0.34045919  0.66191562  1.0
  H  H59  1  0.54721071  0.34304835  0.73989105  1.0
  H  H60  1  0.07029509  0.54663882  0.84187216  1.0
  H  H61  1  0.00934018  0.54961602  0.78992318  1.0
  H  H62  1  0.06161168  0.65012125  0.84188509  1.0
  H  H63  1  0.04125580  0.64619956  0.76676118  1.0
  H  H64  1  0.41568896  0.05577136  0.18538623  1.0
  H  H65  1  0.48146593  0.05833508  0.23209553  1.0
  H  H66  1  0.42812740  0.15845505  0.17271485  1.0
  H  H67  1  0.45125864  0.15568312  0.24846840  1.0
  H  H68  1  0.03708753  0.65803077  0.91697101  1.0
  H  H69  1  0.03903874  0.71039499  0.97687905  1.0
  H  H70  1  0.14260893  0.65204540  0.92553658  1.0
  H  H71  1  0.13782691  0.73054705  0.94122296  1.0
  H  H72  1  0.69486683  0.33889693  0.57908607  1.0
  H  H73  1  0.69509530  0.27199711  0.53476836  1.0
  H  H74  1  0.59053320  0.32134312  0.59156765  1.0
  H  H75  1  0.59612147  0.30119423  0.51511888  1.0
  H  H76  1  0.44899037  0.16104848  0.09673303  1.0
  H  H77  1  0.44699284  0.21005707  0.03075190  1.0
  H  H78  1  0.34294027  0.15854859  0.09193341  1.0
  H  H79  1  0.34899056  0.23484180  0.06464362  1.0
  H  H80  1  0.80746144  0.84085268  0.42104437  1.0
  H  H81  1  0.80758117  0.77326261  0.46947728  1.0
  H  H82  1  0.91176925  0.82167749  0.40832710  1.0
  H  H83  1  0.90745476  0.79922793  0.48577202  1.0
  C  C84  1  0.20171043  0.97362169  0.12646778  1.0
  C  C85  1  0.23482829  0.98114168  0.09177945  1.0
  C  C86  1  0.22446364  0.94855796  0.06152591  1.0
  C  C87  1  0.00969124  0.84825004  0.18452450  1.0
  C  C88  1  0.00732678  0.87759373  0.21971385  1.0
  C  C89  1  0.04638142  0.90497281  0.21170435  1.0
  C  C90  1  0.14123079  0.80057423  0.99861181  1.0
  C  C91  1  0.10831686  0.76643989  0.99609752  1.0
  C  C92  1  0.07806718  0.77324995  0.03277169  1.0
  C  C93  1  0.80547117  0.51051463  0.64838528  1.0
  C  C94  1  0.77025969  0.50567599  0.61870442  1.0
  C  C95  1  0.77528442  0.54396210  0.59028155  1.0
  C  C96  1  0.98093805  0.64987871  0.69861973  1.0
  C  C97  1  0.98640791  0.61673330  0.73217292  1.0
  C  C98  1  0.95172399  0.58540474  0.72485438  1.0
  C  C99  1  0.84624527  0.70425067  0.52434117  1.0
  C  C100  1  0.87627963  0.74122403  0.51976668  1.0
  C  C101  1  0.90734860  0.73305842  0.55331089  1.0
  C  C102  1  0.70700908  0.02806811  0.34968571  1.0
  C  C103  1  0.74570877  0.02429212  0.37587846  1.0
  C  C104  1  0.74019181  0.06051080  0.40406452  1.0
  C  C105  1  0.51638058  0.15871973  0.31251060  1.0
  C  C106  1  0.50952191  0.12639869  0.28098957  1.0
  C  C107  1  0.54670451  0.09630654  0.28630090  1.0
  C  C108  1  0.66036574  0.21025639  0.47570404  1.0
  C  C109  1  0.62800904  0.24514497  0.48222385  1.0
  C  C110  1  0.59553518  0.23807299  0.45032602  1.0
  C  C111  1  0.29796380  0.47909864  0.85723150  1.0
  C  C112  1  0.26132974  0.48562492  0.88823475  1.0
  C  C113  1  0.26738282  0.45069583  0.91999310  1.0
  C  C114  1  0.48428792  0.34259975  0.81224035  1.0
  C  C115  1  0.49026118  0.37356983  0.77641749  1.0
  C  C116  1  0.45356295  0.40419725  0.78275389  1.0
  C  C117  1  0.34673523  0.30234879  0.99928204  1.0
  C  C118  1  0.37898419  0.26747508  0.00571445  1.0
  C  C119  1  0.40978479  0.27240701  0.96878016  1.0
  C  C120  1  0.34393451  0.09014492  0.14752327  1.0
  C  C121  1  0.32352023  0.07056392  0.11392700  1.0
  C  C122  1  0.28751887  0.03798496  0.12011432  1.0
  C  C123  1  0.27100276  0.01417945  0.08710857  1.0
  C  C124  1  0.65302702  0.40806922  0.62349355  1.0
  C  C125  1  0.67351932  0.42753964  0.58673634  1.0
  C  C126  1  0.70809186  0.46202031  0.58635073  1.0
  C  C127  1  0.73754270  0.46940966  0.61870694  1.0
  C  C128  1  0.84488168  0.90743088  0.37633101  1.0
  C  C129  1  0.82588237  0.92759588  0.34078566  1.0
  C  C130  1  0.79097175  0.96216297  0.34222092  1.0
  C  C131  1  0.78280801  0.99171505  0.37465880  1.0
  C  C132  1  0.14042824  0.57945329  0.88107632  1.0
  C  C133  1  0.15962117  0.56345724  0.91844052  1.0
  C  C134  1  0.19594371  0.53026707  0.92008125  1.0
  C  C135  1  0.22676783  0.52065387  0.88677683  1.0
  C  C136  1  0.91608115  0.87637675  0.34199206  1.0
  C  C137  1  0.93213496  0.91356757  0.31937484  1.0
  C  C138  1  0.96591815  0.91273834  0.28325368  1.0
  C  C139  1  0.97227293  0.87886134  0.25485301  1.0
  C  C140  1  0.58490353  0.37293205  0.65589647  1.0
  C  C141  1  0.57041166  0.40971979  0.67789572  1.0
  C  C142  1  0.53652067  0.40908230  0.71396411  1.0
  C  C143  1  0.52627619  0.37366287  0.74209951  1.0
  C  C144  1  0.07515236  0.61647099  0.84894001  1.0
  C  C145  1  0.05958344  0.57971533  0.82918754  1.0
  C  C146  1  0.02818692  0.58077473  0.79388023  1.0
  C  C147  1  0.02023509  0.61597958  0.76545832  1.0
  C  C148  1  0.41281075  0.12530251  0.17058815  1.0
  C  C149  1  0.42837876  0.08871586  0.19363524  1.0
  C  C150  1  0.46241907  0.08974035  0.22651930  1.0
  C  C151  1  0.47264052  0.12535270  0.25085422  1.0
  C  C152  1  0.10888761  0.64674947  0.91226972  1.0
  C  C153  1  0.07063888  0.66910582  0.92711706  1.0
  C  C154  1  0.07106741  0.70520308  0.95730910  1.0
  C  C155  1  0.10710774  0.73285493  0.96323717  1.0
  C  C156  1  0.62340718  0.33819712  0.59463227  1.0
  C  C157  1  0.66185385  0.32405733  0.57209166  1.0
  C  C158  1  0.66247090  0.29024158  0.53948251  1.0
  C  C159  1  0.62733837  0.28038586  0.51352421  1.0
  C  C160  1  0.37700547  0.15281194  0.10487461  1.0
  C  C161  1  0.41539402  0.17260940  0.08593401  1.0
  C  C162  1  0.41510361  0.20682429  0.05120161  1.0
  C  C163  1  0.37956948  0.23520706  0.04224886  1.0
  C  C164  1  0.87896757  0.83934307  0.40509480  1.0
  C  C165  1  0.84058457  0.82577483  0.42910371  1.0
  C  C166  1  0.84026857  0.79098936  0.46331721  1.0
  C  C167  1  0.87615342  0.77888881  0.48844546  1.0
  N  N168  1  0.62118019  0.37289291  0.62436073  1.0
  N  N169  1  0.37699751  0.12391064  0.14184538  1.0
  N  N170  1  0.10908806  0.61507829  0.87979114  1.0
  N  N171  1  0.88043124  0.87533162  0.37453396  1.0
  N  N172  1  0.18840247  0.92355330  0.07715229  1.0
  N  N173  1  0.17415306  0.93931163  0.11739166  1.0
  N  N174  1  0.06966842  0.89291017  0.17471510  1.0
  N  N175  1  0.04689372  0.85768791  0.15771871  1.0
  N  N176  1  0.09193754  0.80864696  0.05491662  1.0
  N  N177  1  0.13116571  0.82572823  0.03368542  1.0
  N  N178  1  0.81065105  0.56911482  0.60219343  1.0
  N  N179  1  0.82946258  0.54836238  0.63830397  1.0
  N  N180  1  0.92797575  0.59891139  0.68974408  1.0
  N  N181  1  0.94607639  0.63897567  0.67335532  1.0
  N  N182  1  0.89640878  0.69462840  0.57611332  1.0
  N  N183  1  0.85847613  0.67671754  0.55800164  1.0
  N  N184  1  0.70157425  0.08391711  0.39515717  1.0
  N  N185  1  0.68100593  0.06367007  0.36136795  1.0
  N  N186  1  0.57313691  0.10971042  0.31849015  1.0
  N  N187  1  0.55429361  0.14846736  0.33487119  1.0
  N  N188  1  0.60775966  0.20211862  0.42672592  1.0
  N  N189  1  0.64805081  0.18486489  0.44257189  1.0
  N  N190  1  0.30471548  0.42583963  0.90871913  1.0
  N  N191  1  0.32378452  0.44346438  0.86973860  1.0
  N  N192  1  0.42827635  0.39241154  0.81946847  1.0
  N  N193  1  0.44732692  0.35418399  0.83790958  1.0
  N  N194  1  0.39685025  0.30746385  0.94286457  1.0
  N  N195  1  0.35768594  0.32618187  0.96178043  1.0
