# generated using pymatgen
data_AlH12C21NO6
_symmetry_space_group_name_H-M   'P 1'
_cell_length_a   4.13132486
_cell_length_b   13.47344269
_cell_length_c   13.47320534
_cell_angle_alpha   119.99985605
_cell_angle_beta   90.00079200
_cell_angle_gamma   89.99917130
_symmetry_Int_Tables_number   1
_chemical_formula_structural   AlH12C21NO6
_chemical_formula_sum   'Al1 H12 C21 N1 O6'
_cell_volume   649.48648142
_cell_formula_units_Z   1
loop_
 _symmetry_equiv_pos_site_id
 _symmetry_equiv_pos_as_xyz
  1  'x, y, z'
loop_
 _atom_site_type_symbol
 _atom_site_label
 _atom_site_symmetry_multiplicity
 _atom_site_fract_x
 _atom_site_fract_y
 _atom_site_fract_z
 _atom_site_occupancy
  Al  Al0  1  0.00000284  0.49999916  0.00000148  1.0
  H  H1  1  0.18920836  0.78744960  0.96939914  1.0
  H  H2  1  0.20183201  0.89556702  0.86607725  1.0
  H  H3  1  0.79815187  0.63392881  0.60444126  1.0
  H  H4  1  0.81076951  0.53061394  0.71256340  1.0
  H  H5  1  0.79814502  0.97051208  0.86607665  1.0
  H  H6  1  0.81078824  0.18194767  0.96939070  1.0
  H  H7  1  0.18922160  0.18194757  0.71255225  1.0
  H  H8  1  0.20183167  0.97051298  0.60443970  1.0
  H  H9  1  0.79824575  0.89554079  0.52949062  1.0
  H  H10  1  0.81086903  0.78740859  0.31804678  1.0
  H  H11  1  0.18913985  0.53062233  0.31805810  1.0
  H  H12  1  0.20177008  0.63395076  0.52949859  1.0
  C  C13  1  0.50001165  0.32458407  0.91228574  1.0
  C  C14  1  0.50000171  0.58769729  0.17541379  1.0
  C  C15  1  0.49999583  0.58770706  0.91230096  1.0
  C  C16  1  0.33026622  0.75498748  0.89082559  1.0
  C  C17  1  0.33305921  0.81507513  0.83175133  1.0
  C  C18  1  0.49999037  0.77253598  0.72746488  1.0
  C  C19  1  0.66695951  0.66825965  0.68493648  1.0
  C  C20  1  0.66969259  0.60918370  0.74502033  1.0
  C  C21  1  0.50000258  0.65176267  0.84826014  1.0
  C  C22  1  0.66693202  0.01667585  0.83174735  1.0
  C  C23  1  0.66973596  0.13583388  0.89081516  1.0
  C  C24  1  0.49998659  0.19648913  0.84824204  1.0
  C  C25  1  0.33029437  0.13582864  0.74500362  1.0
  C  C26  1  0.33303585  0.01667265  0.68493052  1.0
  C  C27  1  0.49999579  0.95493042  0.72746354  1.0
  C  C28  1  0.66700056  0.81505662  0.48332333  1.0
  C  C29  1  0.66977323  0.75496547  0.36416397  1.0
  C  C30  1  0.50002244  0.65174667  0.30351544  1.0
  C  C31  1  0.33025117  0.60917923  0.36416800  1.0
  C  C32  1  0.33302396  0.66825844  0.48332823  1.0
  C  C33  1  0.50000082  0.77253755  0.54507462  1.0
  N  N34  1  0.49999485  0.83334015  0.66667225  1.0
  O  O35  1  0.73622865  0.60585155  0.98016645  1.0
  O  O36  1  0.73623213  0.37430778  0.89414566  1.0
  O  O37  1  0.73622423  0.51983392  0.12568933  1.0
  O  O38  1  0.26376044  0.51984649  0.89414910  1.0
  O  O39  1  0.26376361  0.60584314  0.12569320  1.0
  O  O40  1  0.26378997  0.37430518  0.98015294  1.0
