# generated using pymatgen
data_ZnH7C12NO4
_symmetry_space_group_name_H-M   'P 1'
_cell_length_a   9.73467265
_cell_length_b   11.08385271
_cell_length_c   14.13812214
_cell_angle_alpha   91.41114939
_cell_angle_beta   98.72831859
_cell_angle_gamma   90.06380482
_symmetry_Int_Tables_number   1
_chemical_formula_structural   ZnH7C12NO4
_chemical_formula_sum   'Zn2 H14 C24 N2 O8'
_cell_volume   1507.32862652
_cell_formula_units_Z   2
loop_
 _symmetry_equiv_pos_site_id
 _symmetry_equiv_pos_as_xyz
  1  'x, y, z'
loop_
 _atom_site_type_symbol
 _atom_site_label
 _atom_site_symmetry_multiplicity
 _atom_site_fract_x
 _atom_site_fract_y
 _atom_site_fract_z
 _atom_site_occupancy
  Zn  Zn0  1  0.36254208  0.50418400  0.49477760  1.0
  Zn  Zn1  1  0.64954710  0.50432178  0.50634834  1.0
  H  H2  1  0.34110253  0.49257396  0.97704916  1.0
  H  H3  1  0.17006104  0.11718348  0.49709004  1.0
  H  H4  1  0.90774515  0.61067503  0.62695794  1.0
  H  H5  1  0.16640546  0.61121237  0.62325987  1.0
  H  H6  1  0.08253953  0.41843353  0.28045632  1.0
  H  H7  1  0.20068236  0.10575373  0.37564167  1.0
  H  H8  1  0.10063781  0.28583167  0.35027929  1.0
  H  H9  1  0.82098557  0.41626281  0.28448932  1.0
  H  H10  1  0.84070112  0.28342549  0.35410716  1.0
  H  H11  1  0.66125497  0.50511750  0.02350595  1.0
  H  H12  1  0.72750073  0.11996707  0.54747501  1.0
  H  H13  1  0.72989689  0.89577334  0.55032920  1.0
  H  H14  1  0.20045560  0.88010707  0.38301189  1.0
  H  H15  1  0.17354076  0.88968357  0.50493684  1.0
  C  C16  1  0.50741280  0.26872221  0.49917405  1.0
  C  C17  1  0.23050807  0.07042151  0.44782940  1.0
  C  C18  1  0.91791878  0.44923092  0.43424712  1.0
  C  C19  1  0.46512532  0.50112395  0.31159870  1.0
  C  C20  1  0.95169650  0.56399243  0.56985098  1.0
  C  C21  1  0.09448331  0.56462453  0.56770985  1.0
  C  C22  1  0.06066921  0.45025802  0.43197417  1.0
  C  C23  1  0.04872400  0.37353874  0.34137429  1.0
  C  C24  1  0.88577557  0.37209365  0.34392722  1.0
  C  C25  1  0.51104438  0.73963810  0.50631282  1.0
  C  C26  1  0.54053036  0.50532912  0.68922174  1.0
  C  C27  1  0.45380248  0.49777926  0.20838765  1.0
  C  C28  1  0.55140709  0.50452418  0.79232114  1.0
  C  C29  1  0.55931545  0.50145220  0.97858069  1.0
  C  C30  1  0.44320686  0.49631029  0.02171584  1.0
  C  C31  1  0.44879289  0.49651078  0.12151687  1.0
  C  C32  1  0.55467607  0.50282453  0.87895041  1.0
  C  C33  1  0.38602752  0.06527413  0.48093928  1.0
  C  C34  1  0.50688265  0.13434928  0.50282007  1.0
  C  C35  1  0.63091122  0.06909906  0.52868457  1.0
  C  C36  1  0.63216439  0.94331880  0.53070145  1.0
  C  C37  1  0.50931304  0.87413608  0.50740686  1.0
  C  C38  1  0.38721338  0.93931119  0.48358803  1.0
  C  C39  1  0.23174018  0.92797242  0.45188714  1.0
  N  N40  1  0.85991266  0.50493556  0.50225040  1.0
  N  N41  1  0.15196793  0.50656429  0.49758111  1.0
  O  O42  1  0.38954568  0.32093396  0.49136052  1.0
  O  O43  1  0.62490619  0.32137452  0.50399096  1.0
  O  O44  1  0.35197166  0.50168429  0.34654330  1.0
  O  O45  1  0.58823284  0.50324396  0.35780042  1.0
  O  O46  1  0.39314189  0.68668070  0.49802602  1.0
  O  O47  1  0.62865580  0.68753492  0.51259531  1.0
  O  O48  1  0.41725800  0.50601511  0.64319367  1.0
  O  O49  1  0.65355834  0.50487393  0.65419181  1.0
