# generated using pymatgen
data_AlH10C15(NO3)2
_symmetry_space_group_name_H-M   'P 1'
_cell_length_a   6.72700262
_cell_length_b   16.88680448
_cell_length_c   17.82907937
_cell_angle_alpha   92.03099258
_cell_angle_beta   100.56396167
_cell_angle_gamma   96.58403981
_symmetry_Int_Tables_number   1
_chemical_formula_structural   AlH10C15(NO3)2
_chemical_formula_sum   'Al2 H20 C30 N4 O12'
_cell_volume   1974.57273815
_cell_formula_units_Z   2
loop_
 _symmetry_equiv_pos_site_id
 _symmetry_equiv_pos_as_xyz
  1  'x, y, z'
loop_
 _atom_site_type_symbol
 _atom_site_label
 _atom_site_symmetry_multiplicity
 _atom_site_fract_x
 _atom_site_fract_y
 _atom_site_fract_z
 _atom_site_occupancy
  Al  Al0  1  0.00088543  0.49943690  0.50300292  1.0
  Al  Al1  1  0.50084235  0.49889774  0.50361709  1.0
  H  H2  1  0.80693295  0.58542915  0.56658646  1.0
  H  H3  1  0.18813099  0.43695090  0.41730985  1.0
  H  H4  1  0.40459995  0.26684909  0.54452729  1.0
  H  H5  1  0.33382853  0.11727800  0.54386050  1.0
  H  H6  1  0.90080714  0.09809990  0.46985217  1.0
  H  H7  1  0.06976711  0.89752024  0.46662464  1.0
  H  H8  1  0.71086663  0.88632582  0.54058801  1.0
  H  H9  1  0.64053792  0.73727293  0.54000683  1.0
  H  H10  1  0.04714957  0.49244533  0.73636907  1.0
  H  H11  1  0.11643004  0.49606529  0.87770832  1.0
  H  H12  1  0.75921105  0.49716247  0.87658559  1.0
  H  H13  1  0.23982711  0.50446584  0.12890093  1.0
  H  H14  1  0.95214790  0.50604942  0.26776269  1.0
  H  H15  1  0.88141727  0.50353954  0.12667806  1.0
  H  H16  1  0.05491722  0.31180725  0.47572758  1.0
  H  H17  1  0.11509034  0.21629150  0.45549831  1.0
  H  H18  1  0.92191949  0.68291345  0.46028247  1.0
  H  H19  1  0.84187792  0.77714997  0.44285125  1.0
  H  H20  1  0.66694055  0.49009883  0.67494933  1.0
  H  H21  1  0.33968174  0.51279791  0.33088769  1.0
  C  C22  1  0.31554167  0.49270224  0.64204813  1.0
  C  C23  1  0.29188830  0.64465647  0.50342865  1.0
  C  C24  1  0.68519288  0.50561992  0.36295779  1.0
  C  C25  1  0.71097502  0.35474617  0.50386345  1.0
  C  C26  1  0.68711675  0.26714796  0.50533902  1.0
  C  C27  1  0.50946823  0.22873192  0.52647471  1.0
  C  C28  1  0.46898911  0.14671635  0.52617352  1.0
  C  C29  1  0.61272277  0.10024878  0.50391111  1.0
  C  C30  1  0.79232016  0.13627228  0.48519698  1.0
  C  C31  1  0.83531489  0.22023380  0.48523737  1.0
  C  C32  1  0.19351205  0.86107158  0.48175500  1.0
  C  C33  1  0.39177010  0.89920737  0.50152224  1.0
  C  C34  1  0.55766186  0.85505806  0.52282555  1.0
  C  C35  1  0.51709472  0.77313022  0.52260544  1.0
  C  C36  1  0.31801411  0.73217191  0.50168125  1.0
  C  C37  1  0.15044762  0.77699426  0.48048768  1.0
  C  C38  1  0.36101876  0.49251433  0.72575438  1.0
  C  C39  1  0.20238226  0.49336044  0.76730069  1.0
  C  C40  1  0.24020693  0.49534367  0.84614909  1.0
  C  C41  1  0.44264880  0.49684276  0.88675893  1.0
  C  C42  1  0.60271523  0.49588490  0.84632853  1.0
  C  C43  1  0.56415981  0.49341630  0.76644000  1.0
  C  C44  1  0.48267627  0.49927074  0.96755335  1.0
  C  C45  1  0.51469986  0.50119032  0.03729943  1.0
  C  C46  1  0.55541691  0.50334056  0.11807140  1.0
  C  C47  1  0.39624098  0.50486819  0.15889613  1.0
  C  C48  1  0.43611409  0.50725849  0.23874092  1.0
  C  C49  1  0.63887313  0.50670790  0.27922465  1.0
  C  C50  1  0.79663984  0.50558972  0.23723939  1.0
  C  C51  1  0.75795066  0.50419909  0.15842571  1.0
  N  N52  1  0.59097680  0.01582499  0.50118874  1.0
  N  N53  1  0.41122625  0.98348259  0.50058399  1.0
  N  N54  1  0.01042884  0.25241987  0.46422471  1.0
  N  N55  1  0.95438997  0.74287446  0.45876553  1.0
  O  O56  1  0.13438543  0.49639562  0.60740306  1.0
  O  O57  1  0.45081314  0.60850820  0.50892738  1.0
  O  O58  1  0.53240684  0.50722744  0.39834718  1.0
  O  O59  1  0.88936111  0.39094543  0.50301015  1.0
  O  O60  1  0.86727870  0.50240639  0.39697168  1.0
  O  O61  1  0.55263851  0.39039153  0.50229907  1.0
  O  O62  1  0.46826525  0.49019780  0.60722164  1.0
  O  O63  1  0.11032327  0.60883213  0.49996891  1.0
  O  O64  1  0.77776577  0.53436344  0.53776890  1.0
  O  O65  1  0.22360890  0.46462513  0.46737105  1.0
  O  O66  1  0.72481534  0.49250048  0.73104997  1.0
  O  O67  1  0.27742667  0.51011870  0.27507572  1.0
