# generated using pymatgen
data_AlH4C8NO7
_symmetry_space_group_name_H-M   'P 1'
_cell_length_a   6.88335817
_cell_length_b   12.67753104
_cell_length_c   16.93107429
_cell_angle_alpha   89.99211875
_cell_angle_beta   89.35832112
_cell_angle_gamma   89.46913241
_symmetry_Int_Tables_number   1
_chemical_formula_structural   AlH4C8NO7
_chemical_formula_sum   'Al4 H16 C32 N4 O28'
_cell_volume   1477.31697297
_cell_formula_units_Z   4
loop_
 _symmetry_equiv_pos_site_id
 _symmetry_equiv_pos_as_xyz
  1  'x, y, z'
loop_
 _atom_site_type_symbol
 _atom_site_label
 _atom_site_symmetry_multiplicity
 _atom_site_fract_x
 _atom_site_fract_y
 _atom_site_fract_z
 _atom_site_occupancy
  Al  Al0  1  0.00708464  0.99932926  0.50172389  1.0
  Al  Al1  1  0.50675007  0.00397895  0.49839434  1.0
  Al  Al2  1  0.98990190  0.50058778  0.99827720  1.0
  Al  Al3  1  0.48972112  0.50211092  0.99904822  1.0
  H  H4  1  0.26101750  0.86571496  0.47871981  1.0
  H  H5  1  0.76046616  0.14002545  0.48513429  1.0
  H  H6  1  0.23514841  0.64013443  0.01146055  1.0
  H  H7  1  0.73991601  0.36272247  0.01142101  1.0
  H  H8  1  0.05067870  0.71334509  0.82011236  1.0
  H  H9  1  0.42934483  0.68834433  0.80676256  1.0
  H  H10  1  0.04782431  0.82784889  0.69791374  1.0
  H  H11  1  0.54755237  0.28126226  0.17147134  1.0
  H  H12  1  0.92838226  0.31776441  0.19694805  1.0
  H  H13  1  0.55043888  0.16797393  0.29402067  1.0
  H  H14  1  0.94457705  0.27982112  0.82552931  1.0
  H  H15  1  0.56138041  0.32303262  0.80159272  1.0
  H  H16  1  0.95219080  0.16534023  0.70357070  1.0
  H  H17  1  0.05044432  0.66905986  0.19497632  1.0
  H  H18  1  0.43122116  0.71306777  0.18613328  1.0
  H  H19  1  0.05776414  0.77967863  0.31882914  1.0
  C  C20  1  0.76278452  0.87789270  0.39278202  1.0
  C  C21  1  0.75054514  0.88478016  0.60981138  1.0
  C  C22  1  0.25035721  0.11882652  0.60931050  1.0
  C  C23  1  0.25671511  0.11912702  0.38956326  1.0
  C  C24  1  0.73634350  0.62154268  0.10832892  1.0
  C  C25  1  0.74118420  0.62337758  0.89125164  1.0
  C  C26  1  0.24817205  0.37998370  0.89081328  1.0
  C  C27  1  0.23693810  0.37774928  0.10642997  1.0
  C  C28  1  0.74359972  0.82030509  0.68387781  1.0
  C  C29  1  0.74116100  0.69285490  0.82011546  1.0
  C  C30  1  0.57056500  0.78236449  0.71668603  1.0
  C  C31  1  0.91596649  0.73262434  0.78997124  1.0
  C  C32  1  0.56586918  0.71853883  0.78324335  1.0
  C  C33  1  0.91571889  0.79511689  0.72264138  1.0
  C  C34  1  0.24700095  0.18179981  0.31459414  1.0
  C  C35  1  0.23922254  0.30835521  0.17779261  1.0
  C  C36  1  0.07296900  0.22199102  0.28459094  1.0
  C  C37  1  0.41449974  0.26512653  0.20452954  1.0
  C  C38  1  0.06571486  0.28573367  0.21803280  1.0
  C  C39  1  0.41727400  0.20323103  0.27215015  1.0
  C  C40  1  0.25504353  0.18203140  0.68396049  1.0
  C  C41  1  0.25111174  0.31008995  0.81988146  1.0
  C  C42  1  0.42574044  0.22464398  0.71408857  1.0
  C  C43  1  0.07943362  0.26468109  0.79301035  1.0
  C  C44  1  0.42695747  0.28918678  0.78022133  1.0
  C  C45  1  0.08256535  0.20196252  0.72574562  1.0
  C  C46  1  0.75423729  0.80895479  0.32087598  1.0
  C  C47  1  0.74150643  0.68620995  0.18207162  1.0
  C  C48  1  0.57911336  0.78712369  0.28317197  1.0
  C  C49  1  0.91830668  0.70412220  0.21987082  1.0
  C  C50  1  0.56957946  0.72786533  0.21446749  1.0
  C  C51  1  0.92342218  0.76503682  0.28800923  1.0
  N  N52  1  0.38344057  0.81233346  0.68206826  1.0
  N  N53  1  0.88668857  0.19157760  0.32086684  1.0
  N  N54  1  0.61525915  0.19631784  0.67886273  1.0
  N  N55  1  0.39261758  0.82364073  0.31680230  1.0
  O  O56  1  0.92878893  0.90191908  0.41879699  1.0
  O  O57  1  0.58812580  0.91249153  0.58122199  1.0
  O  O58  1  0.41236775  0.10269399  0.57411101  1.0
  O  O59  1  0.09543816  0.09951804  0.42375887  1.0
  O  O60  1  0.08514065  0.08908271  0.58639759  1.0
  O  O61  1  0.42506714  0.09344226  0.41295844  1.0
  O  O62  1  0.59867406  0.90603462  0.42114906  1.0
  O  O63  1  0.91752930  0.90426116  0.58117949  1.0
  O  O64  1  0.25881608  0.93761458  0.49878341  1.0
  O  O65  1  0.75772304  0.06550921  0.49847544  1.0
  O  O66  1  0.90091192  0.59772351  0.07775866  1.0
  O  O67  1  0.57613839  0.59930039  0.92063371  1.0
  O  O68  1  0.41207041  0.40981738  0.91638027  1.0
  O  O69  1  0.07077704  0.40590532  0.08091060  1.0
  O  O70  1  0.08192781  0.40358843  0.92010487  1.0
  O  O71  1  0.40192562  0.40250731  0.07718209  1.0
  O  O72  1  0.56982066  0.59621022  0.08236019  1.0
  O  O73  1  0.90651347  0.59427101  0.91694501  1.0
  O  O74  1  0.23847317  0.56529754  0.99993556  1.0
  O  O75  1  0.74031496  0.43743459  0.99946376  1.0
  O  O76  1  0.31078694  0.89619318  0.70635577  1.0
  O  O77  1  0.30979533  0.75062138  0.63488459  1.0
  O  O78  1  0.82100869  0.10629079  0.29821228  1.0
  O  O79  1  0.80633396  0.25360027  0.36742853  1.0
  O  O80  1  0.68230658  0.10975514  0.69968570  1.0
  O  O81  1  0.69633296  0.26103408  0.63548001  1.0
  O  O82  1  0.32125991  0.76689604  0.36918238  1.0
  O  O83  1  0.31584996  0.90274456  0.28780589  1.0
