# generated using pymatgen
data_Zn2H35C45N5O8
_symmetry_space_group_name_H-M   'P 1'
_cell_length_a   14.68528178
_cell_length_b   16.06722038
_cell_length_c   16.12110292
_cell_angle_alpha   90.34606027
_cell_angle_beta   90.66430239
_cell_angle_gamma   90.55806070
_symmetry_Int_Tables_number   1
_chemical_formula_structural   Zn2H35C45N5O8
_chemical_formula_sum   'Zn2 H35 C45 N5 O8'
_cell_volume   3803.29288661
_cell_formula_units_Z   1
loop_
 _symmetry_equiv_pos_site_id
 _symmetry_equiv_pos_as_xyz
  1  'x, y, z'
loop_
 _atom_site_type_symbol
 _atom_site_label
 _atom_site_symmetry_multiplicity
 _atom_site_fract_x
 _atom_site_fract_y
 _atom_site_fract_z
 _atom_site_occupancy
  Zn  Zn0  1  0.40547368  0.49948066  0.49923104  1.0
  Zn  Zn1  1  0.59422668  0.50074757  0.50097026  1.0
  H  H2  1  0.59985959  0.39063139  0.05285330  1.0
  H  H3  1  0.44572358  0.36443406  0.94730338  1.0
  H  H4  1  0.91925795  0.40079873  0.58746056  1.0
  H  H5  1  0.92477654  0.55092247  0.62333661  1.0
  H  H6  1  0.08246240  0.55454709  0.62362722  1.0
  H  H7  1  0.08273591  0.62844631  0.54265660  1.0
  H  H8  1  0.92337943  0.58576031  0.39492504  1.0
  H  H9  1  0.07757714  0.47367313  0.36744583  1.0
  H  H10  1  0.91737380  0.36766463  0.48290300  1.0
  H  H11  1  0.07632787  0.36618712  0.48261295  1.0
  H  H12  1  0.08074592  0.58130936  0.39173842  1.0
  H  H13  1  0.60597312  0.07831079  0.59922661  1.0
  H  H14  1  0.55287224  0.63524664  0.05318798  1.0
  H  H15  1  0.39879737  0.60908871  0.94773997  1.0
  H  H16  1  0.34389019  0.47356429  0.04893122  1.0
  H  H17  1  0.42066767  0.92143873  0.60854103  1.0
  H  H18  1  0.70390775  0.91605612  0.46744952  1.0
  H  H19  1  0.73488779  0.93468880  0.57223956  1.0
  H  H20  1  0.67430408  0.84218977  0.54416700  1.0
  H  H21  1  0.54782973  0.93800760  0.28449906  1.0
  H  H22  1  0.63496121  0.95400063  0.35954998  1.0
  H  H23  1  0.57864802  0.85526574  0.35168075  1.0
  H  H24  1  0.57528455  0.94164079  0.61365716  1.0
  H  H25  1  0.72897080  0.53843804  0.99515028  1.0
  H  H26  1  0.70321485  0.47797034  0.90458312  1.0
  H  H27  1  0.68244424  0.58670894  0.90491388  1.0
  H  H28  1  0.36346658  0.05376861  0.67725344  1.0
  H  H29  1  0.48383530  0.05178892  0.67963080  1.0
  H  H30  1  0.42653494  0.14432909  0.64941365  1.0
  H  H31  1  0.42424899  0.06994085  0.38805805  1.0
  H  H32  1  0.54303485  0.07689016  0.37359618  1.0
  H  H33  1  0.43063987  0.92686726  0.38631481  1.0
  H  H34  1  0.36030655  0.07118618  0.52590977  1.0
  H  H35  1  0.35919459  0.92823826  0.51406578  1.0
  H  H36  1  0.07861120  0.39867023  0.58753821  1.0
  C  C37  1  0.49821330  0.33767577  0.50077618  1.0
  C  C38  1  0.59488823  0.04942565  0.53780098  1.0
  C  C39  1  0.59098771  0.95254748  0.54794008  1.0
  C  C40  1  0.49921690  0.50028574  0.33845113  1.0
  C  C41  1  0.50084451  0.75263527  0.49936082  1.0
  C  C42  1  0.50199106  0.08173331  0.50207851  1.0
  C  C43  1  0.42099292  0.95020016  0.54682794  1.0
  C  C44  1  0.50541545  0.91852889  0.49932354  1.0
  C  C45  1  0.49647540  0.95215306  0.40875274  1.0
  C  C46  1  0.49015786  0.04847032  0.41222617  1.0
  C  C47  1  0.50380851  0.82824065  0.49879363  1.0
  C  C48  1  0.49839725  0.49979834  0.08552430  1.0
  C  C49  1  0.50091406  0.17205673  0.50205350  1.0
  C  C50  1  0.49905375  0.24762185  0.50158767  1.0
  C  C51  1  0.94607017  0.41463799  0.52571416  1.0
  C  C52  1  0.49950387  0.66260907  0.50029657  1.0
  C  C53  1  0.94967465  0.56832959  0.56163047  1.0
  C  C54  1  0.05590559  0.56746484  0.56120249  1.0
  C  C55  1  0.91177375  0.50125227  0.49881410  1.0
  C  C56  1  0.05134628  0.41359661  0.52577037  1.0
  C  C57  1  0.08808669  0.50009105  0.49956423  1.0
  C  C58  1  0.05333441  0.52083579  0.41116104  1.0
  C  C59  1  0.44324998  0.56053683  0.97203098  1.0
  C  C60  1  0.94706584  0.52282029  0.41016163  1.0
  C  C61  1  0.18689051  0.49938280  0.49959987  1.0
  C  C62  1  0.81289449  0.50178186  0.49934363  1.0
  C  C63  1  0.50217567  0.50010319  0.66220903  1.0
  C  C64  1  0.46943171  0.42453046  0.97183621  1.0
  C  C65  1  0.55508269  0.43902776  0.02862353  1.0
  C  C66  1  0.49893402  0.50067310  0.24890742  1.0
  C  C67  1  0.50150110  0.49967206  0.75175778  1.0
  C  C68  1  0.41276515  0.48528413  0.02643810  1.0
  C  C69  1  0.68101071  0.90894311  0.53144993  1.0
  C  C70  1  0.49973733  0.49980493  0.91507366  1.0
  C  C71  1  0.56909972  0.92288383  0.34822446  1.0
  C  C72  1  0.91503852  0.65103252  0.54282873  1.0
  C  C73  1  0.90954556  0.46553954  0.34780761  1.0
  C  C74  1  0.68033117  0.53027472  0.94323001  1.0
  C  C75  1  0.42468073  0.07603995  0.64530612  1.0
  C  C76  1  0.67051587  0.07786212  0.48690052  1.0
  C  C77  1  0.52891038  0.57511195  0.02880054  1.0
  C  C78  1  0.58622185  0.51441740  0.97413624  1.0
  C  C79  1  0.49867099  0.50038729  0.17328789  1.0
  C  C80  1  0.50016951  0.49949510  0.82738047  1.0
  C  C81  1  0.42247608  0.04635375  0.55501962  1.0
  N  N82  1  0.26568688  0.49884002  0.49959939  1.0
  N  N83  1  0.73418092  0.50150872  0.50088158  1.0
  N  N84  1  0.88951131  0.71740565  0.52619539  1.0
  N  N85  1  0.88253651  0.41857930  0.29772791  1.0
  N  N86  1  0.73148843  0.09989031  0.44654538  1.0
  O  O87  1  0.42030490  0.37189338  0.49969478  1.0
  O  O88  1  0.57569228  0.37394115  0.50139631  1.0
  O  O89  1  0.42152221  0.49900742  0.37315206  1.0
  O  O90  1  0.57687551  0.50122195  0.37453827  1.0
  O  O91  1  0.42147856  0.62715381  0.49922901  1.0
  O  O92  1  0.57684653  0.62738814  0.50219772  1.0
  O  O93  1  0.42461540  0.50008134  0.62570523  1.0
  O  O94  1  0.58001173  0.50048545  0.62798276  1.0
