# generated using pymatgen
data_AlH9C27N7(O2F)3
_symmetry_space_group_name_H-M   'P 1'
_cell_length_a   3.93654335
_cell_length_b   17.63561711
_cell_length_c   18.17015150
_cell_angle_alpha   118.45987802
_cell_angle_beta   95.75722910
_cell_angle_gamma   92.36349992
_symmetry_Int_Tables_number   1
_chemical_formula_structural   AlH9C27N7(O2F)3
_chemical_formula_sum   'Al1 H9 C27 N7 O6 F3'
_cell_volume   1097.66452923
_cell_formula_units_Z   1
loop_
 _symmetry_equiv_pos_site_id
 _symmetry_equiv_pos_as_xyz
  1  'x, y, z'
loop_
 _atom_site_type_symbol
 _atom_site_label
 _atom_site_symmetry_multiplicity
 _atom_site_fract_x
 _atom_site_fract_y
 _atom_site_fract_z
 _atom_site_occupancy
  Al  Al0  1  0.99426437  0.00089677  0.50492981  1.0
  H  H1  1  0.78993307  0.31548062  0.89586636  1.0
  H  H2  1  0.35899595  0.08725878  0.19085497  1.0
  H  H3  1  0.02604039  0.60587745  0.41354343  1.0
  H  H4  1  0.82662408  0.31495142  0.41771570  1.0
  H  H5  1  0.26790656  0.01219340  0.27616478  1.0
  H  H6  1  0.17860619  0.76693642  0.49171041  1.0
  H  H7  1  0.29320115  0.59911865  0.18615556  1.0
  H  H8  1  0.59851756  0.07406527  0.89801201  1.0
  H  H9  1  0.69555715  0.23540466  0.73737817  1.0
  C  C10  1  0.56550131  0.06328239  0.63501348  1.0
  C  C11  1  0.48612097  0.07093182  0.44094846  1.0
  C  C12  1  0.42731545  0.86799831  0.43528037  1.0
  C  C13  1  0.73155022  0.24536021  0.86110100  1.0
  C  C14  1  0.70096997  0.19999911  0.90649494  1.0
  C  C15  1  0.44039319  0.11985231  0.25876587  1.0
  C  C16  1  0.59879837  0.20531511  0.29885122  1.0
  C  C17  1  0.15219207  0.59258862  0.29554104  1.0
  C  C18  1  0.12305424  0.63993414  0.38212399  1.0
  C  C19  1  0.70757412  0.24842060  0.38624889  1.0
  C  C20  1  0.66583140  0.20473798  0.43136225  1.0
  C  C21  1  0.50827148  0.11942164  0.39309707  1.0
  C  C22  1  0.39085180  0.07837237  0.30605647  1.0
  C  C23  1  0.20982218  0.72879404  0.42529346  1.0
  C  C24  1  0.34207566  0.77243809  0.38504515  1.0
  C  C25  1  0.37508791  0.72343331  0.29910146  1.0
  C  C26  1  0.27637014  0.63499114  0.25355244  1.0
  C  C27  1  0.62625716  0.10947528  0.86326159  1.0
  C  C28  1  0.59127719  0.06638129  0.77587546  1.0
  C  C29  1  0.61391937  0.11025703  0.72933345  1.0
  C  C30  1  0.68084434  0.20082687  0.77336986  1.0
  C  C31  1  0.91377191  0.37456186  0.12148106  1.0
  C  C32  1  0.68021281  0.24432938  0.12211136  1.0
  C  C33  1  0.74345268  0.24712200  0.99942146  1.0
  C  C34  1  0.04295720  0.49869559  0.24889112  1.0
  C  C35  1  0.85098659  0.37781903  0.25510732  1.0
  C  C36  1  0.66044515  0.25098736  0.25062154  1.0
  N  N37  1  0.81481305  0.33222900  0.16620312  1.0
  N  N38  1  0.63972467  0.20289750  0.03799281  1.0
  N  N39  1  0.88217308  0.33025480  0.03749199  1.0
  N  N40  1  0.03705700  0.45813906  0.16439845  1.0
  N  N41  1  0.95710334  0.46217428  0.29566503  1.0
  N  N42  1  0.59700213  0.20468341  0.16574866  1.0
  N  N43  1  0.77876131  0.33548470  0.29667956  1.0
  O  O44  1  0.67614138  0.90453416  0.42039431  1.0
  O  O45  1  0.77619207  0.00911896  0.59826294  1.0
  O  O46  1  0.74161030  0.08506245  0.49640949  1.0
  O  O47  1  0.23969993  0.90750515  0.49309126  1.0
  O  O48  1  0.22353142  0.01750154  0.42274261  1.0
  O  O49  1  0.31828028  0.08283021  0.59855684  1.0
  F  F50  1  0.52276499  0.97865566  0.73384361  1.0
  F  F51  1  0.49411766  0.76316674  0.25725968  1.0
  F  F52  1  0.77591388  0.24778990  0.51562647  1.0
