# generated using pymatgen
data_ZnC9N(O2F3)2
_symmetry_space_group_name_H-M   'P 1'
_cell_length_a   8.24170630
_cell_length_b   9.27769843
_cell_length_c   16.09569657
_cell_angle_alpha   90.00015962
_cell_angle_beta   89.99998743
_cell_angle_gamma   89.90097205
_symmetry_Int_Tables_number   1
_chemical_formula_structural   ZnC9N(O2F3)2
_chemical_formula_sum   'Zn2 C18 N2 O8 F12'
_cell_volume   1230.74056014
_cell_formula_units_Z   2
loop_
 _symmetry_equiv_pos_site_id
 _symmetry_equiv_pos_as_xyz
  1  'x, y, z'
loop_
 _atom_site_type_symbol
 _atom_site_label
 _atom_site_symmetry_multiplicity
 _atom_site_fract_x
 _atom_site_fract_y
 _atom_site_fract_z
 _atom_site_occupancy
  Zn  Zn0  1  0.33934454  0.50018333  0.50000026  1.0
  Zn  Zn1  1  0.66059886  0.49983077  0.50000072  1.0
  C  C2  1  0.49999309  0.77890820  0.49999806  1.0
  C  C3  1  0.66234812  0.56643148  0.95065977  1.0
  C  C4  1  0.35380250  0.59168260  0.04935445  1.0
  C  C5  1  0.66235286  0.56642637  0.04933997  1.0
  C  C6  1  0.49990361  0.49977299  0.24883491  1.0
  C  C7  1  0.49990071  0.49977667  0.75116483  1.0
  C  C8  1  0.50006918  0.50022076  0.91611140  1.0
  C  C9  1  0.50007281  0.50021679  0.08388833  1.0
  C  C10  1  0.48398456  0.34199812  0.04940190  1.0
  C  C11  1  0.48398346  0.34199891  0.95059620  1.0
  C  C12  1  0.49997128  0.49994748  0.17362350  1.0
  C  C13  1  0.49996374  0.49995345  0.82637561  1.0
  C  C14  1  0.49990172  0.49984557  0.66133212  1.0
  C  C15  1  0.49990853  0.49984204  0.33866823  1.0
  C  C16  1  0.50006875  0.06537531  0.49999961  1.0
  C  C17  1  0.49997536  0.93463978  0.49999951  1.0
  C  C18  1  0.49996245  0.22110912  0.49999919  1.0
  C  C19  1  0.35379898  0.59168340  0.95064940  1.0
  N  N20  1  0.93280107  0.49985468  0.49999810  1.0
  N  N21  1  0.06714114  0.50013463  0.49999791  1.0
  O  O22  1  0.36156236  0.71780421  0.49999991  1.0
  O  O23  1  0.63855880  0.71749674  0.49999853  1.0
  O  O24  1  0.36139741  0.49996586  0.62617497  1.0
  O  O25  1  0.63846042  0.49982864  0.62618290  1.0
  O  O26  1  0.36140433  0.49996240  0.37382491  1.0
  O  O27  1  0.63846612  0.49982734  0.37381669  1.0
  O  O28  1  0.36144652  0.28248605  0.49999934  1.0
  O  O29  1  0.63843561  0.28224541  0.49999982  1.0
  F  F30  1  0.34442044  0.28110272  0.92238430  1.0
  F  F31  1  0.21122853  0.53661965  0.92236606  1.0
  F  F32  1  0.79143462  0.48917353  0.07765048  1.0
  F  F33  1  0.21123214  0.53662429  0.07764027  1.0
  F  F34  1  0.60898736  0.25943105  0.92236115  1.0
  F  F35  1  0.34441798  0.28110414  0.07761253  1.0
  F  F36  1  0.60898369  0.25942600  0.07763784  1.0
  F  F37  1  0.36413591  0.72969704  0.07767151  1.0
  F  F38  1  0.67999605  0.70380244  0.07770922  1.0
  F  F39  1  0.36412745  0.72969887  0.92233207  1.0
  F  F40  1  0.67998516  0.70381182  0.92229584  1.0
  F  F41  1  0.79142979  0.48918290  0.92234583  1.0
