# generated using pymatgen
data_AlH8C16NO7F
_symmetry_space_group_name_H-M   'P 1'
_cell_length_a   6.65804864
_cell_length_b   22.76682027
_cell_length_c   23.55099313
_cell_angle_alpha   112.59699683
_cell_angle_beta   91.92998488
_cell_angle_gamma   91.65488553
_symmetry_Int_Tables_number   1
_chemical_formula_structural   AlH8C16NO7F
_chemical_formula_sum   'Al4 H32 C64 N4 O28 F4'
_cell_volume   3290.60454349
_cell_formula_units_Z   4
loop_
 _symmetry_equiv_pos_site_id
 _symmetry_equiv_pos_as_xyz
  1  'x, y, z'
loop_
 _atom_site_type_symbol
 _atom_site_label
 _atom_site_symmetry_multiplicity
 _atom_site_fract_x
 _atom_site_fract_y
 _atom_site_fract_z
 _atom_site_occupancy
  Al  Al0  1  0.14602317  0.49992655  0.49890243  1.0
  Al  Al1  1  0.64555414  0.49982685  0.49886473  1.0
  Al  Al2  1  0.66818406  0.00183980  0.00167608  1.0
  Al  Al3  1  0.16992239  0.00130112  0.00169572  1.0
  H  H4  1  0.60376875  0.91277932  0.12329766  1.0
  H  H5  1  0.60763415  0.84988172  0.18925015  1.0
  H  H6  1  0.23339212  0.88246497  0.09407228  1.0
  H  H7  1  0.21243993  0.82165522  0.26157367  1.0
  H  H8  1  0.19943691  0.75578098  0.32291674  1.0
  H  H9  1  0.60983740  0.68035892  0.24179998  1.0
  H  H10  1  0.62110298  0.74710176  0.18104225  1.0
  H  H11  1  0.58064862  0.68088774  0.33881467  1.0
  H  H12  1  0.57542055  0.61437948  0.40160853  1.0
  H  H13  1  0.20986883  0.59033611  0.38258153  1.0
  H  H14  1  0.21598333  0.65382359  0.31694320  1.0
  H  H15  1  0.19714209  0.61334553  0.68776005  1.0
  H  H16  1  0.57901813  0.80556530  0.70837848  1.0
  H  H17  1  0.23776384  0.70555180  0.78882083  1.0
  H  H18  1  0.64928432  0.32304518  0.35221942  1.0
  H  H19  1  0.05685610  0.37802161  0.31904539  1.0
  H  H20  1  0.78430712  0.22480864  0.27831957  1.0
  H  H21  1  0.74824877  0.13012258  0.17933493  1.0
  H  H22  1  0.09699980  0.11366459  0.90627451  1.0
  H  H23  1  0.08302018  0.17814409  0.84160500  1.0
  H  H24  1  0.71614663  0.15293250  0.81155255  1.0
  H  H25  1  0.72782820  0.09097006  0.87869305  1.0
  H  H26  1  0.69116645  0.25353404  0.81426434  1.0
  H  H27  1  0.68081883  0.31714438  0.74972606  1.0
  H  H28  1  0.08993988  0.17767928  0.74551574  1.0
  H  H29  1  0.30262862  0.24345290  0.58937988  1.0
  H  H30  1  0.48650632  0.47512191  0.68141988  1.0
  H  H31  1  0.47113564  0.41378954  0.74853883  1.0
  H  H32  1  0.40688156  0.58440151  0.53074042  1.0
  H  H33  1  0.88899511  0.42577308  0.50457249  1.0
  H  H34  1  0.40678426  0.91816107  0.96180661  1.0
  H  H35  1  0.93232246  0.08444897  0.03650262  1.0
  C  C36  1  0.37268657  0.41055673  0.40195751  1.0
  C  C37  1  0.40097751  0.43490975  0.56024267  1.0
  C  C38  1  0.92046307  0.59133454  0.59709573  1.0
  C  C39  1  0.89085033  0.56160974  0.43587928  1.0
  C  C40  1  0.74163468  0.89200192  0.13147430  1.0
  C  C41  1  0.74475547  0.85660785  0.16813449  1.0
  C  C42  1  0.92097498  0.82896228  0.17913708  1.0
  C  C43  1  0.09353442  0.84022074  0.15140418  1.0
  C  C44  1  0.09598385  0.87564266  0.11504018  1.0
  C  C45  1  0.91742847  0.90171381  0.10452640  1.0
  C  C46  1  0.08062041  0.79026860  0.25636463  1.0
  C  C47  1  0.07340178  0.75265584  0.29091344  1.0
  C  C48  1  0.90441130  0.71244122  0.28685483  1.0
  C  C49  1  0.74149412  0.71200462  0.24707996  1.0
  C  C50  1  0.74811280  0.74965674  0.21252289  1.0
  C  C51  1  0.91820179  0.78940099  0.21621063  1.0
  C  C52  1  0.71838195  0.65997917  0.34707796  1.0
  C  C53  1  0.71458569  0.62335103  0.38261702  1.0
  C  C54  1  0.89240654  0.59872989  0.39605951  1.0
  C  C55  1  0.07310390  0.61038695  0.37246215  1.0
  C  C56  1  0.07572947  0.64639571  0.33638217  1.0
  C  C57  1  0.89903578  0.67248082  0.32348403  1.0
  C  C58  1  0.93736428  0.64842783  0.65667826  1.0
  C  C59  1  0.88752640  0.86026847  0.83964475  1.0
  C  C60  1  0.70001299  0.80479803  0.74031521  1.0
  C  C61  1  0.73494059  0.85644990  0.79463172  1.0
  C  C62  1  0.00804912  0.80873549  0.82529412  1.0
  C  C63  1  0.98596422  0.75420252  0.76943310  1.0
  C  C64  1  0.82575069  0.75233572  0.72643748  1.0
  C  C65  1  0.80681127  0.69770600  0.67068290  1.0
  C  C66  1  0.09409137  0.65208873  0.70014501  1.0
  C  C67  1  0.11693527  0.70318382  0.75562725  1.0
  C  C68  1  0.35694393  0.35537912  0.34165348  1.0
  C  C69  1  0.44836871  0.14985549  0.15665104  1.0
  C  C70  1  0.64751713  0.21560979  0.24892226  1.0
  C  C71  1  0.62768357  0.16315903  0.19467832  1.0
  C  C72  1  0.29496616  0.19227388  0.17444394  1.0
  C  C73  1  0.31060970  0.24816009  0.22904022  1.0
  C  C74  1  0.49196149  0.25946038  0.26764421  1.0
  C  C75  1  0.51189676  0.31406927  0.32312835  1.0
  C  C76  1  0.17794299  0.34511835  0.30432317  1.0
  C  C77  1  0.16024849  0.29391349  0.24919873  1.0
  C  C78  1  0.23143372  0.12310518  0.88543820  1.0
  C  C79  1  0.22458228  0.15842717  0.84873196  1.0
  C  C80  1  0.39932384  0.17084930  0.82246404  1.0
  C  C81  1  0.58078827  0.14594115  0.83349160  1.0
  C  C82  1  0.58840296  0.11094492  0.87052221  1.0
  C  C83  1  0.41389291  0.09968298  0.89711268  1.0
  C  C84  1  0.55631095  0.25070457  0.78555019  1.0
  C  C85  1  0.54926977  0.28788957  0.75053925  1.0
  C  C86  1  0.37785752  0.28748784  0.71407453  1.0
  C  C87  1  0.21371167  0.24769973  0.71518681  1.0
  C  C88  1  0.22060126  0.20882418  0.74853238  1.0
  C  C89  1  0.39263507  0.20998198  0.78500988  1.0
  C  C90  1  0.34001811  0.29434700  0.61105103  1.0
  C  C91  1  0.35005222  0.32941528  0.57412780  1.0
  C  C92  1  0.40037871  0.39481150  0.59824126  1.0
  C  C93  1  0.44565497  0.42429436  0.66157313  1.0
  C  C94  1  0.43752892  0.38973710  0.69914864  1.0
  C  C95  1  0.38231787  0.32453291  0.67448473  1.0
  C  C96  1  0.42106633  0.06365091  0.93818649  1.0
  C  C97  1  0.43319698  0.09170617  0.09881002  1.0
  C  C98  1  0.91498384  0.93825534  0.06384364  1.0
  C  C99  1  0.90469082  0.91426256  0.90164743  1.0
  N  N100  1  0.64477116  0.69593886  0.62546140  1.0
  N  N101  1  0.61784437  0.91309904  0.80312002  1.0
  N  N102  1  0.01904742  0.24819535  0.68346035  1.0
  N  N103  1  0.31239475  0.29493870  0.50720826  1.0
  O  O104  1  0.57219793  0.45462802  0.55115348  1.0
  O  O105  1  0.20794026  0.43474449  0.42344942  1.0
  O  O106  1  0.06074985  0.54997420  0.45499281  1.0
  O  O107  1  0.22967811  0.44847049  0.54457643  1.0
  O  O108  1  0.08615754  0.56757464  0.57685425  1.0
  O  O109  1  0.54688295  0.42900815  0.42774646  1.0
  O  O110  1  0.40097071  0.53841888  0.50985140  1.0
  O  O111  1  0.74485235  0.57232032  0.57320542  1.0
  O  O112  1  0.72040788  0.54454799  0.44903673  1.0
  O  O113  1  0.89149321  0.46238383  0.49310877  1.0
  O  O114  1  0.26003479  0.06544439  0.07880800  1.0
  O  O115  1  0.59231378  0.04629489  0.95009102  1.0
  O  O116  1  0.73987078  0.93043021  0.92782561  1.0
  O  O117  1  0.59816027  0.07223998  0.07357360  1.0
  O  O118  1  0.74493003  0.95668361  0.05245374  1.0
  O  O119  1  0.25495065  0.05410713  0.95934769  1.0
  O  O120  1  0.41439051  0.96204206  0.99091382  1.0
  O  O121  1  0.08190073  0.94715345  0.04267270  1.0
  O  O122  1  0.07939329  0.93683409  0.92267047  1.0
  O  O123  1  0.92401290  0.03936165  0.01078007  1.0
  O  O124  1  0.69512188  0.70135128  0.57768157  1.0
  O  O125  1  0.46968634  0.69064848  0.63978388  1.0
  O  O126  1  0.71620371  0.96425038  0.81896124  1.0
  O  O127  1  0.43409651  0.90501469  0.79157519  1.0
  O  O128  1  0.96742271  0.29998758  0.68275214  1.0
  O  O129  1  0.91566223  0.19772845  0.66153302  1.0
  O  O130  1  0.36714851  0.32233010  0.47340305  1.0
  O  O131  1  0.23097920  0.24087160  0.48873763  1.0
  F  F132  1  0.15289229  0.80758652  0.86662856  1.0
  F  F133  1  0.99075012  0.28710759  0.21288688  1.0
  F  F134  1  0.12417983  0.18153436  0.13816138  1.0
  F  F135  1  0.26941774  0.81317065  0.15845866  1.0
