# generated using pymatgen
data_Zr3H20C44NO18F5
_symmetry_space_group_name_H-M   'P 1'
_cell_length_a   19.06542702
_cell_length_b   19.14677002
_cell_length_c   19.14633402
_cell_angle_alpha   89.70803356
_cell_angle_beta   60.22629209
_cell_angle_gamma   119.77337611
_symmetry_Int_Tables_number   1
_chemical_formula_structural   Zr3H20C44NO18F5
_chemical_formula_sum   'Zr6 H40 C88 N2 O36 F10'
_cell_volume   4963.27497798
_cell_formula_units_Z   2
loop_
 _symmetry_equiv_pos_site_id
 _symmetry_equiv_pos_as_xyz
  1  'x, y, z'
loop_
 _atom_site_type_symbol
 _atom_site_label
 _atom_site_symmetry_multiplicity
 _atom_site_fract_x
 _atom_site_fract_y
 _atom_site_fract_z
 _atom_site_occupancy
  Zr  Zr0  1  0.50103407  0.09314664  0.90680613  1.0
  Zr  Zr1  1  0.49837058  0.90680509  0.09316945  1.0
  Zr  Zr2  1  0.31472317  0.90850591  0.09139834  1.0
  Zr  Zr3  1  0.68471063  0.09142939  0.90847062  1.0
  Zr  Zr4  1  0.49976011  0.09210080  0.09204955  1.0
  Zr  Zr5  1  0.49975545  0.90786555  0.90787696  1.0
  H  H6  1  0.35487650  0.07365965  0.07160862  1.0
  H  H7  1  0.64453932  0.07164101  0.07366655  1.0
  H  H8  1  0.35372852  0.78237666  0.07255729  1.0
  H  H9  1  0.64571154  0.07257010  0.78235843  1.0
  H  H10  1  0.49990902  0.54841583  0.11421110  1.0
  H  H11  1  0.49903146  0.45134652  0.88631975  1.0
  H  H12  1  0.50338364  0.32018754  0.10624911  1.0
  H  H13  1  0.50000808  0.44677045  0.11237628  1.0
  H  H14  1  0.50289808  0.68306011  0.89051917  1.0
  H  H15  1  0.49983730  0.55327812  0.88769239  1.0
  H  H16  1  0.50110722  0.88646807  0.45096274  1.0
  H  H17  1  0.50024141  0.11434733  0.54804933  1.0
  H  H18  1  0.49693614  0.89053596  0.68291477  1.0
  H  H19  1  0.50026837  0.88781247  0.55298931  1.0
  H  H20  1  0.49646066  0.10630157  0.32005635  1.0
  H  H21  1  0.50009571  0.11250546  0.44650105  1.0
  H  H22  1  0.16314013  0.54893871  0.88656726  1.0
  H  H23  1  0.83638189  0.45025285  0.11390235  1.0
  H  H24  1  0.92810627  0.32060707  0.89056379  1.0
  H  H25  1  0.05999795  0.44703070  0.88809081  1.0
  H  H26  1  0.07168775  0.68166506  0.10680192  1.0
  H  H27  1  0.93960339  0.55168487  0.11281822  1.0
  H  H28  1  0.16332706  0.11375592  0.45049575  1.0
  H  H29  1  0.83656311  0.88642049  0.54920108  1.0
  H  H30  1  0.92787495  0.10675502  0.68185964  1.0
  H  H31  1  0.06002135  0.11265300  0.55203694  1.0
  H  H32  1  0.07144156  0.89046661  0.32083328  1.0
  H  H33  1  0.93960816  0.88794027  0.44738767  1.0
  H  H34  1  0.70921302  0.88478880  0.11087362  1.0
  H  H35  1  0.75818982  0.81963659  0.17431485  1.0
  H  H36  1  0.92946400  0.11001259  0.88969219  1.0
  H  H37  1  0.29012984  0.11094777  0.88481276  1.0
  H  H38  1  0.24114716  0.17437210  0.81959385  1.0
  H  H39  1  0.06984450  0.88975420  0.11005223  1.0
  H  H40  1  0.93360719  0.54838151  0.45092856  1.0
  H  H41  1  0.06593414  0.45080364  0.54851976  1.0
  H  H42  1  0.71122249  0.32064854  0.68263471  1.0
  H  H43  1  0.83428392  0.44695804  0.55293289  1.0
  H  H44  1  0.28841529  0.68276965  0.32050370  1.0
  H  H45  1  0.16551026  0.55305639  0.44681574  1.0
  C  C46  1  0.50468763  0.23677307  0.99531666  1.0
  C  C47  1  0.49489506  0.99531774  0.23671866  1.0
  C  C48  1  0.50372105  0.76761392  0.00027282  1.0
  C  C49  1  0.49587429  0.00022107  0.76755787  1.0
  C  C50  1  0.26486315  0.99910093  0.99655551  1.0
  C  C51  1  0.73742983  0.23658040  0.76778671  1.0
  C  C52  1  0.73447914  0.99653525  0.99905060  1.0
  C  C53  1  0.26197492  0.76778218  0.23657994  1.0
  C  C54  1  0.26681698  0.99991292  0.23576225  1.0
  C  C55  1  0.26686460  0.76865927  0.99527767  1.0
  C  C56  1  0.73269662  0.99533707  0.76866214  1.0
  C  C57  1  0.73272400  0.23569470  0.99996245  1.0
  C  C58  1  0.50319104  0.68956303  0.00185073  1.0
  C  C59  1  0.50335652  0.31389692  0.99476694  1.0
  C  C60  1  0.50218531  0.64862639  0.06374243  1.0
  C  C61  1  0.50049249  0.57539235  0.06364412  1.0
  C  C62  1  0.50172203  0.35355533  0.93422084  1.0
  C  C63  1  0.49994954  0.42506227  0.93611063  1.0
  C  C64  1  0.50243456  0.35029759  0.05855430  1.0
  C  C65  1  0.50057614  0.42173214  0.06135296  1.0
  C  C66  1  0.50220129  0.65216410  0.93905065  1.0
  C  C67  1  0.50048213  0.57895527  0.93809319  1.0
  C  C68  1  0.49986969  0.53868829  0.00049378  1.0
  C  C69  1  0.49976327  0.46132167  0.99968769  1.0
  C  C70  1  0.49647112  0.99483483  0.31372185  1.0
  C  C71  1  0.49665051  0.00187097  0.68937934  1.0
  C  C72  1  0.49822100  0.93432968  0.35329692  1.0
  C  C73  1  0.50012281  0.93624448  0.42474043  1.0
  C  C74  1  0.49778792  0.06382072  0.64837194  1.0
  C  C75  1  0.49960258  0.06376586  0.57508092  1.0
  C  C76  1  0.49770943  0.93909492  0.65196178  1.0
  C  C77  1  0.49958873  0.93819775  0.57867300  1.0
  C  C78  1  0.49749168  0.05864248  0.35010695  1.0
  C  C79  1  0.49950292  0.06148189  0.42146213  1.0
  C  C80  1  0.50037040  0.99983304  0.46100924  1.0
  C  C81  1  0.50026065  0.00062534  0.53837657  1.0
  C  C82  1  0.19056954  0.68976942  0.99498770  1.0
  C  C83  1  0.80903698  0.31327166  0.00157726  1.0
  C  C84  1  0.21214254  0.64902304  0.93447403  1.0
  C  C85  1  0.13904100  0.57559564  0.93636438  1.0
  C  C86  1  0.78744850  0.35272850  0.06339528  1.0
  C  C87  1  0.86053662  0.42430593  0.06341282  1.0
  C  C88  1  0.90970605  0.35030615  0.93903978  1.0
  C  C89  1  0.98363194  0.42181982  0.93823771  1.0
  C  C90  1  0.08992323  0.65138403  0.05886670  1.0
  C  C91  1  0.01597060  0.57793818  0.06167892  1.0
  C  C92  1  0.03872818  0.53827168  0.99989842  1.0
  C  C93  1  0.96085205  0.46096997  0.00052334  1.0
  C  C94  1  0.19054824  0.00147496  0.31344535  1.0
  C  C95  1  0.80902906  0.99496288  0.68989193  1.0
  C  C96  1  0.21220076  0.06327558  0.35290758  1.0
  C  C97  1  0.13914831  0.06328014  0.42454020  1.0
  C  C98  1  0.78750425  0.93438863  0.64919711  1.0
  C  C99  1  0.86063896  0.93624619  0.57583488  1.0
  C  C100  1  0.90966909  0.05880212  0.65158823  1.0
  C  C101  1  0.98366017  0.06155250  0.57822299  1.0
  C  C102  1  0.08987307  0.93892872  0.35053663  1.0
  C  C103  1  0.01598177  0.93810009  0.42211153  1.0
  C  C104  1  0.03881822  0.00038305  0.46124832  1.0
  C  C105  1  0.96093760  0.99976329  0.53855634  1.0
  C  C106  1  0.78713944  0.93442089  0.06267228  1.0
  C  C107  1  0.86060942  0.93507808  0.06347386  1.0
  C  C108  1  0.83556985  0.87057405  0.12638097  1.0
  C  C109  1  0.91254472  0.06197468  0.93712129  1.0
  C  C110  1  0.98827835  0.06544470  0.93614273  1.0
  C  C111  1  0.09214865  0.12794739  0.87217107  1.0
  C  C112  1  0.21220270  0.06273240  0.93443315  1.0
  C  C113  1  0.13874529  0.06353124  0.93505634  1.0
  C  C114  1  0.16376922  0.12641536  0.87052663  1.0
  C  C115  1  0.08678486  0.93719422  0.06200804  1.0
  C  C116  1  0.01104359  0.93620107  0.06547376  1.0
  C  C117  1  0.90715060  0.87221143  0.12797406  1.0
  C  C118  1  0.81327407  0.99724231  0.99959848  1.0
  C  C119  1  0.96267441  0.00074962  0.99999205  1.0
  C  C120  1  0.18606323  0.99965523  0.99726012  1.0
  C  C121  1  0.03666720  0.00003203  0.00073935  1.0
  C  C122  1  0.18314050  0.68950299  0.31383085  1.0
  C  C123  1  0.81634927  0.31384751  0.68952014  1.0
  C  C124  1  0.08143696  0.64847360  0.35342039  1.0
  C  C125  1  0.01046385  0.57526994  0.42487273  1.0
  C  C126  1  0.91803653  0.35336200  0.64857294  1.0
  C  C127  1  0.98909912  0.42480284  0.57535715  1.0
  C  C128  1  0.78981211  0.35053460  0.65189419  1.0
  C  C129  1  0.85992967  0.42185523  0.57869070  1.0
  C  C130  1  0.20980066  0.65194763  0.35044357  1.0
  C  C131  1  0.13976723  0.57875006  0.42177384  1.0
  C  C132  1  0.03781415  0.53851840  0.46124661  1.0
  C  C133  1  0.96185378  0.46124535  0.53853213  1.0
  N  N134  1  0.87251927  0.80453434  0.19817137  1.0
  N  N135  1  0.12664710  0.19812599  0.80456418  1.0
  O  O136  1  0.50570262  0.20583162  0.93617234  1.0
  O  O137  1  0.49375320  0.93612996  0.20580172  1.0
  O  O138  1  0.50332174  0.79890591  0.05908991  1.0
  O  O139  1  0.49609027  0.05896033  0.79892055  1.0
  O  O140  1  0.23559916  0.93953003  0.05598937  1.0
  O  O141  1  0.76413711  0.20462329  0.79997360  1.0
  O  O142  1  0.76375812  0.05594543  0.93945204  1.0
  O  O143  1  0.23523167  0.79991043  0.20461000  1.0
  O  O144  1  0.35726047  0.05794828  0.20430234  1.0
  O  O145  1  0.35727173  0.80026061  0.93705031  1.0
  O  O146  1  0.64229131  0.93707326  0.80028766  1.0
  O  O147  1  0.64228224  0.20432685  0.05792571  1.0
  O  O148  1  0.23614698  0.79829330  0.05471484  1.0
  O  O149  1  0.76337493  0.05488765  0.79819725  1.0
  O  O150  1  0.76340221  0.20533726  0.94127457  1.0
  O  O151  1  0.23609174  0.94124055  0.20540721  1.0
  O  O152  1  0.35419049  0.05866079  0.93781886  1.0
  O  O153  1  0.35124903  0.79641051  0.20709893  1.0
  O  O154  1  0.64516729  0.93781855  0.05863325  1.0
  O  O155  1  0.64816718  0.20707267  0.79635081  1.0
  O  O156  1  0.49660080  0.94066351  0.79676159  1.0
  O  O157  1  0.50324361  0.20645453  0.05593961  1.0
  O  O158  1  0.49628172  0.05592462  0.20645822  1.0
  O  O159  1  0.50295286  0.79677210  0.94072062  1.0
  O  O160  1  0.60444184  0.05200269  0.84422858  1.0
  O  O161  1  0.39499934  0.84424857  0.05199182  1.0
  O  O162  1  0.60357912  0.05091704  0.05251280  1.0
  O  O163  1  0.39585234  0.05251976  0.05089177  1.0
  O  O164  1  0.42259935  0.96164407  0.11446592  1.0
  O  O165  1  0.57684771  0.11450135  0.96161393  1.0
  O  O166  1  0.57615987  0.96125533  0.96244107  1.0
  O  O167  1  0.42331163  0.96245066  0.96123251  1.0
  O  O168  1  0.91717552  0.82441383  0.23260232  1.0
  O  O169  1  0.79954029  0.73210122  0.21952545  1.0
  O  O170  1  0.08213854  0.23269755  0.82462805  1.0
  O  O171  1  0.19935631  0.21930908  0.73201143  1.0
  F  F172  1  0.50286387  0.67906596  0.12745002  1.0
  F  F173  1  0.50160818  0.32345514  0.87020002  1.0
  F  F174  1  0.49832506  0.87032341  0.32316400  1.0
  F  F175  1  0.49708872  0.12751214  0.67881228  1.0
  F  F176  1  0.30665176  0.67985749  0.87033565  1.0
  F  F177  1  0.69290174  0.32233688  0.12704516  1.0
  F  F178  1  0.30676026  0.12690734  0.32247690  1.0
  F  F179  1  0.69299464  0.87022824  0.68003145  1.0
  F  F180  1  0.04723837  0.67879996  0.32330834  1.0
  F  F181  1  0.95210940  0.32315638  0.67898364  1.0
