# generated using pymatgen
data_AlH6C24(NO3)6
_symmetry_space_group_name_H-M   'P 1'
_cell_length_a   4.16302700
_cell_length_b   29.30698563
_cell_length_c   29.30774307
_cell_angle_alpha   120.00052602
_cell_angle_beta   90.00102031
_cell_angle_gamma   89.99930741
_symmetry_Int_Tables_number   1
_chemical_formula_structural   AlH6C24(NO3)6
_chemical_formula_sum   'Al2 H12 C48 N12 O36'
_cell_volume   3096.64260078
_cell_formula_units_Z   2
loop_
 _symmetry_equiv_pos_site_id
 _symmetry_equiv_pos_as_xyz
  1  'x, y, z'
loop_
 _atom_site_type_symbol
 _atom_site_label
 _atom_site_symmetry_multiplicity
 _atom_site_fract_x
 _atom_site_fract_y
 _atom_site_fract_z
 _atom_site_occupancy
  Al  Al0  1  0.99995480  0.00000008  0.49999907  1.0
  Al  Al1  1  0.00078494  0.33332059  0.16665935  1.0
  H  H2  1  0.49052672  0.57900999  0.36326683  1.0
  H  H3  1  0.50979688  0.57902151  0.21576450  1.0
  H  H4  1  0.50968644  0.75435826  0.45093544  1.0
  H  H5  1  0.49028281  0.75435758  0.30344231  1.0
  H  H6  1  0.49044903  0.13672037  0.21575925  1.0
  H  H7  1  0.50984418  0.28423637  0.36326056  1.0
  H  H8  1  0.50967723  0.04906470  0.30343445  1.0
  H  H9  1  0.49030251  0.19656495  0.45092954  1.0
  H  H10  1  0.49050559  0.28426171  0.92098077  1.0
  H  H11  1  0.50979331  0.13673773  0.92095531  1.0
  H  H12  1  0.50968877  0.19657933  0.74562645  1.0
  H  H13  1  0.49032432  0.04908688  0.74563514  1.0
  C  C14  1  0.49992773  0.04039096  0.58076274  1.0
  C  C15  1  0.49994448  0.91923102  0.45962126  1.0
  C  C16  1  0.49993468  0.04038072  0.45961387  1.0
  C  C17  1  0.50062952  0.41411723  0.20704481  1.0
  C  C18  1  0.50066094  0.29293641  0.20706940  1.0
  C  C19  1  0.50063906  0.29291553  0.08586539  1.0
  C  C20  1  0.50040550  0.47396722  0.23697955  1.0
  C  C21  1  0.50541126  0.50391728  0.29255402  1.0
  C  C22  1  0.49763513  0.55861842  0.32043263  1.0
  C  C23  1  0.50015451  0.58699157  0.29350441  1.0
  C  C24  1  0.50275135  0.55862894  0.23820434  1.0
  C  C25  1  0.49516852  0.50392662  0.21136853  1.0
  C  C26  1  0.50013472  0.64266826  0.32134398  1.0
  C  C27  1  0.50002612  0.69068276  0.34534736  1.0
  C  C28  1  0.49999672  0.74634960  0.37318337  1.0
  C  C29  1  0.50284544  0.77472286  0.42847102  1.0
  C  C30  1  0.49522298  0.82942282  0.45529539  1.0
  C  C31  1  0.49997392  0.85938538  0.42970166  1.0
  C  C32  1  0.50473750  0.82942269  0.37414341  1.0
  C  C33  1  0.49712338  0.77472510  0.34626996  1.0
  C  C34  1  0.50041659  0.26300693  0.23698639  1.0
  C  C35  1  0.50535808  0.20743120  0.21136904  1.0
  C  C36  1  0.49760930  0.17955607  0.23819721  1.0
  C  C37  1  0.50016023  0.20649241  0.29349692  1.0
  C  C38  1  0.50277789  0.26179362  0.32042779  1.0
  C  C39  1  0.49519645  0.28862582  0.29255916  1.0
  C  C40  1  0.50018951  0.17866141  0.32133974  1.0
  C  C41  1  0.50009109  0.15465306  0.34534522  1.0
  C  C42  1  0.50003870  0.12681970  0.37317662  1.0
  C  C43  1  0.50285458  0.07152992  0.34626308  1.0
  C  C44  1  0.49521152  0.04470678  0.37413656  1.0
  C  C45  1  0.49995323  0.07030271  0.42969245  1.0
  C  C46  1  0.50473269  0.12586159  0.45528906  1.0
  C  C47  1  0.49714406  0.15373514  0.42846588  1.0
  C  C48  1  0.50037718  0.26300921  0.02601700  1.0
  C  C49  1  0.50537181  0.28863293  0.99606760  1.0
  C  C50  1  0.49762038  0.26181441  0.94136692  1.0
  C  C51  1  0.50015513  0.20651360  0.91299159  1.0
  C  C52  1  0.50276186  0.17957226  0.94135123  1.0
  C  C53  1  0.49514462  0.20743491  0.99605225  1.0
  C  C54  1  0.50017206  0.17867816  0.85731842  1.0
  C  C55  1  0.50008122  0.15466688  0.80930256  1.0
  C  C56  1  0.50005011  0.12683538  0.75363887  1.0
  C  C57  1  0.50286252  0.15375031  0.72526432  1.0
  C  C58  1  0.49520481  0.12587429  0.67056786  1.0
  C  C59  1  0.49994940  0.07031580  0.64060674  1.0
  C  C60  1  0.50472767  0.04471998  0.67056893  1.0
  C  C61  1  0.49715371  0.07154639  0.72526603  1.0
  N  N62  1  0.51569536  0.48014844  0.32727408  1.0
  N  N63  1  0.48488252  0.48018371  0.15288316  1.0
  N  N64  1  0.48457710  0.85312516  0.51374919  1.0
  N  N65  1  0.51533725  0.85312533  0.33939096  1.0
  N  N66  1  0.51557718  0.17270255  0.15288330  1.0
  N  N67  1  0.48488672  0.34711361  0.32729944  1.0
  N  N68  1  0.48457530  0.98624963  0.33938159  1.0
  N  N69  1  0.51531850  0.16061615  0.51374483  1.0
  N  N70  1  0.51566029  0.34712329  0.01983779  1.0
  N  N71  1  0.48490140  0.17269000  0.01979134  1.0
  N  N72  1  0.48455101  0.16062636  0.64686557  1.0
  N  N73  1  0.51530986  0.98626476  0.64687210  1.0
  O  O74  1  0.26030215  0.01121109  0.45297245  1.0
  O  O75  1  0.26029274  0.04702772  0.55823234  1.0
  O  O76  1  0.26030001  0.94175979  0.48878567  1.0
  O  O77  1  0.73956713  0.04702109  0.48878178  1.0
  O  O78  1  0.73956685  0.94175857  0.45297978  1.0
  O  O79  1  0.73956087  0.01122201  0.55823774  1.0
  O  O80  1  0.26112510  0.28625607  0.10840600  1.0
  O  O81  1  0.26109381  0.39157680  0.17784768  1.0
  O  O82  1  0.26112531  0.32213299  0.21372572  1.0
  O  O83  1  0.74029419  0.32208314  0.10837566  1.0
  O  O84  1  0.74030955  0.28627696  0.17790007  1.0
  O  O85  1  0.74028580  0.39160844  0.21370652  1.0
  O  O86  1  0.72391728  0.44699175  0.31859093  1.0
  O  O87  1  0.32051918  0.49837779  0.36401597  1.0
  O  O88  1  0.27663006  0.44703823  0.12839185  1.0
  O  O89  1  0.68009435  0.49843163  0.13439449  1.0
  O  O90  1  0.27633934  0.88628929  0.53820084  1.0
  O  O91  1  0.67922822  0.83482431  0.53226274  1.0
  O  O92  1  0.72355750  0.88629017  0.34809510  1.0
  O  O93  1  0.32065047  0.83482046  0.30258214  1.0
  O  O94  1  0.72376277  0.18138445  0.12840379  1.0
  O  O95  1  0.32043589  0.13595544  0.13437856  1.0
  O  O96  1  0.27661846  0.37160109  0.31864394  1.0
  O  O97  1  0.68008513  0.36560681  0.36403932  1.0
  O  O98  1  0.27631732  0.96179617  0.34808871  1.0
  O  O99  1  0.67925185  0.96773699  0.30257380  1.0
  O  O100  1  0.72353184  0.15191126  0.53820588  1.0
  O  O101  1  0.32061845  0.19742327  0.53225007  1.0
  O  O102  1  0.72387520  0.37159237  0.05299841  1.0
  O  O103  1  0.32053596  0.36564083  0.00160592  1.0
  O  O104  1  0.27667719  0.18134111  0.05293800  1.0
  O  O105  1  0.68012992  0.13595340  0.00154007  1.0
  O  O106  1  0.27631624  0.15191548  0.61370248  1.0
  O  O107  1  0.67921427  0.19744005  0.66516646  1.0
  O  O108  1  0.72355153  0.96180303  0.61371126  1.0
  O  O109  1  0.32061688  0.96776033  0.66517349  1.0
