# generated using pymatgen
data_ZnH13C10N5O4
_symmetry_space_group_name_H-M   'P 1'
_cell_length_a   9.06068103
_cell_length_b   9.58768964
_cell_length_c   10.47967195
_cell_angle_alpha   105.16291195
_cell_angle_beta   89.99978140
_cell_angle_gamma   89.99991332
_symmetry_Int_Tables_number   1
_chemical_formula_structural   ZnH13C10N5O4
_chemical_formula_sum   'Zn2 H26 C20 N10 O8'
_cell_volume   878.68561208
_cell_formula_units_Z   2
loop_
 _symmetry_equiv_pos_site_id
 _symmetry_equiv_pos_as_xyz
  1  'x, y, z'
loop_
 _atom_site_type_symbol
 _atom_site_label
 _atom_site_symmetry_multiplicity
 _atom_site_fract_x
 _atom_site_fract_y
 _atom_site_fract_z
 _atom_site_occupancy
  Zn  Zn0  1  0.47775303  0.15422444  0.91572496  1.0
  Zn  Zn1  1  0.97775205  0.84577537  0.08427553  1.0
  H  H2  1  0.50354731  0.65155660  0.04871201  1.0
  H  H3  1  0.00354672  0.34844226  0.95128504  1.0
  H  H4  1  0.33607590  0.55713254  0.83283103  1.0
  H  H5  1  0.83607740  0.44286655  0.16716594  1.0
  H  H6  1  0.14330112  0.56817064  0.86894964  1.0
  H  H7  1  0.64330280  0.43183002  0.13105215  1.0
  H  H8  1  0.16449379  0.10420652  0.03358433  1.0
  H  H9  1  0.66449546  0.89579192  0.96641877  1.0
  H  H10  1  0.43067648  0.19350467  0.68097470  1.0
  H  H11  1  0.93067452  0.80649634  0.31902813  1.0
  H  H12  1  0.60989361  0.20689709  0.71302507  1.0
  H  H13  1  0.10989304  0.79310474  0.28697425  1.0
  H  H14  1  0.65716832  0.85134115  0.42830999  1.0
  H  H15  1  0.15716641  0.14865516  0.57168690  1.0
  H  H16  1  0.62631245  0.81353345  0.19922644  1.0
  H  H17  1  0.12631168  0.18647050  0.80077238  1.0
  H  H18  1  0.48932588  0.94986735  0.22973768  1.0
  H  H19  1  0.98932756  0.05013350  0.77026684  1.0
  H  H20  1  0.46626487  0.92353444  0.66243903  1.0
  H  H21  1  0.96626180  0.07646756  0.33756488  1.0
  H  H22  1  0.65328726  0.96919131  0.63655104  1.0
  H  H23  1  0.15328315  0.03081040  0.36345002  1.0
  H  H24  1  0.47120907  0.80277697  0.81935899  1.0
  H  H25  1  0.97120980  0.19722394  0.18064178  1.0
  H  H26  1  0.18541882  0.60617048  0.10353254  1.0
  H  H27  1  0.68541387  0.39382899  0.89646692  1.0
  C  C28  1  0.25234248  0.61133962  0.90491311  1.0
  C  C29  1  0.75234439  0.38865968  0.09508514  1.0
  C  C30  1  0.29755424  0.40965210  0.01141903  1.0
  C  C31  1  0.79755298  0.59034601  0.98857878  1.0
  C  C32  1  0.21706067  0.00141666  0.98868405  1.0
  C  C33  1  0.71706307  0.99858273  0.01131815  1.0
  C  C34  1  0.52812541  0.85357908  0.25875901  1.0
  C  C35  1  0.02812497  0.14642079  0.74124107  1.0
  C  C36  1  0.53763559  0.00166144  0.63133115  1.0
  C  C37  1  0.03763433  0.99834057  0.36866940  1.0
  C  C38  1  0.37338624  0.84504866  0.87606036  1.0
  C  C39  1  0.87338618  0.15495249  0.12393984  1.0
  C  C40  1  0.26244752  0.76980815  0.91890855  1.0
  C  C41  1  0.76244864  0.23019221  0.08109087  1.0
  C  C42  1  0.49201823  0.99523621  0.48996167  1.0
  C  C43  1  0.99202996  0.00477004  0.51003936  1.0
  C  C44  1  0.40151478  0.74374031  0.22554887  1.0
  C  C45  1  0.90151611  0.25625970  0.77444905  1.0
  C  C46  1  0.28111930  0.57382892  0.03877467  1.0
  C  C47  1  0.78111733  0.42616923  0.96122320  1.0
  N  N48  1  0.40846603  0.65316651  0.10359272  1.0
  N  N49  1  0.90846337  0.34683348  0.89640423  1.0
  N  N50  1  0.16378251  0.87081175  0.99088403  1.0
  N  N51  1  0.66378301  0.12918886  0.00911768  1.0
  N  N52  1  0.34395888  0.99155126  0.92012821  1.0
  N  N53  1  0.84395815  0.00844997  0.07987306  1.0
  N  N54  1  0.51592830  0.14707195  0.71979665  1.0
  N  N55  1  0.01592766  0.85293011  0.28020495  1.0
  N  N56  1  0.56579332  0.89496566  0.39749361  1.0
  N  N57  1  0.06579135  0.10502980  0.60250719  1.0
  O  O58  1  0.42912282  0.36142230  0.98133901  1.0
  O  O59  1  0.92911915  0.63857655  0.01866141  1.0
  O  O60  1  0.18581876  0.33311050  0.01336774  1.0
  O  O61  1  0.68581850  0.66689006  0.98662721  1.0
  O  O62  1  0.39166232  0.07393717  0.46696634  1.0
  O  O63  1  0.89166144  0.92605637  0.53303578  1.0
  O  O64  1  0.29814158  0.74788940  0.30502747  1.0
  O  O65  1  0.79814216  0.25210979  0.69496869  1.0
