# generated using pymatgen
data_Zn4H47C47N5O13
_symmetry_space_group_name_H-M   'P 1'
_cell_length_a   13.10997090
_cell_length_b   19.15737856
_cell_length_c   19.30724653
_cell_angle_alpha   85.07294647
_cell_angle_beta   84.40093272
_cell_angle_gamma   84.02604344
_symmetry_Int_Tables_number   1
_chemical_formula_structural   Zn4H47C47N5O13
_chemical_formula_sum   'Zn4 H47 C47 N5 O13'
_cell_volume   4785.65405918
_cell_formula_units_Z   1
loop_
 _symmetry_equiv_pos_site_id
 _symmetry_equiv_pos_as_xyz
  1  'x, y, z'
loop_
 _atom_site_type_symbol
 _atom_site_label
 _atom_site_symmetry_multiplicity
 _atom_site_fract_x
 _atom_site_fract_y
 _atom_site_fract_z
 _atom_site_occupancy
  Zn  Zn0  1  0.42124298  0.56306784  0.44665371  1.0
  Zn  Zn1  1  0.41924253  0.44579552  0.57271686  1.0
  Zn  Zn2  1  0.60131125  0.54478949  0.55175033  1.0
  Zn  Zn3  1  0.58811077  0.43379780  0.43740804  1.0
  H  H4  1  0.91820145  0.54002735  0.53048622  1.0
  H  H5  1  0.50449624  0.90919463  0.37798937  1.0
  H  H6  1  0.61364789  0.42774688  0.22180793  1.0
  H  H7  1  0.59854474  0.22033839  0.42419336  1.0
  H  H8  1  0.92354081  0.46020596  0.39793821  1.0
  H  H9  1  0.08210342  0.50215264  0.57545631  1.0
  H  H10  1  0.36923603  0.47744742  0.78152268  1.0
  H  H11  1  0.54665305  0.75926373  0.59563603  1.0
  H  H12  1  0.33967803  0.58268144  0.10768672  1.0
  H  H13  1  0.37064320  0.10109651  0.60853031  1.0
  H  H14  1  0.35562522  0.58525641  0.23642500  1.0
  H  H15  1  0.37278132  0.23313081  0.60067388  1.0
  H  H16  1  0.60181492  0.42849757  0.09232005  1.0
  H  H17  1  0.18388200  0.54408494  0.39902552  1.0
  H  H18  1  0.09533932  0.59236065  0.30279330  1.0
  H  H19  1  0.97457090  0.57787440  0.34951868  1.0
  H  H20  1  0.05188605  0.50679142  0.31093721  1.0
  H  H21  1  0.19640131  0.45113176  0.04208018  1.0
  H  H22  1  0.59371393  0.08886535  0.43042579  1.0
  H  H23  1  0.14140969  0.42139610  0.97078160  1.0
  H  H24  1  0.19431404  0.35948661  0.03470187  1.0
  H  H25  1  0.31885566  0.36595109  0.92723712  1.0
  H  H26  1  0.37092735  0.39741547  0.99802851  1.0
  H  H27  1  0.30795294  0.52200836  0.95385591  1.0
  H  H28  1  0.26618839  0.48689996  0.88049606  1.0
  H  H29  1  0.62777992  0.99788698  0.69164288  1.0
  H  H30  1  0.68022301  0.91342772  0.72375568  1.0
  H  H31  1  0.76124172  0.97186386  0.67451540  1.0
  H  H32  1  0.72202501  0.87976878  0.59876337  1.0
  H  H33  1  0.66819228  0.96352675  0.56826739  1.0
  H  H34  1  0.49697206  0.93697085  0.63253905  1.0
  H  H35  1  0.55324669  0.85208600  0.65951677  1.0
  H  H36  1  0.93667083  0.49730283  0.72107370  1.0
  H  H37  1  0.86615421  0.51208798  0.64630302  1.0
  H  H38  1  0.91118455  0.58419838  0.68257192  1.0
  H  H39  1  0.68662083  0.47483334  0.89906273  1.0
  H  H40  1  0.72114901  0.57897091  0.71514830  1.0
  H  H41  1  0.78903457  0.56467997  0.79062470  1.0
  H  H42  1  0.78392738  0.43597867  0.79052545  1.0
  H  H43  1  0.72820296  0.44656953  0.71014375  1.0
  H  H44  1  0.42903426  0.77643452  0.22228184  1.0
  H  H45  1  0.41442451  0.69207658  0.26578579  1.0
  H  H46  1  0.30397046  0.75117372  0.24944721  1.0
  H  H47  1  0.34070601  0.74885194  0.37551072  1.0
  H  H48  1  0.35519938  0.83303262  0.33280677  1.0
  H  H49  1  0.54556932  0.80195022  0.31466692  1.0
  H  H50  1  0.53090688  0.71734882  0.35639081  1.0
  C  C51  1  0.52860111  0.48250677  0.68990765  1.0
  C  C52  1  0.54565144  0.12122790  0.46700251  1.0
  C  C53  1  0.54863842  0.46234320  0.12464084  1.0
  C  C54  1  0.47083414  0.50643734  0.09300794  1.0
  C  C55  1  0.48104932  0.08821766  0.51955881  1.0
  C  C56  1  0.40000347  0.54982065  0.13347500  1.0
  C  C57  1  0.41919818  0.12833939  0.56810257  1.0
  C  C58  1  0.51371614  0.68354214  0.49437717  1.0
  C  C59  1  0.40872563  0.55094605  0.20451396  1.0
  C  C60  1  0.42062150  0.20101665  0.56381124  1.0
  C  C61  1  0.42896570  0.48134179  0.88051983  1.0
  C  C62  1  0.53284835  0.86592229  0.55104686  1.0
  C  C63  1  0.43854366  0.47879800  0.80824599  1.0
  C  C64  1  0.53392217  0.79337446  0.54840518  1.0
  C  C65  1  0.52249093  0.48215528  0.91218938  1.0
  C  C66  1  0.51746451  0.90732903  0.48746480  1.0
  C  C67  1  0.53307460  0.47886870  0.76721407  1.0
  C  C68  1  0.51798719  0.76148609  0.48796116  1.0
  C  C69  1  0.62611305  0.47675643  0.79877320  1.0
  C  C70  1  0.50760163  0.80240261  0.42425925  1.0
  C  C71  1  0.49433323  0.50637544  0.31280542  1.0
  C  C72  1  0.49178084  0.31157483  0.50906034  1.0
  C  C73  1  0.61752827  0.47734621  0.87127483  1.0
  C  C74  1  0.55516459  0.46221471  0.19588538  1.0
  C  C75  1  0.51002298  0.87486751  0.42588978  1.0
  C  C76  1  0.78374881  0.48224411  0.46709294  1.0
  C  C77  1  0.23186751  0.51367667  0.52116735  1.0
  C  C78  1  0.12183308  0.51567191  0.52477717  1.0
  C  C79  1  0.06423566  0.52659103  0.46732731  1.0
  C  C80  1  0.54809739  0.19358841  0.46368921  1.0
  C  C81  1  0.89441265  0.48629315  0.44481647  1.0
  C  C82  1  0.95388281  0.51903821  0.48207782  1.0
  C  C83  1  0.48601794  0.50687411  0.23629164  1.0
  C  C84  1  0.48589077  0.23400257  0.51202463  1.0
  C  C85  1  0.05396858  0.55481168  0.33830718  1.0
  C  C86  1  0.32362758  0.47895365  0.91916571  1.0
  C  C87  1  0.30949205  0.40880985  0.96258293  1.0
  C  C88  1  0.20466014  0.41011411  0.00482821  1.0
  C  C89  1  0.55599664  0.89477551  0.61755796  1.0
  C  C90  1  0.66270111  0.92281951  0.61193491  1.0
  C  C91  1  0.68423300  0.95311870  0.67911206  1.0
  C  C92  1  0.73126336  0.47126835  0.75910920  1.0
  C  C93  1  0.77723382  0.54205042  0.74176555  1.0
  C  C94  1  0.87855946  0.53362279  0.69553186  1.0
  C  C95  1  0.49864983  0.77264300  0.35549035  1.0
  C  C96  1  0.38778466  0.77758322  0.33455170  1.0
  C  C97  1  0.38338790  0.74772757  0.26415544  1.0
  N  N98  1  0.45567569  0.50793806  0.02152546  1.0
  N  N99  1  0.10599720  0.54093362  0.40150816  1.0
  N  N100  1  0.47750751  0.01464970  0.52961799  1.0
  N  N101  1  0.53460245  0.48553409  0.98345933  1.0
  N  N102  1  0.51304019  0.98127663  0.47725747  1.0
  O  O103  1  0.50980669  0.49650909  0.50245178  1.0
  O  O104  1  0.42931909  0.34638564  0.55134930  1.0
  O  O105  1  0.57661000  0.64744451  0.53316141  1.0
  O  O106  1  0.58954054  0.52166810  0.65285727  1.0
  O  O107  1  0.55976240  0.33654704  0.46435223  1.0
  O  O108  1  0.55146102  0.45566078  0.34059489  1.0
  O  O109  1  0.74513367  0.51600384  0.51920280  1.0
  O  O110  1  0.27798999  0.49035132  0.57569535  1.0
  O  O111  1  0.28064115  0.53556860  0.46226606  1.0
  O  O112  1  0.73630815  0.44527126  0.43092322  1.0
  O  O113  1  0.46222444  0.44798561  0.66747392  1.0
  O  O114  1  0.44620399  0.65966835  0.46166921  1.0
  O  O115  1  0.44380160  0.55677955  0.34454864  1.0
