# generated using pymatgen
data_YH12(CO)9
_symmetry_space_group_name_H-M   'P 1'
_cell_length_a   6.63310999
_cell_length_b   11.29129534
_cell_length_c   19.65518337
_cell_angle_alpha   106.69107189
_cell_angle_beta   89.59697265
_cell_angle_gamma   89.99336880
_symmetry_Int_Tables_number   1
_chemical_formula_structural   YH12(CO)9
_chemical_formula_sum   'Y4 H48 C36 O36'
_cell_volume   1410.04044958
_cell_formula_units_Z   4
loop_
 _symmetry_equiv_pos_site_id
 _symmetry_equiv_pos_as_xyz
  1  'x, y, z'
loop_
 _atom_site_type_symbol
 _atom_site_label
 _atom_site_symmetry_multiplicity
 _atom_site_fract_x
 _atom_site_fract_y
 _atom_site_fract_z
 _atom_site_occupancy
  Y  Y0  1  0.19946293  0.58182309  0.74289704  1.0
  Y  Y1  1  0.30047447  0.83898357  0.25707527  1.0
  Y  Y2  1  0.80053436  0.41817880  0.25710296  1.0
  Y  Y3  1  0.69951844  0.16101707  0.74292071  1.0
  H  H4  1  0.17349984  0.50462053  0.47340006  1.0
  H  H5  1  0.32706715  0.03108564  0.52666364  1.0
  H  H6  1  0.82649901  0.49537804  0.52659938  1.0
  H  H7  1  0.67293612  0.96891780  0.47333791  1.0
  H  H8  1  0.38804486  0.25366923  0.45145861  1.0
  H  H9  1  0.11189648  0.80213118  0.54839444  1.0
  H  H10  1  0.61194346  0.74632543  0.54854158  1.0
  H  H11  1  0.88809942  0.19786843  0.45160236  1.0
  H  H12  1  0.36338817  0.49740887  0.57704345  1.0
  H  H13  1  0.13699518  0.92064384  0.42296642  1.0
  H  H14  1  0.63661072  0.50258300  0.42295670  1.0
  H  H15  1  0.86301257  0.07936553  0.57703458  1.0
  H  H16  1  0.53267198  0.23809422  0.56649593  1.0
  H  H17  1  0.96721652  0.67201169  0.43352545  1.0
  H  H18  1  0.46731940  0.76189712  0.43350369  1.0
  H  H19  1  0.03278358  0.32800019  0.56647808  1.0
  H  H20  1  0.52104534  0.68896495  0.97232079  1.0
  H  H21  1  0.97902469  0.71661041  0.02771402  1.0
  H  H22  1  0.47896577  0.31103581  0.02767156  1.0
  H  H23  1  0.02096815  0.28338917  0.97228461  1.0
  H  H24  1  0.40759165  0.41184165  0.93106090  1.0
  H  H25  1  0.09242747  0.48066881  0.06892368  1.0
  H  H26  1  0.59241631  0.58816111  0.06893531  1.0
  H  H27  1  0.90756995  0.51932849  0.93107357  1.0
  H  H28  1  0.06581928  0.85839467  0.80153986  1.0
  H  H29  1  0.43410231  0.05699480  0.19829194  1.0
  H  H30  1  0.93418711  0.14160393  0.19845960  1.0
  H  H31  1  0.56589205  0.94300169  0.80170729  1.0
  H  H32  1  0.90976819  0.77420294  0.74640452  1.0
  H  H33  1  0.59011879  0.02781492  0.25339554  1.0
  H  H34  1  0.09023209  0.22579843  0.25359681  1.0
  H  H35  1  0.40987860  0.97218185  0.74660304  1.0
  H  H36  1  0.31065521  0.79150050  0.67706137  1.0
  H  H37  1  0.18953450  0.11453588  0.32300718  1.0
  H  H38  1  0.68934365  0.20849833  0.32293742  1.0
  H  H39  1  0.81045987  0.88546010  0.67699154  1.0
  H  H40  1  0.51128422  0.71590937  0.67975156  1.0
  H  H41  1  0.98891373  0.03625624  0.32026397  1.0
  H  H42  1  0.48871764  0.28408998  0.32024774  1.0
  H  H43  1  0.01107918  0.96373795  0.67973388  1.0
  H  H44  1  0.75599326  0.54308282  0.76307265  1.0
  H  H45  1  0.74393002  0.77994250  0.23687256  1.0
  H  H46  1  0.24400866  0.45691346  0.23692543  1.0
  H  H47  1  0.25606878  0.22005682  0.76312857  1.0
  H  H48  1  0.86587846  0.46796457  0.80722817  1.0
  H  H49  1  0.63388885  0.66071025  0.19274413  1.0
  H  H50  1  0.13412345  0.53203222  0.19277042  1.0
  H  H51  1  0.36611602  0.33928652  0.80725629  1.0
  C  C52  1  0.15226706  0.36351146  0.37150019  1.0
  C  C53  1  0.34777067  0.99195357  0.62855745  1.0
  C  C54  1  0.84772727  0.63648709  0.62849925  1.0
  C  C55  1  0.65222814  0.00804601  0.37144301  1.0
  C  C56  1  0.22450245  0.41147425  0.44516530  1.0
  C  C57  1  0.27588348  0.96613544  0.55484077  1.0
  C  C58  1  0.77549337  0.58852404  0.55483479  1.0
  C  C59  1  0.72411681  0.03386542  0.44516005  1.0
  C  C60  1  0.34052106  0.34814775  0.47909490  1.0
  C  C61  1  0.15969317  0.86905325  0.52084866  1.0
  C  C62  1  0.65947322  0.65185000  0.52090652  1.0
  C  C63  1  0.84030866  0.13094970  0.47915054  1.0
  C  C64  1  0.40146111  0.40048820  0.55167081  1.0
  C  C65  1  0.09871915  0.84907005  0.44829279  1.0
  C  C66  1  0.59853332  0.59950549  0.44832654  1.0
  C  C67  1  0.90128719  0.15093601  0.55170581  1.0
  C  C68  1  0.49691278  0.33557441  0.58975427  1.0
  C  C69  1  0.00296659  0.74619431  0.41023280  1.0
  C  C70  1  0.50308473  0.66441286  0.41024313  1.0
  C  C71  1  0.99703069  0.25381222  0.58976630  1.0
  C  C72  1  0.55667036  0.38810456  0.66488776  1.0
  C  C73  1  0.94321461  0.72344373  0.33508739  1.0
  C  C74  1  0.44333005  0.61188913  0.33511142  1.0
  C  C75  1  0.05678419  0.27655971  0.66491231  1.0
  C  C76  1  0.37889674  0.59400311  0.87105194  1.0
  C  C77  1  0.12101379  0.72280048  0.12898835  1.0
  C  C78  1  0.62111427  0.40599787  0.12894341  1.0
  C  C79  1  0.87898212  0.27719604  0.87100905  1.0
  C  C80  1  0.46545294  0.59926246  0.94057155  1.0
  C  C81  1  0.03454473  0.65860919  0.05944992  1.0
  C  C82  1  0.53455057  0.40073747  0.05942277  1.0
  C  C83  1  0.96545415  0.34139222  0.94054775  1.0
  C  C84  1  0.46549782  0.49907445  0.96531296  1.0
  C  C85  1  0.03448097  0.53368511  0.03468731  1.0
  C  C86  1  0.53450866  0.50092883  0.03468193  1.0
  C  C87  1  0.96552098  0.46631557  0.96530868  1.0
  O  O88  1  0.23497849  0.26640592  0.32880430  1.0
  O  O89  1  0.26496839  0.93760711  0.67125656  1.0
  O  O90  1  0.76501741  0.73359033  0.67119376  1.0
  O  O91  1  0.73502895  0.06239222  0.32874273  1.0
  O  O92  1  0.00933377  0.42270977  0.35371270  1.0
  O  O93  1  0.49054162  0.06904133  0.64638802  1.0
  O  O94  1  0.99066660  0.57729061  0.64628579  1.0
  O  O95  1  0.50945861  0.93096028  0.35361448  1.0
  O  O96  1  0.51728537  0.50164520  0.69798580  1.0
  O  O97  1  0.98243813  0.80380208  0.30193370  1.0
  O  O98  1  0.48271809  0.49835316  0.30201065  1.0
  O  O99  1  0.01755475  0.19619339  0.69806451  1.0
  O  O100  1  0.15067734  0.37566292  0.69313384  1.0
  O  O101  1  0.34913637  0.68262228  0.30686056  1.0
  O  O102  1  0.84932294  0.62433691  0.30686779  1.0
  O  O103  1  0.65086093  0.31737084  0.69314177  1.0
  O  O104  1  0.30003360  0.49222381  0.83261071  1.0
  O  O105  1  0.20012413  0.65950366  0.16741136  1.0
  O  O106  1  0.69996838  0.50777404  0.16738523  1.0
  O  O107  1  0.79986875  0.34049000  0.83258781  1.0
  O  O108  1  0.37407207  0.69012486  0.84897795  1.0
  O  O109  1  0.12549485  0.84100996  0.15108976  1.0
  O  O110  1  0.62594355  0.30987257  0.15101567  1.0
  O  O111  1  0.87450856  0.15898915  0.84890837  1.0
  O  O112  1  0.36233219  0.71547263  0.68643621  1.0
  O  O113  1  0.13789104  0.02914776  0.31363508  1.0
  O  O114  1  0.63766520  0.28452491  0.31356221  1.0
  O  O115  1  0.86211246  0.97084701  0.68636147  1.0
  O  O116  1  0.01406601  0.77493118  0.78303983  1.0
  O  O117  1  0.48561825  0.99200561  0.21682878  1.0
  O  O118  1  0.98593731  0.22507151  0.21696003  1.0
  O  O119  1  0.51437616  0.00798936  0.78316892  1.0
  O  O120  1  0.88015312  0.54284904  0.79029968  1.0
  O  O121  1  0.61973997  0.75253479  0.20965111  1.0
  O  O122  1  0.11985325  0.45714774  0.20970074  1.0
  O  O123  1  0.38026187  0.24746171  0.79034996  1.0
