# generated using pymatgen
data_ZnH12C26S2N2O15
_symmetry_space_group_name_H-M   'P 1'
_cell_length_a   14.66195754
_cell_length_b   15.93288979
_cell_length_c   23.61279244
_cell_angle_alpha   88.31329923
_cell_angle_beta   88.47946176
_cell_angle_gamma   88.24705976
_symmetry_Int_Tables_number   1
_chemical_formula_structural   ZnH12C26S2N2O15
_chemical_formula_sum   'Zn2 H24 C52 S4 N4 O30'
_cell_volume   5509.33723256
_cell_formula_units_Z   2
loop_
 _symmetry_equiv_pos_site_id
 _symmetry_equiv_pos_as_xyz
  1  'x, y, z'
loop_
 _atom_site_type_symbol
 _atom_site_label
 _atom_site_symmetry_multiplicity
 _atom_site_fract_x
 _atom_site_fract_y
 _atom_site_fract_z
 _atom_site_occupancy
  Zn  Zn0  1  0.40484908  0.49543148  0.50960584  1.0
  Zn  Zn1  1  0.59710491  0.49144114  0.49624523  1.0
  H  H2  1  0.31592171  0.57098306  0.05341095  1.0
  H  H3  1  0.73647979  0.38415422  0.94675158  1.0
  H  H4  1  0.05346426  0.64444512  0.47547554  1.0
  H  H5  1  0.94873489  0.35877374  0.52014419  1.0
  H  H6  1  0.07138843  0.40315269  0.42968844  1.0
  H  H7  1  0.93125502  0.60036126  0.56585629  1.0
  H  H8  1  0.32214496  0.57818661  0.94596968  1.0
  H  H9  1  0.72975234  0.37584824  0.05381781  1.0
  H  H10  1  0.49579652  0.37521947  0.67927065  1.0
  H  H11  1  0.59969102  0.55315073  0.32345369  1.0
  H  H12  1  0.42441507  0.06713835  0.42274214  1.0
  H  H13  1  0.58161451  0.92124907  0.58010053  1.0
  H  H14  1  0.66195180  0.04030984  0.50334046  1.0
  H  H15  1  0.34435304  0.94847393  0.49968265  1.0
  H  H16  1  0.98885419  0.55129958  0.36427746  1.0
  H  H17  1  0.01462929  0.44829329  0.63112065  1.0
  H  H18  1  0.48883277  0.30997692  0.76786659  1.0
  H  H19  1  0.65132183  0.60270304  0.23578611  1.0
  H  H20  1  0.43993347  0.64978376  0.58661465  1.0
  H  H21  1  0.33636215  0.48101127  0.38794120  1.0
  H  H22  1  0.49169078  0.74333969  0.77110593  1.0
  H  H23  1  0.27134253  0.34331748  0.22978769  1.0
  H  H24  1  0.60256371  0.99700940  0.37822672  1.0
  H  H25  1  0.40119019  0.99183217  0.62385457  1.0
  C  C26  1  0.50540146  0.65500422  0.49171353  1.0
  C  C27  1  0.50382291  0.33432019  0.51032815  1.0
  C  C28  1  0.51684180  0.42661711  0.76144970  1.0
  C  C29  1  0.56214834  0.51716045  0.23991987  1.0
  C  C30  1  0.51019077  0.43104668  0.70283151  1.0
  C  C31  1  0.55467746  0.51597836  0.29876435  1.0
  C  C32  1  0.51680103  0.50794321  0.67367095  1.0
  C  C33  1  0.48718283  0.46998992  0.32722043  1.0
  C  C34  1  0.53238294  0.58192263  0.70239953  1.0
  C  C35  1  0.42942249  0.41949694  0.29663175  1.0
  C  C36  1  0.54865499  0.57599671  0.76121579  1.0
  C  C37  1  0.44684018  0.41051212  0.23791330  1.0
  C  C38  1  0.53747046  0.49906859  0.79057881  1.0
  C  C39  1  0.50937676  0.46281214  0.20944144  1.0
  C  C40  1  0.45885232  0.03382019  0.45762753  1.0
  C  C41  1  0.54745693  0.95501850  0.54530486  1.0
  C  C42  1  0.54640667  0.97505039  0.45200442  1.0
  C  C43  1  0.45993487  0.01381666  0.55085641  1.0
  C  C44  1  0.50410271  0.74465818  0.48873730  1.0
  C  C45  1  0.50400110  0.24422699  0.51340891  1.0
  C  C46  1  0.41456547  0.96953185  0.50042107  1.0
  C  C47  1  0.59172496  0.01930546  0.50252583  1.0
  C  C48  1  0.50755828  0.50404296  0.61048399  1.0
  C  C49  1  0.48855056  0.47876845  0.39093910  1.0
  C  C50  1  0.50182965  0.90904641  0.49492257  1.0
  C  C51  1  0.50453515  0.07977520  0.50773349  1.0
  C  C52  1  0.50273700  0.82106085  0.49049905  1.0
  C  C53  1  0.50418757  0.16788291  0.51239003  1.0
  C  C54  1  0.02928348  0.58142688  0.48548625  1.0
  C  C55  1  0.97308930  0.42173849  0.51017713  1.0
  C  C56  1  0.97568938  0.52476167  0.44471033  1.0
  C  C57  1  0.02663642  0.47833935  0.55098982  1.0
  C  C58  1  0.96307579  0.55692841  0.53576653  1.0
  C  C59  1  0.03930366  0.44629100  0.45989170  1.0
  C  C60  1  0.90843769  0.50018376  0.49561799  1.0
  C  C61  1  0.09388793  0.50302822  0.50008886  1.0
  C  C62  1  0.81259823  0.49802798  0.49263566  1.0
  C  C63  1  0.18960088  0.50411591  0.50413434  1.0
  C  C64  1  0.59608328  0.43281388  0.12259740  1.0
  C  C65  1  0.45590140  0.52350561  0.87812705  1.0
  C  C66  1  0.44139558  0.50646814  0.12167688  1.0
  C  C67  1  0.61164572  0.45221851  0.87763003  1.0
  C  C68  1  0.44707911  0.50986671  0.05920863  1.0
  C  C69  1  0.60612609  0.44684388  0.94041398  1.0
  C  C70  1  0.52490982  0.47610139  0.03021674  1.0
  C  C71  1  0.52848179  0.48036357  0.96985097  1.0
  C  C72  1  0.59894836  0.43820492  0.05983997  1.0
  C  C73  1  0.45392851  0.51786112  0.94062718  1.0
  C  C74  1  0.37474460  0.54610212  0.02947951  1.0
  C  C75  1  0.67762487  0.40956497  0.97044700  1.0
  C  C76  1  0.37810408  0.54999566  0.97011468  1.0
  C  C77  1  0.67400999  0.40513597  0.02999128  1.0
  S  S78  1  0.51650098  0.68090567  0.66317715  1.0
  S  S79  1  0.33405328  0.37363472  0.33541982  1.0
  S  S80  1  0.59768316  0.66252216  0.79762093  1.0
  S  S81  1  0.40525948  0.32047219  0.20100440  1.0
  N  N82  1  0.51698799  0.46808586  0.14908728  1.0
  N  N83  1  0.53619583  0.49190168  0.85105357  1.0
  N  N84  1  0.73380125  0.49507011  0.49036857  1.0
  N  N85  1  0.26825966  0.50536859  0.50825328  1.0
  O  O86  1  0.43649578  0.62086559  0.51829917  1.0
  O  O87  1  0.58020082  0.36905943  0.51679541  1.0
  O  O88  1  0.57235739  0.61439890  0.46993824  1.0
  O  O89  1  0.42747424  0.37186127  0.50074641  1.0
  O  O90  1  0.43116759  0.48063080  0.59361780  1.0
  O  O91  1  0.56459237  0.46408278  0.41276413  1.0
  O  O92  1  0.57775849  0.52153474  0.58036130  1.0
  O  O93  1  0.41601982  0.50532093  0.41793870  1.0
  O  O94  1  0.65691708  0.40014701  0.15118495  1.0
  O  O95  1  0.39261894  0.55349394  0.85024509  1.0
  O  O96  1  0.37604981  0.53502616  0.14934395  1.0
  O  O97  1  0.67665630  0.42490268  0.84922682  1.0
  O  O98  1  0.94017940  0.54687263  0.39311210  1.0
  O  O99  1  0.06279843  0.45624741  0.60232542  1.0
  O  O100  1  0.50272945  0.35522774  0.79283487  1.0
  O  O101  1  0.61885536  0.56853548  0.20985695  1.0
  O  O102  1  0.48254683  0.74379997  0.70239080  1.0
  O  O103  1  0.59288654  0.69906131  0.62614625  1.0
  O  O104  1  0.42926532  0.66264615  0.62806577  1.0
  O  O105  1  0.26497452  0.34549829  0.29803953  1.0
  O  O106  1  0.36934082  0.31654345  0.37814318  1.0
  O  O107  1  0.28794601  0.45398848  0.36237733  1.0
  O  O108  1  0.62900849  0.63436093  0.85212424  1.0
  O  O109  1  0.66012080  0.69902485  0.75655161  1.0
  O  O110  1  0.51341514  0.72413724  0.80967457  1.0
  O  O111  1  0.44743877  0.31589191  0.14570055  1.0
  O  O112  1  0.41576504  0.25164519  0.24131566  1.0
  O  O113  1  0.30129367  0.34265680  0.19079689  1.0
  O  O114  1  0.58827138  0.94819564  0.40236018  1.0
  O  O115  1  0.41808991  0.04071454  0.60049807  1.0
