# generated using pymatgen
data_ZnH14C26(NO3)2
_symmetry_space_group_name_H-M   'P 1'
_cell_length_a   15.27569862
_cell_length_b   15.28257196
_cell_length_c   22.27067561
_cell_angle_alpha   78.29692802
_cell_angle_beta   82.67964421
_cell_angle_gamma   72.13796019
_symmetry_Int_Tables_number   1
_chemical_formula_structural   ZnH14C26(NO3)2
_chemical_formula_sum   'Zn4 H56 C104 N8 O24'
_cell_volume   4833.78141927
_cell_formula_units_Z   4
loop_
 _symmetry_equiv_pos_site_id
 _symmetry_equiv_pos_as_xyz
  1  'x, y, z'
loop_
 _atom_site_type_symbol
 _atom_site_label
 _atom_site_symmetry_multiplicity
 _atom_site_fract_x
 _atom_site_fract_y
 _atom_site_fract_z
 _atom_site_occupancy
  Zn  Zn0  1  0.71751100  0.88140206  0.66955899  1.0
  Zn  Zn1  1  0.28249145  0.11859840  0.33044059  1.0
  Zn  Zn2  1  0.70411104  0.84678375  0.79955738  1.0
  Zn  Zn3  1  0.29588728  0.15321857  0.20044050  1.0
  H  H4  1  0.79147170  0.71848119  0.91239427  1.0
  H  H5  1  0.20852870  0.28151719  0.08760622  1.0
  H  H6  1  0.79082132  0.72786611  0.02391867  1.0
  H  H7  1  0.20917908  0.27213160  0.97608236  1.0
  H  H8  1  0.58576056  0.99639172  0.98910703  1.0
  H  H9  1  0.41423915  0.00360752  0.01089340  1.0
  H  H10  1  0.59373332  0.97512500  0.88024172  1.0
  H  H11  1  0.40626707  0.02487404  0.11975868  1.0
  H  H12  1  0.47194471  0.88018033  0.20443477  1.0
  H  H13  1  0.52805500  0.11981891  0.79556521  1.0
  H  H14  1  0.47796904  0.88760490  0.31553973  1.0
  H  H15  1  0.52203067  0.11239434  0.68446025  1.0
  H  H16  1  0.91918804  0.89774246  0.26109027  1.0
  H  H17  1  0.08081097  0.10225765  0.73890965  1.0
  H  H18  1  0.91411875  0.88775520  0.14968891  1.0
  H  H19  1  0.08587957  0.11224578  0.85031050  1.0
  H  H20  1  0.81891395  0.76616795  0.46550090  1.0
  H  H21  1  0.18108506  0.23383283  0.53449848  1.0
  H  H22  1  0.82117541  0.76777211  0.57816059  1.0
  H  H23  1  0.17882430  0.23222713  0.42183939  1.0
  H  H24  1  0.61326499  0.01823346  0.56793185  1.0
  H  H25  1  0.38673265  0.98176637  0.43206867  1.0
  H  H26  1  0.60168549  0.02674639  0.45520278  1.0
  H  H27  1  0.39831284  0.97325258  0.54479735  1.0
  H  H28  1  0.72646912  0.10671716  0.82113976  1.0
  H  H29  1  0.27353058  0.89328275  0.17886058  1.0
  H  H30  1  0.73547939  0.26532146  0.82396923  1.0
  H  H31  1  0.26452100  0.73467892  0.17603009  1.0
  H  H32  1  0.66573199  0.35263586  0.63515758  1.0
  H  H33  1  0.33426909  0.64736499  0.36484116  1.0
  H  H34  1  0.66190761  0.19211928  0.63222971  1.0
  H  H35  1  0.33809278  0.80788044  0.36776970  1.0
  H  H36  1  0.66115843  0.41120335  0.82745672  1.0
  H  H37  1  0.33884264  0.58879818  0.17254282  1.0
  H  H38  1  0.67639025  0.56737679  0.83094189  1.0
  H  H39  1  0.32361013  0.43262426  0.16905688  1.0
  H  H40  1  0.76886957  0.59870083  0.63992989  1.0
  H  H41  1  0.23112876  0.40129881  0.36007015  1.0
  H  H42  1  0.75796701  0.44090359  0.63606217  1.0
  H  H43  1  0.24203268  0.55909699  0.36393763  1.0
  H  H44  1  0.99689430  0.77877625  0.83071065  1.0
  H  H45  1  0.00310610  0.22122346  0.16928876  1.0
  H  H46  1  0.15719949  0.78565454  0.83161947  1.0
  H  H47  1  0.84279953  0.21434423  0.16838109  1.0
  H  H48  1  0.14787291  0.92130690  0.64166144  1.0
  H  H49  1  0.85212886  0.07869242  0.35833880  1.0
  H  H50  1  0.99016112  0.90861349  0.64097070  1.0
  H  H51  1  0.00983997  0.09138535  0.35902921  1.0
  H  H52  1  0.24548038  0.87396185  0.83373947  1.0
  H  H53  1  0.75451863  0.12603825  0.16626180  1.0
  H  H54  1  0.40480773  0.88409142  0.83485584  1.0
  H  H55  1  0.59519264  0.11590963  0.16514518  1.0
  H  H56  1  0.45394564  0.86580706  0.64356329  1.0
  H  H57  1  0.54605406  0.13419218  0.35643669  1.0
  H  H58  1  0.29602806  0.85200933  0.64168795  1.0
  H  H59  1  0.70397164  0.14798923  0.35831302  1.0
  C  C60  1  0.74656578  0.77816672  0.93176805  1.0
  C  C61  1  0.25343462  0.22183232  0.06823235  1.0
  C  C62  1  0.74606786  0.78370023  0.99335915  1.0
  C  C63  1  0.25393253  0.21629814  0.00664179  1.0
  C  C64  1  0.68833460  0.86311661  0.01463058  1.0
  C  C65  1  0.31166579  0.13688176  0.98537035  1.0
  C  C66  1  0.63170178  0.93331460  0.97441926  1.0
  C  C67  1  0.36829998  0.06668471  0.02558278  1.0
  C  C68  1  0.63588019  0.92184257  0.91363286  1.0
  C  C69  1  0.36412157  0.07815942  0.08636702  1.0
  C  C70  1  0.77332696  0.87667940  0.09577866  1.0
  C  C71  1  0.22667274  0.12332118  0.90422024  1.0
  C  C72  1  0.77425887  0.88340758  0.16090443  1.0
  C  C73  1  0.22573876  0.11659426  0.83909492  1.0
  C  C74  1  0.69482443  0.88417944  0.20132823  1.0
  C  C75  1  0.30517526  0.11582114  0.79867111  1.0
  C  C76  1  0.61190169  0.88147171  0.18054929  1.0
  C  C77  1  0.38809870  0.11852800  0.81945147  1.0
  C  C78  1  0.60648083  0.87819365  0.11530720  1.0
  C  C79  1  0.39352025  0.12180385  0.88469425  1.0
  C  C80  1  0.53502789  0.88213232  0.22135738  1.0
  C  C81  1  0.46497112  0.11786779  0.77864299  1.0
  C  C82  1  0.53849641  0.88548290  0.28355532  1.0
  C  C83  1  0.46150330  0.11451702  0.71644412  1.0
  C  C84  1  0.61870047  0.88896649  0.30483954  1.0
  C  C85  1  0.38129716  0.11103402  0.69516044  1.0
  C  C86  1  0.69815077  0.88842367  0.26425890  1.0
  C  C87  1  0.30184686  0.11157683  0.73574108  1.0
  C  C88  1  0.78033516  0.89295168  0.28469018  1.0
  C  C89  1  0.21966316  0.10704863  0.71530977  1.0
  C  C90  1  0.85727001  0.89327528  0.24392314  1.0
  C  C91  1  0.14272761  0.10672590  0.75607720  1.0
  C  C92  1  0.85424453  0.88821143  0.18211339  1.0
  C  C93  1  0.14575448  0.11178868  0.81788608  1.0
  C  C94  1  0.78523433  0.89759636  0.34973728  1.0
  C  C95  1  0.21476605  0.10240469  0.65026329  1.0
  C  C96  1  0.62022767  0.89331354  0.37039212  1.0
  C  C97  1  0.37977202  0.10668637  0.62960822  1.0
  C  C98  1  0.70961091  0.89651247  0.45251097  1.0
  C  C99  1  0.29038879  0.10348811  0.54748928  1.0
  C  C100  1  0.77261036  0.82306915  0.48668592  1.0
  C  C101  1  0.22738933  0.17693277  0.51331324  1.0
  C  C102  1  0.77471906  0.82397142  0.54868739  1.0
  C  C103  1  0.22528064  0.17602916  0.45131106  1.0
  C  C104  1  0.65793709  0.96435755  0.54321159  1.0
  C  C105  1  0.34206193  0.03564189  0.45678842  1.0
  C  C106  1  0.65155045  0.96874444  0.48081705  1.0
  C  C107  1  0.34844994  0.03125460  0.51918335  1.0
  C  C108  1  0.69281908  0.04227833  0.72536977  1.0
  C  C109  1  0.30718269  0.95771964  0.27463021  1.0
  C  C110  1  0.69389629  0.13952092  0.72656425  1.0
  C  C111  1  0.30610411  0.86047879  0.27343470  1.0
  C  C112  1  0.71328272  0.16136921  0.78068759  1.0
  C  C113  1  0.28671767  0.83863050  0.21931226  1.0
  C  C114  1  0.71751550  0.25039383  0.78206311  1.0
  C  C115  1  0.28248488  0.74960722  0.21793701  1.0
  C  C116  1  0.70168228  0.32078264  0.72968411  1.0
  C  C117  1  0.29831810  0.67921841  0.27031557  1.0
  C  C118  1  0.68055745  0.29868416  0.67589974  1.0
  C  C119  1  0.31944431  0.70131783  0.32409968  1.0
  C  C120  1  0.67725819  0.20923996  0.67418272  1.0
  C  C121  1  0.32274288  0.79076089  0.32581692  1.0
  C  C122  1  0.70861123  0.41432647  0.73148501  1.0
  C  C123  1  0.29138778  0.58567498  0.26851473  1.0
  C  C124  1  0.68653805  0.45112860  0.78635492  1.0
  C  C125  1  0.31346302  0.54887158  0.21364481  1.0
  C  C126  1  0.69433472  0.53866006  0.78855228  1.0
  C  C127  1  0.30566497  0.46134186  0.21144688  1.0
  C  C128  1  0.72389335  0.59245994  0.73572436  1.0
  C  C129  1  0.27610495  0.40754304  0.26427477  1.0
  C  C130  1  0.74589641  0.55651771  0.68082817  1.0
  C  C131  1  0.25410397  0.44348267  0.31917204  1.0
  C  C132  1  0.73865333  0.46869727  0.67880078  1.0
  C  C133  1  0.26134568  0.53130351  0.32119860  1.0
  C  C134  1  0.72827580  0.68857617  0.73719628  1.0
  C  C135  1  0.27172527  0.31142401  0.26280300  1.0
  C  C136  1  0.88588443  0.84231356  0.73567341  1.0
  C  C137  1  0.11411597  0.15768549  0.26432474  1.0
  C  C138  1  0.98376999  0.84315865  0.73575948  1.0
  C  C139  1  0.01622902  0.15684079  0.26424008  1.0
  C  C140  1  0.03126229  0.80911118  0.78946220  1.0
  C  C141  1  0.96873673  0.19088692  0.21053800  1.0
  C  C142  1  0.12050485  0.81432970  0.78984039  1.0
  C  C143  1  0.87949486  0.18566820  0.21016022  1.0
  C  C144  1  0.16473555  0.85446320  0.73682554  1.0
  C  C145  1  0.83526347  0.14553490  0.26317465  1.0
  C  C146  1  0.11664918  0.88763845  0.68301297  1.0
  C  C147  1  0.88335121  0.11235992  0.31698842  1.0
  C  C148  1  0.02773335  0.88173928  0.68243307  1.0
  C  C149  1  0.97226705  0.11825843  0.31756706  1.0
  C  C150  1  0.25854338  0.86214071  0.73762694  1.0
  C  C151  1  0.74145633  0.13785719  0.26237412  1.0
  C  C152  1  0.29108919  0.87094053  0.79189011  1.0
  C  C153  1  0.70891050  0.12905938  0.20811068  1.0
  C  C154  1  0.37961736  0.87779090  0.79272720  1.0
  C  C155  1  0.62038234  0.12220968  0.20727305  1.0
  C  C156  1  0.43846159  0.87683835  0.73904321  1.0
  C  C157  1  0.56153811  0.12316223  0.26095704  1.0
  C  C158  1  0.40681867  0.86833626  0.68471950  1.0
  C  C159  1  0.59318103  0.13166298  0.31528137  1.0
  C  C160  1  0.31845895  0.86105622  0.68400942  1.0
  C  C161  1  0.68154144  0.13894215  0.31599152  1.0
  C  C162  1  0.53455769  0.88247026  0.73947194  1.0
  C  C163  1  0.46544200  0.11753098  0.26052821  1.0
  N  N164  1  0.69272265  0.84618752  0.89263625  1.0
  N  N165  1  0.30727911  0.15381179  0.10736489  1.0
  N  N166  1  0.68921698  0.87221877  0.07746050  1.0
  N  N167  1  0.31078342  0.12777759  0.92254116  1.0
  N  N168  1  0.70459288  0.89617692  0.38874378  1.0
  N  N169  1  0.29540751  0.10382212  0.61125572  1.0
  N  N170  1  0.71830744  0.89317482  0.57630291  1.0
  N  N171  1  0.28169295  0.10682490  0.42369694  1.0
  O  O172  1  0.84004824  0.87508957  0.05845599  1.0
  O  O173  1  0.15995077  0.12491121  0.94154204  1.0
  O  O174  1  0.53562092  0.87940648  0.09391541  1.0
  O  O175  1  0.46437947  0.12059122  0.90608562  1.0
  O  O176  1  0.85438239  0.90210378  0.37020274  1.0
  O  O177  1  0.14561798  0.09789793  0.62979864  1.0
  O  O178  1  0.55406729  0.89273228  0.40801277  1.0
  O  O179  1  0.44593309  0.10726810  0.59198835  1.0
  O  O180  1  0.58217041  0.88211533  0.68813127  1.0
  O  O181  1  0.41783203  0.11788579  0.31186957  1.0
  O  O182  1  0.56175240  0.88638707  0.79034430  1.0
  O  O183  1  0.43824728  0.11361686  0.20965549  1.0
  O  O184  1  0.84639299  0.81414366  0.78663318  1.0
  O  O185  1  0.15360740  0.18585672  0.21336703  1.0
  O  O186  1  0.84896373  0.87225534  0.68433925  1.0
  O  O187  1  0.15103390  0.12774517  0.31566028  1.0
  O  O188  1  0.68265322  0.02281491  0.67412698  1.0
  O  O189  1  0.31734787  0.97718260  0.32587267  1.0
  O  O190  1  0.70182824  0.98589371  0.77646384  1.0
  O  O191  1  0.29817560  0.01410568  0.22353487  1.0
  O  O192  1  0.75074348  0.73574041  0.68685175  1.0
  O  O193  1  0.24926242  0.26425905  0.31314722  1.0
  O  O194  1  0.70700344  0.71672945  0.78883573  1.0
  O  O195  1  0.29299693  0.28327428  0.21116267  1.0
