# generated using pymatgen
data_ZnH20C18NO6
_symmetry_space_group_name_H-M   'P 1'
_cell_length_a   8.47572054
_cell_length_b   9.25507264
_cell_length_c   17.59065691
_cell_angle_alpha   89.98767697
_cell_angle_beta   93.18500588
_cell_angle_gamma   89.98150772
_symmetry_Int_Tables_number   1
_chemical_formula_structural   ZnH20C18NO6
_chemical_formula_sum   'Zn2 H40 C36 N2 O12'
_cell_volume   1377.73955608
_cell_formula_units_Z   2
loop_
 _symmetry_equiv_pos_site_id
 _symmetry_equiv_pos_as_xyz
  1  'x, y, z'
loop_
 _atom_site_type_symbol
 _atom_site_label
 _atom_site_symmetry_multiplicity
 _atom_site_fract_x
 _atom_site_fract_y
 _atom_site_fract_z
 _atom_site_occupancy
  Zn  Zn0  1  0.65455011  0.51653309  0.50262789  1.0
  Zn  Zn1  1  0.34535660  0.51661489  0.49733316  1.0
  H  H2  1  0.87990648  0.33728964  0.85156126  1.0
  H  H3  1  0.84218211  0.45960522  0.92598687  1.0
  H  H4  1  0.77400669  0.27988613  0.93136007  1.0
  H  H5  1  0.12022255  0.33717933  0.14839701  1.0
  H  H6  1  0.15791687  0.45950906  0.07394422  1.0
  H  H7  1  0.22618794  0.27979063  0.06862558  1.0
  H  H8  1  0.89777353  0.45969389  0.15040006  1.0
  H  H9  1  0.83850599  0.30335713  0.09734738  1.0
  H  H10  1  0.78448324  0.47565314  0.06222897  1.0
  H  H11  1  0.21564108  0.47582067  0.93776768  1.0
  H  H12  1  0.10229960  0.45987202  0.84962502  1.0
  H  H13  1  0.16163210  0.30353806  0.90272993  1.0
  H  H14  1  0.96518252  0.62014357  0.75280682  1.0
  H  H15  1  0.84236729  0.62650959  0.83202707  1.0
  H  H16  1  0.77234354  0.76116453  0.67435724  1.0
  H  H17  1  0.62500481  0.73503894  0.74004043  1.0
  H  H18  1  0.76899028  0.88731290  0.83714316  1.0
  H  H19  1  0.74531379  0.98649327  0.75080106  1.0
  H  H20  1  0.93052816  0.90793709  0.77795056  1.0
  H  H21  1  0.03471676  0.61995580  0.24714507  1.0
  H  H22  1  0.15737523  0.62622828  0.16786469  1.0
  H  H23  1  0.22754550  0.76107636  0.32543466  1.0
  H  H24  1  0.37480623  0.73484257  0.25973104  1.0
  H  H25  1  0.23059426  0.88710326  0.16259368  1.0
  H  H26  1  0.25446534  0.98627248  0.24889724  1.0
  H  H27  1  0.06918065  0.90787472  0.22185941  1.0
  H  H28  1  0.99811189  0.31793462  0.29561680  1.0
  H  H29  1  0.86756687  0.24078276  0.22379769  1.0
  H  H30  1  0.81504578  0.24297852  0.39500261  1.0
  H  H31  1  0.67380320  0.18563971  0.32465938  1.0
  H  H32  1  0.85372188  0.98796850  0.28445850  1.0
  H  H33  1  0.82537593  0.97552410  0.38338746  1.0
  H  H34  1  0.00423681  0.04748504  0.35151485  1.0
  H  H35  1  0.00196866  0.31810893  0.70435166  1.0
  H  H36  1  0.13237919  0.24096811  0.77626197  1.0
  H  H37  1  0.18527791  0.24292029  0.60509352  1.0
  H  H38  1  0.32636602  0.18561602  0.67554508  1.0
  H  H39  1  0.14641528  0.98814880  0.71579980  1.0
  H  H40  1  0.17504590  0.97545559  0.61691446  1.0
  H  H41  1  0.99600399  0.04752219  0.64860096  1.0
  C  C42  1  0.49994750  0.79404184  0.49997650  1.0
  C  C43  1  0.49995345  0.23666316  0.50000058  1.0
  C  C44  1  0.49990740  0.94975429  0.49998273  1.0
  C  C45  1  0.49992361  0.08084050  0.49998821  1.0
  C  C46  1  0.50899034  0.49486403  0.35483773  1.0
  C  C47  1  0.49094396  0.49488396  0.64512477  1.0
  C  C48  1  0.63925882  0.40609610  0.84933714  1.0
  C  C49  1  0.36082475  0.40597092  0.15063663  1.0
  C  C50  1  0.65162401  0.41060463  0.15605564  1.0
  C  C51  1  0.34844849  0.41069409  0.84394456  1.0
  C  C52  1  0.63498639  0.45154731  0.77327595  1.0
  C  C53  1  0.36504228  0.45141691  0.22669345  1.0
  C  C54  1  0.65211245  0.43238474  0.23516923  1.0
  C  C55  1  0.34793003  0.43245443  0.76482889  1.0
  C  C56  1  0.49051696  0.46063056  0.72833561  1.0
  C  C57  1  0.50948497  0.46055610  0.27164338  1.0
  C  C58  1  0.49488629  0.39430373  0.88531345  1.0
  C  C59  1  0.50523373  0.39422052  0.11468086  1.0
  C  C60  1  0.49831723  0.37615064  0.96519475  1.0
  C  C61  1  0.50182697  0.37611241  0.03480781  1.0
  C  C62  1  0.79221126  0.36928566  0.89175591  1.0
  C  C63  1  0.20792769  0.36917848  0.10820669  1.0
  C  C64  1  0.80166302  0.41195624  0.11476178  1.0
  C  C65  1  0.19843595  0.41210960  0.88525849  1.0
  C  C66  1  0.84201764  0.62227970  0.76926840  1.0
  C  C67  1  0.75270612  0.75239254  0.73547531  1.0
  C  C68  1  0.80211964  0.89116341  0.77758521  1.0
  C  C69  1  0.15781857  0.62208653  0.23062253  1.0
  C  C70  1  0.24708939  0.75221694  0.26431203  1.0
  C  C71  1  0.19756682  0.89098903  0.22216617  1.0
  C  C72  1  0.87377551  0.29247644  0.28038020  1.0
  C  C73  1  0.80203668  0.19380978  0.33826704  1.0
  C  C74  1  0.87560571  0.04306196  0.33943645  1.0
  C  C75  1  0.12628554  0.29260910  0.71965330  1.0
  C  C76  1  0.19816411  0.19382941  0.66185872  1.0
  C  C77  1  0.12462368  0.04310469  0.66076573  1.0
  N  N78  1  0.06469409  0.51898937  0.49672825  1.0
  N  N79  1  0.93524267  0.51894301  0.50321638  1.0
  O  O80  1  0.63096835  0.73313181  0.51963416  1.0
  O  O81  1  0.36926416  0.29733950  0.51289019  1.0
  O  O82  1  0.63065689  0.29724356  0.48712063  1.0
  O  O83  1  0.36895786  0.73317431  0.48031668  1.0
  O  O84  1  0.63535267  0.54404358  0.38885613  1.0
  O  O85  1  0.36458571  0.54416069  0.61110742  1.0
  O  O86  1  0.61897163  0.47099389  0.61200525  1.0
  O  O87  1  0.38093623  0.47112077  0.38794744  1.0
  O  O88  1  0.77674503  0.48500196  0.74286454  1.0
  O  O89  1  0.22322811  0.48482938  0.25708755  1.0
  O  O90  1  0.79514928  0.43242050  0.27598729  1.0
  O  O91  1  0.20488851  0.43252780  0.72401189  1.0
