# generated using pymatgen
data_Zn3H20(C18O7)2
_symmetry_space_group_name_H-M   'P 1'
_cell_length_a   18.47280584
_cell_length_b   18.56027029
_cell_length_c   18.67103720
_cell_angle_alpha   109.10268462
_cell_angle_beta   109.04341290
_cell_angle_gamma   109.11098602
_symmetry_Int_Tables_number   1
_chemical_formula_structural   Zn3H20(C18O7)2
_chemical_formula_sum   'Zn6 H40 C72 O28'
_cell_volume   4997.02112239
_cell_formula_units_Z   2
loop_
 _symmetry_equiv_pos_site_id
 _symmetry_equiv_pos_as_xyz
  1  'x, y, z'
loop_
 _atom_site_type_symbol
 _atom_site_label
 _atom_site_symmetry_multiplicity
 _atom_site_fract_x
 _atom_site_fract_y
 _atom_site_fract_z
 _atom_site_occupancy
  Zn  Zn0  1  0.49821971  0.56352579  0.55585650  1.0
  Zn  Zn1  1  0.49873430  0.43621534  0.43420485  1.0
  Zn  Zn2  1  0.06550412  0.99334392  0.55886756  1.0
  Zn  Zn3  1  0.94158147  0.00174798  0.44172345  1.0
  Zn  Zn4  1  0.06693436  0.55522236  0.99556998  1.0
  Zn  Zn5  1  0.93521487  0.44216714  0.99845605  1.0
  H  H6  1  0.97955358  0.17681520  0.12502785  1.0
  H  H7  1  0.99385682  0.30685218  0.10857547  1.0
  H  H8  1  0.23848482  0.58589885  0.21538424  1.0
  H  H9  1  0.24247916  0.28024403  0.38371416  1.0
  H  H10  1  0.42527150  0.47020765  0.69087849  1.0
  H  H11  1  0.41979660  0.46705763  0.82024786  1.0
  H  H12  1  0.29452883  0.34359035  0.80323161  1.0
  H  H13  1  0.17974207  0.22290859  0.65836080  1.0
  H  H14  1  0.11403342  0.16083200  0.36639966  1.0
  H  H15  1  0.59204455  0.69165831  0.37308809  1.0
  H  H16  1  0.74273828  0.58232831  0.60171719  1.0
  H  H17  1  0.89201603  0.70788555  0.67628405  1.0
  H  H18  1  0.00045538  0.74683218  0.82281112  1.0
  H  H19  1  0.70754091  0.38216888  0.78887152  1.0
  H  H20  1  0.07878862  0.77216722  0.39607152  1.0
  H  H21  1  0.01730139  0.96495892  0.29514959  1.0
  H  H22  1  0.98300005  0.96936517  0.15847349  1.0
  H  H23  1  0.96792174  0.85116129  0.03149942  1.0
  H  H24  1  0.99686037  0.73467529  0.04673896  1.0
  H  H25  1  0.69747410  0.87434588  0.48945116  1.0
  H  H26  1  0.07249658  0.66008467  0.27170456  1.0
  H  H27  1  0.06382394  0.26206504  0.66134825  1.0
  H  H28  1  0.95029312  0.02265669  0.85227181  1.0
  H  H29  1  0.98478159  0.15706259  0.97698833  1.0
  H  H30  1  0.02038718  0.29383668  0.97110619  1.0
  H  H31  1  0.07290822  0.38846514  0.77298475  1.0
  H  H32  1  0.73242596  0.83849726  0.63048650  1.0
  H  H33  1  0.88444524  0.83310153  0.62384392  1.0
  H  H34  1  0.77905384  0.65150108  0.50810738  1.0
  H  H35  1  0.36608966  0.58965238  0.32001657  1.0
  H  H36  1  0.25994044  0.29959175  0.27930208  1.0
  H  H37  1  0.11282300  0.17137369  0.20769869  1.0
  H  H38  1  0.63016848  0.57618940  0.27560816  1.0
  H  H39  1  0.71502108  0.56468726  0.34268114  1.0
  H  H40  1  0.79414350  0.58963383  0.25805821  1.0
  H  H41  1  0.68684362  0.49781998  0.18911330  1.0
  H  H42  1  0.70832429  0.59911982  0.19015378  1.0
  H  H43  1  0.56575903  0.32731925  0.68509141  1.0
  H  H44  1  0.02494763  0.72218078  0.93013951  1.0
  H  H45  1  0.93718977  0.96540502  0.71908925  1.0
  C  C46  1  0.37420405  0.46395499  0.35172428  1.0
  C  C47  1  0.81872644  0.80222117  0.56903731  1.0
  C  C48  1  0.76215493  0.70184447  0.50417657  1.0
  C  C49  1  0.67960513  0.70541244  0.50774719  1.0
  C  C50  1  0.20138934  0.30118446  0.24294193  1.0
  C  C51  1  0.11956567  0.22986373  0.20254909  1.0
  C  C52  1  0.04435374  0.23266245  0.15499447  1.0
  C  C53  1  0.05186242  0.30519720  0.14584622  1.0
  C  C54  1  0.13515446  0.37989408  0.18589576  1.0
  C  C55  1  0.21161694  0.37833606  0.23786066  1.0
  C  C56  1  0.29474101  0.45568783  0.28614629  1.0
  C  C57  1  0.61362701  0.63786548  0.51198646  1.0
  C  C58  1  0.30287588  0.53011608  0.28042257  1.0
  C  C59  1  0.23052515  0.52885983  0.22354255  1.0
  C  C60  1  0.14755720  0.45625896  0.17693493  1.0
  C  C61  1  0.37122451  0.41632055  0.68355318  1.0
  C  C62  1  0.36780001  0.41442858  0.75563625  1.0
  C  C63  1  0.29733603  0.34474039  0.74612196  1.0
  C  C64  1  0.23205212  0.27747129  0.66468169  1.0
  C  C65  1  0.23286745  0.27715449  0.58872419  1.0
  C  C66  1  0.30402477  0.34897621  0.59855881  1.0
  C  C67  1  0.30593978  0.34728722  0.52210961  1.0
  C  C68  1  0.61322166  0.47197902  0.58713337  1.0
  C  C69  1  0.23883899  0.28017362  0.44065617  1.0
  C  C70  1  0.16696384  0.21273545  0.43089261  1.0
  C  C71  1  0.16486609  0.20930415  0.50312007  1.0
  C  C72  1  0.79224410  0.59693654  0.66358731  1.0
  C  C73  1  0.87490141  0.66703088  0.70520572  1.0
  C  C74  1  0.93660572  0.68802469  0.78706673  1.0
  C  C75  1  0.91728329  0.63721776  0.82564001  1.0
  C  C76  1  0.83565393  0.55777299  0.78066651  1.0
  C  C77  1  0.77069276  0.54286456  0.70070128  1.0
  C  C78  1  0.68283204  0.47481145  0.65925546  1.0
  C  C79  1  0.37935711  0.41442758  0.52406892  1.0
  C  C80  1  0.65941941  0.42010009  0.69268233  1.0
  C  C81  1  0.72429410  0.42872856  0.76553236  1.0
  C  C82  1  0.81056956  0.49453640  0.80900290  1.0
  C  C83  1  0.03798586  0.89622384  0.40150811  1.0
  C  C84  1  0.86572907  0.88397955  0.48289487  1.0
  C  C85  1  0.02768506  0.10804723  0.64492747  1.0
  C  C86  1  0.09472083  0.12911807  0.48917185  1.0
  C  C87  1  0.03602815  0.39628386  0.89923183  1.0
  C  C88  1  0.07852693  0.46367980  0.11507450  1.0
  C  C89  1  0.03272707  0.64363372  0.11475399  1.0
  C  C90  1  0.65762281  0.72423855  0.42855093  1.0
  C  C91  1  0.87301996  0.48644687  0.87703428  1.0
  C  C92  1  0.01391159  0.91497438  0.24154375  1.0
  C  C93  1  0.99419772  0.91694851  0.16453837  1.0
  C  C94  1  0.98672211  0.85091863  0.09320320  1.0
  C  C95  1  0.00273876  0.78584859  0.10149266  1.0
  C  C96  1  0.02571113  0.78330516  0.18066110  1.0
  C  C97  1  0.02836267  0.84744657  0.25186294  1.0
  C  C98  1  0.04643624  0.84059878  0.32950652  1.0
  C  C99  1  0.06485817  0.77572458  0.33630510  1.0
  C  C100  1  0.06158508  0.71282277  0.26633976  1.0
  C  C101  1  0.74157065  0.72188513  0.42622193  1.0
  C  C102  1  0.04215769  0.71601302  0.18966631  1.0
  C  C103  1  0.98078615  0.08888362  0.78256600  1.0
  C  C104  1  0.97210230  0.08488196  0.85212456  1.0
  C  C105  1  0.98971775  0.16028119  0.92142525  1.0
  C  C106  1  0.01121651  0.23753605  0.91896812  1.0
  C  C107  1  0.02089257  0.24400310  0.84855980  1.0
  C  C108  1  0.01167016  0.16975174  0.78141279  1.0
  C  C109  1  0.02964000  0.17860912  0.71517962  1.0
  C  C110  1  0.05177424  0.25663142  0.71320639  1.0
  C  C111  1  0.05761995  0.32821112  0.77646069  1.0
  C  C112  1  0.79879716  0.82294072  0.49234757  1.0
  C  C113  1  0.04112140  0.32233345  0.84206900  1.0
  C  C114  1  0.71496768  0.82453459  0.49389992  1.0
  C  C115  1  0.73587865  0.80568160  0.57222579  1.0
  C  C116  1  0.70043734  0.59528612  0.30203429  1.0
  C  C117  1  0.72386514  0.56901634  0.23063339  1.0
  O  O118  1  0.40866173  0.52534121  0.42816743  1.0
  O  O119  1  0.97953577  0.91873765  0.38105672  1.0
  O  O120  1  0.94446367  0.90186452  0.52605151  1.0
  O  O121  1  0.83977357  0.91355136  0.43177585  1.0
  O  O122  1  0.08398702  0.08203086  0.66605401  1.0
  O  O123  1  0.97358195  0.08370855  0.56805536  1.0
  O  O124  1  0.11959071  0.09277069  0.53149012  1.0
  O  O125  1  0.01449092  0.10030566  0.43396336  1.0
  O  O126  1  0.09252269  0.47457652  0.92393085  1.0
  O  O127  1  0.97403790  0.37720074  0.91738208  1.0
  O  O128  1  0.10673425  0.51969527  0.09218282  1.0
  O  O129  1  0.40308457  0.41087343  0.32820122  1.0
  O  O130  1  0.99609128  0.41513576  0.08652677  1.0
  O  O131  1  0.08408808  0.66232701  0.08281842  1.0
  O  O132  1  0.97378564  0.56783968  0.08854233  1.0
  O  O133  1  0.95214874  0.51771416  0.89354370  1.0
  O  O134  1  0.84131367  0.44314588  0.91146629  1.0
  O  O135  1  0.58531273  0.66373107  0.56477024  1.0
  O  O136  1  0.58923579  0.55864716  0.46262108  1.0
  O  O137  1  0.58691203  0.52576138  0.61151422  1.0
  O  O138  1  0.58634868  0.41856569  0.50808861  1.0
  O  O139  1  0.40984440  0.49598646  0.57591000  1.0
  O  O140  1  0.40598929  0.38660248  0.47180855  1.0
  O  O141  1  0.08803189  0.91574400  0.47959864  1.0
  O  O142  1  0.75209782  0.68890470  0.35524460  1.0
  O  O143  1  0.57317705  0.35889608  0.65313875  1.0
  O  O144  1  0.97525763  0.66644993  0.90980393  1.0
  O  O145  1  0.95793526  0.01600432  0.71094421  1.0
