# generated using pymatgen
data_Al2H42C43O10
_symmetry_space_group_name_H-M   'P 1'
_cell_length_a   6.61445540
_cell_length_b   20.35609112
_cell_length_c   23.73011392
_cell_angle_alpha   89.69628233
_cell_angle_beta   86.74424317
_cell_angle_gamma   87.64708244
_symmetry_Int_Tables_number   1
_chemical_formula_structural   Al2H42C43O10
_chemical_formula_sum   'Al4 H84 C86 O20'
_cell_volume   3187.26769209
_cell_formula_units_Z   2
loop_
 _symmetry_equiv_pos_site_id
 _symmetry_equiv_pos_as_xyz
  1  'x, y, z'
loop_
 _atom_site_type_symbol
 _atom_site_label
 _atom_site_symmetry_multiplicity
 _atom_site_fract_x
 _atom_site_fract_y
 _atom_site_fract_z
 _atom_site_occupancy
  Al  Al0  1  0.10618044  0.50442024  0.49679195  1.0
  Al  Al1  1  0.60468526  0.50721150  0.50093954  1.0
  Al  Al2  1  0.74308959  0.99910407  0.99400004  1.0
  Al  Al3  1  0.24382868  0.99746549  0.99330200  1.0
  H  H4  1  0.97883502  0.37712996  0.15551736  1.0
  H  H5  1  0.72096594  0.12167292  0.35160362  1.0
  H  H6  1  0.90837213  0.21357148  0.01463121  1.0
  H  H7  1  0.71593319  0.18238839  0.44048127  1.0
  H  H8  1  0.60373739  0.69374003  0.26248919  1.0
  H  H9  1  0.04297335  0.71224125  0.15654815  1.0
  H  H10  1  0.95106495  0.64089163  0.23050331  1.0
  H  H11  1  0.88930166  0.87028944  0.27191725  1.0
  H  H12  1  0.92011636  0.80058703  0.34951347  1.0
  H  H13  1  0.62751216  0.82461577  0.21742188  1.0
  H  H14  1  0.63976587  0.28307568  0.82729050  1.0
  H  H15  1  0.54018347  0.36382681  0.76294421  1.0
  H  H16  1  0.08741324  0.26409873  0.72590491  1.0
  H  H17  1  0.27002989  0.29163374  0.83712453  1.0
  H  H18  1  0.58918672  0.22574078  0.66550412  1.0
  H  H19  1  0.33081823  0.21534751  0.65343776  1.0
  H  H20  1  0.69985098  0.32242925  0.71171697  1.0
  H  H21  1  0.76134771  0.23459885  0.77314952  1.0
  H  H22  1  0.06710927  0.86365942  0.68608073  1.0
  H  H23  1  0.77880655  0.68608805  0.90854569  1.0
  H  H24  1  0.76729829  0.79211097  0.95863761  1.0
  H  H25  1  0.05115167  0.81574853  0.59513250  1.0
  H  H26  1  0.68057615  0.75176391  0.17865700  1.0
  H  H27  1  0.23803420  0.74403456  0.19451450  1.0
  H  H28  1  0.17019850  0.66364983  0.26356988  1.0
  H  H29  1  0.15008053  0.94454556  0.31516380  1.0
  H  H30  1  0.26284421  0.87357233  0.34649778  1.0
  H  H31  1  0.41156462  0.92451214  0.30128923  1.0
  H  H32  1  0.33058794  0.82420264  0.24873801  1.0
  H  H33  1  0.21653915  0.89470163  0.21860878  1.0
  H  H34  1  0.97976959  0.37811360  0.33988941  1.0
  H  H35  1  0.59815581  0.76619518  0.30321365  1.0
  H  H36  1  0.15465875  0.76553679  0.32276774  1.0
  H  H37  1  0.25413359  0.40261117  0.82439127  1.0
  H  H38  1  0.29717927  0.43564302  0.75523832  1.0
  H  H39  1  0.07248549  0.45768945  0.79574339  1.0
  H  H40  1  0.00873298  0.37706608  0.72044154  1.0
  H  H41  1  0.93983921  0.34877103  0.78880399  1.0
  H  H42  1  0.12126780  0.22614589  0.81766101  1.0
  H  H43  1  0.00727511  0.24019387  0.54260417  1.0
  H  H44  1  0.01193613  0.32730690  0.53930031  1.0
  H  H45  1  0.86098130  0.28942330  0.59322832  1.0
  H  H46  1  0.63988236  0.33232078  0.51931522  1.0
  H  H47  1  0.63584745  0.24578736  0.52208285  1.0
  H  H48  1  0.84230903  0.15998254  0.69660014  1.0
  H  H49  1  0.83159618  0.13072989  0.76769156  1.0
  H  H50  1  0.86459851  0.07467001  0.71099047  1.0
  H  H51  1  0.51005883  0.07694048  0.75495439  1.0
  H  H52  1  0.51984533  0.09540583  0.68231766  1.0
  H  H53  1  0.26370587  0.15941200  0.73774522  1.0
  H  H54  1  0.46114784  0.61600975  0.92718789  1.0
  H  H55  1  0.55015598  0.53256928  0.91987616  1.0
  H  H56  1  0.34508489  0.56328276  0.88056320  1.0
  H  H57  1  0.67052424  0.55379181  0.81991207  1.0
  H  H58  1  0.78826907  0.60500300  0.86547507  1.0
  H  H59  1  0.46811433  0.62152421  0.64843384  1.0
  H  H60  1  0.38074913  0.76523263  0.46968271  1.0
  H  H61  1  0.36596783  0.67870912  0.46362895  1.0
  H  H62  1  0.21627372  0.73080876  0.42167826  1.0
  H  H63  1  0.00023258  0.68741489  0.50170903  1.0
  H  H64  1  0.01294517  0.77378044  0.50635678  1.0
  H  H65  1  0.33274295  0.87144771  0.84741608  1.0
  H  H66  1  0.70370242  0.58211705  0.67609300  1.0
  H  H67  1  0.77089200  0.54503827  0.73978584  1.0
  H  H68  1  0.61561574  0.50301266  0.69421004  1.0
  H  H69  1  0.41012893  0.54981273  0.77753585  1.0
  H  H70  1  0.32713402  0.58231083  0.71450619  1.0
  H  H71  1  0.20878267  0.86492274  0.77887914  1.0
  H  H72  1  0.03217686  0.30543932  0.97145482  1.0
  H  H73  1  0.76463991  0.31128446  0.98346898  1.0
  H  H74  1  0.90349246  0.38370977  0.97400713  1.0
  H  H75  1  0.80744115  0.37099787  0.07535375  1.0
  H  H76  1  0.07157526  0.36377031  0.06362327  1.0
  H  H77  1  0.34246909  0.10370066  0.17954579  1.0
  H  H78  1  0.19429223  0.11643191  0.24350508  1.0
  H  H79  1  0.25841096  0.03508563  0.21995468  1.0
  H  H80  1  0.89949873  0.06282806  0.19824488  1.0
  H  H81  1  0.05427746  0.04907798  0.13769998  1.0
  H  H82  1  0.98416073  0.37823980  0.25745283  1.0
  H  H83  1  0.78842956  0.11586875  0.25017509  1.0
  H  H84  1  0.38607978  0.46207791  0.43614536  1.0
  H  H85  1  0.85140280  0.49156591  0.57152767  1.0
  H  H86  1  0.47069064  0.03389700  0.06085335  1.0
  H  H87  1  0.01036465  0.96315170  0.92627709  1.0
  C  C88  1  0.35267948  0.42959966  0.57889240  1.0
  C  C89  1  0.32184943  0.60528532  0.55230077  1.0
  C  C90  1  0.85144881  0.58297661  0.42254850  1.0
  C  C91  1  0.87923010  0.40316391  0.44623660  1.0
  C  C92  1  0.95020571  0.15465210  0.08883816  1.0
  C  C93  1  0.87023369  0.33779021  0.41808614  1.0
  C  C94  1  0.93393364  0.27379743  0.08795625  1.0
  C  C95  1  0.92450067  0.21489847  0.06004285  1.0
  C  C96  1  0.96383475  0.15036395  0.14718409  1.0
  C  C97  1  0.93769828  0.21071946  0.17848569  1.0
  C  C98  1  0.94463947  0.27185402  0.14797501  1.0
  C  C99  1  0.90297999  0.21408346  0.23958182  1.0
  C  C100  1  0.92609017  0.27408410  0.26854025  1.0
  C  C101  1  0.96484457  0.33179985  0.23626382  1.0
  C  C102  1  0.96337084  0.33111860  0.17868451  1.0
  C  C103  1  0.82626648  0.16006407  0.27184751  1.0
  C  C104  1  0.78578736  0.16339189  0.32895993  1.0
  C  C105  1  0.82058551  0.22127174  0.35968653  1.0
  C  C106  1  0.89353651  0.27703313  0.32936938  1.0
  C  C107  1  0.77409929  0.22564108  0.41850141  1.0
  C  C108  1  0.79231956  0.28302121  0.44849050  1.0
  C  C109  1  0.92153239  0.33441012  0.36077704  1.0
  C  C110  1  0.72159011  0.77891437  0.21599089  1.0
  C  C111  1  0.07699587  0.73256480  0.19756706  1.0
  C  C112  1  0.03033125  0.68320150  0.24568246  1.0
  C  C113  1  0.85968834  0.63197347  0.37864448  1.0
  C  C114  1  0.94674758  0.79690305  0.20759866  1.0
  C  C115  1  0.68761728  0.73795337  0.27042778  1.0
  C  C116  1  0.89497209  0.71724601  0.29351751  1.0
  C  C117  1  0.99988510  0.77989317  0.31137001  1.0
  C  C118  1  0.00687008  0.83113862  0.26277262  1.0
  C  C119  1  0.87221162  0.67205880  0.34062273  1.0
  C  C120  1  0.97054781  0.84045877  0.15935552  1.0
  C  C121  1  0.98515639  0.87671867  0.11863554  1.0
  C  C122  1  0.57108131  0.31620839  0.74228310  1.0
  C  C123  1  0.19017352  0.29458320  0.74866490  1.0
  C  C124  1  0.24559672  0.25718966  0.80277851  1.0
  C  C125  1  0.48943190  0.12742526  0.87451934  1.0
  C  C126  1  0.38635669  0.29757227  0.70903843  1.0
  C  C127  1  0.61982273  0.26185539  0.78556620  1.0
  C  C128  1  0.44316577  0.21413062  0.79140075  1.0
  C  C129  1  0.41984521  0.17661237  0.73469246  1.0
  C  C130  1  0.43546123  0.22703229  0.68599698  1.0
  C  C131  1  0.47107674  0.16778151  0.83705386  1.0
  C  C132  1  0.36233448  0.34323672  0.66276903  1.0
  C  C133  1  0.34974873  0.38245635  0.62422030  1.0
  C  C134  1  0.54207165  0.83690812  0.90619098  1.0
  C  C135  1  0.29122822  0.66593526  0.58698808  1.0
  C  C136  1  0.68182147  0.72643402  0.89394106  1.0
  C  C137  1  0.67514798  0.78522008  0.92264777  1.0
  C  C138  1  0.43095641  0.82998830  0.85898094  1.0
  C  C139  1  0.44954875  0.77237471  0.82582429  1.0
  C  C140  1  0.56882516  0.71787910  0.84551147  1.0
  C  C141  1  0.35721042  0.76756113  0.77229948  1.0
  C  C142  1  0.38723902  0.70930958  0.73927804  1.0
  C  C143  1  0.47427799  0.65090524  0.76584734  1.0
  C  C144  1  0.56363243  0.65572918  0.81725725  1.0
  C  C145  1  0.23848504  0.82195426  0.75216818  1.0
  C  C146  1  0.15954635  0.82180808  0.70030157  1.0
  C  C147  1  0.20253018  0.76797728  0.66312971  1.0
  C  C148  1  0.31975277  0.71192471  0.68174670  1.0
  C  C149  1  0.13569248  0.77119803  0.60748599  1.0
  C  C150  1  0.17272512  0.72106920  0.56875349  1.0
  C  C151  1  0.36778150  0.66332707  0.64023266  1.0
  C  C152  1  0.52643108  0.89935110  0.93849002  1.0
  C  C153  1  0.48923101  0.07752434  0.91789506  1.0
  C  C154  1  0.96304500  0.09505604  0.05201298  1.0
  C  C155  1  0.99632316  0.92215608  0.07185467  1.0
  C  C156  1  0.21231550  0.86322225  0.25645844  1.0
  C  C157  1  0.26153173  0.90342796  0.30772603  1.0
  C  C158  1  0.07109395  0.36001917  0.76025524  1.0
  C  C159  1  0.18127268  0.41664664  0.78531203  1.0
  C  C160  1  0.73280427  0.28704663  0.51075924  1.0
  C  C161  1  0.91410381  0.28587279  0.54854089  1.0
  C  C162  1  0.55642094  0.11445507  0.72379434  1.0
  C  C163  1  0.78597914  0.12089955  0.72485305  1.0
  C  C164  1  0.64095617  0.59549806  0.84849543  1.0
  C  C165  1  0.49109494  0.57563989  0.89693152  1.0
  C  C166  1  0.10236895  0.72724227  0.50948074  1.0
  C  C167  1  0.27666607  0.72540499  0.46371911  1.0
  C  C168  1  0.45448258  0.58228057  0.74213453  1.0
  C  C169  1  0.64630715  0.55153841  0.71127773  1.0
  C  C170  1  0.93060406  0.33865417  0.05638126  1.0
  C  C171  1  0.90643406  0.33427261  0.99284735  1.0
  C  C172  1  0.02380087  0.08397499  0.17239031  1.0
  C  C173  1  0.21531678  0.08506187  0.20599823  1.0
  O  O174  1  0.49594799  0.57587451  0.54916839  1.0
  O  O175  1  0.18327085  0.45320165  0.56332236  1.0
  O  O176  1  0.05016852  0.42283315  0.45966344  1.0
  O  O177  1  0.16487088  0.58503071  0.53040926  1.0
  O  O178  1  0.01868210  0.55362397  0.43331805  1.0
  O  O179  1  0.52860752  0.44369154  0.55872506  1.0
  O  O180  1  0.36625399  0.49603891  0.46471084  1.0
  O  O181  1  0.67854214  0.57248104  0.44641957  1.0
  O  O182  1  0.70980875  0.43487421  0.45347327  1.0
  O  O183  1  0.85115051  0.50996355  0.53376053  1.0
  O  O184  1  0.31502749  0.06541024  0.94016588  1.0
  O  O185  1  0.68736400  0.91741233  0.95994917  1.0
  O  O186  1  0.82964945  0.95096057  0.05973457  1.0
  O  O187  1  0.65837763  0.04964462  0.92907689  1.0
  O  O188  1  0.80022754  0.07979038  0.03015598  1.0
  O  O189  1  0.35550162  0.93097450  0.94220716  1.0
  O  O190  1  0.48521310  0.00508359  0.02835923  1.0
  O  O191  1  0.13424257  0.06469518  0.04414960  1.0
  O  O192  1  0.17080320  0.93030091  0.04787536  1.0
  O  O193  1  0.00047059  0.99149975  0.95906577  1.0
