# generated using pymatgen
data_AlH8C14NClO6
_symmetry_space_group_name_H-M   'P 1'
_cell_length_a   6.63375633
_cell_length_b   15.24333430
_cell_length_c   17.03361395
_cell_angle_alpha   86.25732963
_cell_angle_beta   81.41845790
_cell_angle_gamma   77.73108676
_symmetry_Int_Tables_number   1
_chemical_formula_structural   AlH8C14NClO6
_chemical_formula_sum   'Al2 H16 C28 N2 Cl2 O12'
_cell_volume   1663.26184349
_cell_formula_units_Z   2
loop_
 _symmetry_equiv_pos_site_id
 _symmetry_equiv_pos_as_xyz
  1  'x, y, z'
loop_
 _atom_site_type_symbol
 _atom_site_label
 _atom_site_symmetry_multiplicity
 _atom_site_fract_x
 _atom_site_fract_y
 _atom_site_fract_z
 _atom_site_occupancy
  Al  Al0  1  0.49999939  0.50000196  0.49999748  1.0
  Al  Al1  1  0.00000610  0.49999847  0.49999515  1.0
  H  H2  1  0.20321693  0.61171231  0.47138389  1.0
  H  H3  1  0.79676179  0.38828631  0.52860014  1.0
  H  H4  1  0.83178083  0.52900537  0.74135382  1.0
  H  H5  1  0.77515280  0.53366011  0.88967505  1.0
  H  H6  1  0.43976246  0.46058413  0.89040867  1.0
  H  H7  1  0.56021236  0.53943453  0.10958982  1.0
  H  H8  1  0.22482901  0.46633511  0.11031367  1.0
  H  H9  1  0.16821322  0.47098648  0.25863791  1.0
  H  H10  1  0.21110895  0.05964050  0.43274130  1.0
  H  H11  1  0.78922214  0.94033764  0.56708802  1.0
  H  H12  1  0.33479351  0.76672900  0.46825551  1.0
  H  H13  1  0.25510130  0.93048381  0.45208109  1.0
  H  H14  1  0.66500482  0.23327747  0.53189134  1.0
  H  H15  1  0.74459952  0.06953017  0.54811952  1.0
  H  H16  1  0.53221839  0.45863733  0.67957254  1.0
  H  H17  1  0.46777962  0.54138070  0.32042352  1.0
  C  C18  1  0.65824556  0.65948645  0.52021883  1.0
  C  C19  1  0.80920334  0.50850561  0.35509856  1.0
  C  C20  1  0.34176769  0.34050339  0.47977547  1.0
  C  C21  1  0.19079300  0.49150037  0.64489234  1.0
  C  C22  1  0.16570168  0.49412039  0.73189813  1.0
  C  C23  1  0.96321840  0.51530984  0.77478377  1.0
  C  C24  1  0.93086606  0.51718089  0.85655401  1.0
  C  C25  1  0.10507915  0.49646421  0.89808513  1.0
  C  C26  1  0.30723931  0.47617517  0.85733642  1.0
  C  C27  1  0.34042869  0.47496744  0.77412514  1.0
  C  C28  1  0.69273538  0.52383742  0.14266355  1.0
  C  C29  1  0.89489138  0.50353835  0.10190913  1.0
  C  C30  1  0.06911116  0.48282372  0.14343625  1.0
  C  C31  1  0.03676608  0.48468604  0.22520771  1.0
  C  C32  1  0.83427483  0.50588553  0.26809621  1.0
  C  C33  1  0.65955921  0.52504319  0.22587127  1.0
  C  C34  1  0.39071518  0.24059818  0.47737912  1.0
  C  C35  1  0.60930929  0.75939969  0.52262178  1.0
  C  C36  1  0.26589950  0.18921495  0.44880633  1.0
  C  C37  1  0.31132119  0.09578436  0.45690913  1.0
  C  C38  1  0.73424026  0.81077686  0.55112977  1.0
  C  C39  1  0.68886519  0.90420635  0.54300508  1.0
  C  C40  1  0.43471852  0.80590908  0.48900291  1.0
  C  C41  1  0.39086469  0.89881927  0.48001832  1.0
  C  C42  1  0.56517214  0.19409466  0.51108026  1.0
  C  C43  1  0.60896691  0.10118285  0.52009051  1.0
  C  C44  1  0.48008854  0.04959964  0.49440679  1.0
  C  C45  1  0.51991142  0.95039811  0.50560486  1.0
  N  N46  1  0.09210477  0.49429883  0.98181877  1.0
  N  N47  1  0.90787710  0.50571182  0.01817327  1.0
  Cl  Cl48  1  0.05711534  0.23787674  0.39979874  1.0
  Cl  Cl49  1  0.94317062  0.76211788  0.60006219  1.0
  O  O50  1  0.50522181  0.61980082  0.52783083  1.0
  O  O51  1  0.97010652  0.49730869  0.38973539  1.0
  O  O52  1  0.15106631  0.37882959  0.49369145  1.0
  O  O53  1  0.38013333  0.47630476  0.60760816  1.0
  O  O54  1  0.49477123  0.38019901  0.47217112  1.0
  O  O55  1  0.02989522  0.50268921  0.61025855  1.0
  O  O56  1  0.84895381  0.62115898  0.50629431  1.0
  O  O57  1  0.61986881  0.52369849  0.39238783  1.0
  O  O58  1  0.23967677  0.54664508  0.46937016  1.0
  O  O59  1  0.76032561  0.45335488  0.53061718  1.0
  O  O60  1  0.53926234  0.45462065  0.73796411  1.0
  O  O61  1  0.46073813  0.54539534  0.26203485  1.0
