# generated using pymatgen
data_ZnH8C22N2(Cl2O5)2
_symmetry_space_group_name_H-M   'P 1'
_cell_length_a   14.49697266
_cell_length_b   15.09477121
_cell_length_c   16.78523441
_cell_angle_alpha   87.34037403
_cell_angle_beta   84.77002022
_cell_angle_gamma   89.17547197
_symmetry_Int_Tables_number   1
_chemical_formula_structural   ZnH8C22N2(Cl2O5)2
_chemical_formula_sum   'Zn2 H16 C44 N4 Cl8 O20'
_cell_volume   3653.66507209
_cell_formula_units_Z   2
loop_
 _symmetry_equiv_pos_site_id
 _symmetry_equiv_pos_as_xyz
  1  'x, y, z'
loop_
 _atom_site_type_symbol
 _atom_site_label
 _atom_site_symmetry_multiplicity
 _atom_site_fract_x
 _atom_site_fract_y
 _atom_site_fract_z
 _atom_site_occupancy
  Zn  Zn0  1  0.60107384  0.51357283  0.49852841  1.0
  Zn  Zn1  1  0.39351020  0.50962405  0.49624718  1.0
  H  H2  1  0.05118203  0.46977230  0.61609372  1.0
  H  H3  1  0.92562270  0.39636789  0.56982710  1.0
  H  H4  1  0.28245043  0.51990025  0.24017681  1.0
  H  H5  1  0.73716225  0.27494902  0.63833844  1.0
  H  H6  1  0.22249426  0.43805563  0.74013133  1.0
  H  H7  1  0.73875792  0.77001011  0.38601643  1.0
  H  H8  1  0.32689894  0.73857906  0.35997975  1.0
  H  H9  1  0.76211181  0.25599188  0.37267226  1.0
  H  H10  1  0.93565457  0.63566019  0.41760507  1.0
  H  H11  1  0.63266962  0.53280530  0.24137338  1.0
  H  H12  1  0.39995943  0.36702407  0.72577714  1.0
  H  H13  1  0.62615797  0.93208801  0.59868569  1.0
  H  H14  1  0.40438029  0.07765139  0.64127724  1.0
  H  H15  1  0.62645592  0.77014095  0.57442236  1.0
  H  H16  1  0.41058467  0.24278249  0.62687181  1.0
  H  H17  1  0.07719882  0.55258346  0.36535103  1.0
  C  C18  1  0.50664749  0.68066999  0.49721281  1.0
  C  C19  1  0.57140726  0.09992890  0.48623231  1.0
  C  C20  1  0.49955131  0.95941638  0.54420500  1.0
  C  C21  1  0.50885609  0.05723515  0.54420394  1.0
  C  C22  1  0.10581582  0.53409662  0.42166815  1.0
  C  C23  1  0.89327058  0.45092907  0.53756509  1.0
  C  C24  1  0.20184363  0.52946871  0.42365085  1.0
  C  C25  1  0.79691281  0.45622669  0.54182550  1.0
  C  C26  1  0.18769504  0.47971139  0.55598402  1.0
  C  C27  1  0.80235598  0.57955165  0.45519020  1.0
  C  C28  1  0.09145751  0.48627817  0.55952857  1.0
  C  C29  1  0.52129133  0.34280354  0.52219576  1.0
  C  C30  1  0.89894692  0.58176192  0.45175774  1.0
  C  C31  1  0.04836748  0.51298249  0.49110483  1.0
  C  C32  1  0.94643775  0.51550220  0.49286467  1.0
  C  C33  1  0.50391460  0.47380684  0.35004063  1.0
  C  C34  1  0.45435795  0.51831492  0.64877249  1.0
  C  C35  1  0.51610951  0.44658573  0.26460360  1.0
  C  C36  1  0.45015489  0.49909001  0.73770506  1.0
  C  C37  1  0.45944593  0.38436278  0.23283690  1.0
  C  C38  1  0.47977237  0.56033790  0.78982739  1.0
  C  C39  1  0.46526330  0.37465285  0.14954547  1.0
  C  C40  1  0.57025809  0.81317922  0.55667021  1.0
  C  C41  1  0.48623066  0.53559183  0.87087003  1.0
  C  C42  1  0.52855265  0.42648996  0.09769101  1.0
  C  C43  1  0.46200102  0.44859294  0.90007128  1.0
  C  C44  1  0.59353214  0.47804603  0.13292608  1.0
  C  C45  1  0.42811630  0.38991180  0.84709386  1.0
  C  C46  1  0.58584437  0.48917216  0.21493300  1.0
  C  C47  1  0.42284518  0.41438884  0.76675022  1.0
  C  C48  1  0.56965541  0.90325519  0.57024941  1.0
  C  C49  1  0.45333772  0.10990506  0.59629764  1.0
  C  C50  1  0.25674989  0.55781931  0.34575261  1.0
  C  C51  1  0.45738798  0.20198041  0.58912086  1.0
  C  C52  1  0.74463321  0.39564751  0.60370160  1.0
  C  C53  1  0.22603347  0.43294406  0.62766869  1.0
  C  C54  1  0.75606621  0.64615155  0.40131897  1.0
  C  C55  1  0.34609905  0.79115216  0.45754963  1.0
  C  C56  1  0.63833596  0.23668854  0.41225496  1.0
  C  C57  1  0.49964604  0.77652322  0.51738937  1.0
  C  C58  1  0.51963788  0.24352366  0.53117376  1.0
  C  C59  1  0.42465542  0.83015371  0.49667473  1.0
  C  C60  1  0.57844270  0.19249924  0.47990528  1.0
  C  C61  1  0.42568080  0.92106705  0.50979468  1.0
  N  N62  1  0.53264557  0.43717258  0.01377082  1.0
  N  N63  1  0.45913799  0.42188958  0.98188537  1.0
  N  N64  1  0.24369500  0.50271438  0.48944004  1.0
  N  N65  1  0.75090806  0.51854711  0.50002609  1.0
  Cl  Cl66  1  0.50701681  0.66620309  0.75362110  1.0
  Cl  Cl67  1  0.38670932  0.31754154  0.29477843  1.0
  Cl  Cl68  1  0.51731201  0.61376146  0.93431183  1.0
  Cl  Cl69  1  0.39832013  0.29647954  0.11225309  1.0
  Cl  Cl70  1  0.68032467  0.53319955  0.07448573  1.0
  Cl  Cl71  1  0.39665387  0.28415605  0.88206232  1.0
  Cl  Cl72  1  0.33758837  0.98812711  0.47684789  1.0
  Cl  Cl73  1  0.63588326  0.03763914  0.41634869  1.0
  O  O74  1  0.58809884  0.64657390  0.49321120  1.0
  O  O75  1  0.24684640  0.49862745  0.28982320  1.0
  O  O76  1  0.69310990  0.42305958  0.65838297  1.0
  O  O77  1  0.77171406  0.31014410  0.59528269  1.0
  O  O78  1  0.26786076  0.36268185  0.62334139  1.0
  O  O79  1  0.19617192  0.47210275  0.69621741  1.0
  O  O80  1  0.71884294  0.62600272  0.34290396  1.0
  O  O81  1  0.77022461  0.72979155  0.42266088  1.0
  O  O82  1  0.27087666  0.77284275  0.49258443  1.0
  O  O83  1  0.37043010  0.78087718  0.37914719  1.0
  O  O84  1  0.60788732  0.27527441  0.35473952  1.0
  O  O85  1  0.44355491  0.38170312  0.52298702  1.0
  O  O86  1  0.73016144  0.22725738  0.42089206  1.0
  O  O87  1  0.43287313  0.64089912  0.48584038  1.0
  O  O88  1  0.60089463  0.37897289  0.51453218  1.0
  O  O89  1  0.57672734  0.48957150  0.38251076  1.0
  O  O90  1  0.37804625  0.52329487  0.61675649  1.0
  O  O91  1  0.42058849  0.48321602  0.38034080  1.0
  O  O92  1  0.53483560  0.52319302  0.61370931  1.0
  O  O93  1  0.29531300  0.62880901  0.33248427  1.0
