# generated using pymatgen
data_ZnH8C14N2O5
_symmetry_space_group_name_H-M   'P 1'
_cell_length_a   13.80159274
_cell_length_b   13.92888331
_cell_length_c   14.04821798
_cell_angle_alpha   69.53245070
_cell_angle_beta   89.99995576
_cell_angle_gamma   89.99971799
_symmetry_Int_Tables_number   1
_chemical_formula_structural   ZnH8C14N2O5
_chemical_formula_sum   'Zn4 H32 C56 N8 O20'
_cell_volume   2530.14992968
_cell_formula_units_Z   4
loop_
 _symmetry_equiv_pos_site_id
 _symmetry_equiv_pos_as_xyz
  1  'x, y, z'
loop_
 _atom_site_type_symbol
 _atom_site_label
 _atom_site_symmetry_multiplicity
 _atom_site_fract_x
 _atom_site_fract_y
 _atom_site_fract_z
 _atom_site_occupancy
  Zn  Zn0  1  0.94424020  0.09180617  0.95909767  1.0
  Zn  Zn1  1  0.44423952  0.90819445  0.54090345  1.0
  Zn  Zn2  1  0.05575919  0.90819171  0.04090346  1.0
  Zn  Zn3  1  0.55576060  0.09180803  0.45909750  1.0
  H  H4  1  0.10664438  0.40696757  0.15101425  1.0
  H  H5  1  0.07476727  0.26265801  0.11366751  1.0
  H  H6  1  0.23261023  0.98685594  0.26874194  1.0
  H  H7  1  0.30663172  0.26582861  0.31961264  1.0
  H  H8  1  0.97015196  0.70197010  0.12026458  1.0
  H  H9  1  0.02383263  0.51997604  0.18639255  1.0
  H  H10  1  0.31942868  0.62931458  0.15807845  1.0
  H  H11  1  0.25188678  0.80994514  0.08934631  1.0
  H  H12  1  0.60664772  0.59303651  0.34898232  1.0
  H  H13  1  0.57476769  0.73734010  0.38633044  1.0
  H  H14  1  0.73260859  0.01314212  0.23126018  1.0
  H  H15  1  0.80663668  0.73417365  0.18038939  1.0
  H  H16  1  0.47015333  0.29803360  0.37973468  1.0
  H  H17  1  0.52383076  0.48002769  0.31360277  1.0
  H  H18  1  0.81942952  0.37068378  0.34192208  1.0
  H  H19  1  0.75188773  0.19005358  0.41065628  1.0
  H  H20  1  0.89335067  0.59303491  0.84898456  1.0
  H  H21  1  0.92523212  0.73733758  0.88633512  1.0
  H  H22  1  0.76739061  0.01314118  0.73126300  1.0
  H  H23  1  0.69336477  0.73417157  0.68038982  1.0
  H  H24  1  0.02984743  0.29803161  0.87973378  1.0
  H  H25  1  0.97616821  0.48002490  0.81360466  1.0
  H  H26  1  0.68056853  0.37068483  0.84192214  1.0
  H  H27  1  0.74811333  0.19005198  0.91065579  1.0
  H  H28  1  0.39335819  0.40696368  0.65102370  1.0
  H  H29  1  0.42523387  0.26265855  0.61367183  1.0
  H  H30  1  0.26738718  0.98686343  0.76873828  1.0
  H  H31  1  0.19336996  0.26583113  0.81961503  1.0
  H  H32  1  0.52984679  0.70196964  0.62026386  1.0
  H  H33  1  0.47616863  0.51997708  0.68639667  1.0
  H  H34  1  0.18057205  0.62931564  0.65808064  1.0
  H  H35  1  0.24811311  0.80994507  0.58934742  1.0
  C  C36  1  0.18751505  0.27678929  0.21643561  1.0
  C  C37  1  0.13167817  0.22415054  0.16741382  1.0
  C  C38  1  0.14882789  0.12060155  0.18481025  1.0
  C  C39  1  0.22018280  0.06793613  0.25413163  1.0
  C  C40  1  0.27612329  0.12092434  0.30240549  1.0
  C  C41  1  0.26120303  0.22534124  0.28315901  1.0
  C  C42  1  0.22113319  0.45445135  0.21419740  1.0
  C  C43  1  0.04688683  0.68212766  0.12801188  1.0
  C  C44  1  0.07818853  0.58071002  0.16423265  1.0
  C  C45  1  0.17786330  0.56041034  0.17460791  1.0
  C  C46  1  0.24182964  0.64355862  0.14899103  1.0
  C  C47  1  0.20503727  0.74261888  0.11210653  1.0
  C  C48  1  0.09162595  0.06940734  0.12501366  1.0
  C  C49  1  0.35492300  0.06808469  0.37544129  1.0
  C  C50  1  0.68751780  0.72320823  0.28356318  1.0
  C  C51  1  0.63167699  0.77584727  0.33258348  1.0
  C  C52  1  0.64882694  0.87939311  0.31519240  1.0
  C  C53  1  0.72018237  0.93206122  0.24587431  1.0
  C  C54  1  0.77612461  0.87907578  0.19759517  1.0
  C  C55  1  0.76120412  0.77465896  0.21684163  1.0
  C  C56  1  0.72113900  0.54554676  0.28580044  1.0
  C  C57  1  0.54688645  0.31787596  0.37198276  1.0
  C  C58  1  0.57818985  0.41929267  0.33576371  1.0
  C  C59  1  0.67786453  0.43959106  0.32538953  1.0
  C  C60  1  0.74182981  0.35644014  0.35100657  1.0
  C  C61  1  0.70503936  0.25738238  0.38789165  1.0
  C  C62  1  0.59161962  0.93058072  0.37499346  1.0
  C  C63  1  0.85492484  0.93191425  0.12456043  1.0
  C  C64  1  0.81248144  0.72320552  0.78356516  1.0
  C  C65  1  0.86831905  0.77584274  0.83259033  1.0
  C  C66  1  0.85117295  0.87939097  0.81519487  1.0
  C  C67  1  0.77981804  0.93206022  0.74587501  1.0
  C  C68  1  0.72387392  0.87907508  0.69759937  1.0
  C  C69  1  0.73879419  0.77465741  0.71684540  1.0
  C  C70  1  0.77885823  0.54554576  0.78579972  1.0
  C  C71  1  0.95311328  0.31787405  0.87198720  1.0
  C  C72  1  0.92180941  0.41929170  0.83576643  1.0
  C  C73  1  0.82213319  0.43958830  0.82539010  1.0
  C  C74  1  0.75816975  0.35643850  0.85101036  1.0
  C  C75  1  0.79496139  0.25738130  0.88789308  1.0
  C  C76  1  0.90838214  0.93057445  0.87499377  1.0
  C  C77  1  0.64507712  0.93191549  0.62456259  1.0
  C  C78  1  0.31248304  0.27679425  0.71643635  1.0
  C  C79  1  0.36832240  0.22415444  0.66741559  1.0
  C  C80  1  0.35117028  0.12060708  0.68480934  1.0
  C  C81  1  0.27981630  0.06794126  0.75412949  1.0
  C  C82  1  0.22387840  0.12092900  0.80240853  1.0
  C  C83  1  0.23879889  0.22534429  0.78315834  1.0
  C  C84  1  0.27886764  0.45445266  0.71420228  1.0
  C  C85  1  0.45311366  0.68212575  0.62801561  1.0
  C  C86  1  0.42181099  0.58071057  0.66423484  1.0
  C  C87  1  0.32213776  0.56041142  0.67461070  1.0
  C  C88  1  0.25817103  0.64355927  0.64899615  1.0
  C  C89  1  0.29496438  0.74261781  0.61211081  1.0
  C  C90  1  0.40837542  0.06941716  0.62500979  1.0
  C  C91  1  0.14507745  0.06808747  0.87544078  1.0
  N  N92  1  0.16642013  0.38135432  0.19473519  1.0
  N  N93  1  0.10922800  0.76135014  0.10182465  1.0
  N  N94  1  0.66642339  0.61864484  0.30526091  1.0
  N  N95  1  0.60923017  0.23865239  0.39817388  1.0
  N  N96  1  0.83357636  0.61864203  0.80526433  1.0
  N  N97  1  0.89077139  0.23865081  0.89817470  1.0
  N  N98  1  0.33358325  0.38135534  0.69474226  1.0
  N  N99  1  0.39077212  0.76135009  0.60182636  1.0
  O  O100  1  0.30022554  0.43878422  0.25853571  1.0
  O  O101  1  0.02384888  0.12232276  0.06994170  1.0
  O  O102  1  0.11638314  0.97897874  0.13241716  1.0
  O  O103  1  0.34098755  0.97531555  0.43170965  1.0
  O  O104  1  0.42935848  0.12217582  0.37521374  1.0
  O  O105  1  0.80022840  0.56121423  0.24145982  1.0
  O  O106  1  0.52384639  0.87767485  0.43006002  1.0
  O  O107  1  0.61637917  0.02101762  0.36758564  1.0
  O  O108  1  0.84098669  0.02469036  0.06828966  1.0
  O  O109  1  0.92935623  0.87782656  0.12478601  1.0
  O  O110  1  0.69976951  0.56121825  0.74145955  1.0
  O  O111  1  0.97615414  0.87767206  0.93006049  1.0
  O  O112  1  0.88361987  0.02101531  0.86758458  1.0
  O  O113  1  0.65901257  0.02468923  0.56829192  1.0
  O  O114  1  0.57064309  0.87782666  0.62478791  1.0
  O  O115  1  0.19977679  0.43878595  0.75853979  1.0
  O  O116  1  0.47615010  0.12232533  0.56994172  1.0
  O  O117  1  0.38361877  0.97898179  0.63241780  1.0
  O  O118  1  0.15900618  0.97531978  0.93170435  1.0
  O  O119  1  0.07064026  0.12218511  0.87520747  1.0
