# generated using pymatgen
data_Al3H33C42NO16
_symmetry_space_group_name_H-M   'P 1'
_cell_length_a   12.90235342
_cell_length_b   13.01102374
_cell_length_c   28.37798663
_cell_angle_alpha   89.82165465
_cell_angle_beta   89.96675897
_cell_angle_gamma   61.51512171
_symmetry_Int_Tables_number   1
_chemical_formula_structural   Al3H33C42NO16
_chemical_formula_sum   'Al6 H66 C84 N2 O32'
_cell_volume   4187.16782853
_cell_formula_units_Z   2
loop_
 _symmetry_equiv_pos_site_id
 _symmetry_equiv_pos_as_xyz
  1  'x, y, z'
loop_
 _atom_site_type_symbol
 _atom_site_label
 _atom_site_symmetry_multiplicity
 _atom_site_fract_x
 _atom_site_fract_y
 _atom_site_fract_z
 _atom_site_occupancy
  Al  Al0  1  0.40599135  0.41267598  0.50227488  1.0
  Al  Al1  1  0.42022009  0.65231330  0.49922347  1.0
  Al  Al2  1  0.64769558  0.42643654  0.50038368  1.0
  Al  Al3  1  0.93347032  0.91444187  0.00200583  1.0
  Al  Al4  1  0.68682894  0.90954917  0.00066138  1.0
  Al  Al5  1  0.90972375  0.67991008  0.00109827  1.0
  H  H6  1  0.46996077  0.76149296  0.78564739  1.0
  H  H7  1  0.54186883  0.86827002  0.71481241  1.0
  H  H8  1  0.57502475  0.54909117  0.73358065  1.0
  H  H9  1  0.78922756  0.47894207  0.78287044  1.0
  H  H10  1  0.86127943  0.58606324  0.71213210  1.0
  H  H11  1  0.75628701  0.79813389  0.76410428  1.0
  H  H12  1  0.73869121  0.27158128  0.80264236  1.0
  H  H13  1  0.71945667  0.31573791  0.72193634  1.0
  H  H14  1  0.79377833  0.00532067  0.69613750  1.0
  H  H15  1  0.85456210  0.09973638  0.70548880  1.0
  H  H16  1  0.86910361  0.05682705  0.78631048  1.0
  H  H17  1  0.80592229  0.96433021  0.77702840  1.0
  H  H18  1  0.47829041  0.23468143  0.71227561  1.0
  H  H19  1  0.57093076  0.08517088  0.70076515  1.0
  H  H20  1  0.49239678  0.19605308  0.79324265  1.0
  H  H21  1  0.56556534  0.36887191  0.72552237  1.0
  H  H22  1  0.58449444  0.32916793  0.80675630  1.0
  H  H23  1  0.58401695  0.04618174  0.78199969  1.0
  H  H24  1  0.32053341  0.49006811  0.71537576  1.0
  H  H25  1  0.00473359  0.70141225  0.69604321  1.0
  H  H26  1  0.11008626  0.55170799  0.70074344  1.0
  H  H27  1  0.06562622  0.55984605  0.78087301  1.0
  H  H28  1  0.97268034  0.71236667  0.77769797  1.0
  H  H29  1  0.22026542  0.81367140  0.71791255  1.0
  H  H30  1  0.06965720  0.85639876  0.70979224  1.0
  H  H31  1  0.19918576  0.80449099  0.79990914  1.0
  H  H32  1  0.37108043  0.59458242  0.72227494  1.0
  H  H33  1  0.33922703  0.59775173  0.80358652  1.0
  H  H34  1  0.04767451  0.85341976  0.79178489  1.0
  H  H35  1  0.68843552  0.49656838  0.19725491  1.0
  H  H36  1  0.66765401  0.48075569  0.27854191  1.0
  H  H37  1  0.80279904  0.67455556  0.29967979  1.0
  H  H38  1  0.83320211  0.52863257  0.29143495  1.0
  H  H39  1  0.85010434  0.55023680  0.21021798  1.0
  H  H40  1  0.81440635  0.69752407  0.21840511  1.0
  H  H41  1  0.47394180  0.80523013  0.28821820  1.0
  H  H42  1  0.59025150  0.83840087  0.29607257  1.0
  H  H43  1  0.48678226  0.81816638  0.20629825  1.0
  H  H44  1  0.52013897  0.59400556  0.27567819  1.0
  H  H45  1  0.53951955  0.60646324  0.19420384  1.0
  H  H46  1  0.59875282  0.85760912  0.21390346  1.0
  H  H47  1  0.48329144  0.25573617  0.20670858  1.0
  H  H48  1  0.47505380  0.31830992  0.28486098  1.0
  H  H49  1  0.71572877  0.01393761  0.30667698  1.0
  H  H50  1  0.56198420  0.10188514  0.29758926  1.0
  H  H51  1  0.59427570  0.04262254  0.21858417  1.0
  H  H52  1  0.79086445  0.25645340  0.28485157  1.0
  H  H53  1  0.85139181  0.10339639  0.29143976  1.0
  H  H54  1  0.77609824  0.24415811  0.20265551  1.0
  H  H55  1  0.56826972  0.37885973  0.27184538  1.0
  H  H56  1  0.55619010  0.33670726  0.19235438  1.0
  H  H57  1  0.86356239  0.09211880  0.20897264  1.0
  H  H58  1  0.34844053  0.58186054  0.20129657  1.0
  H  H59  1  0.37560178  0.55482558  0.28323008  1.0
  H  H60  1  0.10052413  0.84741522  0.29250399  1.0
  H  H61  1  0.25321226  0.77979199  0.28059206  1.0
  H  H62  1  0.20556129  0.79844469  0.19987734  1.0
  H  H63  1  0.05542079  0.84698438  0.21285618  1.0
  H  H64  1  0.08254683  0.56886993  0.30258698  1.0
  H  H65  1  0.99844885  0.72276636  0.29802138  1.0
  H  H66  1  0.08026805  0.54847251  0.22037601  1.0
  H  H67  1  0.29934192  0.47293205  0.28518210  1.0
  H  H68  1  0.29588730  0.47890306  0.20250601  1.0
  H  H69  1  0.97799433  0.69942330  0.21785771  1.0
  H  H70  1  0.28724478  0.33386388  0.47593936  1.0
  H  H71  1  0.01658275  0.02898671  0.97521747  1.0
  C  C72  1  0.28632923  0.61780927  0.56768445  1.0
  C  C73  1  0.60336822  0.61358481  0.56397284  1.0
  C  C74  1  0.61415342  0.29241094  0.56789027  1.0
  C  C75  1  0.28208762  0.61717661  0.43395839  1.0
  C  C76  1  0.60571416  0.60470086  0.43319492  1.0
  C  C77  1  0.60803188  0.29440186  0.43348460  1.0
  C  C78  1  0.59681508  0.78195788  0.73030789  1.0
  C  C79  1  0.55665844  0.72230675  0.76882294  1.0
  C  C80  1  0.70052371  0.70650346  0.88762604  1.0
  C  C81  1  0.62980133  0.63878823  0.61025668  1.0
  C  C82  1  0.71602526  0.74254062  0.75675479  1.0
  C  C83  1  0.67611856  0.68282830  0.79677913  1.0
  C  C84  1  0.77456070  0.62495939  0.72888100  1.0
  C  C85  1  0.65509176  0.66433918  0.70091044  1.0
  C  C86  1  0.73435581  0.56529564  0.76737739  1.0
  C  C87  1  0.61509274  0.60473534  0.74098228  1.0
  C  C88  1  0.68841814  0.69494179  0.84566809  1.0
  C  C89  1  0.64237118  0.65156913  0.65207626  1.0
  C  C90  1  0.65153276  0.29364012  0.73401906  1.0
  C  C91  1  0.78441804  0.08026870  0.71701352  1.0
  C  C92  1  0.79343129  0.05289152  0.77041273  1.0
  C  C93  1  0.70274392  0.09013347  0.88753810  1.0
  C  C94  1  0.66329795  0.18685110  0.70559230  1.0
  C  C95  1  0.66296786  0.26647756  0.78743507  1.0
  C  C96  1  0.67946488  0.14184457  0.79597268  1.0
  C  C97  1  0.57287081  0.13398343  0.77483093  1.0
  C  C98  1  0.56385759  0.15970916  0.72130427  1.0
  C  C99  1  0.69055405  0.11557505  0.84594000  1.0
  C  C100  1  0.65343700  0.21469961  0.65574069  1.0
  C  C101  1  0.64191710  0.24202880  0.61433496  1.0
  C  C102  1  0.29803093  0.57625120  0.72990643  1.0
  C  C103  1  0.08406448  0.63885797  0.71515091  1.0
  C  C104  1  0.06089413  0.64195062  0.76864402  1.0
  C  C105  1  0.10098510  0.67941945  0.88789439  1.0
  C  C106  1  0.18433486  0.66940920  0.70536001  1.0
  C  C107  1  0.27977414  0.57626709  0.78343597  1.0
  C  C108  1  0.15055015  0.66590799  0.79639330  1.0
  C  C109  1  0.13568081  0.78690636  0.78051433  1.0
  C  C110  1  0.15106817  0.79042339  0.72662639  1.0
  C  C111  1  0.12830335  0.66832029  0.84656412  1.0
  C  C112  1  0.20822100  0.66443990  0.65528594  1.0
  C  C113  1  0.23488822  0.65052424  0.61386931  1.0
  C  C114  1  0.61129809  0.57073276  0.26623910  1.0
  C  C115  1  0.77545449  0.61904642  0.27989950  1.0
  C  C116  1  0.78515015  0.63289181  0.22615120  1.0
  C  C117  1  0.69060894  0.69958527  0.11009722  1.0
  C  C118  1  0.64677597  0.65289041  0.29324541  1.0
  C  C119  1  0.62369248  0.58072578  0.21227893  1.0
  C  C120  1  0.66412859  0.67294507  0.20185469  1.0
  C  C121  1  0.57252703  0.79132951  0.22319448  1.0
  C  C122  1  0.56457618  0.78029966  0.27723760  1.0
  C  C123  1  0.67645581  0.68568556  0.15155951  1.0
  C  C124  1  0.63673570  0.63995392  0.34366413  1.0
  C  C125  1  0.62784141  0.62814752  0.38578318  1.0
  C  C126  1  0.55859112  0.30003477  0.26804706  1.0
  C  C127  1  0.64929648  0.08679402  0.28595229  1.0
  C  C128  1  0.66547698  0.05568168  0.23344633  1.0
  C  C129  1  0.69535311  0.09736217  0.11324293  1.0
  C  C130  1  0.66063900  0.19815786  0.29488612  1.0
  C  C131  1  0.55975520  0.26761987  0.21567476  1.0
  C  C132  1  0.67436167  0.15347140  0.20413758  1.0
  C  C133  1  0.78144227  0.16710911  0.22082522  1.0
  C  C134  1  0.77946387  0.18092939  0.27490833  1.0
  C  C135  1  0.68236494  0.12646255  0.15433188  1.0
  C  C136  1  0.65039645  0.22344443  0.34490442  1.0
  C  C137  1  0.63757063  0.24733163  0.38656652  1.0
  C  C138  1  0.29461742  0.55432668  0.27177136  1.0
  C  C139  1  0.17220481  0.77391894  0.27394477  1.0
  C  C140  1  0.14543973  0.77862999  0.22068495  1.0
  C  C141  1  0.10713024  0.67567127  0.11272780  1.0
  C  C142  1  0.18720970  0.65807232  0.29530459  1.0
  C  C143  1  0.28245720  0.56212897  0.21749675  1.0
  C  C144  1  0.15799749  0.65973888  0.20416750  1.0
  C  C145  1  0.06586736  0.63591125  0.23030607  1.0
  C  C146  1  0.07618304  0.64599421  0.28409597  1.0
  C  C147  1  0.13558453  0.66422293  0.15400050  1.0
  C  C148  1  0.20844713  0.65247169  0.34561103  1.0
  C  C149  1  0.23234874  0.64244178  0.38737701  1.0
  C  C150  1  0.72831879  0.04159855  0.93427354  1.0
  C  C151  1  0.72626713  0.72886069  0.93452445  1.0
  C  C152  1  0.04934631  0.71053895  0.93422419  1.0
  C  C153  1  0.72692577  0.04132555  0.06777682  1.0
  C  C154  1  0.71995231  0.72713392  0.06463347  1.0
  C  C155  1  0.05167716  0.70701177  0.06725251  1.0
  N  N156  1  0.31026495  0.45446977  0.80112540  1.0
  N  N157  1  0.77547157  0.94017628  0.22475956  1.0
  O  O158  1  0.51690916  0.31151790  0.55018671  1.0
  O  O159  1  0.31431184  0.51552506  0.55434221  1.0
  O  O160  1  0.30375581  0.69423111  0.54494489  1.0
  O  O161  1  0.50371764  0.68637376  0.54623590  1.0
  O  O162  1  0.67831122  0.51779829  0.54489839  1.0
  O  O163  1  0.69001839  0.31824057  0.54897282  1.0
  O  O164  1  0.50618441  0.32096689  0.44825613  1.0
  O  O165  1  0.30039641  0.52206928  0.45300754  1.0
  O  O166  1  0.30897595  0.69275345  0.45171476  1.0
  O  O167  1  0.51050190  0.68030521  0.45277274  1.0
  O  O168  1  0.68011825  0.50696835  0.45147981  1.0
  O  O169  1  0.68701690  0.30971216  0.45555113  1.0
  O  O170  1  0.49226794  0.49820657  0.50039929  1.0
  O  O171  1  0.02580642  0.81070491  0.94887929  1.0
  O  O172  1  0.82690343  0.01862654  0.95199589  1.0
  O  O173  1  0.64939576  0.02105036  0.95361930  1.0
  O  O174  1  0.65299475  0.82527269  0.95368105  1.0
  O  O175  1  0.82374293  0.65274610  0.95273131  1.0
  O  O176  1  0.02708109  0.63555829  0.95544281  1.0
  O  O177  1  0.03258834  0.80417867  0.05015810  1.0
  O  O178  1  0.83002945  0.01071162  0.05357006  1.0
  O  O179  1  0.64824599  0.02338695  0.04693491  1.0
  O  O180  1  0.64975368  0.82747644  0.04713763  1.0
  O  O181  1  0.81700555  0.65196173  0.04601324  1.0
  O  O182  1  0.02142469  0.63472731  0.04859248  1.0
  O  O183  1  0.84220459  0.83393232  0.00096638  1.0
  O  O184  1  0.27296567  0.39761995  0.77838735  1.0
  O  O185  1  0.36998470  0.42064445  0.83748884  1.0
  O  O186  1  0.77386790  0.88286613  0.19035876  1.0
  O  O187  1  0.86097476  0.91147328  0.25153665  1.0
  O  O188  1  0.32917220  0.33253576  0.50434342  1.0
  O  O189  1  0.01769426  0.98722013  0.00361182  1.0
