# generated using pymatgen
data_AlH24C45(O2F)3
_symmetry_space_group_name_H-M   'P 1'
_cell_length_a   3.95953788
_cell_length_b   23.59297524
_cell_length_c   23.60320674
_cell_angle_alpha   60.03086147
_cell_angle_beta   89.91540082
_cell_angle_gamma   87.73155187
_symmetry_Int_Tables_number   1
_chemical_formula_structural   AlH24C45(O2F)3
_chemical_formula_sum   'Al1 H24 C45 O6 F3'
_cell_volume   1908.21070976
_cell_formula_units_Z   1
loop_
 _symmetry_equiv_pos_site_id
 _symmetry_equiv_pos_as_xyz
  1  'x, y, z'
loop_
 _atom_site_type_symbol
 _atom_site_label
 _atom_site_symmetry_multiplicity
 _atom_site_fract_x
 _atom_site_fract_y
 _atom_site_fract_z
 _atom_site_occupancy
  Al  Al0  1  0.97265410  0.00043537  0.50003679  1.0
  H  H1  1  0.25773225  0.99014775  0.67952512  1.0
  H  H2  1  0.27443036  0.93445199  0.79983157  1.0
  H  H3  1  0.16697395  0.87863786  0.89418141  1.0
  H  H4  1  0.16616307  0.81957787  0.01347898  1.0
  H  H5  1  0.75162690  0.92872571  0.26709315  1.0
  H  H6  1  0.75030860  0.87983925  0.22142107  1.0
  H  H7  1  0.75183252  0.81908737  0.16348790  1.0
  H  H8  1  0.47844490  0.78838707  0.10554419  1.0
  H  H9  1  0.21932756  0.83814309  0.48319120  1.0
  H  H10  1  0.22172093  0.77404538  0.42719198  1.0
  H  H11  1  0.22370684  0.72504433  0.38038954  1.0
  H  H12  1  0.21454099  0.66592928  0.32066356  1.0
  H  H13  1  0.67719851  0.30205692  0.43402983  1.0
  H  H14  1  0.75694871  0.39428649  0.37940534  1.0
  H  H15  1  0.76872582  0.51299772  0.31906804  1.0
  H  H16  1  0.47820511  0.60601263  0.28746107  1.0
  H  H17  1  0.18801015  0.18313676  0.33276433  1.0
  H  H18  1  0.20148495  0.30322857  0.26809884  1.0
  H  H19  1  0.15848075  0.40024204  0.22354155  1.0
  H  H20  1  0.17223084  0.51927372  0.16358619  1.0
  H  H21  1  0.70030822  0.76007213  0.80444287  1.0
  H  H22  1  0.81211587  0.72455316  0.89860297  1.0
  H  H23  1  0.80324982  0.66535774  0.01777755  1.0
  H  H24  1  0.47849791  0.60655894  0.10511834  1.0
  C  C25  1  0.48419535  0.94677930  0.60085859  1.0
  C  C26  1  0.44963905  0.10136258  0.45261996  1.0
  C  C27  1  0.48426387  0.95317261  0.44652723  1.0
  C  C28  1  0.35963567  0.93987906  0.70797831  1.0
  C  C29  1  0.36691190  0.90785568  0.77584214  1.0
  C  C30  1  0.31497952  0.83258250  0.92044851  1.0
  C  C31  1  0.31422397  0.79910329  0.98839527  1.0
  C  C32  1  0.63441252  0.94089615  0.34790569  1.0
  C  C33  1  0.63295011  0.90640880  0.31457079  1.0
  C  C34  1  0.62871949  0.83313429  0.24407402  1.0
  C  C35  1  0.62757515  0.79879932  0.21047819  1.0
  C  C36  1  0.48742089  0.90956135  0.67366639  1.0
  C  C37  1  0.48928994  0.84223465  0.81332439  1.0
  C  C38  1  0.48875193  0.80676567  0.88566353  1.0
  C  C39  1  0.48379371  0.73768700  0.02514098  1.0
  C  C40  1  0.48010354  0.70160572  0.09722044  1.0
  C  C41  1  0.47875138  0.73506895  0.13231832  1.0
  C  C42  1  0.33960763  0.85663963  0.43600977  1.0
  C  C43  1  0.34265527  0.82080160  0.40396778  1.0
  C  C44  1  0.34318007  0.74650644  0.33293559  1.0
  C  C45  1  0.34018432  0.71227294  0.29918709  1.0
  C  C46  1  0.57381751  0.21050464  0.44348433  1.0
  C  C47  1  0.57294291  0.27827276  0.40904886  1.0
  C  C48  1  0.62063654  0.42075523  0.33266060  1.0
  C  C49  1  0.62710186  0.48858689  0.29846804  1.0
  C  C50  1  0.48839335  0.91764120  0.40928849  1.0
  C  C51  1  0.48813018  0.84497992  0.34195326  1.0
  C  C52  1  0.48679760  0.80811706  0.30636698  1.0
  C  C53  1  0.48228532  0.73751272  0.23704275  1.0
  C  C54  1  0.47948825  0.70146183  0.20091208  1.0
  C  C55  1  0.47819994  0.63288831  0.23418140  1.0
  C  C56  1  0.29956188  0.21024842  0.35370409  1.0
  C  C57  1  0.30673730  0.27810016  0.31771053  1.0
  C  C58  1  0.29912015  0.42393233  0.24496305  1.0
  C  C59  1  0.30708785  0.49184899  0.21051801  1.0
  C  C60  1  0.61397136  0.84479214  0.71142255  1.0
  C  C61  1  0.60999880  0.81114012  0.77921885  1.0
  C  C62  1  0.66125081  0.74550519  0.92282660  1.0
  C  C63  1  0.65721746  0.71165906  0.99072105  1.0
  C  C64  1  0.43959372  0.17419534  0.41732461  1.0
  C  C65  1  0.44460182  0.31402331  0.34449789  1.0
  C  C66  1  0.45473800  0.38631632  0.30720318  1.0
  C  C67  1  0.47009052  0.52588914  0.23653988  1.0
  C  C68  1  0.47595194  0.59797127  0.20049726  1.0
  C  C69  1  0.47842153  0.63304114  0.13198626  1.0
  O  O70  1  0.71168311  0.99393612  0.43548927  1.0
  O  O71  1  0.72451551  0.93549545  0.57146804  1.0
  O  O72  1  0.69099527  0.07096731  0.49373902  1.0
  O  O73  1  0.25278190  0.93914355  0.48866246  1.0
  O  O74  1  0.21922308  0.07408410  0.43821313  1.0
  O  O75  1  0.24050487  0.98905531  0.57279156  1.0
  F  F76  1  0.70306436  0.17989499  0.50552563  1.0
  F  F77  1  0.73422845  0.81139492  0.68199996  1.0
  F  F78  1  0.77796799  0.99998126  0.31754141  1.0
