# generated using pymatgen
data_Zn3H24C54(NO8)2
_symmetry_space_group_name_H-M   'P 1'
_cell_length_a   21.83233820
_cell_length_b   21.83230768
_cell_length_c   31.97577584
_cell_angle_alpha   70.05242858
_cell_angle_beta   70.03306661
_cell_angle_gamma   90.01278961
_symmetry_Int_Tables_number   1
_chemical_formula_structural   Zn3H24C54(NO8)2
_chemical_formula_sum   'Zn6 H48 C108 N4 O32'
_cell_volume   13347.64631620
_cell_formula_units_Z   2
loop_
 _symmetry_equiv_pos_site_id
 _symmetry_equiv_pos_as_xyz
  1  'x, y, z'
loop_
 _atom_site_type_symbol
 _atom_site_label
 _atom_site_symmetry_multiplicity
 _atom_site_fract_x
 _atom_site_fract_y
 _atom_site_fract_z
 _atom_site_occupancy
  Zn  Zn0  1  0.47728745  0.47729655  0.04543535  1.0
  Zn  Zn1  1  0.44166159  0.00000732  0.99999288  1.0
  Zn  Zn2  1  0.99999859  0.44165630  0.00000788  1.0
  Zn  Zn3  1  0.55829542  0.99999605  0.00000185  1.0
  Zn  Zn4  1  0.52273113  0.52272351  0.95456500  1.0
  Zn  Zn5  1  0.99999736  0.55829962  0.99999676  1.0
  H  H6  1  0.71968743  0.59658256  0.94547157  1.0
  H  H7  1  0.45797715  0.71963626  0.94545302  1.0
  H  H8  1  0.33485543  0.45793655  0.94543777  1.0
  H  H9  1  0.59654676  0.33491328  0.94546461  1.0
  H  H10  1  0.66508769  0.40343460  0.05454726  1.0
  H  H11  1  0.40337444  0.28029117  0.05456431  1.0
  H  H12  1  0.28037644  0.54201180  0.05453492  1.0
  H  H13  1  0.54205287  0.66516060  0.05452548  1.0
  H  H14  1  0.83347659  0.59828272  0.94784276  1.0
  H  H15  1  0.45366305  0.83337312  0.94793038  1.0
  H  H16  1  0.21864515  0.45374456  0.94791222  1.0
  H  H17  1  0.59838084  0.21874925  0.94787847  1.0
  H  H18  1  0.78130150  0.40159867  0.05207099  1.0
  H  H19  1  0.40165553  0.16655636  0.05208888  1.0
  H  H20  1  0.16662667  0.54626064  0.05212072  1.0
  H  H21  1  0.54612248  0.78132143  0.05215433  1.0
  H  H22  1  0.65020097  0.16473342  0.46567317  1.0
  H  H23  1  0.16471271  0.88407931  0.46566382  1.0
  H  H24  1  0.88407789  0.36969658  0.46567012  1.0
  H  H25  1  0.36969540  0.65031850  0.46566563  1.0
  H  H26  1  0.11594888  0.83531903  0.53433631  1.0
  H  H27  1  0.63043899  0.11584828  0.53432772  1.0
  H  H28  1  0.34978209  0.63042171  0.53433562  1.0
  H  H29  1  0.83534308  0.34977203  0.53432596  1.0
  H  H30  1  0.69359311  0.21255936  0.37724434  1.0
  H  H31  1  0.21264874  0.92914905  0.37724199  1.0
  H  H32  1  0.92921523  0.41019372  0.37725783  1.0
  H  H33  1  0.41022913  0.69355507  0.37726751  1.0
  H  H34  1  0.07079224  0.78745757  0.62273286  1.0
  H  H35  1  0.58983572  0.07081006  0.62275521  1.0
  H  H36  1  0.30642289  0.58992972  0.62275811  1.0
  H  H37  1  0.78742625  0.30649553  0.62273860  1.0
  H  H38  1  0.85803352  0.47605017  0.24025600  1.0
  H  H39  1  0.28374457  0.85811169  0.24025711  1.0
  H  H40  1  0.90163163  0.28387387  0.24023016  1.0
  H  H41  1  0.47597860  0.90170062  0.24020388  1.0
  H  H42  1  0.09839406  0.52399345  0.75974305  1.0
  H  H43  1  0.52409597  0.14184221  0.75977016  1.0
  H  H44  1  0.14188143  0.71618593  0.75979420  1.0
  H  H45  1  0.71630767  0.09830321  0.75974221  1.0
  H  H46  1  0.90265026  0.52054756  0.15081327  1.0
  H  H47  1  0.32863770  0.90276430  0.15082001  1.0
  H  H48  1  0.94646179  0.32879024  0.15078593  1.0
  H  H49  1  0.52045424  0.94659091  0.15075909  1.0
  H  H50  1  0.05361103  0.47944940  0.84918012  1.0
  H  H51  1  0.47956997  0.09723039  0.84921493  1.0
  H  H52  1  0.09732553  0.67121802  0.84923900  1.0
  H  H53  1  0.67136320  0.05348112  0.84918484  1.0
  C  C54  1  0.87743794  0.37757064  0.24501051  1.0
  C  C55  1  0.27548185  0.77546160  0.44900079  1.0
  C  C56  1  0.44396575  0.90232142  0.22040305  1.0
  C  C57  1  0.09780634  0.55599422  0.77955319  1.0
  C  C58  1  0.55608673  0.12262973  0.77957703  1.0
  C  C59  1  0.12271242  0.66436998  0.77959581  1.0
  C  C60  1  0.66448771  0.09767499  0.77954447  1.0
  C  C61  1  0.90215781  0.46882962  0.17077438  1.0
  C  C62  1  0.36040099  0.90233945  0.17077058  1.0
  C  C63  1  0.92692817  0.36055053  0.17074440  1.0
  C  C64  1  0.46872890  0.92709349  0.17072882  1.0
  C  C65  1  0.07312403  0.53116618  0.82922915  1.0
  C  C66  1  0.22446373  0.72448438  0.55100046  1.0
  C  C67  1  0.53128887  0.09766265  0.82925604  1.0
  C  C68  1  0.09780897  0.63945939  0.82927120  1.0
  C  C69  1  0.63960347  0.07294169  0.82922466  1.0
  C  C70  1  0.72437257  0.22463655  0.55099763  1.0
  C  C71  1  0.92710557  0.42726029  0.14562494  1.0
  C  C72  1  0.42711705  0.92730707  0.14561359  1.0
  C  C73  1  0.07292128  0.57272635  0.85438592  1.0
  C  C74  1  0.57288515  0.07273269  0.85437411  1.0
  C  C75  1  0.50005803  0.61773358  0.99993531  1.0
  C  C76  1  0.77563715  0.27536773  0.44900096  1.0
  C  C77  1  0.38232579  0.49999970  0.99997372  1.0
  C  C78  1  0.49997104  0.38229889  0.00002939  1.0
  C  C79  1  0.61766783  0.49999421  0.00006631  1.0
  C  C80  1  0.73338561  0.55472341  0.96933875  1.0
  C  C81  1  0.47588347  0.73334139  0.96936456  1.0
  C  C82  1  0.29727429  0.47586973  0.96935125  1.0
  C  C83  1  0.55469525  0.29731698  0.96935072  1.0
  C  C84  1  0.70270413  0.44525430  0.03063554  1.0
  C  C85  1  0.44521963  0.26662479  0.03065006  1.0
  C  C86  1  0.26666672  0.52404594  0.03064967  1.0
  C  C87  1  0.52406027  0.70272546  0.03065872  1.0
  C  C88  1  0.79658116  0.55540493  0.97030637  1.0
  C  C89  1  0.47407303  0.79649977  0.97039541  1.0
  C  C90  1  0.23308497  0.47414580  0.97037875  1.0
  C  C91  1  0.55547950  0.23314457  0.97034596  1.0
  C  C92  1  0.76689469  0.44447531  0.02960373  1.0
  C  C93  1  0.44452451  0.20346260  0.02962196  1.0
  C  C94  1  0.20349034  0.52582520  0.02965355  1.0
  C  C95  1  0.52570956  0.76688781  0.02969097  1.0
  C  C96  1  0.81377492  0.49991548  0.99992434  1.0
  C  C97  1  0.69267311  0.20262217  0.44740290  1.0
  C  C98  1  0.49983403  0.81369975  0.00007473  1.0
  C  C99  1  0.18625271  0.50000114  0.00002501  1.0
  C  C100  1  0.50002497  0.18627790  0.99997558  1.0
  C  C101  1  0.68598738  0.50001325  0.00001922  1.0
  C  C102  1  0.50002848  0.68600930  0.99997837  1.0
  C  C103  1  0.31402131  0.49996111  0.99999026  1.0
  C  C104  1  0.20267890  0.85993751  0.44740565  1.0
  C  C105  1  0.49995277  0.31401179  0.00000944  1.0
  C  C106  1  0.95380585  0.45390682  0.09230488  1.0
  C  C107  1  0.45378947  0.95391184  0.09229653  1.0
  C  C108  1  0.04620733  0.54608328  0.90770303  1.0
  C  C109  1  0.54621036  0.04611367  0.90769439  1.0
  C  C110  1  0.85999581  0.34991252  0.44741168  1.0
  C  C111  1  0.88204709  0.49989747  0.99993780  1.0
  C  C112  1  0.49982891  0.88198596  0.00006185  1.0
  C  C113  1  0.11796554  0.50002398  0.00002830  1.0
  C  C114  1  0.50005161  0.11799568  0.99997160  1.0
  C  C115  1  0.37748604  0.87751378  0.24500311  1.0
  C  C116  1  0.34996999  0.69268627  0.44739910  1.0
  C  C117  1  0.72140870  0.22392213  0.47391908  1.0
  C  C118  1  0.22396023  0.80469193  0.47392224  1.0
  C  C119  1  0.80477839  0.30206228  0.47392743  1.0
  C  C120  1  0.30208527  0.72135352  0.47392723  1.0
  C  C121  1  0.19526611  0.77599780  0.52607334  1.0
  C  C122  1  0.69785002  0.19531909  0.52608093  1.0
  C  C123  1  0.27862914  0.69790029  0.52607844  1.0
  C  C124  1  0.77598161  0.27871438  0.52606995  1.0
  C  C125  1  0.14006101  0.79734087  0.55260239  1.0
  C  C126  1  0.65004789  0.14005843  0.55259755  1.0
  C  C127  1  0.30737249  0.65011643  0.55259475  1.0
  C  C128  1  0.79730618  0.30742772  0.55258326  1.0
  C  C129  1  0.12251493  0.62248722  0.75499725  1.0
  C  C130  1  0.71664654  0.22913441  0.39753659  1.0
  C  C131  1  0.22926788  0.88585975  0.39754646  1.0
  C  C132  1  0.88597307  0.37318735  0.39754776  1.0
  C  C133  1  0.37326425  0.71656434  0.39753374  1.0
  C  C134  1  0.11407873  0.77077235  0.60246599  1.0
  C  C135  1  0.62669460  0.11416366  0.60246433  1.0
  C  C136  1  0.28343090  0.62684192  0.60245281  1.0
  C  C137  1  0.62257747  0.12244739  0.75498827  1.0
  C  C138  1  0.77071557  0.28353884  0.60244936  1.0
  C  C139  1  0.77095475  0.27734586  0.37259313  1.0
  C  C140  1  0.27753788  0.85655781  0.37260007  1.0
  C  C141  1  0.85675112  0.34977083  0.37259634  1.0
  C  C142  1  0.34992754  0.77076877  0.37257672  1.0
  C  C143  1  0.14333565  0.72249161  0.62742501  1.0
  C  C144  1  0.64995491  0.14353459  0.62740681  1.0
  C  C145  1  0.22916669  0.65014942  0.62739980  1.0
  C  C146  1  0.72235889  0.22935532  0.62740100  1.0
  C  C147  1  0.80123336  0.30085222  0.39791041  1.0
  C  C148  1  0.30106004  0.80099079  0.39790781  1.0
  C  C149  1  0.19889945  0.69896845  0.60209277  1.0
  C  C150  1  0.69876612  0.19914076  0.60208880  1.0
  C  C151  1  0.79550370  0.30394226  0.31979298  1.0
  C  C152  1  0.30401012  0.88471242  0.31980395  1.0
  C  C153  1  0.88481635  0.37622336  0.31979093  1.0
  C  C154  1  0.37623449  0.79541262  0.31977300  1.0
  C  C155  1  0.11517172  0.69598799  0.68022825  1.0
  C  C156  1  0.62375054  0.11528323  0.68020640  1.0
  C  C157  1  0.20452774  0.62382609  0.68019631  1.0
  C  C158  1  0.69599898  0.20461913  0.68020650  1.0
  C  C159  1  0.87721222  0.44403295  0.22045409  1.0
  C  C160  1  0.33555196  0.87734585  0.22044665  1.0
  C  C161  1  0.90221835  0.33566844  0.22042207  1.0
  N  N162  1  0.85176618  0.35179217  0.29648383  1.0
  N  N163  1  0.35177422  0.85172303  0.29647387  1.0
  N  N164  1  0.14819678  0.64824604  0.70352583  1.0
  N  N165  1  0.64827526  0.14824993  0.70351459  1.0
  O  O166  1  0.49680693  0.57160292  0.03859318  1.0
  O  O167  1  0.38980500  0.49679555  0.03862829  1.0
  O  O168  1  0.46455500  0.38977055  0.03868862  1.0
  O  O169  1  0.57153522  0.46458504  0.03872976  1.0
  O  O170  1  0.53542537  0.42843527  0.96137086  1.0
  O  O171  1  0.42846004  0.50324268  0.96131121  1.0
  O  O172  1  0.50331465  0.61026703  0.96126845  1.0
  O  O173  1  0.61019406  0.53540386  0.96140567  1.0
  O  O174  1  0.95149364  0.51490610  0.07129752  1.0
  O  O175  1  0.41379523  0.95155448  0.07130038  1.0
  O  O176  1  0.97714192  0.41389903  0.07131134  1.0
  O  O177  1  0.51481038  0.97721891  0.07129674  1.0
  O  O178  1  0.02285370  0.48509351  0.92869980  1.0
  O  O179  1  0.48520991  0.04845617  0.92868875  1.0
  O  O180  1  0.04851397  0.58610562  0.92870227  1.0
  O  O181  1  0.58620398  0.02279441  0.92870108  1.0
  O  O182  1  0.91418083  0.55555356  0.98919649  1.0
  O  O183  1  0.45496449  0.91413554  0.98927738  1.0
  O  O184  1  0.09658887  0.45513058  0.98925553  1.0
  O  O185  1  0.55570092  0.09661969  0.98920987  1.0
  O  O186  1  0.90341150  0.44424860  0.01072243  1.0
  O  O187  1  0.44438562  0.08584363  0.01074569  1.0
  O  O188  1  0.08582911  0.54491204  0.01078924  1.0
  O  O189  1  0.54474301  0.90337778  0.01080382  1.0
  O  O190  1  0.76897573  0.28611111  0.29681290  1.0
  O  O191  1  0.28614448  0.93418642  0.29682128  1.0
  O  O192  1  0.93421171  0.41717738  0.29680308  1.0
  O  O193  1  0.41711465  0.76894220  0.29677564  1.0
  O  O194  1  0.06569499  0.71385900  0.70322419  1.0
  O  O195  1  0.58295274  0.06576773  0.70318620  1.0
  O  O196  1  0.23102282  0.58298689  0.70317864  1.0
  O  O197  1  0.71395087  0.23103830  0.70319413  1.0
