# generated using pymatgen
data_PrH24C24(NO2)6
_symmetry_space_group_name_H-M   'P 1'
_cell_length_a   16.07951170
_cell_length_b   16.07951820
_cell_length_c   16.33355327
_cell_angle_alpha   89.99998168
_cell_angle_beta   90.00000717
_cell_angle_gamma   119.99997355
_symmetry_Int_Tables_number   1
_chemical_formula_structural   PrH24C24(NO2)6
_chemical_formula_sum   'Pr4 H96 C96 N24 O48'
_cell_volume   3657.27239899
_cell_formula_units_Z   4
loop_
 _symmetry_equiv_pos_site_id
 _symmetry_equiv_pos_as_xyz
  1  'x, y, z'
loop_
 _atom_site_type_symbol
 _atom_site_label
 _atom_site_symmetry_multiplicity
 _atom_site_fract_x
 _atom_site_fract_y
 _atom_site_fract_z
 _atom_site_occupancy
  Pr  Pr0  1  0.33333333  0.66666667  0.83797525  1.0
  Pr  Pr1  1  0.66666667  0.33333333  0.66202448  1.0
  Pr  Pr2  1  0.66666667  0.33333333  0.16202427  1.0
  Pr  Pr3  1  0.33333333  0.66666667  0.33797566  1.0
  H  H4  1  0.49686582  0.74625083  0.01906771  1.0
  H  H5  1  0.24938575  0.50313536  0.01906834  1.0
  H  H6  1  0.25374997  0.75061488  0.01906769  1.0
  H  H7  1  0.75061417  0.25374882  0.48093224  1.0
  H  H8  1  0.50313529  0.24938556  0.48093161  1.0
  H  H9  1  0.74625052  0.49686503  0.48093159  1.0
  H  H10  1  0.50313500  0.25374948  0.98093243  1.0
  H  H11  1  0.75061382  0.49686494  0.98093241  1.0
  H  H12  1  0.74625085  0.24938543  0.98093183  1.0
  H  H13  1  0.24938567  0.74625078  0.51906790  1.0
  H  H14  1  0.49686553  0.75061475  0.51906791  1.0
  H  H15  1  0.25374968  0.50313528  0.51906855  1.0
  H  H16  1  0.66360054  0.81169224  0.07034926  1.0
  H  H17  1  0.14809140  0.33639969  0.07034931  1.0
  H  H18  1  0.18830835  0.85190910  0.07034923  1.0
  H  H19  1  0.85190845  0.18830809  0.42965009  1.0
  H  H20  1  0.33639947  0.14809135  0.42965068  1.0
  H  H21  1  0.81169206  0.66359999  0.42965063  1.0
  H  H22  1  0.33639903  0.18830806  0.92965026  1.0
  H  H23  1  0.85190880  0.66360062  0.92965022  1.0
  H  H24  1  0.81169184  0.14809120  0.92965030  1.0
  H  H25  1  0.14809113  0.81169223  0.57034944  1.0
  H  H26  1  0.66360073  0.85190896  0.57034946  1.0
  H  H27  1  0.18830778  0.33639960  0.57034951  1.0
  H  H28  1  0.76169973  0.73754978  0.02873540  1.0
  H  H29  1  0.97585113  0.23830069  0.02873488  1.0
  H  H30  1  0.26244976  0.02414916  0.02873548  1.0
  H  H31  1  0.02414935  0.26244992  0.47126452  1.0
  H  H32  1  0.23830113  0.97585058  0.47126442  1.0
  H  H33  1  0.73755067  0.76169961  0.47126449  1.0
  H  H34  1  0.23830073  0.26244981  0.97126474  1.0
  H  H35  1  0.02414969  0.76169962  0.97126465  1.0
  H  H36  1  0.73754981  0.97585114  0.97126466  1.0
  H  H37  1  0.97585048  0.73754966  0.52873500  1.0
  H  H38  1  0.76169871  0.02414901  0.52873510  1.0
  H  H39  1  0.26245015  0.23830070  0.52873504  1.0
  H  H40  1  0.68904968  0.59456429  0.93704420  1.0
  H  H41  1  0.90551425  0.31095046  0.93704426  1.0
  H  H42  1  0.40543512  0.09448512  0.93704427  1.0
  H  H43  1  0.09448525  0.40543524  0.56295613  1.0
  H  H44  1  0.31095039  0.90551442  0.56295606  1.0
  H  H45  1  0.59456390  0.68904969  0.56295550  1.0
  H  H46  1  0.31095015  0.40543529  0.06295593  1.0
  H  H47  1  0.09448533  0.68904985  0.06295588  1.0
  H  H48  1  0.59456409  0.90551446  0.06295587  1.0
  H  H49  1  0.90551459  0.59456435  0.43704401  1.0
  H  H50  1  0.68904945  0.09448517  0.43704408  1.0
  H  H51  1  0.40543531  0.31094989  0.43704403  1.0
  H  H52  1  0.56235378  0.47605965  0.86188666  1.0
  H  H53  1  0.91370557  0.43764744  0.86188730  1.0
  H  H54  1  0.52394141  0.08629498  0.86188733  1.0
  H  H55  1  0.08629434  0.52394061  0.63811244  1.0
  H  H56  1  0.43764654  0.91370524  0.63811240  1.0
  H  H57  1  0.47605829  0.56235273  0.63811246  1.0
  H  H58  1  0.43764642  0.52394066  0.13811287  1.0
  H  H59  1  0.08629400  0.56235287  0.13811284  1.0
  H  H60  1  0.47605817  0.91370533  0.13811281  1.0
  H  H61  1  0.91370514  0.47605826  0.36188708  1.0
  H  H62  1  0.56235267  0.08629434  0.36188774  1.0
  H  H63  1  0.52394155  0.43764686  0.36188707  1.0
  H  H64  1  0.31943805  0.32634587  0.82124288  1.0
  H  H65  1  0.00690697  0.68056228  0.82124280  1.0
  H  H66  1  0.67365495  0.99309321  0.82124280  1.0
  H  H67  1  0.99309212  0.67365430  0.67875748  1.0
  H  H68  1  0.68056244  0.00690697  0.67875757  1.0
  H  H69  1  0.32634539  0.31943802  0.67875689  1.0
  H  H70  1  0.68056214  0.67365443  0.17875787  1.0
  H  H71  1  0.99309260  0.31943802  0.17875795  1.0
  H  H72  1  0.32634525  0.00690710  0.17875734  1.0
  H  H73  1  0.00690807  0.32634600  0.32124327  1.0
  H  H74  1  0.31943740  0.99309262  0.32124257  1.0
  H  H75  1  0.67365480  0.68056228  0.32124264  1.0
  H  H76  1  0.43574046  0.34385905  0.80220645  1.0
  H  H77  1  0.90811841  0.56425968  0.80220706  1.0
  H  H78  1  0.65614117  0.09188193  0.80220651  1.0
  H  H79  1  0.09188125  0.65614051  0.69779325  1.0
  H  H80  1  0.56425935  0.90811826  0.69779324  1.0
  H  H81  1  0.34385991  0.43574122  0.69779330  1.0
  H  H82  1  0.56425938  0.65614054  0.19779307  1.0
  H  H83  1  0.09188116  0.43574063  0.19779308  1.0
  H  H84  1  0.34385902  0.90811837  0.19779302  1.0
  H  H85  1  0.90811895  0.34385980  0.30220689  1.0
  H  H86  1  0.43574049  0.09188133  0.30220690  1.0
  H  H87  1  0.65614090  0.56425908  0.30220684  1.0
  H  H88  1  0.38909869  0.49480861  0.85611647  1.0
  H  H89  1  0.10570957  0.61090188  0.85611643  1.0
  H  H90  1  0.50519162  0.89428943  0.85611641  1.0
  H  H91  1  0.89429006  0.50519157  0.64388328  1.0
  H  H92  1  0.61090190  0.10571006  0.64388333  1.0
  H  H93  1  0.49480800  0.38909768  0.64388327  1.0
  H  H94  1  0.61090151  0.50519170  0.14388367  1.0
  H  H95  1  0.89428965  0.38909772  0.14388371  1.0
  H  H96  1  0.49480822  0.10571016  0.14388373  1.0
  H  H97  1  0.10571014  0.49480874  0.35611625  1.0
  H  H98  1  0.38909794  0.89428953  0.35611620  1.0
  H  H99  1  0.50519183  0.61090191  0.35611625  1.0
  C  C100  1  0.49679116  0.63333800  0.94813868  1.0
  C  C101  1  0.13654740  0.50320918  0.94813868  1.0
  C  C102  1  0.36666193  0.86345269  0.94813864  1.0
  C  C103  1  0.86345279  0.36666146  0.55186168  1.0
  C  C104  1  0.50320931  0.13654755  0.55186170  1.0
  C  C105  1  0.63333884  0.49679106  0.55186165  1.0
  C  C106  1  0.50320868  0.36666160  0.05186145  1.0
  C  C107  1  0.86345279  0.49679112  0.05186146  1.0
  C  C108  1  0.63333826  0.13654761  0.05186150  1.0
  C  C109  1  0.13654704  0.63333812  0.44813846  1.0
  C  C110  1  0.49679089  0.86345276  0.44813905  1.0
  C  C111  1  0.36666197  0.50320923  0.44813910  1.0
  C  C112  1  0.53946548  0.71335453  0.00189509  1.0
  C  C113  1  0.17388934  0.46053513  0.00189511  1.0
  C  C114  1  0.28664609  0.82611141  0.00189506  1.0
  C  C115  1  0.82611110  0.28664582  0.49810487  1.0
  C  C116  1  0.46053489  0.17388902  0.49810486  1.0
  C  C117  1  0.71335434  0.53946528  0.49810482  1.0
  C  C118  1  0.46053471  0.28664577  0.99810505  1.0
  C  C119  1  0.82611085  0.53946517  0.99810503  1.0
  C  C120  1  0.71335348  0.17388889  0.99810447  1.0
  C  C121  1  0.17388910  0.71335450  0.50189527  1.0
  C  C122  1  0.53946468  0.82611129  0.50189528  1.0
  C  C123  1  0.28664586  0.46053504  0.50189532  1.0
  C  C124  1  0.63283862  0.74984500  0.02935390  1.0
  C  C125  1  0.11700796  0.36716103  0.02935516  1.0
  C  C126  1  0.25015388  0.88299288  0.02935508  1.0
  C  C127  1  0.88299268  0.25015317  0.47064484  1.0
  C  C128  1  0.36716211  0.11700685  0.47064605  1.0
  C  C129  1  0.74984668  0.63283866  0.47064538  1.0
  C  C130  1  0.36716050  0.25015315  0.97064501  1.0
  C  C131  1  0.88299223  0.63283927  0.97064498  1.0
  C  C132  1  0.74984668  0.11700815  0.97064506  1.0
  C  C133  1  0.11700643  0.74984497  0.52935408  1.0
  C  C134  1  0.63283897  0.88299274  0.52935531  1.0
  C  C135  1  0.25015512  0.36716237  0.52935415  1.0
  C  C136  1  0.68836546  0.70795498  0.00651014  1.0
  C  C137  1  0.01958907  0.31163468  0.00651016  1.0
  C  C138  1  0.29204541  0.98041071  0.00651007  1.0
  C  C139  1  0.98041061  0.29204533  0.49348983  1.0
  C  C140  1  0.31163495  0.01958974  0.49349045  1.0
  C  C141  1  0.70795476  0.68836503  0.49349037  1.0
  C  C142  1  0.31163412  0.29204534  0.99349000  1.0
  C  C143  1  0.98041051  0.68836563  0.99348998  1.0
  C  C144  1  0.70795443  0.01958889  0.99349007  1.0
  C  C145  1  0.01958959  0.70795498  0.50651030  1.0
  C  C146  1  0.68836524  0.98041056  0.50651030  1.0
  C  C147  1  0.29204507  0.31163455  0.50650977  1.0
  C  C148  1  0.64824276  0.62854352  0.95607741  1.0
  C  C149  1  0.98030128  0.35175754  0.95607747  1.0
  C  C150  1  0.37145626  0.01969881  0.95607749  1.0
  C  C151  1  0.01969911  0.37145602  0.54392291  1.0
  C  C152  1  0.35175756  0.98030145  0.54392284  1.0
  C  C153  1  0.62854385  0.64824260  0.54392230  1.0
  C  C154  1  0.35175707  0.37145607  0.04392273  1.0
  C  C155  1  0.01969892  0.64824277  0.04392267  1.0
  C  C156  1  0.62854394  0.98030150  0.04392265  1.0
  C  C157  1  0.98030072  0.62854356  0.45607722  1.0
  C  C158  1  0.64824202  0.01969886  0.45607730  1.0
  C  C159  1  0.37145635  0.35175771  0.45607723  1.0
  C  C160  1  0.55326340  0.58976901  0.92600634  1.0
  C  C161  1  0.03650532  0.44673634  0.92600633  1.0
  C  C162  1  0.41023115  0.96349453  0.92600627  1.0
  C  C163  1  0.96349400  0.41023042  0.57399404  1.0
  C  C164  1  0.44673671  0.03650571  0.57399406  1.0
  C  C165  1  0.58976925  0.55326321  0.57399399  1.0
  C  C166  1  0.44673644  0.41023058  0.07399380  1.0
  C  C167  1  0.96349389  0.55326325  0.07399381  1.0
  C  C168  1  0.58976905  0.03650579  0.07399387  1.0
  C  C169  1  0.03650557  0.58976988  0.42600610  1.0
  C  C170  1  0.55326312  0.96349387  0.42600607  1.0
  C  C171  1  0.41023059  0.44673638  0.42600615  1.0
  C  C172  1  0.51685600  0.50709890  0.87538402  1.0
  C  C173  1  0.99024307  0.48314455  0.87538466  1.0
  C  C174  1  0.49290159  0.00975717  0.87538409  1.0
  C  C175  1  0.00975732  0.49290137  0.62461569  1.0
  C  C176  1  0.48314451  0.99024305  0.62461564  1.0
  C  C177  1  0.50709867  0.51685559  0.62461510  1.0
  C  C178  1  0.48314419  0.49290140  0.12461551  1.0
  C  C179  1  0.00975712  0.51685575  0.12461548  1.0
  C  C180  1  0.50709799  0.99024314  0.12461543  1.0
  C  C181  1  0.99024251  0.50709821  0.37538445  1.0
  C  C182  1  0.51685568  0.00975725  0.37538450  1.0
  C  C183  1  0.49290152  0.48314471  0.37538443  1.0
  C  C184  1  0.39024201  0.37620671  0.79533409  1.0
  C  C185  1  0.98596451  0.60975824  0.79533470  1.0
  C  C186  1  0.62379316  0.01403500  0.79533416  1.0
  C  C187  1  0.01403516  0.62379287  0.70466561  1.0
  C  C188  1  0.60975825  0.98596519  0.70466559  1.0
  C  C189  1  0.37620746  0.39024266  0.70466567  1.0
  C  C190  1  0.60975720  0.62379287  0.20466544  1.0
  C  C191  1  0.01403506  0.39024207  0.20466544  1.0
  C  C192  1  0.37620703  0.98596530  0.20466537  1.0
  C  C193  1  0.98596504  0.37620744  0.29533453  1.0
  C  C194  1  0.39024194  0.01403511  0.29533455  1.0
  C  C195  1  0.62379336  0.60975765  0.29533447  1.0
  N  N196  1  0.43077372  0.46417510  0.84287012  1.0
  N  N197  1  0.03340084  0.56922659  0.84287070  1.0
  N  N198  1  0.53582568  0.96659895  0.84287005  1.0
  N  N199  1  0.96659858  0.53582506  0.65713024  1.0
  N  N200  1  0.56922681  0.03340125  0.65712969  1.0
  N  N201  1  0.46417492  0.43077370  0.65712962  1.0
  N  N202  1  0.56922648  0.53582521  0.15713001  1.0
  N  N203  1  0.96659838  0.43077301  0.15713006  1.0
  N  N204  1  0.46417451  0.03340135  0.15712947  1.0
  N  N205  1  0.03340161  0.46417524  0.34287051  1.0
  N  N206  1  0.43077302  0.96659833  0.34287045  1.0
  N  N207  1  0.53582528  0.56922661  0.34287052  1.0
  N  N208  1  0.20919651  0.48435069  0.74121984  1.0
  N  N209  1  0.27515372  0.79080282  0.74121980  1.0
  N  N210  1  0.51564867  0.72484574  0.74122044  1.0
  N  N211  1  0.72484609  0.51564881  0.75877988  1.0
  N  N212  1  0.79080297  0.27515444  0.75877993  1.0
  N  N213  1  0.48435099  0.20919743  0.75877992  1.0
  N  N214  1  0.79080297  0.51564818  0.25878030  1.0
  N  N215  1  0.72484611  0.20919676  0.25877973  1.0
  N  N216  1  0.48435153  0.27515457  0.25877970  1.0
  N  N217  1  0.27515446  0.48435221  0.24121964  1.0
  N  N218  1  0.20919723  0.72484587  0.24122021  1.0
  N  N219  1  0.51564921  0.79080288  0.24122022  1.0
  O  O220  1  0.40973696  0.60003238  0.91954295  1.0
  O  O221  1  0.19029518  0.59026384  0.91954293  1.0
  O  O222  1  0.39996809  0.80970438  0.91954291  1.0
  O  O223  1  0.80970457  0.39996781  0.58045741  1.0
  O  O224  1  0.59026376  0.19029584  0.58045743  1.0
  O  O225  1  0.60003225  0.40973569  0.58045740  1.0
  O  O226  1  0.59026386  0.39996793  0.08045719  1.0
  O  O227  1  0.80970439  0.40973646  0.08045720  1.0
  O  O228  1  0.60003211  0.19029593  0.08045723  1.0
  O  O229  1  0.19029624  0.60003249  0.41954273  1.0
  O  O230  1  0.40973545  0.80970374  0.41954271  1.0
  O  O231  1  0.39996759  0.59026390  0.41954274  1.0
  O  O232  1  0.21096619  0.56387372  0.72541862  1.0
  O  O233  1  0.35290634  0.78903337  0.72541859  1.0
  O  O234  1  0.43612611  0.64709288  0.72541862  1.0
  O  O235  1  0.64709312  0.43612651  0.77458233  1.0
  O  O236  1  0.78903290  0.35290659  0.77458235  1.0
  O  O237  1  0.56387304  0.21096686  0.77458236  1.0
  O  O238  1  0.78903302  0.43612586  0.27458214  1.0
  O  O239  1  0.64709324  0.21096694  0.27458216  1.0
  O  O240  1  0.56387372  0.35290670  0.27458213  1.0
  O  O241  1  0.35290707  0.56387379  0.22541781  1.0
  O  O242  1  0.21096694  0.64709300  0.22541840  1.0
  O  O243  1  0.43612653  0.78903344  0.22541839  1.0
  O  O244  1  0.25822622  0.48462356  0.80337534  1.0
  O  O245  1  0.22639568  0.74177326  0.80337529  1.0
  O  O246  1  0.51537673  0.77360311  0.80337592  1.0
  O  O247  1  0.77360355  0.51537594  0.69662440  1.0
  O  O248  1  0.74177428  0.22639707  0.69662444  1.0
  O  O249  1  0.48462311  0.25822700  0.69662442  1.0
  O  O250  1  0.74177299  0.51537603  0.19662419  1.0
  O  O251  1  0.77360389  0.25822704  0.19662423  1.0
  O  O252  1  0.48462346  0.22639719  0.19662422  1.0
  O  O253  1  0.22639691  0.48462365  0.30337513  1.0
  O  O254  1  0.25822654  0.77360324  0.30337570  1.0
  O  O255  1  0.51537744  0.74177402  0.30337572  1.0
  O  O256  1  0.16312991  0.41198301  0.69852247  1.0
  O  O257  1  0.24885353  0.83687087  0.69852241  1.0
  O  O258  1  0.58801743  0.75114684  0.69852244  1.0
  O  O259  1  0.75114691  0.58801723  0.80147726  1.0
  O  O260  1  0.83687063  0.24885333  0.80147793  1.0
  O  O261  1  0.41198179  0.16312868  0.80147731  1.0
  O  O262  1  0.83686993  0.58801658  0.30147767  1.0
  O  O263  1  0.75114667  0.16312944  0.30147712  1.0
  O  O264  1  0.41198277  0.24885347  0.30147770  1.0
  O  O265  1  0.24885329  0.41198309  0.19852166  1.0
  O  O266  1  0.16312956  0.75114697  0.19852282  1.0
  O  O267  1  0.58801743  0.83687091  0.19852283  1.0
