# generated using pymatgen
data_AlH10(C5O2)3
_symmetry_space_group_name_H-M   'P 1'
_cell_length_a   6.66188108
_cell_length_b   11.01720506
_cell_length_c   17.65904819
_cell_angle_alpha   90.74709279
_cell_angle_beta   99.06513308
_cell_angle_gamma   106.50879018
_symmetry_Int_Tables_number   1
_chemical_formula_structural   AlH10(C5O2)3
_chemical_formula_sum   'Al2 H20 C30 O12'
_cell_volume   1224.85079232
_cell_formula_units_Z   2
loop_
 _symmetry_equiv_pos_site_id
 _symmetry_equiv_pos_as_xyz
  1  'x, y, z'
loop_
 _atom_site_type_symbol
 _atom_site_label
 _atom_site_symmetry_multiplicity
 _atom_site_fract_x
 _atom_site_fract_y
 _atom_site_fract_z
 _atom_site_occupancy
  Al  Al0  1  0.00859645  0.49723843  0.50257655  1.0
  Al  Al1  1  0.50898515  0.49734125  0.50195175  1.0
  H  H2  1  0.35149120  0.65123649  0.54308611  1.0
  H  H3  1  0.66642273  0.34131867  0.46707120  1.0
  H  H4  1  0.81707170  0.45971843  0.27843880  1.0
  H  H5  1  0.72629612  0.46366951  0.13569183  1.0
  H  H6  1  0.47623625  0.52403926  0.26161767  1.0
  H  H7  1  0.53780345  0.47248581  0.74175804  1.0
  H  H8  1  0.19687806  0.53144076  0.72652319  1.0
  H  H9  1  0.28475208  0.52765941  0.86925233  1.0
  H  H10  1  0.53800044  0.76596751  0.39014790  1.0
  H  H11  1  0.79808189  0.23558874  0.40059998  1.0
  H  H12  1  0.35940479  0.11063381  0.55333561  1.0
  H  H13  1  0.23550421  0.87383704  0.54359246  1.0
  H  H14  1  0.35769341  0.53254374  0.05739426  1.0
  H  H15  1  0.65267215  0.46390831  0.94614482  1.0
  H  H16  1  0.12911018  0.89215427  0.32332338  1.0
  H  H17  1  0.23133968  0.76408232  0.30509070  1.0
  H  H18  1  0.25993151  0.89254919  0.24374611  1.0
  H  H19  1  0.39235284  0.12402917  0.24972006  1.0
  H  H20  1  0.49253106  0.24923807  0.32274471  1.0
  H  H21  1  0.25626689  0.12616464  0.32755256  1.0
  C  C22  1  0.86326866  0.72278863  0.48557994  1.0
  C  C23  1  0.81659266  0.50578273  0.64109986  1.0
  C  C24  1  0.14512625  0.26998427  0.50365760  1.0
  C  C25  1  0.19959726  0.48828563  0.36279253  1.0
  C  C26  1  0.15029204  0.49034549  0.27752939  1.0
  C  C27  1  0.93897348  0.47341599  0.24234889  1.0
  C  C28  1  0.88915707  0.47500670  0.16329590  1.0
  C  C29  1  0.05015718  0.49363598  0.11784440  1.0
  C  C30  1  0.26360334  0.51175861  0.15409444  1.0
  C  C31  1  0.31273698  0.50974447  0.23355997  1.0
  C  C32  1  0.01043766  0.49546032  0.03710762  1.0
  C  C33  1  0.99958999  0.49853569  0.96714662  1.0
  C  C34  1  0.96091525  0.50030989  0.88639024  1.0
  C  C35  1  0.74839755  0.48360002  0.84967160  1.0
  C  C36  1  0.70064448  0.48553508  0.77013241  1.0
  C  C37  1  0.86372582  0.50339742  0.72651101  1.0
  C  C38  1  0.07418951  0.51883286  0.76223197  1.0
  C  C39  1  0.12254476  0.51744806  0.84133235  1.0
  C  C40  1  0.92953529  0.86293645  0.47961020  1.0
  C  C41  1  0.79313164  0.93030257  0.44060633  1.0
  C  C42  1  0.13267553  0.92768776  0.51649396  1.0
  C  C43  1  0.59398933  0.86923326  0.39423811  1.0
  C  C44  1  0.47035301  0.93598759  0.35319479  1.0
  C  C45  1  0.06982948  0.12948076  0.48946158  1.0
  C  C46  1  0.20256658  0.06052548  0.52181966  1.0
  C  C47  1  0.86654088  0.06661618  0.44490824  1.0
  C  C48  1  0.73841944  0.13281312  0.40123717  1.0
  C  C49  1  0.54472916  0.07159888  0.35672376  1.0
  C  C50  1  0.26229543  0.86716498  0.30393458  1.0
  C  C51  1  0.41568804  0.14696771  0.31196409  1.0
  O  O52  1  0.00417385  0.66625260  0.48183605  1.0
  O  O53  1  0.62552253  0.49324524  0.60955601  1.0
  O  O54  1  0.33976657  0.32449081  0.50045470  1.0
  O  O55  1  0.04176181  0.47055815  0.39807056  1.0
  O  O56  1  0.01218340  0.32621872  0.51874312  1.0
  O  O57  1  0.39177226  0.50292374  0.39372145  1.0
  O  O58  1  0.67519477  0.66956531  0.49742697  1.0
  O  O59  1  0.97529301  0.52178398  0.60634127  1.0
  O  O60  1  0.30189613  0.55997172  0.53296209  1.0
  O  O61  1  0.71520515  0.43344390  0.47120416  1.0
  O  O62  1  0.42244812  0.53150196  0.11123508  1.0
  O  O63  1  0.58896115  0.46515458  0.89220956  1.0
