# generated using pymatgen
data_ZnH17C20NO5
_symmetry_space_group_name_H-M   'P 1'
_cell_length_a   13.90475618
_cell_length_b   14.73538644
_cell_length_c   16.14279651
_cell_angle_alpha   90.12085783
_cell_angle_beta   90.33627712
_cell_angle_gamma   81.87096904
_symmetry_Int_Tables_number   1
_chemical_formula_structural   ZnH17C20NO5
_chemical_formula_sum   'Zn2 H34 C40 N2 O10'
_cell_volume   3274.23642119
_cell_formula_units_Z   2
loop_
 _symmetry_equiv_pos_site_id
 _symmetry_equiv_pos_as_xyz
  1  'x, y, z'
loop_
 _atom_site_type_symbol
 _atom_site_label
 _atom_site_symmetry_multiplicity
 _atom_site_fract_x
 _atom_site_fract_y
 _atom_site_fract_z
 _atom_site_occupancy
  Zn  Zn0  1  0.49912143  0.40435806  0.49961725  1.0
  Zn  Zn1  1  0.50086564  0.59564981  0.50038864  1.0
  H  H2  1  0.03310142  0.39580491  0.49361891  1.0
  H  H3  1  0.43799572  0.77272534  0.00081624  1.0
  H  H4  1  0.56704334  0.75450996  0.00089772  1.0
  H  H5  1  0.50262332  0.81904216  0.92042368  1.0
  H  H6  1  0.56419549  0.66362874  0.86704195  1.0
  H  H7  1  0.43784790  0.68147058  0.86682251  1.0
  H  H8  1  0.76137715  0.90533848  0.44677657  1.0
  H  H9  1  0.68705496  0.81656140  0.43432364  1.0
  H  H10  1  0.78063966  0.72334022  0.54439003  1.0
  H  H11  1  0.86049429  0.75232509  0.46581241  1.0
  H  H12  1  0.85349179  0.81244824  0.56190214  1.0
  H  H13  1  0.96689496  0.60419333  0.50638947  1.0
  H  H14  1  0.31293430  0.18345605  0.56567856  1.0
  H  H15  1  0.23862089  0.09467824  0.55323618  1.0
  H  H16  1  0.14650016  0.18755070  0.43810251  1.0
  H  H17  1  0.13950107  0.24768480  0.53418359  1.0
  H  H18  1  0.21934992  0.27666490  0.45560533  1.0
  H  H19  1  0.59639201  0.16190874  0.65926083  1.0
  H  H20  1  0.65486306  0.05028441  0.68616406  1.0
  H  H21  1  0.72474640  0.14071129  0.66842102  1.0
  H  H22  1  0.73631151  0.03683526  0.54599157  1.0
  H  H23  1  0.67513955  0.14658441  0.51870168  1.0
  H  H24  1  0.49887564  0.35585606  0.92094337  1.0
  H  H25  1  0.34513272  0.94971794  0.31384370  1.0
  H  H26  1  0.40360473  0.83809702  0.34075128  1.0
  H  H27  1  0.27525350  0.85929241  0.33158738  1.0
  H  H28  1  0.32485463  0.85342411  0.48130857  1.0
  H  H29  1  0.26368297  0.96317600  0.45401497  1.0
  H  H30  1  0.50117001  0.64411453  0.07906010  1.0
  H  H31  1  0.43309111  0.24542320  0.99909535  1.0
  H  H32  1  0.56213946  0.22726330  0.99920357  1.0
  H  H33  1  0.49750958  0.18091704  0.07958244  1.0
  H  H34  1  0.56219350  0.31853016  0.13320579  1.0
  H  H35  1  0.43584606  0.33631996  0.13294103  1.0
  C  C36  1  0.49979936  0.49980397  0.66085686  1.0
  C  C37  1  0.58805767  0.94548737  0.52214721  1.0
  C  C38  1  0.48867375  0.19006377  0.50210582  1.0
  C  C39  1  0.51131624  0.80993861  0.49789387  1.0
  C  C40  1  0.68955938  0.46300392  0.50086575  1.0
  C  C41  1  0.31043515  0.53701693  0.49913771  1.0
  C  C42  1  0.20549103  0.54663219  0.49972590  1.0
  C  C43  1  0.79450751  0.45337083  0.50027567  1.0
  C  C44  1  0.01795755  0.54075009  0.50198859  1.0
  C  C45  1  0.98204293  0.45924949  0.49801546  1.0
  C  C46  1  0.88217155  0.45406614  0.49923157  1.0
  C  C47  1  0.50019458  0.50022100  0.33914598  1.0
  C  C48  1  0.11782194  0.54593210  0.50077308  1.0
  C  C49  1  0.49942455  0.41498288  0.04321630  1.0
  C  C50  1  0.50061721  0.58499459  0.95677851  1.0
  C  C51  1  0.50005995  0.49891778  0.08658517  1.0
  C  C52  1  0.49997278  0.50106247  0.91341148  1.0
  C  C53  1  0.50063441  0.58166661  0.04288262  1.0
  C  C54  1  0.49940140  0.41831225  0.95711527  1.0
  C  C55  1  0.50012853  0.50031042  0.17422940  1.0
  C  C56  1  0.49989903  0.49966095  0.82577341  1.0
  C  C57  1  0.49885506  0.32714231  0.09104239  1.0
  C  C58  1  0.49993552  0.49975964  0.75023243  1.0
  C  C59  1  0.49787182  0.24068877  0.03910067  1.0
  C  C60  1  0.50120604  0.67283095  0.90896175  1.0
  C  C61  1  0.50225928  0.75927798  0.96090918  1.0
  C  C62  1  0.73181628  0.84929344  0.47879465  1.0
  C  C63  1  0.81111462  0.78024589  0.51548099  1.0
  C  C64  1  0.26817842  0.15072125  0.52121004  1.0
  C  C65  1  0.18887716  0.21976401  0.48452058  1.0
  C  C66  1  0.66945807  0.08489978  0.55562307  1.0
  C  C67  1  0.66058737  0.11086517  0.64792926  1.0
  C  C68  1  0.33053135  0.91510670  0.44438221  1.0
  C  C69  1  0.50006576  0.50024406  0.24975924  1.0
  C  C70  1  0.33940556  0.88914199  0.35207913  1.0
  C  C71  1  0.58431693  0.04085282  0.52579977  1.0
  C  C72  1  0.41568049  0.95915295  0.47420119  1.0
  C  C73  1  0.49499270  0.09329211  0.50296075  1.0
  C  C74  1  0.50499887  0.90671437  0.49704144  1.0
  C  C75  1  0.41193135  0.05451706  0.47786240  1.0
  N  N76  1  0.51432929  0.73084800  0.49896831  1.0
  N  N77  1  0.48566167  0.26916259  0.50103202  1.0
  O  O78  1  0.50098339  0.42219502  0.62547156  1.0
  O  O79  1  0.32984960  0.11064662  0.45362991  1.0
  O  O80  1  0.49901896  0.57781141  0.37452817  1.0
  O  O81  1  0.49846187  0.57749300  0.62589565  1.0
  O  O82  1  0.50151545  0.42251765  0.37411395  1.0
  O  O83  1  0.64968765  0.39039189  0.50079902  1.0
  O  O84  1  0.35030016  0.60961050  0.49919571  1.0
  O  O85  1  0.64741619  0.54567835  0.50129116  1.0
  O  O86  1  0.35257735  0.45431990  0.49872650  1.0
  O  O87  1  0.67014270  0.88935985  0.54637723  1.0
