# generated using pymatgen
data_ZnH14C32N(Cl3O2)2
_symmetry_space_group_name_H-M   'P 1'
_cell_length_a   14.18411891
_cell_length_b   15.09692317
_cell_length_c   15.88569774
_cell_angle_alpha   96.56937103
_cell_angle_beta   91.01573070
_cell_angle_gamma   91.08443369
_symmetry_Int_Tables_number   1
_chemical_formula_structural   ZnH14C32N(Cl3O2)2
_chemical_formula_sum   'Zn2 H28 C64 N2 Cl12 O8'
_cell_volume   3378.09023210
_cell_formula_units_Z   2
loop_
 _symmetry_equiv_pos_site_id
 _symmetry_equiv_pos_as_xyz
  1  'x, y, z'
loop_
 _atom_site_type_symbol
 _atom_site_label
 _atom_site_symmetry_multiplicity
 _atom_site_fract_x
 _atom_site_fract_y
 _atom_site_fract_z
 _atom_site_occupancy
  Zn  Zn0  1  0.60379601  0.51260324  0.50766391  1.0
  Zn  Zn1  1  0.39613079  0.51549489  0.49165410  1.0
  H  H2  1  0.46519949  0.76569831  0.38067140  1.0
  H  H3  1  0.37448854  0.37759523  0.92669526  1.0
  H  H4  1  0.44959365  0.21101872  0.35408181  1.0
  H  H5  1  0.51367767  0.26131958  0.62135718  1.0
  H  H6  1  0.50331883  0.13524760  0.71013461  1.0
  H  H7  1  0.48310929  0.70888477  0.68147673  1.0
  H  H8  1  0.57641519  0.66065560  0.80042414  1.0
  H  H9  1  0.72857965  0.73708190  0.84634697  1.0
  H  H10  1  0.79060790  0.85945152  0.76774093  1.0
  H  H11  1  0.69760757  0.90653305  0.64715997  1.0
  H  H12  1  0.36704824  0.61475946  0.20542739  1.0
  H  H13  1  0.43478608  0.05430677  0.28425983  1.0
  H  H14  1  0.20925839  0.61785254  0.26745733  1.0
  H  H15  1  0.07108747  0.54568573  0.18429932  1.0
  H  H16  1  0.09551569  0.46956455  0.03904146  1.0
  H  H17  1  0.25294657  0.46409843  0.97794655  1.0
  H  H18  1  0.65756407  0.59332277  0.19049031  1.0
  H  H19  1  0.80406378  0.57455750  0.27165963  1.0
  H  H20  1  0.92026031  0.46050929  0.21693865  1.0
  H  H21  1  0.88586149  0.36589278  0.08018199  1.0
  H  H22  1  0.73867272  0.38276292  0.00084271  1.0
  H  H23  1  0.07632206  0.35872111  0.31869573  1.0
  H  H24  1  0.90273015  0.34559487  0.32919635  1.0
  H  H25  1  0.58744421  0.57799625  0.05132613  1.0
  H  H26  1  0.45375520  0.60464484  0.08200178  1.0
  H  H27  1  0.35598854  0.52965460  0.92641166  1.0
  H  H28  1  0.62476654  0.41101053  0.93306788  1.0
  H  H29  1  0.48219612  0.32433197  0.90226925  1.0
  C  C30  1  0.51750597  0.68402162  0.51310279  1.0
  C  C31  1  0.49673621  0.12230015  0.57236443  1.0
  C  C32  1  0.48262032  0.06041174  0.49826039  1.0
  C  C33  1  0.50198849  0.51091193  0.33814552  1.0
  C  C34  1  0.46455326  0.09299620  0.41870943  1.0
  C  C35  1  0.50455226  0.08875236  0.65240473  1.0
  C  C36  1  0.50880497  0.99929648  0.65801704  1.0
  C  C37  1  0.51097778  0.93465000  0.58328537  1.0
  C  C38  1  0.48850047  0.96723551  0.50382124  1.0
  C  C39  1  0.47426245  0.90509192  0.42925873  1.0
  C  C40  1  0.45356351  0.94060963  0.35072770  1.0
  C  C41  1  0.45070882  0.38123155  0.93980535  1.0
  C  C42  1  0.44925453  0.03011314  0.34515634  1.0
  C  C43  1  0.53159644  0.84315459  0.58452444  1.0
  C  C44  1  0.51057772  0.78350463  0.51158615  1.0
  C  C45  1  0.49089807  0.34368103  0.48338155  1.0
  C  C46  1  0.48047902  0.81364115  0.43606994  1.0
  C  C47  1  0.79789142  0.43223847  0.45476242  1.0
  C  C48  1  0.19352277  0.45673721  0.43367647  1.0
  C  C49  1  0.80680506  0.53371068  0.57665457  1.0
  C  C50  1  0.19925089  0.54873364  0.56191708  1.0
  C  C51  1  0.90439357  0.52039438  0.58861730  1.0
  C  C52  1  0.46948181  0.37602556  0.03521041  1.0
  C  C53  1  0.10473942  0.52854469  0.58072288  1.0
  C  C54  1  0.95069677  0.47460497  0.51825414  1.0
  C  C55  1  0.05089942  0.47952411  0.51372032  1.0
  C  C56  1  0.89726736  0.42843480  0.44984270  1.0
  C  C57  1  0.09536041  0.44101135  0.43921432  1.0
  C  C58  1  0.96068130  0.54897708  0.66383500  1.0
  C  C59  1  0.05806261  0.55243890  0.66009040  1.0
  C  C60  1  0.04044794  0.39049749  0.37376446  1.0
  C  C61  1  0.94467894  0.38337354  0.37945679  1.0
  C  C62  1  0.48265284  0.49537808  0.65811925  1.0
  C  C63  1  0.48533543  0.47050821  0.82153285  1.0
  C  C64  1  0.59436613  0.50505805  0.04345191  1.0
  C  C65  1  0.42222342  0.54142525  0.05253943  1.0
  C  C66  1  0.42597746  0.54333846  0.95561168  1.0
  C  C67  1  0.59467989  0.47717178  0.94791288  1.0
  C  C68  1  0.48091014  0.47828543  0.74628651  1.0
  C  C69  1  0.49630705  0.47094859  0.07909232  1.0
  C  C70  1  0.49130384  0.47042531  0.91283737  1.0
  C  C71  1  0.58349703  0.81182351  0.65694613  1.0
  C  C72  1  0.55049713  0.74189339  0.70012082  1.0
  C  C73  1  0.60265092  0.71532218  0.76772616  1.0
  C  C74  1  0.50041259  0.47603124  0.17025063  1.0
  C  C75  1  0.68848470  0.75796903  0.79306280  1.0
  C  C76  1  0.72308426  0.82650479  0.74920253  1.0
  C  C77  1  0.67109756  0.85293724  0.68151749  1.0
  C  C78  1  0.32302251  0.53885517  0.08718702  1.0
  C  C79  1  0.30791321  0.58216071  0.16868902  1.0
  C  C80  1  0.21846270  0.58388100  0.20387121  1.0
  C  C81  1  0.14150487  0.54329797  0.15767827  1.0
  C  C82  1  0.15515586  0.50090731  0.07611911  1.0
  C  C83  1  0.24494863  0.49867910  0.04147232  1.0
  C  C84  1  0.68523220  0.48806764  0.09065974  1.0
  C  C85  1  0.50268882  0.49122508  0.24687854  1.0
  C  C86  1  0.70676525  0.54222925  0.16663444  1.0
  C  C87  1  0.78994563  0.53206351  0.21235640  1.0
  C  C88  1  0.85472869  0.46831438  0.18178839  1.0
  C  C89  1  0.83537856  0.41527960  0.10531071  1.0
  C  C90  1  0.75146570  0.42510647  0.06035431  1.0
  C  C91  1  0.46365976  0.18560831  0.41457545  1.0
  C  C92  1  0.48379977  0.24510923  0.48685596  1.0
  C  C93  1  0.49948792  0.21391803  0.56521086  1.0
  N  N94  1  0.75493289  0.48827230  0.51298005  1.0
  N  N95  1  0.24293745  0.51027518  0.49247543  1.0
  Cl  Cl96  1  0.67153128  0.54946870  0.89749872  1.0
  Cl  Cl97  1  0.12275329  0.57314658  0.75265846  1.0
  Cl  Cl98  1  0.56316125  0.29971748  0.04980165  1.0
  Cl  Cl99  1  0.36777395  0.33056465  0.08212414  1.0
  Cl  Cl100  1  0.45518995  0.65377849  0.93156362  1.0
  Cl  Cl101  1  0.50014040  0.96661615  0.75896237  1.0
  Cl  Cl102  1  0.43461747  0.86704887  0.25937827  1.0
  Cl  Cl103  1  0.73043205  0.36644891  0.38219544  1.0
  Cl  Cl104  1  0.25079541  0.41165727  0.34618042  1.0
  Cl  Cl105  1  0.75053475  0.61479743  0.63761993  1.0
  Cl  Cl106  1  0.26093672  0.63258462  0.62056865  1.0
  Cl  Cl107  1  0.90815221  0.56597589  0.76046085  1.0
  O  O108  1  0.59704077  0.64774876  0.50245551  1.0
  O  O109  1  0.43911655  0.64503677  0.52411477  1.0
  O  O110  1  0.57812610  0.49796644  0.37770884  1.0
  O  O111  1  0.42445537  0.53911661  0.36911423  1.0
  O  O112  1  0.56809705  0.38077920  0.51175427  1.0
  O  O113  1  0.42026346  0.38217064  0.45458870  1.0
  O  O114  1  0.56136666  0.52296592  0.63333942  1.0
  O  O115  1  0.40600009  0.48249411  0.61504983  1.0
