# generated using pymatgen
data_ZnH15C21Br4(N3O2)2
_symmetry_space_group_name_H-M   'P 1'
_cell_length_a   11.29777907
_cell_length_b   17.68020988
_cell_length_c   19.61574488
_cell_angle_alpha   94.00858709
_cell_angle_beta   90.79079790
_cell_angle_gamma   105.50694704
_symmetry_Int_Tables_number   1
_chemical_formula_structural   ZnH15C21Br4(N3O2)2
_chemical_formula_sum   'Zn2 H30 C42 Br8 N12 O8'
_cell_volume   3764.16975574
_cell_formula_units_Z   2
loop_
 _symmetry_equiv_pos_site_id
 _symmetry_equiv_pos_as_xyz
  1  'x, y, z'
loop_
 _atom_site_type_symbol
 _atom_site_label
 _atom_site_symmetry_multiplicity
 _atom_site_fract_x
 _atom_site_fract_y
 _atom_site_fract_z
 _atom_site_occupancy
  Zn  Zn0  1  0.05194377  0.57986175  0.50189912  1.0
  Zn  Zn1  1  0.94566288  0.41638838  0.48258377  1.0
  H  H2  1  0.23375046  0.66308000  0.41720589  1.0
  H  H3  1  0.73433362  0.34836425  0.55616907  1.0
  H  H4  1  0.69994578  0.03327911  0.55731233  1.0
  H  H5  1  0.28778676  0.96788572  0.44308684  1.0
  H  H6  1  0.95624958  0.59533397  0.71440583  1.0
  H  H7  1  0.09994805  0.42662323  0.27559585  1.0
  H  H8  1  0.82179347  0.42148715  0.92323245  1.0
  H  H9  1  0.19214692  0.57335432  0.06123403  1.0
  H  H10  1  0.81663462  0.43216058  0.05025685  1.0
  H  H11  1  0.19747417  0.56250946  0.93414704  1.0
  H  H12  1  0.47507612  0.37348503  0.43363945  1.0
  H  H13  1  0.63819625  0.40119857  0.43654025  1.0
  H  H14  1  0.35733407  0.59404216  0.45454718  1.0
  H  H15  1  0.51931122  0.62083053  0.45144073  1.0
  H  H16  1  0.30208239  0.93984897  0.60614050  1.0
  H  H17  1  0.17975922  0.87608372  0.64311513  1.0
  H  H18  1  0.84011618  0.10653783  0.37522558  1.0
  H  H19  1  0.71042441  0.04744113  0.40998113  1.0
  H  H20  1  0.65739874  0.89654986  0.58080243  1.0
  H  H21  1  0.52540369  0.82934512  0.55594854  1.0
  H  H22  1  0.46180858  0.17130222  0.44190587  1.0
  H  H23  1  0.33018257  0.10321883  0.41781856  1.0
  H  H24  1  0.75298099  0.64892987  0.52998820  1.0
  H  H25  1  0.61090851  0.61987687  0.55707884  1.0
  H  H26  1  0.24289358  0.34394457  0.50696568  1.0
  H  H27  1  0.38560452  0.37157496  0.53848303  1.0
  H  H28  1  0.89506821  0.63867548  0.82595540  1.0
  H  H29  1  0.92516501  0.60023254  0.89924690  1.0
  H  H30  1  0.14098314  0.42200589  0.09172480  1.0
  H  H31  1  0.18531808  0.39536072  0.16775960  1.0
  C  C32  1  0.99635348  0.50682412  0.36045326  1.0
  C  C33  1  0.00525552  0.49246839  0.62401678  1.0
  C  C34  1  0.00965718  0.48814952  0.70051808  1.0
  C  C35  1  0.99358946  0.50992189  0.28387094  1.0
  C  C36  1  0.90312152  0.45473528  0.95357039  1.0
  C  C37  1  0.11114578  0.53947686  0.03092045  1.0
  C  C38  1  0.90021477  0.46057251  0.02469147  1.0
  C  C39  1  0.11414389  0.53360113  0.95968201  1.0
  C  C40  1  0.00384089  0.50352449  0.06425843  1.0
  C  C41  1  0.01024776  0.49096844  0.92019336  1.0
  C  C42  1  0.15393034  0.75635352  0.55183064  1.0
  C  C43  1  0.84609898  0.23680542  0.44857055  1.0
  C  C44  1  0.23682630  0.83239828  0.55392513  1.0
  C  C45  1  0.76384919  0.16112187  0.45111900  1.0
  C  C46  1  0.32626368  0.84614016  0.50286107  1.0
  C  C47  1  0.66295968  0.15430279  0.49488724  1.0
  C  C48  1  0.32542751  0.78418660  0.45432455  1.0
  C  C49  1  0.65323122  0.22265138  0.53220276  1.0
  C  C50  1  0.23891277  0.71159033  0.45545777  1.0
  C  C51  1  0.73883876  0.29476814  0.52686918  1.0
  C  C52  1  0.53103929  0.94214707  0.53528488  1.0
  C  C53  1  0.45649360  0.05920131  0.46511515  1.0
  C  C54  1  0.21159219  0.46798438  0.48660473  1.0
  C  C55  1  0.78401541  0.52595499  0.49139398  1.0
  C  C56  1  0.60886845  0.01818546  0.53222316  1.0
  C  C57  1  0.37860046  0.98317577  0.46844468  1.0
  C  C58  1  0.57369768  0.07617317  0.49827109  1.0
  C  C59  1  0.41405797  0.92526587  0.50209025  1.0
  C  C60  1  0.33141326  0.45111277  0.48285595  1.0
  C  C61  1  0.66410642  0.54255350  0.48954029  1.0
  C  C62  1  0.43674368  0.50611048  0.46528141  1.0
  C  C63  1  0.55822200  0.48780117  0.46365607  1.0
  C  C64  1  0.04216893  0.42743707  0.73212587  1.0
  C  C65  1  0.93253645  0.55620442  0.24907387  1.0
  C  C66  1  0.04353424  0.42896211  0.80377459  1.0
  C  C67  1  0.93743638  0.55417046  0.17750684  1.0
  C  C68  1  0.01077363  0.48834943  0.84422493  1.0
  C  C69  1  0.00106181  0.50781826  0.14009740  1.0
  C  C70  1  0.97671639  0.54871780  0.81162310  1.0
  C  C71  1  0.06202561  0.46157927  0.17590416  1.0
  C  C72  1  0.97861318  0.54797397  0.74019728  1.0
  C  C73  1  0.05632392  0.46336280  0.24721786  1.0
  Br  Br74  1  0.44398493  0.79701328  0.38546074  1.0
  Br  Br75  1  0.52190749  0.21925557  0.59250793  1.0
  Br  Br76  1  0.09009043  0.34780626  0.67812363  1.0
  Br  Br77  1  0.83696267  0.61456046  0.29707681  1.0
  Br  Br78  1  0.09027027  0.34932120  0.84951363  1.0
  Br  Br79  1  0.85816189  0.61685500  0.12780743  1.0
  Br  Br80  1  0.03280349  0.73631951  0.61930655  1.0
  Br  Br81  1  0.98107777  0.24895504  0.38993727  1.0
  N  N82  1  0.15564113  0.69882334  0.50483776  1.0
  N  N83  1  0.83348314  0.30041900  0.48472973  1.0
  N  N84  1  0.55678629  0.41560397  0.43329366  1.0
  N  N85  1  0.43715020  0.57896936  0.44582822  1.0
  N  N86  1  0.22962581  0.89124380  0.60120148  1.0
  N  N87  1  0.78154663  0.09680660  0.41433919  1.0
  N  N88  1  0.56545060  0.88639717  0.57237006  1.0
  N  N89  1  0.42200768  0.11381408  0.42694478  1.0
  N  N90  1  0.66402071  0.62062388  0.51528006  1.0
  N  N91  1  0.33149858  0.37227130  0.49647515  1.0
  N  N92  1  0.94772628  0.60984009  0.85008966  1.0
  N  N93  1  0.11998679  0.41145877  0.14088695  1.0
  O  O94  1  0.01972197  0.57164978  0.39670391  1.0
  O  O95  1  0.93184488  0.43586883  0.58904409  1.0
  O  O96  1  0.97880608  0.43843569  0.38170206  1.0
  O  O97  1  0.07341112  0.55470470  0.60176187  1.0
  O  O98  1  0.20237923  0.53769434  0.47727839  1.0
  O  O99  1  0.79360574  0.45761131  0.46902532  1.0
  O  O100  1  0.11933800  0.41049043  0.49960108  1.0
  O  O101  1  0.87560311  0.58183613  0.51655091  1.0
