# generated using pymatgen
data_CuH2(C2N)2
_symmetry_space_group_name_H-M   'P 1'
_cell_length_a   32.75892245
_cell_length_b   32.76189636
_cell_length_c   32.79723761
_cell_angle_alpha   109.51840972
_cell_angle_beta   109.39895116
_cell_angle_gamma   109.44554255
_symmetry_Int_Tables_number   1
_chemical_formula_structural   CuH2(C2N)2
_chemical_formula_sum   'Cu12 H24 C48 N24'
_cell_volume   27113.48931870
_cell_formula_units_Z   12
loop_
 _symmetry_equiv_pos_site_id
 _symmetry_equiv_pos_as_xyz
  1  'x, y, z'
loop_
 _atom_site_type_symbol
 _atom_site_label
 _atom_site_symmetry_multiplicity
 _atom_site_fract_x
 _atom_site_fract_y
 _atom_site_fract_z
 _atom_site_occupancy
  Cu  Cu0  1  0.06806129  0.28458042  0.03420583  1.0
  Cu  Cu1  1  0.96573749  0.25036735  0.03490541  1.0
  Cu  Cu2  1  0.96585928  0.21545044  0.93147802  1.0
  Cu  Cu3  1  0.24891663  0.53379418  0.46587360  1.0
  Cu  Cu4  1  0.21560360  0.43074456  0.46520687  1.0
  Cu  Cu5  1  0.28406952  0.53432224  0.56861999  1.0
  Cu  Cu6  1  0.43243381  0.96611719  0.71609992  1.0
  Cu  Cu7  1  0.53473922  0.06905968  0.78497866  1.0
  Cu  Cu8  1  0.53475727  0.96544788  0.74982257  1.0
  Cu  Cu9  1  0.24962699  0.21574476  0.78346618  1.0
  Cu  Cu10  1  0.28417168  0.24963971  0.71507371  1.0
  Cu  Cu11  1  0.21577069  0.28482525  0.75026702  1.0
  H  H12  1  0.14568819  0.34978327  0.15019170  1.0
  H  H13  1  0.00657443  0.30325686  0.15253635  1.0
  H  H14  1  0.00678114  0.20274661  0.85463439  1.0
  H  H15  1  0.14583546  0.29754025  0.99574375  1.0
  H  H16  1  0.84900546  0.19807945  0.99496337  1.0
  H  H17  1  0.84923546  0.15083250  0.85486598  1.0
  H  H18  1  0.19756743  0.49531220  0.34980241  1.0
  H  H19  1  0.15219745  0.35397903  0.34766071  1.0
  H  H20  1  0.34942278  0.65209737  0.64543059  1.0
  H  H21  1  0.29977185  0.65002284  0.50431046  1.0
  H  H22  1  0.20345575  0.35397351  0.50511660  1.0
  H  H23  1  0.29623794  0.49420932  0.64526598  1.0
  H  H24  1  0.35474305  0.00481649  0.70349797  1.0
  H  H25  1  0.49394746  0.14600148  0.79747876  1.0
  H  H26  1  0.49395050  0.84769560  0.69630441  1.0
  H  H27  1  0.35478590  0.84988754  0.65077739  1.0
  H  H28  1  0.65137119  0.14574784  0.84970013  1.0
  H  H29  1  0.65154524  0.00548277  0.80218562  1.0
  H  H30  1  0.30068319  0.15055796  0.79592602  1.0
  H  H31  1  0.34908910  0.19681759  0.70304831  1.0
  H  H32  1  0.15199984  0.29801093  0.80429303  1.0
  H  H33  1  0.19856596  0.20322792  0.84864802  1.0
  H  H34  1  0.29618824  0.30157383  0.65036533  1.0
  H  H35  1  0.20346199  0.34925091  0.69798648  1.0
  C  C36  1  0.10715362  0.33392351  0.14181221  1.0
  C  C37  1  0.08805112  0.33833481  0.17473928  1.0
  C  C38  1  0.03585893  0.31000952  0.14288576  1.0
  C  C39  1  0.03604214  0.22584042  0.89348748  1.0
  C  C40  1  0.08824228  0.25018852  0.91370870  1.0
  C  C41  1  0.10731327  0.27433540  0.96567403  1.0
  C  C42  1  0.85805841  0.19108127  0.96526975  1.0
  C  C43  1  0.82568043  0.16272817  0.91320393  1.0
  C  C44  1  0.85817201  0.16684121  0.89354968  1.0
  C  C45  1  0.19090714  0.46521304  0.35826098  1.0
  C  C46  1  0.16346839  0.41319236  0.32538558  1.0
  C  C47  1  0.16768227  0.39289207  0.35727391  1.0
  C  C48  1  0.33279000  0.64250632  0.60657867  1.0
  C  C49  1  0.33626573  0.67448489  0.58635832  1.0
  C  C50  1  0.30740880  0.64158437  0.53439203  1.0
  C  C51  1  0.22612560  0.39270891  0.53482244  1.0
  C  C52  1  0.24983178  0.41237239  0.58688458  1.0
  C  C53  1  0.27359354  0.46451568  0.60655785  1.0
  C  C54  1  0.39331000  0.03485563  0.72650276  1.0
  C  C55  1  0.41245076  0.08690366  0.75043979  1.0
  C  C56  1  0.46463911  0.10710518  0.77458842  1.0
  C  C57  1  0.46464399  0.85731132  0.68982790  1.0
  C  C58  1  0.41245158  0.82537184  0.66161860  1.0
  C  C59  1  0.39333224  0.85831778  0.66642421  1.0
  C  C60  1  0.64240448  0.10700815  0.83359396  1.0
  C  C61  1  0.67487362  0.08732679  0.83768027  1.0
  C  C62  1  0.64247307  0.03519048  0.80923114  1.0
  C  C63  1  0.30801815  0.16632824  0.77316130  1.0
  C  C64  1  0.33649927  0.16186894  0.74959187  1.0
  C  C65  1  0.33278223  0.19011100  0.72564405  1.0
  C  C66  1  0.16778300  0.27486716  0.81043263  1.0
  C  C67  1  0.16382196  0.25064941  0.83841108  1.0
  C  C68  1  0.19160810  0.22637948  0.83325246  1.0
  C  C69  1  0.27355538  0.30870873  0.66648289  1.0
  C  C70  1  0.24980264  0.33711007  0.66243388  1.0
  C  C71  1  0.22612297  0.33314989  0.69089997  1.0
  C  C72  1  0.13751977  0.38734997  0.27284102  1.0
  C  C73  1  0.11473546  0.36470316  0.22728351  1.0
  C  C74  1  0.36278459  0.13551052  0.74994231  1.0
  C  C75  1  0.38573223  0.11282290  0.75016024  1.0
  C  C76  1  0.13780742  0.25054961  0.86502131  1.0
  C  C77  1  0.11496758  0.25042247  0.88780803  1.0
  C  C78  1  0.38570315  0.77273567  0.63506878  1.0
  C  C79  1  0.36264337  0.72711930  0.61226431  1.0
  C  C80  1  0.72748498  0.11364099  0.86405338  1.0
  C  C81  1  0.77307296  0.13641833  0.88689910  1.0
  C  C82  1  0.24978494  0.38607876  0.61320252  1.0
  C  C83  1  0.24976984  0.36334562  0.63605617  1.0
  N  N84  1  0.02502712  0.29041383  0.09495978  1.0
  N  N85  1  0.06922441  0.30528231  0.09433860  1.0
  N  N86  1  0.06935862  0.26495694  0.97529312  1.0
  N  N87  1  0.02518073  0.23493372  0.93058811  1.0
  N  N88  1  0.90590257  0.19533320  0.93104411  1.0
  N  N89  1  0.90583378  0.21038357  0.97550323  1.0
  N  N90  1  0.19537009  0.43000726  0.40517575  1.0
  N  N91  1  0.20977349  0.47479712  0.40575111  1.0
  N  N92  1  0.28843559  0.59401544  0.52478208  1.0
  N  N93  1  0.30416713  0.59454166  0.56948744  1.0
  N  N94  1  0.26459909  0.47478771  0.56908348  1.0
  N  N95  1  0.23520077  0.43026881  0.52461520  1.0
  N  N96  1  0.47543065  0.06991663  0.76557817  1.0
  N  N97  1  0.43121383  0.02516258  0.73580609  1.0
  N  N98  1  0.43124213  0.90587201  0.69516456  1.0
  N  N99  1  0.47545200  0.90529019  0.70972096  1.0
  N  N100  1  0.59469986  0.02494312  0.78988935  1.0
  N  N101  1  0.59466476  0.06946940  0.80502985  1.0
  N  N102  1  0.30437827  0.20969265  0.73441163  1.0
  N  N103  1  0.28903059  0.19491673  0.76383014  1.0
  N  N104  1  0.21043188  0.23556668  0.80451774  1.0
  N  N105  1  0.19566242  0.26558520  0.79032866  1.0
  N  N106  1  0.23521811  0.30471355  0.71022172  1.0
  N  N107  1  0.26459096  0.28953826  0.69505446  1.0
