# generated using pymatgen
data_Al2H18C19O11
_symmetry_space_group_name_H-M   'P 1'
_cell_length_a   6.66820131
_cell_length_b   14.40927262
_cell_length_c   16.66860983
_cell_angle_alpha   84.50136911
_cell_angle_beta   89.99969872
_cell_angle_gamma   89.99967500
_symmetry_Int_Tables_number   1
_chemical_formula_structural   Al2H18C19O11
_chemical_formula_sum   'Al4 H36 C38 O22'
_cell_volume   1594.21583486
_cell_formula_units_Z   2
loop_
 _symmetry_equiv_pos_site_id
 _symmetry_equiv_pos_as_xyz
  1  'x, y, z'
loop_
 _atom_site_type_symbol
 _atom_site_label
 _atom_site_symmetry_multiplicity
 _atom_site_fract_x
 _atom_site_fract_y
 _atom_site_fract_z
 _atom_site_occupancy
  Al  Al0  1  0.87297038  0.50069151  0.49976973  1.0
  Al  Al1  1  0.37297048  0.49930544  0.50022611  1.0
  Al  Al2  1  0.38860802  0.00381116  0.00147557  1.0
  Al  Al3  1  0.88860664  0.99618324  0.99851784  1.0
  H  H4  1  0.03346187  0.10071213  0.72669898  1.0
  H  H5  1  0.53333482  0.89927738  0.27328250  1.0
  H  H6  1  0.09891436  0.20110679  0.61304186  1.0
  H  H7  1  0.59877820  0.79890558  0.38695201  1.0
  H  H8  1  0.34557121  0.22540606  0.64428240  1.0
  H  H9  1  0.84547328  0.77462747  0.35573617  1.0
  H  H10  1  0.44076658  0.23213907  0.82364211  1.0
  H  H11  1  0.94080156  0.76790079  0.17639371  1.0
  H  H12  1  0.42245418  0.34967852  0.71945442  1.0
  H  H13  1  0.92249689  0.65036864  0.28059163  1.0
  H  H14  1  0.81097035  0.18092304  0.80162273  1.0
  H  H15  1  0.31094605  0.81903744  0.19833789  1.0
  H  H16  1  0.80827108  0.27933489  0.68355135  1.0
  H  H17  1  0.30822108  0.72063166  0.31641105  1.0
  H  H18  1  0.85411151  0.37324898  0.74034037  1.0
  H  H19  1  0.35417601  0.62672160  0.25963577  1.0
  H  H20  1  0.27513791  0.29462995  0.88035041  1.0
  H  H21  1  0.77527496  0.70537912  0.11967144  1.0
  H  H22  1  0.48827992  0.11248126  0.75264069  1.0
  H  H23  1  0.33141049  0.01597187  0.78290536  1.0
  H  H24  1  0.36920524  0.05064576  0.67878935  1.0
  H  H25  1  0.98818337  0.88757538  0.24737266  1.0
  H  H26  1  0.83123204  0.98405712  0.21709037  1.0
  H  H27  1  0.86900790  0.94939983  0.32121285  1.0
  H  H28  1  0.09401054  0.44038295  0.81534535  1.0
  H  H29  1  0.35513776  0.45831604  0.82240308  1.0
  H  H30  1  0.22827931  0.49501036  0.73125098  1.0
  H  H31  1  0.59419371  0.55961077  0.18466792  1.0
  H  H32  1  0.85533776  0.54171699  0.17763355  1.0
  H  H33  1  0.72844713  0.50500102  0.26877637  1.0
  H  H34  1  0.71248662  0.32514685  0.86686702  1.0
  H  H35  1  0.21260310  0.67479900  0.13308304  1.0
  H  H36  1  0.62431953  0.38150910  0.48398808  1.0
  H  H37  1  0.12432080  0.61846661  0.51606437  1.0
  H  H38  1  0.65007498  0.12061961  0.00911536  1.0
  H  H39  1  0.15008149  0.87937383  0.99087250  1.0
  C  C40  1  0.62203310  0.61633126  0.38543438  1.0
  C  C41  1  0.12207678  0.38367369  0.61457033  1.0
  C  C42  1  0.62267209  0.60441961  0.60592758  1.0
  C  C43  1  0.12263151  0.39557567  0.39406996  1.0
  C  C44  1  0.12203398  0.33497945  0.33019721  1.0
  C  C45  1  0.62202941  0.66501565  0.66980876  1.0
  C  C46  1  0.12179624  0.28262731  0.27660493  1.0
  C  C47  1  0.62177826  0.71736032  0.72338603  1.0
  C  C48  1  0.12292326  0.22442376  0.21783450  1.0
  C  C49  1  0.62290972  0.77557284  0.78215701  1.0
  C  C50  1  0.12507447  0.17144193  0.16478784  1.0
  C  C51  1  0.62507751  0.82855952  0.83520363  1.0
  C  C52  1  0.16898683  0.14225381  0.73576739  1.0
  C  C53  1  0.66888596  0.85775445  0.26423782  1.0
  C  C54  1  0.18864125  0.21941548  0.66468124  1.0
  C  C55  1  0.68854350  0.78060352  0.33532025  1.0
  C  C56  1  0.29323182  0.26585896  0.82212799  1.0
  C  C57  1  0.79328973  0.73416263  0.17789316  1.0
  C  C58  1  0.92310214  0.23684645  0.80544687  1.0
  C  C59  1  0.42312664  0.76312669  0.19452310  1.0
  C  C60  1  0.13168357  0.19079630  0.81461855  1.0
  C  C61  1  0.63169387  0.80919744  0.18537356  1.0
  C  C62  1  0.12230770  0.31532588  0.68993140  1.0
  C  C63  1  0.62227757  0.68467982  0.31007270  1.0
  C  C64  1  0.27862811  0.34442987  0.75189053  1.0
  C  C65  1  0.77868917  0.65558910  0.24813608  1.0
  C  C66  1  0.91232716  0.30479133  0.72749980  1.0
  C  C67  1  0.41233058  0.69517901  0.27248406  1.0
  C  C68  1  0.63286589  0.89133547  0.89760170  1.0
  C  C69  1  0.13287201  0.10866376  0.10239097  1.0
  C  C70  1  0.63485062  0.88234349  0.11322807  1.0
  C  C71  1  0.13485537  0.11764746  0.88676405  1.0
  C  C72  1  0.34921278  0.07642987  0.73826508  1.0
  C  C73  1  0.84906305  0.92360306  0.26173904  1.0
  C  C74  1  0.23548820  0.43974424  0.78146039  1.0
  C  C75  1  0.73564542  0.56027090  0.21856392  1.0
  C  C76  1  0.85401825  0.28385070  0.87785979  1.0
  C  C77  1  0.35410732  0.71612132  0.12210911  1.0
  O  O78  1  0.45208069  0.58033245  0.58065379  1.0
  O  O79  1  0.95202876  0.41974946  0.41926371  1.0
  O  O80  1  0.79233387  0.59236620  0.41534679  1.0
  O  O81  1  0.29240310  0.40771006  0.58472284  1.0
  O  O82  1  0.79363156  0.58138654  0.58037591  1.0
  O  O83  1  0.29356784  0.41851707  0.41970554  1.0
  O  O84  1  0.95293053  0.40959036  0.58501527  1.0
  O  O85  1  0.45286603  0.59033552  0.41492118  1.0
  O  O86  1  0.62350618  0.44360853  0.50167626  1.0
  O  O87  1  0.12349803  0.55638966  0.49832668  1.0
  O  O88  1  0.80480955  0.90359832  0.08183667  1.0
  O  O89  1  0.30480669  0.09639316  0.91815993  1.0
  O  O90  1  0.46559854  0.91931505  0.92280828  1.0
  O  O91  1  0.96559918  0.08068291  0.07718255  1.0
  O  O92  1  0.46799592  0.91901796  0.09103229  1.0
  O  O93  1  0.96799769  0.08097253  0.90895677  1.0
  O  O94  1  0.30696723  0.08738488  0.07925754  1.0
  O  O95  1  0.80696951  0.91260930  0.92073302  1.0
  O  O96  1  0.64176388  0.05672994  0.99570102  1.0
  O  O97  1  0.14177042  0.94326315  0.00429047  1.0
  O  O98  1  0.93508918  0.27921515  0.94377345  1.0
  O  O99  1  0.43520005  0.72078253  0.05620057  1.0
