# generated using pymatgen
data_ZnH11C17NO4
_symmetry_space_group_name_H-M   'P 1'
_cell_length_a   13.97746025
_cell_length_b   14.78607965
_cell_length_c   16.19446518
_cell_angle_alpha   90.16255833
_cell_angle_beta   90.12644511
_cell_angle_gamma   82.09075739
_symmetry_Int_Tables_number   1
_chemical_formula_structural   ZnH11C17NO4
_chemical_formula_sum   'Zn2 H22 C34 N2 O8'
_cell_volume   3315.08250130
_cell_formula_units_Z   2
loop_
 _symmetry_equiv_pos_site_id
 _symmetry_equiv_pos_as_xyz
  1  'x, y, z'
loop_
 _atom_site_type_symbol
 _atom_site_label
 _atom_site_symmetry_multiplicity
 _atom_site_fract_x
 _atom_site_fract_y
 _atom_site_fract_z
 _atom_site_occupancy
  Zn  Zn0  1  0.50088189  0.40450965  0.49966196  1.0
  Zn  Zn1  1  0.49911683  0.59549494  0.50036335  1.0
  H  H2  1  0.02774990  0.39523192  0.49968500  1.0
  H  H3  1  0.43855085  0.15544731  0.81642186  1.0
  H  H4  1  0.50524298  0.06311905  0.87060824  1.0
  H  H5  1  0.44093048  0.00641681  0.73883305  1.0
  H  H6  1  0.56851471  0.99263107  0.73748636  1.0
  H  H7  1  0.56274507  0.13930221  0.65704705  1.0
  H  H8  1  0.43668568  0.15308497  0.65862720  1.0
  H  H9  1  0.56160103  0.84440768  0.18358586  1.0
  H  H10  1  0.43344751  0.85892665  0.18475934  1.0
  H  H11  1  0.49511215  0.93681734  0.12936038  1.0
  H  H12  1  0.43184313  0.00743428  0.26241718  1.0
  H  H13  1  0.97225378  0.60467030  0.50034619  1.0
  H  H14  1  0.55943028  0.99341786  0.26117294  1.0
  H  H15  1  0.56329655  0.84681192  0.34139839  1.0
  H  H16  1  0.43723124  0.86081105  0.34288098  1.0
  H  H17  1  0.50913052  0.35302011  0.92316009  1.0
  H  H18  1  0.49090298  0.64703272  0.07686106  1.0
  H  H19  1  0.50842351  0.91301989  0.63145670  1.0
  H  H20  1  0.49168925  0.08698203  0.36850448  1.0
  H  H21  1  0.50917751  0.35365171  0.07712223  1.0
  H  H22  1  0.49085936  0.64640247  0.92289214  1.0
  H  H23  1  0.56669170  0.14115223  0.81516689  1.0
  C  C24  1  0.50017364  0.49857630  0.66098139  1.0
  C  C25  1  0.50478126  0.95284861  0.57484093  1.0
  C  C26  1  0.49267793  0.18941418  0.50005926  1.0
  C  C27  1  0.50736577  0.81057517  0.49991973  1.0
  C  C28  1  0.68801750  0.46841813  0.49995815  1.0
  C  C29  1  0.31197690  0.53155579  0.50006459  1.0
  C  C30  1  0.20767281  0.54037437  0.50002642  1.0
  C  C31  1  0.79231863  0.45957978  0.49999997  1.0
  C  C32  1  0.02005718  0.53954772  0.50010179  1.0
  C  C33  1  0.97994910  0.46036676  0.49994240  1.0
  C  C34  1  0.87976310  0.45899395  0.49992775  1.0
  C  C35  1  0.49982167  0.50145287  0.33904892  1.0
  C  C36  1  0.12023533  0.54093560  0.50009734  1.0
  C  C37  1  0.50519267  0.41739172  0.04288317  1.0
  C  C38  1  0.49484016  0.58266589  0.95713614  1.0
  C  C39  1  0.49996924  0.50039093  0.08712451  1.0
  C  C40  1  0.50004740  0.49966472  0.91289540  1.0
  C  C41  1  0.49484755  0.58299704  0.04273322  1.0
  C  C42  1  0.50517921  0.41705788  0.95728670  1.0
  C  C43  1  0.49992195  0.50077145  0.17451414  1.0
  C  C44  1  0.50008295  0.49927609  0.82551191  1.0
  C  C45  1  0.50080396  0.10033272  0.65785972  1.0
  C  C46  1  0.50008606  0.49881750  0.75026074  1.0
  C  C47  1  0.50359970  0.04424322  0.73712297  1.0
  C  C48  1  0.50351315  0.10426974  0.81411535  1.0
  C  C49  1  0.49926752  0.89966261  0.34211190  1.0
  C  C50  1  0.49667166  0.95571412  0.26283513  1.0
  C  C51  1  0.49671500  0.89568443  0.18584333  1.0
  C  C52  1  0.49990448  0.50122534  0.24977023  1.0
  C  C53  1  0.50051072  0.04745916  0.57817449  1.0
  C  C54  1  0.49956801  0.95253545  0.42179158  1.0
  C  C55  1  0.49590591  0.09304306  0.50121573  1.0
  C  C56  1  0.50417439  0.90695564  0.49874912  1.0
  C  C57  1  0.49532039  0.04715610  0.42512704  1.0
  N  N58  1  0.50908951  0.73190624  0.50094530  1.0
  N  N59  1  0.49094347  0.26809340  0.49904359  1.0
  O  O60  1  0.50227832  0.42098795  0.62603144  1.0
  O  O61  1  0.49779001  0.57903056  0.37399273  1.0
  O  O62  1  0.49825570  0.57593533  0.62609149  1.0
  O  O63  1  0.50166790  0.42409494  0.37393197  1.0
  O  O64  1  0.64925170  0.39532128  0.49999354  1.0
  O  O65  1  0.35074062  0.60464654  0.49997546  1.0
  O  O66  1  0.64505235  0.55027185  0.49984102  1.0
  O  O67  1  0.35494657  0.44969587  0.50023605  1.0
