# generated using pymatgen
data_Zn4H10C32O13F4
_symmetry_space_group_name_H-M   'P 1'
_cell_length_a   16.10045307
_cell_length_b   16.10575171
_cell_length_c   19.63139000
_cell_angle_alpha   84.28987275
_cell_angle_beta   88.90447305
_cell_angle_gamma   83.60030472
_symmetry_Int_Tables_number   1
_chemical_formula_structural   Zn4H10C32O13F4
_chemical_formula_sum   'Zn4 H10 C32 O13 F4'
_cell_volume   5033.62349852
_cell_formula_units_Z   1
loop_
 _symmetry_equiv_pos_site_id
 _symmetry_equiv_pos_as_xyz
  1  'x, y, z'
loop_
 _atom_site_type_symbol
 _atom_site_label
 _atom_site_symmetry_multiplicity
 _atom_site_fract_x
 _atom_site_fract_y
 _atom_site_fract_z
 _atom_site_occupancy
  Zn  Zn0  1  0.43091817  0.57235325  0.55889009  1.0
  Zn  Zn1  1  0.56521253  0.57024136  0.43501529  1.0
  Zn  Zn2  1  0.43063504  0.43758241  0.44815347  1.0
  Zn  Zn3  1  0.57793997  0.42253408  0.56013000  1.0
  H  H4  1  0.41363596  0.58645469  0.76692756  1.0
  H  H5  1  0.40912951  0.57609130  0.89396576  1.0
  H  H6  1  0.50696649  0.65286036  0.09791421  1.0
  H  H7  1  0.43176864  0.01854278  0.44275278  1.0
  H  H8  1  0.47251892  0.59147720  0.99341060  1.0
  H  H9  1  0.45755512  0.39198582  0.11116544  1.0
  H  H10  1  0.60011895  0.37305576  0.77363671  1.0
  H  H11  1  0.52445501  0.40088312  0.00725772  1.0
  H  H12  1  0.01347206  0.43397334  0.44838483  1.0
  H  H13  1  0.59557441  0.36122739  0.90112573  1.0
  C  C14  1  0.72568411  0.48806304  0.49128586  1.0
  C  C15  1  0.50402291  0.46295065  0.98139900  1.0
  C  C16  1  0.48503337  0.52814022  0.01944889  1.0
  C  C17  1  0.27682743  0.51219385  0.51275003  1.0
  C  C18  1  0.48681638  0.51437630  0.23980784  1.0
  C  C19  1  0.81563813  0.48246951  0.48710833  1.0
  C  C20  1  0.97885484  0.47578965  0.48202422  1.0
  C  C21  1  0.02402136  0.52151981  0.51913177  1.0
  C  C22  1  0.11116985  0.51925423  0.51772530  1.0
  C  C23  1  0.89168381  0.47953719  0.48484829  1.0
  C  C24  1  0.18713603  0.51687200  0.51640836  1.0
  C  C25  1  0.50389276  0.46929554  0.90677287  1.0
  C  C26  1  0.48219568  0.81679235  0.48245959  1.0
  C  C27  1  0.47532135  0.98038612  0.47818768  1.0
  C  C28  1  0.52267186  0.02186304  0.51707530  1.0
  C  C29  1  0.48708358  0.72647081  0.48679367  1.0
  C  C30  1  0.52011454  0.10923584  0.51488028  1.0
  C  C31  1  0.47940800  0.89297131  0.48089838  1.0
  C  C32  1  0.51753796  0.18542288  0.51248485  1.0
  C  C33  1  0.51317998  0.27545619  0.50898224  1.0
  C  C34  1  0.48997360  0.50998552  0.31599692  1.0
  C  C35  1  0.50916071  0.48792880  0.68633412  1.0
  C  C36  1  0.55601255  0.41108791  0.87171656  1.0
  C  C37  1  0.50795578  0.48118819  0.76254539  1.0
  C  C38  1  0.45422520  0.53829306  0.79690991  1.0
  C  C39  1  0.45245060  0.53254602  0.86787950  1.0
  C  C40  1  0.55888151  0.41739777  0.80059076  1.0
  C  C41  1  0.47071508  0.44775687  0.13430606  1.0
  C  C42  1  0.47153838  0.44547166  0.20493466  1.0
  C  C43  1  0.49951539  0.58787096  0.19786753  1.0
  C  C44  1  0.49721686  0.59350704  0.12706026  1.0
  C  C45  1  0.48424733  0.52242127  0.09405824  1.0
  O  O46  1  0.50145383  0.50038953  0.50034270  1.0
  O  O47  1  0.54720539  0.54638622  0.34076271  1.0
  O  O48  1  0.56173222  0.43674716  0.65740520  1.0
  O  O49  1  0.43571575  0.47017728  0.34937073  1.0
  O  O50  1  0.45722786  0.54463806  0.65565762  1.0
  O  O51  1  0.44450497  0.69190660  0.53480509  1.0
  O  O52  1  0.56115773  0.30502075  0.54913588  1.0
  O  O53  1  0.68616198  0.54608138  0.45166908  1.0
  O  O54  1  0.31212328  0.45912789  0.47425578  1.0
  O  O55  1  0.69533327  0.43468878  0.53432376  1.0
  O  O56  1  0.31123589  0.56110398  0.54798378  1.0
  O  O57  1  0.53359567  0.69076815  0.44250097  1.0
  O  O58  1  0.46144390  0.31582174  0.46585103  1.0
  F  F59  1  0.98346600  0.57464241  0.56187522  1.0
  F  F60  1  0.57811884  0.97723026  0.56219638  1.0
  F  F61  1  0.45868583  0.37214726  0.24177567  1.0
  F  F62  1  0.51214051  0.65790138  0.22750302  1.0
