# generated using pymatgen
data_Zr3H5C24S6O16F3
_symmetry_space_group_name_H-M   'P 1'
_cell_length_a   16.48472874
_cell_length_b   16.48453573
_cell_length_c   16.48425876
_cell_angle_alpha   90.00271542
_cell_angle_beta   119.99912000
_cell_angle_gamma   119.99956549
_symmetry_Int_Tables_number   1
_chemical_formula_structural   Zr3H5C24S6O16F3
_chemical_formula_sum   'Zr6 H10 C48 S12 O32 F6'
_cell_volume   3167.46108342
_cell_formula_units_Z   2
loop_
 _symmetry_equiv_pos_site_id
 _symmetry_equiv_pos_as_xyz
  1  'x, y, z'
loop_
 _atom_site_type_symbol
 _atom_site_label
 _atom_site_symmetry_multiplicity
 _atom_site_fract_x
 _atom_site_fract_y
 _atom_site_fract_z
 _atom_site_occupancy
  Zr  Zr0  1  0.78495094  0.89240463  0.39253598  1.0
  Zr  Zr1  1  0.21459408  0.10724095  0.60736852  1.0
  Zr  Zr2  1  0.00001990  0.10750007  0.39259581  1.0
  Zr  Zr3  1  0.00001222  0.89261351  0.60731732  1.0
  Zr  Zr4  1  0.99924753  0.10716931  0.60692121  1.0
  Zr  Zr5  1  0.99917419  0.89230223  0.39203086  1.0
  H  H6  1  0.83049707  0.08407856  0.41532131  1.0
  H  H7  1  0.16830343  0.08406937  0.75313458  1.0
  H  H8  1  0.16840065  0.08408086  0.41545493  1.0
  H  H9  1  0.83058835  0.74623627  0.41540955  1.0
  H  H10  1  0.73690062  0.12709444  0.62837886  1.0
  H  H11  1  0.73690041  0.60974832  0.10856831  1.0
  H  H12  1  0.99878434  0.87134023  0.89002156  1.0
  H  H13  1  0.00119337  0.60997429  0.62864065  1.0
  H  H14  1  0.48115526  0.87120388  0.10876672  1.0
  H  H15  1  0.48133791  0.60981639  0.37275600  1.0
  C  C16  1  0.72697087  0.99767031  0.50200763  1.0
  C  C17  1  0.26996684  0.27395976  0.76974077  1.0
  C  C18  1  0.26997512  0.99591658  0.50032600  1.0
  C  C19  1  0.72699179  0.72919773  0.22507679  1.0
  C  C20  1  0.72672328  0.99724756  0.22528557  1.0
  C  C21  1  0.72712989  0.72938496  0.50198284  1.0
  C  C22  1  0.27320877  0.99895991  0.76994394  1.0
  C  C23  1  0.27362695  0.27412802  0.50377144  1.0
  C  C24  1  0.00375018  0.27404574  0.50049915  1.0
  C  C25  1  0.99519185  0.99903944  0.22545419  1.0
  C  C26  1  0.00367522  0.72926771  0.50214452  1.0
  C  C27  1  0.99524983  0.99722869  0.77017699  1.0
  C  C28  1  0.34616228  0.93204449  0.43298651  1.0
  C  C29  1  0.65240432  0.06515184  0.56624711  1.0
  C  C30  1  0.35859482  0.99682751  0.49908765  1.0
  C  C31  1  0.63731592  0.99812830  0.50045807  1.0
  C  C32  1  0.54563815  0.04086213  0.54103580  1.0
  C  C33  1  0.45172279  0.95578045  0.45586804  1.0
  C  C34  1  0.34616827  0.41414679  0.91315906  1.0
  C  C35  1  0.65241036  0.58724069  0.08616541  1.0
  C  C36  1  0.35858594  0.36174184  0.85952851  1.0
  C  C37  1  0.63733670  0.63915545  0.13689874  1.0
  C  C38  1  0.54563433  0.50477990  0.00459376  1.0
  C  C39  1  0.45173393  0.49597331  0.99584135  1.0
  C  C40  1  0.99911065  0.06673434  0.08569193  1.0
  C  C41  1  0.99900611  0.93348191  0.91257627  1.0
  C  C42  1  0.99776158  0.00056693  0.13800076  1.0
  C  C43  1  0.99762163  0.99915197  0.86051714  1.0
  C  C44  1  0.99990988  0.95873414  0.99499969  1.0
  C  C45  1  0.99994265  0.04386718  0.00380444  1.0
  C  C46  1  0.00097179  0.41434836  0.43331221  1.0
  C  C47  1  0.00105415  0.58746157  0.56654124  1.0
  C  C48  1  0.00208732  0.36194290  0.49937302  1.0
  C  C49  1  0.00219417  0.63937693  0.50073739  1.0
  C  C50  1  0.00023138  0.50508307  0.54133245  1.0
  C  C51  1  0.00019567  0.49626101  0.45619767  1.0
  C  C52  1  0.48077266  0.06650356  0.91332179  1.0
  C  C53  1  0.52067003  0.93328888  0.08635774  1.0
  C  C54  1  0.36228421  0.00038561  0.85973463  1.0
  C  C55  1  0.63838157  0.99903469  0.13708023  1.0
  C  C56  1  0.46360103  0.95857018  0.00486694  1.0
  C  C57  1  0.53990324  0.04369686  0.99607033  1.0
  C  C58  1  0.48109485  0.41420584  0.56783542  1.0
  C  C59  1  0.52093556  0.58730004  0.43469941  1.0
  C  C60  1  0.36263329  0.36187094  0.50298292  1.0
  C  C61  1  0.63865898  0.63929625  0.50166527  1.0
  C  C62  1  0.46370331  0.50486134  0.45902490  1.0
  C  C63  1  0.54004324  0.49605642  0.54410493  1.0
  S  S64  1  0.50246877  0.08944501  0.59093378  1.0
  S  S65  1  0.49416039  0.90563726  0.40710087  1.0
  S  S66  1  0.50244564  0.41296244  0.91157344  1.0
  S  S67  1  0.49419764  0.58852381  0.08710171  1.0
  S  S68  1  0.99876442  0.90887736  0.08679436  1.0
  S  S69  1  0.99863096  0.09261852  0.91119156  1.0
  S  S70  1  0.00150947  0.41336886  0.59127244  1.0
  S  S71  1  0.00156210  0.58888439  0.40746237  1.0
  S  S72  1  0.32194441  0.90864602  0.91194252  1.0
  S  S73  1  0.68127648  0.09241587  0.08739110  1.0
  S  S74  1  0.32205815  0.41310592  0.41035872  1.0
  S  S75  1  0.68138194  0.58865594  0.59417795  1.0
  O  O76  1  0.69261604  0.92811490  0.43274238  1.0
  O  O77  1  0.30539343  0.23959785  0.73546618  1.0
  O  O78  1  0.30539270  0.06553589  0.57019130  1.0
  O  O79  1  0.69262713  0.76421729  0.26015301  1.0
  O  O80  1  0.83108623  0.06645753  0.26037560  1.0
  O  O81  1  0.83160647  0.76452447  0.57140089  1.0
  O  O82  1  0.16900166  0.92897943  0.73553441  1.0
  O  O83  1  0.16955785  0.23987519  0.43407112  1.0
  O  O84  1  0.00303891  0.23939658  0.56998244  1.0
  O  O85  1  0.99423020  0.92875448  0.25933665  1.0
  O  O86  1  0.00300332  0.76396355  0.43246605  1.0
  O  O87  1  0.99429082  0.06606263  0.73459658  1.0
  O  O88  1  0.99539945  0.06791726  0.26125249  1.0
  O  O89  1  0.00407791  0.76428636  0.57160886  1.0
  O  O90  1  0.99572153  0.92818595  0.73564778  1.0
  O  O91  1  0.00443448  0.23863761  0.43208837  1.0
  O  O92  1  0.69208345  0.92789486  0.25997018  1.0
  O  O93  1  0.30669066  0.23849066  0.57265636  1.0
  O  O94  1  0.30613959  0.06756568  0.73406159  1.0
  O  O95  1  0.69266733  0.76416929  0.43275006  1.0
  O  O96  1  0.83101256  0.76410245  0.25983346  1.0
  O  O97  1  0.83099276  0.06691499  0.57115089  1.0
  O  O98  1  0.16543532  0.23843433  0.73389057  1.0
  O  O99  1  0.16544619  0.92702221  0.43153175  1.0
  O  O100  1  0.87852964  0.81827130  0.43936331  1.0
  O  O101  1  0.12028662  0.06002200  0.43937607  1.0
  O  O102  1  0.12011536  0.05998820  0.68109778  1.0
  O  O103  1  0.87834056  0.05988970  0.43926379  1.0
  O  O104  1  0.08843349  0.13308934  0.54442548  1.0
  O  O105  1  0.91020694  0.95491425  0.54445723  1.0
  O  O106  1  0.08830755  0.95493365  0.54412753  1.0
  O  O107  1  0.91010074  0.95506075  0.36605624  1.0
  F  F108  1  0.24486881  0.85390835  0.35465750  1.0
  F  F109  1  0.24487897  0.39100074  0.89018016  1.0
  F  F110  1  0.99916527  0.14491302  0.10887316  1.0
  F  F111  1  0.00077220  0.39109228  0.35506340  1.0
  F  F112  1  0.53573522  0.14469423  0.89020884  1.0
  F  F113  1  0.53622287  0.39104535  0.64595205  1.0
