# generated using pymatgen
data_CoH8(C3N)4
_symmetry_space_group_name_H-M   'P 1'
_cell_length_a   13.31312799
_cell_length_b   13.89691481
_cell_length_c   26.50027619
_cell_angle_alpha   89.99996498
_cell_angle_beta   101.67590286
_cell_angle_gamma   90.00000181
_symmetry_Int_Tables_number   1
_chemical_formula_structural   CoH8(C3N)4
_chemical_formula_sum   'Co8 H64 C96 N32'
_cell_volume   4801.40355823
_cell_formula_units_Z   8
loop_
 _symmetry_equiv_pos_site_id
 _symmetry_equiv_pos_as_xyz
  1  'x, y, z'
loop_
 _atom_site_type_symbol
 _atom_site_label
 _atom_site_symmetry_multiplicity
 _atom_site_fract_x
 _atom_site_fract_y
 _atom_site_fract_z
 _atom_site_occupancy
  Co  Co0  1  0.98299560  0.13276863  0.73150693  1.0
  Co  Co1  1  0.01700526  0.63276878  0.76849367  1.0
  Co  Co2  1  0.01700336  0.86723262  0.26849323  1.0
  Co  Co3  1  0.98299601  0.36723103  0.23150709  1.0
  Co  Co4  1  0.98972136  0.88591491  0.75591806  1.0
  Co  Co5  1  0.01027794  0.38591544  0.74408193  1.0
  Co  Co6  1  0.01027683  0.11408489  0.24408164  1.0
  Co  Co7  1  0.98972179  0.61408509  0.25591793  1.0
  H  H8  1  0.73546463  0.15359125  0.70322014  1.0
  H  H9  1  0.26453546  0.65359137  0.79678038  1.0
  H  H10  1  0.26453509  0.84640856  0.29678009  1.0
  H  H11  1  0.73546504  0.34640843  0.20321994  1.0
  H  H12  1  0.76268953  0.86770295  0.76994611  1.0
  H  H13  1  0.23730977  0.36770277  0.73005426  1.0
  H  H14  1  0.23731019  0.13229686  0.23005412  1.0
  H  H15  1  0.76268996  0.63229703  0.26994598  1.0
  H  H16  1  0.20210908  0.14711930  0.70364751  1.0
  H  H17  1  0.79789101  0.64712016  0.79635150  1.0
  H  H18  1  0.79789065  0.85287979  0.29635197  1.0
  H  H19  1  0.20210948  0.35287893  0.20364881  1.0
  H  H20  1  0.23360877  0.86328253  0.77298239  1.0
  H  H21  1  0.76639130  0.36328238  0.72701768  1.0
  H  H22  1  0.76639019  0.13671727  0.22701777  1.0
  H  H23  1  0.23360843  0.63671743  0.27298218  1.0
  H  H24  1  0.37274540  0.14170012  0.69604842  1.0
  H  H25  1  0.62725392  0.64170096  0.80395014  1.0
  H  H26  1  0.62725433  0.85829825  0.30395031  1.0
  H  H27  1  0.37274657  0.35829956  0.19604904  1.0
  H  H28  1  0.55624152  0.14433596  0.69580379  1.0
  H  H29  1  0.44375856  0.64433680  0.80419522  1.0
  H  H30  1  0.44375820  0.85566313  0.30419531  1.0
  H  H31  1  0.55624116  0.35566373  0.19580388  1.0
  H  H32  1  0.59231853  0.87085688  0.77441504  1.0
  H  H33  1  0.40768230  0.37085600  0.72558511  1.0
  H  H34  1  0.40768196  0.12914365  0.22558527  1.0
  H  H35  1  0.59231819  0.62914453  0.27441483  1.0
  H  H36  1  0.40931198  0.86892335  0.77530758  1.0
  H  H37  1  0.59068885  0.36892320  0.72469257  1.0
  H  H38  1  0.59068851  0.13107645  0.22469236  1.0
  H  H39  1  0.40931164  0.63107661  0.27530737  1.0
  H  H40  1  0.03199221  0.42736212  0.62805337  1.0
  H  H41  1  0.96800786  0.92736361  0.87194706  1.0
  H  H42  1  0.96800829  0.57263697  0.37194656  1.0
  H  H43  1  0.03199264  0.07263763  0.12805288  1.0
  H  H44  1  0.97924305  0.12031701  0.61348277  1.0
  H  H45  1  0.02075704  0.62031774  0.88651776  1.0
  H  H46  1  0.02075668  0.87968280  0.38651746  1.0
  H  H47  1  0.97924268  0.37968278  0.11348248  1.0
  H  H48  1  0.07554228  0.13008539  0.54524907  1.0
  H  H49  1  0.92445935  0.63008679  0.95475161  1.0
  H  H50  1  0.92445898  0.86991369  0.45475169  1.0
  H  H51  1  0.07554268  0.36991517  0.04524886  1.0
  H  H52  1  0.08355632  0.12359048  0.45371714  1.0
  H  H53  1  0.91644307  0.62359379  0.04628327  1.0
  H  H54  1  0.91644264  0.87640717  0.54628302  1.0
  H  H55  1  0.08355896  0.37640889  0.95371720  1.0
  H  H56  1  0.97626821  0.41679443  0.43519915  1.0
  H  H57  1  0.02373269  0.91679698  0.06480093  1.0
  H  H58  1  0.02373152  0.58320322  0.56480071  1.0
  H  H59  1  0.97626781  0.08320571  0.93519863  1.0
  H  H60  1  0.96721498  0.42277628  0.52666165  1.0
  H  H61  1  0.03278432  0.92277835  0.97333795  1.0
  H  H62  1  0.03278552  0.57722209  0.47333866  1.0
  H  H63  1  0.96721464  0.07722433  0.02666145  1.0
  H  H64  1  0.98305597  0.40991382  0.34752111  1.0
  H  H65  1  0.01694492  0.90991482  0.15247935  1.0
  H  H66  1  0.01694376  0.59008527  0.65247950  1.0
  H  H67  1  0.98305557  0.09008570  0.84752096  1.0
  H  H68  1  0.06521140  0.10824971  0.36555079  1.0
  H  H69  1  0.93478875  0.60825149  0.13444856  1.0
  H  H70  1  0.93478756  0.89174937  0.63444937  1.0
  H  H71  1  0.06521251  0.39174976  0.86555107  1.0
  C  C72  1  0.75865238  0.08342099  0.71950894  1.0
  C  C73  1  0.24134772  0.58342041  0.78049123  1.0
  C  C74  1  0.24134812  0.91657954  0.28049175  1.0
  C  C75  1  0.75865278  0.41657868  0.21950908  1.0
  C  C76  1  0.69986974  0.01012125  0.73607492  1.0
  C  C77  1  0.30012959  0.51012070  0.76392482  1.0
  C  C78  1  0.30012999  0.98987927  0.26392532  1.0
  C  C79  1  0.69987013  0.48987911  0.23607542  1.0
  C  C80  1  0.77276229  0.93826682  0.75412507  1.0
  C  C81  1  0.22723700  0.43826663  0.74587528  1.0
  C  C82  1  0.22723820  0.06173371  0.24587562  1.0
  C  C83  1  0.77276272  0.56173318  0.25412496  1.0
  C  C84  1  0.19357558  0.07751823  0.72088885  1.0
  C  C85  1  0.80642528  0.57751839  0.77911064  1.0
  C  C86  1  0.80642414  0.92248158  0.27911063  1.0
  C  C87  1  0.19357598  0.42248142  0.22088975  1.0
  C  C88  1  0.26666732  0.00510862  0.73755513  1.0
  C  C89  1  0.73333355  0.50510880  0.76244438  1.0
  C  C90  1  0.73333241  0.99489118  0.26244435  1.0
  C  C91  1  0.26666771  0.49489100  0.23755601  1.0
  C  C92  1  0.20981626  0.93336572  0.75676915  1.0
  C  C93  1  0.79018380  0.43336555  0.74323090  1.0
  C  C94  1  0.79018270  0.06663408  0.24323101  1.0
  C  C95  1  0.20981669  0.56663353  0.25676903  1.0
  C  C96  1  0.37573622  0.00549792  0.73613266  1.0
  C  C97  1  0.62426465  0.50549809  0.76386724  1.0
  C  C98  1  0.62426351  0.99450117  0.26386683  1.0
  C  C99  1  0.37573584  0.49450099  0.23613270  1.0
  C  C100  1  0.42049889  0.08209263  0.71377280  1.0
  C  C101  1  0.57950121  0.58209278  0.78622662  1.0
  C  C102  1  0.57950007  0.91790645  0.28622585  1.0
  C  C103  1  0.42049852  0.41790703  0.21377324  1.0
  C  C104  1  0.52478428  0.08353252  0.71354661  1.0
  C  C105  1  0.47521581  0.58353338  0.78645280  1.0
  C  C106  1  0.47521544  0.91646585  0.28645249  1.0
  C  C107  1  0.52478468  0.41646714  0.21354676  1.0
  C  C108  1  0.58995453  0.00827336  0.73547952  1.0
  C  C109  1  0.41004481  0.50827281  0.76452059  1.0
  C  C110  1  0.41004520  0.99172645  0.26452034  1.0
  C  C111  1  0.58995492  0.49172700  0.23547927  1.0
  C  C112  1  0.54490242  0.93106306  0.75721227  1.0
  C  C113  1  0.45509764  0.43106216  0.74278778  1.0
  C  C114  1  0.45509730  0.06893747  0.24278759  1.0
  C  C115  1  0.54490209  0.56893765  0.25721208  1.0
  C  C116  1  0.44073949  0.92981386  0.75762477  1.0
  C  C117  1  0.55926057  0.42981296  0.74237566  1.0
  C  C118  1  0.55925947  0.07018595  0.24237501  1.0
  C  C119  1  0.44073992  0.57018684  0.25762466  1.0
  C  C120  1  0.01613877  0.35159781  0.63267091  1.0
  C  C121  1  0.98386054  0.85159860  0.86732947  1.0
  C  C122  1  0.98386096  0.64840199  0.36732895  1.0
  C  C123  1  0.01614072  0.14840265  0.13267092  1.0
  C  C124  1  0.00952185  0.27575942  0.59702661  1.0
  C  C125  1  0.99047823  0.77576088  0.90297386  1.0
  C  C126  1  0.99047865  0.72423967  0.40297408  1.0
  C  C127  1  0.00952303  0.22424036  0.09702615  1.0
  C  C128  1  0.99054476  0.19486233  0.62554101  1.0
  C  C129  1  0.00945456  0.69486307  0.87445942  1.0
  C  C130  1  0.00945496  0.80513748  0.37445922  1.0
  C  C131  1  0.99054517  0.30513817  0.12554044  1.0
  C  C132  1  0.01946744  0.27639340  0.54311574  1.0
  C  C133  1  0.98053187  0.77639624  0.95688466  1.0
  C  C134  1  0.98053228  0.72360424  0.45688449  1.0
  C  C135  1  0.01946863  0.22360644  0.04311566  1.0
  C  C136  1  0.05259587  0.19304398  0.52105680  1.0
  C  C137  1  0.94740345  0.69304679  0.97894401  1.0
  C  C138  1  0.94740386  0.80695366  0.47894381  1.0
  C  C139  1  0.05259704  0.30695517  0.02105631  1.0
  C  C140  1  0.05739870  0.18956986  0.46924595  1.0
  C  C141  1  0.94259992  0.68957248  0.03075436  1.0
  C  C142  1  0.94259950  0.81042779  0.53075413  1.0
  C  C143  1  0.05740057  0.31042949  0.96924596  1.0
  C  C144  1  0.02918750  0.26924224  0.43667467  1.0
  C  C145  1  0.97081187  0.76924482  0.06332530  1.0
  C  C146  1  0.97081146  0.73075469  0.56332548  1.0
  C  C147  1  0.02918862  0.23075787  0.93667463  1.0
  C  C148  1  0.99909731  0.35352066  0.45913431  1.0
  C  C149  1  0.00090205  0.85352251  0.04086602  1.0
  C  C150  1  0.00090088  0.64647771  0.54086578  1.0
  C  C151  1  0.99909767  0.14648017  0.95913421  1.0
  C  C152  1  0.99428259  0.35719698  0.51107150  1.0
  C  C153  1  0.00571671  0.85719904  0.98892850  1.0
  C  C154  1  0.00571714  0.64280138  0.48892836  1.0
  C  C155  1  0.99428301  0.14280293  0.01107174  1.0
  C  C156  1  0.00192693  0.33465609  0.34370900  1.0
  C  C157  1  0.99807167  0.83465784  0.15629163  1.0
  C  C158  1  0.99807203  0.66534299  0.65629154  1.0
  C  C159  1  0.00192806  0.16534340  0.84370898  1.0
  C  C160  1  0.02734163  0.26276170  0.38149072  1.0
  C  C161  1  0.97265774  0.76276421  0.11850926  1.0
  C  C162  1  0.97265733  0.73723667  0.61850944  1.0
  C  C163  1  0.02734276  0.23723775  0.88149106  1.0
  C  C164  1  0.04463518  0.18120908  0.35287241  1.0
  C  C165  1  0.95536497  0.68121156  0.14712729  1.0
  C  C166  1  0.95536378  0.81878929  0.64712775  1.0
  C  C167  1  0.04463629  0.31878968  0.85287234  1.0
  N  N168  1  0.85813527  0.05672297  0.72706311  1.0
  N  N169  1  0.14186483  0.55672312  0.77293706  1.0
  N  N170  1  0.14186370  0.94327684  0.27293742  1.0
  N  N171  1  0.85813489  0.44327669  0.22706280  1.0
  N  N172  1  0.86678503  0.96675876  0.74865528  1.0
  N  N173  1  0.13321426  0.46675784  0.75134468  1.0
  N  N174  1  0.13321547  0.03324177  0.25134503  1.0
  N  N175  1  0.86678546  0.53324197  0.24865480  1.0
  N  N176  1  0.10128419  0.05067125  0.72973793  1.0
  N  N177  1  0.89871514  0.55067143  0.77026141  1.0
  N  N178  1  0.89871477  0.94932855  0.27026185  1.0
  N  N179  1  0.10128459  0.44932694  0.22973844  1.0
  N  N180  1  0.11137161  0.96156551  0.75209410  1.0
  N  N181  1  0.88862845  0.46156605  0.74790594  1.0
  N  N182  1  0.88862812  0.03843430  0.24790613  1.0
  N  N183  1  0.11137128  0.53843447  0.25209392  1.0
  N  N184  1  0.00255390  0.31776078  0.67870123  1.0
  N  N185  1  0.99744464  0.81776090  0.82129908  1.0
  N  N186  1  0.99744506  0.68223974  0.32129855  1.0
  N  N187  1  0.00255585  0.18223963  0.17870086  1.0
  N  N188  1  0.98598685  0.22075509  0.67406303  1.0
  N  N189  1  0.01401170  0.72075590  0.82593769  1.0
  N  N190  1  0.01401211  0.77924543  0.32593713  1.0
  N  N191  1  0.98598803  0.27924535  0.17406255  1.0
  N  N192  1  0.00330792  0.29816241  0.29670472  1.0
  N  N193  1  0.99668991  0.79816482  0.20329547  1.0
  N  N194  1  0.99669104  0.70183596  0.70329582  1.0
  N  N195  1  0.00330981  0.20183570  0.79670476  1.0
  N  N196  1  0.02989264  0.20332337  0.30233129  1.0
  N  N197  1  0.97010597  0.70332507  0.19766864  1.0
  N  N198  1  0.97010632  0.79667572  0.69766887  1.0
  N  N199  1  0.02989453  0.29667545  0.80233130  1.0
