# generated using pymatgen
data_ZnH9C14SClO4
_symmetry_space_group_name_H-M   'P 1'
_cell_length_a   7.56219143
_cell_length_b   12.56224897
_cell_length_c   34.67249908
_cell_angle_alpha   89.84831328
_cell_angle_beta   89.67131446
_cell_angle_gamma   91.52676476
_symmetry_Int_Tables_number   1
_chemical_formula_structural   ZnH9C14SClO4
_chemical_formula_sum   'Zn4 H36 C56 S4 Cl4 O16'
_cell_volume   3292.58618174
_cell_formula_units_Z   4
loop_
 _symmetry_equiv_pos_site_id
 _symmetry_equiv_pos_as_xyz
  1  'x, y, z'
loop_
 _atom_site_type_symbol
 _atom_site_label
 _atom_site_symmetry_multiplicity
 _atom_site_fract_x
 _atom_site_fract_y
 _atom_site_fract_z
 _atom_site_occupancy
  Zn  Zn0  1  0.67848832  0.00861941  0.49966148  1.0
  Zn  Zn1  1  0.32330074  0.00852123  0.50002285  1.0
  Zn  Zn2  1  0.17411414  0.97629517  0.00039103  1.0
  Zn  Zn3  1  0.53162910  0.98664851  0.99979675  1.0
  H  H4  1  0.70574047  0.97569414  0.88279481  1.0
  H  H5  1  0.72056207  0.96749728  0.81119294  1.0
  H  H6  1  0.83644860  0.08639756  0.69133927  1.0
  H  H7  1  0.35148812  0.89930517  0.69150752  1.0
  H  H8  1  0.32328027  0.96235941  0.74722925  1.0
  H  H9  1  0.71546776  0.02961360  0.75185401  1.0
  H  H10  1  0.70637741  0.97266447  0.11627914  1.0
  H  H11  1  0.72193149  0.96395237  0.18784726  1.0
  H  H12  1  0.83746075  0.08705195  0.30753356  1.0
  H  H13  1  0.35371835  0.89875445  0.30865625  1.0
  H  H14  1  0.32558754  0.96115374  0.25276397  1.0
  H  H15  1  0.71667025  0.03131645  0.24734414  1.0
  H  H16  1  0.01098381  0.08393741  0.86312087  1.0
  H  H17  1  0.11790895  0.08805343  0.90835114  1.0
  H  H18  1  0.02227155  0.96758644  0.89225374  1.0
  H  H19  1  0.99077562  0.00350930  0.81693454  1.0
  H  H20  1  0.09953345  0.93715364  0.77940446  1.0
  H  H21  1  0.10542150  0.07808051  0.78076031  1.0
  H  H22  1  0.22903677  0.83454059  0.63797169  1.0
  H  H23  1  0.34831749  0.83129892  0.59358098  1.0
  H  H24  1  0.20831297  0.93769073  0.60311280  1.0
  H  H25  1  0.96848566  0.14657387  0.63742859  1.0
  H  H26  1  0.84337578  0.16398370  0.59456505  1.0
  H  H27  1  0.96916914  0.04947846  0.60008564  1.0
  H  H28  1  0.02600090  0.96910708  0.10844120  1.0
  H  H29  1  0.12090526  0.08973486  0.09184878  1.0
  H  H30  1  0.01207027  0.08567372  0.13708274  1.0
  H  H31  1  0.12871380  0.07926903  0.22392729  1.0
  H  H32  1  0.08948811  0.94051769  0.21867202  1.0
  H  H33  1  0.99672534  0.02959785  0.18564402  1.0
  H  H34  1  0.20919604  0.93678115  0.39724045  1.0
  H  H35  1  0.34987721  0.83085626  0.40679472  1.0
  H  H36  1  0.23118759  0.83352411  0.36262027  1.0
  H  H37  1  0.96980789  0.05050225  0.39847723  1.0
  H  H38  1  0.84233680  0.16421425  0.40434188  1.0
  H  H39  1  0.96777766  0.14820056  0.36116995  1.0
  C  C40  1  0.40143620  0.80720585  0.50005671  1.0
  C  C41  1  0.58217953  0.00368494  0.57246765  1.0
  C  C42  1  0.42627340  0.20968393  0.49991767  1.0
  C  C43  1  0.58238689  0.00368356  0.42705327  1.0
  C  C44  1  0.28861985  0.77839876  0.00015231  1.0
  C  C45  1  0.42650650  0.99230122  0.92752022  1.0
  C  C46  1  0.25646329  0.18031074  0.00019143  1.0
  C  C47  1  0.42760766  0.99178467  0.07239599  1.0
  C  C48  1  0.42573339  0.99906422  0.88466896  1.0
  C  C49  1  0.58751219  0.98504900  0.86547915  1.0
  C  C50  1  0.59502682  0.98092521  0.82569302  1.0
  C  C51  1  0.44041839  0.98859470  0.80357074  1.0
  C  C52  1  0.27585661  0.00256002  0.82265568  1.0
  C  C53  1  0.26828370  0.01245254  0.86322605  1.0
  C  C54  1  0.44774545  0.98201825  0.76163381  1.0
  C  C55  1  0.59094178  0.00207037  0.73886070  1.0
  C  C56  1  0.72897617  0.04608558  0.67573143  1.0
  C  C57  1  0.59097177  0.99629885  0.69686785  1.0
  C  C58  1  0.45600426  0.94351160  0.67604932  1.0
  C  C59  1  0.45138662  0.94409861  0.63590971  1.0
  C  C60  1  0.58990660  0.99835790  0.61529045  1.0
  C  C61  1  0.73249909  0.04803382  0.63542602  1.0
  C  C62  1  0.42728009  0.99916767  0.11523607  1.0
  C  C63  1  0.58884750  0.98369002  0.13393613  1.0
  C  C64  1  0.59687512  0.97960467  0.17372843  1.0
  C  C65  1  0.44298926  0.98989068  0.19623790  1.0
  C  C66  1  0.27878508  0.00682972  0.17770061  1.0
  C  C67  1  0.27041889  0.01481956  0.13707820  1.0
  C  C68  1  0.44988650  0.98227397  0.23817704  1.0
  C  C69  1  0.59269079  0.00264245  0.26064969  1.0
  C  C70  1  0.73011232  0.04642394  0.32343269  1.0
  C  C71  1  0.59268053  0.99629681  0.30265649  1.0
  C  C72  1  0.45787895  0.94310037  0.32383147  1.0
  C  C73  1  0.45274916  0.94366900  0.36398099  1.0
  C  C74  1  0.59062727  0.99831201  0.38422596  1.0
  C  C75  1  0.73312143  0.04836202  0.36372761  1.0
  C  C76  1  0.55846252  0.40088140  0.50003451  1.0
  C  C77  1  0.25254106  0.61700985  0.50007666  1.0
  C  C78  1  0.41908280  0.32635116  0.50002170  1.0
  C  C79  1  0.39375406  0.69035138  0.50006640  1.0
  C  C80  1  0.31202353  0.51079891  0.50007003  1.0
  C  C81  1  0.49724082  0.50628388  0.50005799  1.0
  C  C82  1  0.11115487  0.36674598  0.00019100  1.0
  C  C83  1  0.42085825  0.59087922  0.99999561  1.0
  C  C84  1  0.25100300  0.29699883  0.00011797  1.0
  C  C85  1  0.28230746  0.66151417  0.00011715  1.0
  C  C86  1  0.35796758  0.48381037  0.00000989  1.0
  C  C87  1  0.17267033  0.47440394  0.00012955  1.0
  C  C88  1  0.09594477  0.03966743  0.88257825  1.0
  C  C89  1  0.10948416  0.00604198  0.79885585  1.0
  C  C90  1  0.30151786  0.88363478  0.61660416  1.0
  C  C91  1  0.88629099  0.10528268  0.61586936  1.0
  C  C92  1  0.09856149  0.04154927  0.11781196  1.0
  C  C93  1  0.11502527  0.01509052  0.20255826  1.0
  C  C94  1  0.30302903  0.88293339  0.38371688  1.0
  C  C95  1  0.88610784  0.10611294  0.38291385  1.0
  S  S96  1  0.21340830  0.38573025  0.50006646  1.0
  S  S97  1  0.59833133  0.63009923  0.50003878  1.0
  S  S98  1  0.45679945  0.36257871  0.99995294  1.0
  S  S99  1  0.07573582  0.59665966  0.00024085  1.0
  Cl  Cl100  1  0.77817120  0.37426055  0.50003887  1.0
  Cl  Cl101  1  0.03447626  0.64759478  0.50008117  1.0
  Cl  Cl102  1  0.89210387  0.33128522  0.00030989  1.0
  Cl  Cl103  1  0.64111735  0.62313197  0.99989205  1.0
  O  O104  1  0.55575156  0.85011945  0.49993531  1.0
  O  O105  1  0.25568613  0.85859759  0.50017422  1.0
  O  O106  1  0.43231826  0.01018177  0.55627671  1.0
  O  O107  1  0.73036129  0.00206829  0.55349932  1.0
  O  O108  1  0.27446834  0.15888267  0.50006624  1.0
  O  O109  1  0.57582402  0.16661839  0.49969056  1.0
  O  O110  1  0.73039097  0.00203595  0.44571912  1.0
  O  O111  1  0.43234305  0.01024370  0.44352040  1.0
  O  O112  1  0.13589197  0.82310758  0.00040275  1.0
  O  O113  1  0.43806479  0.82649344  0.99994744  1.0
  O  O114  1  0.57781808  0.99772723  0.94493716  1.0
  O  O115  1  0.28017734  0.97806973  0.94527051  1.0
  O  O116  1  0.41007505  0.14141574  0.99999381  1.0
  O  O117  1  0.10952445  0.12521597  0.00045421  1.0
  O  O118  1  0.28112197  0.97716768  0.05512635  1.0
  O  O119  1  0.57869651  0.99728241  0.05450469  1.0
