# generated using pymatgen
data_Zn4H16C33O19
_symmetry_space_group_name_H-M   'P 1'
_cell_length_a   18.32184597
_cell_length_b   18.35407975
_cell_length_c   18.38811533
_cell_angle_alpha   90.28764063
_cell_angle_beta   119.82506945
_cell_angle_gamma   119.67583058
_symmetry_Int_Tables_number   1
_chemical_formula_structural   Zn4H16C33O19
_chemical_formula_sum   'Zn8 H32 C66 O38'
_cell_volume   4394.36113158
_cell_formula_units_Z   2
loop_
 _symmetry_equiv_pos_site_id
 _symmetry_equiv_pos_as_xyz
  1  'x, y, z'
loop_
 _atom_site_type_symbol
 _atom_site_label
 _atom_site_symmetry_multiplicity
 _atom_site_fract_x
 _atom_site_fract_y
 _atom_site_fract_z
 _atom_site_occupancy
  Zn  Zn0  1  0.08847710  0.29422637  0.20715681  1.0
  Zn  Zn1  1  0.91156292  0.70526554  0.79191835  1.0
  Zn  Zn2  1  0.91452356  0.29514259  0.20725734  1.0
  Zn  Zn3  1  0.09026261  0.70884808  0.79688997  1.0
  Zn  Zn4  1  0.08708413  0.29216505  0.37998339  1.0
  Zn  Zn5  1  0.91430341  0.70784627  0.62106177  1.0
  Zn  Zn6  1  0.91361049  0.11901543  0.20712336  1.0
  Zn  Zn7  1  0.08819014  0.88223103  0.79284715  1.0
  H  H8  1  0.86776722  0.28772046  0.88042855  1.0
  H  H9  1  0.88535349  0.45417291  0.33845124  1.0
  H  H10  1  0.13914948  0.47617162  0.07230389  1.0
  H  H11  1  0.85924922  0.52184154  0.92565763  1.0
  H  H12  1  0.13844170  0.57275653  0.97561216  1.0
  H  H13  1  0.85936006  0.42421467  0.02133125  1.0
  H  H14  1  0.80378804  0.04052580  0.92766735  1.0
  H  H15  1  0.19247281  0.95311051  0.06365214  1.0
  H  H16  1  0.08129855  0.21841751  0.94521400  1.0
  H  H17  1  0.92106449  0.78114822  0.05760246  1.0
  H  H18  1  0.03111375  0.32329419  0.90605100  1.0
  H  H19  1  0.12539297  0.70514771  0.11205538  1.0
  H  H20  1  0.96935316  0.67475623  0.09310138  1.0
  H  H21  1  0.40409969  0.45091763  0.56868858  1.0
  H  H22  1  0.59626413  0.54948946  0.43036445  1.0
  H  H23  1  0.59699464  0.54853001  0.66442253  1.0
  H  H24  1  0.40332307  0.45222803  0.33464856  1.0
  H  H25  1  0.11846763  0.16412141  0.56665225  1.0
  H  H26  1  0.87822356  0.83439301  0.43175339  1.0
  H  H27  1  0.44256132  0.15294673  0.92893968  1.0
  H  H28  1  0.53217454  0.84051014  0.07501074  1.0
  H  H29  1  0.59938413  0.04935736  0.85663470  1.0
  H  H30  1  0.11928764  0.06863286  0.66400242  1.0
  H  H31  1  0.21237665  0.72924484  0.07092788  1.0
  H  H32  1  0.86891147  0.94700818  0.70656217  1.0
  H  H33  1  0.03706642  0.93025476  0.25110977  1.0
  H  H34  1  0.87673617  0.93010627  0.33443050  1.0
  H  H35  1  0.60033735  0.13931958  0.97635712  1.0
  H  H36  1  0.40319927  0.86861690  0.03168449  1.0
  H  H37  1  0.11817800  0.45038409  0.56863257  1.0
  H  H38  1  0.88483837  0.54853522  0.43741109  1.0
  H  H39  1  0.11780165  0.54485911  0.66766614  1.0
  C  C40  1  0.72438493  0.11358235  0.11298105  1.0
  C  C41  1  0.02421779  0.99273175  0.08430491  1.0
  C  C42  1  0.99942049  0.94526926  0.94659634  1.0
  C  C43  1  0.00185674  0.05403499  0.05410488  1.0
  C  C44  1  0.02315529  0.93708394  0.03039930  1.0
  C  C45  1  0.97802394  0.06203526  0.97054215  1.0
  C  C46  1  0.44699100  0.47310291  0.53920749  1.0
  C  C47  1  0.55339599  0.52773147  0.45986687  1.0
  C  C48  1  0.55371621  0.52705084  0.59218531  1.0
  C  C49  1  0.44665542  0.47392467  0.40689108  1.0
  C  C50  1  0.60739230  0.55464295  0.55276340  1.0
  C  C51  1  0.27939928  0.89117780  0.89082937  1.0
  C  C52  1  0.39300611  0.44644176  0.44631963  1.0
  C  C53  1  0.06626116  0.09189194  0.53792944  1.0
  C  C54  1  0.93056137  0.90662042  0.46042219  1.0
  C  C55  1  0.27831616  0.38882593  0.38916033  1.0
  C  C56  1  0.72197836  0.61244677  0.61001862  1.0
  C  C57  1  0.06667237  0.03906170  0.59185083  1.0
  C  C58  1  0.93000579  0.95949804  0.40656281  1.0
  C  C59  1  0.99887789  0.94614673  0.55324758  1.0
  C  C60  1  0.99812306  0.05240282  0.44513867  1.0
  C  C61  1  0.55635546  0.07984420  0.98816553  1.0
  C  C62  1  0.00968038  0.20264431  0.93283840  1.0
  C  C63  1  0.44734932  0.92639458  0.01836483  1.0
  C  C64  1  0.44894806  0.02589463  0.93193449  1.0
  C  C65  1  0.55466658  0.97975348  0.07414481  1.0
  C  C66  1  0.39428946  0.94874614  0.94746290  1.0
  C  C67  1  0.60936058  0.05682673  0.05841811  1.0
  C  C68  1  0.06756667  0.47240061  0.54077321  1.0
  C  C69  1  0.93561815  0.52669614  0.46531157  1.0
  C  C70  1  0.06731662  0.52463644  0.59556374  1.0
  C  C71  1  0.93590713  0.47451899  0.41055892  1.0
  C  C72  1  0.00147879  0.55219093  0.55806061  1.0
  C  C73  1  0.99130437  0.79594617  0.06745784  1.0
  C  C74  1  0.00203406  0.44725582  0.44805164  1.0
  C  C75  1  0.07871548  0.48715228  0.04023185  1.0
  C  C76  1  0.92029251  0.51167429  0.95849161  1.0
  C  C77  1  0.07842947  0.54077276  0.98701740  1.0
  C  C78  1  0.92058909  0.45806918  0.01164551  1.0
  C  C79  1  0.00015291  0.38838079  0.11031411  1.0
  C  C80  1  0.99979843  0.61185099  0.88976382  1.0
  C  C81  1  0.99933492  0.55349538  0.94612084  1.0
  C  C82  1  0.99993638  0.44584803  0.05294592  1.0
  C  C83  1  0.99826460  0.10937010  0.38744322  1.0
  C  C84  1  0.98127598  0.26138642  0.91094334  1.0
  C  C85  1  0.99921305  0.88931905  0.61095856  1.0
  C  C86  1  0.00248786  0.39107631  0.38940773  1.0
  C  C87  1  0.00171484  0.60949275  0.61621105  1.0
  C  C88  1  0.00217522  0.11219780  0.11243432  1.0
  C  C89  1  0.99895308  0.88722224  0.88814198  1.0
  C  C90  1  0.82578389  0.16183607  0.90160599  1.0
  C  C91  1  0.16876943  0.83142949  0.08739726  1.0
  C  C92  1  0.85386242  0.10241305  0.92297323  1.0
  C  C93  1  0.14260784  0.89243504  0.07005134  1.0
  C  C94  1  0.94659944  0.12308602  0.93999487  1.0
  C  C95  1  0.01813951  0.73604494  0.08675301  1.0
  C  C96  1  0.05359636  0.87499226  0.05901407  1.0
  C  C97  1  0.39495570  0.04646441  0.85050012  1.0
  C  C98  1  0.60955376  0.95857513  0.15455771  1.0
  C  C99  1  0.72943816  0.14299997  0.88588469  1.0
  C  C100  1  0.26238051  0.85375890  0.09339334  1.0
  C  C101  1  0.95636948  0.01520550  0.82841858  1.0
  C  C102  1  0.05954479  0.99775741  0.17854212  1.0
  C  C103  1  0.89032707  0.24194997  0.89634243  1.0
  C  C104  1  0.10626812  0.75323019  0.09649047  1.0
  C  C105  1  0.97840113  0.00726974  0.91712892  1.0
  O  O106  1  0.99978223  0.24951504  0.24924055  1.0
  O  O107  1  0.76709469  0.63608908  0.57082057  1.0
  O  O108  1  0.76699384  0.07251067  0.13015837  1.0
  O  O109  1  0.23542148  0.93122712  0.86575173  1.0
  O  O110  1  0.23427462  0.37015607  0.30528656  1.0
  O  O111  1  0.76582801  0.63367889  0.69397211  1.0
  O  O112  1  0.93677065  0.36526838  0.13097538  1.0
  O  O113  1  0.07115513  0.64375436  0.87777203  1.0
  O  O114  1  0.05682475  0.19332950  0.42673466  1.0
  O  O115  1  0.94181402  0.80525910  0.57205964  1.0
  O  O116  1  0.94106984  0.37036958  0.30552790  1.0
  O  O117  1  0.00219766  0.75167154  0.75190334  1.0
  O  O118  1  0.06378692  0.63157185  0.70034611  1.0
  O  O119  1  0.93724214  0.07113661  0.13100223  1.0
  O  O120  1  0.06248619  0.92826036  0.86815704  1.0
  O  O121  1  0.06435323  0.36854903  0.42802972  1.0
  O  O122  1  0.93989383  0.63192756  0.57689132  1.0
  O  O123  1  0.06539409  0.19546014  0.13566893  1.0
  O  O124  1  0.93584484  0.80385228  0.86501635  1.0
  O  O125  1  0.34771205  0.99842367  0.77544151  1.0
  O  O126  1  0.40688701  0.12556792  0.86537952  1.0
  O  O127  1  0.67323769  0.01181051  0.22944430  1.0
  O  O128  1  0.06395847  0.36796805  0.13386936  1.0
  O  O129  1  0.58045065  0.87258245  0.13895533  1.0
  O  O130  1  0.71171165  0.19873440  0.88870977  1.0
  O  O131  1  0.66034949  0.05508849  0.86748030  1.0
  O  O132  1  0.32695538  0.92765661  0.10202117  1.0
  O  O133  1  0.27416609  0.78649798  0.08733974  1.0
  O  O134  1  0.00383976  0.08355340  0.81682876  1.0
  O  O135  1  0.87572533  0.93628802  0.76113872  1.0
  O  O136  1  0.12753734  0.06711966  0.24126894  1.0
  O  O137  1  0.00768846  0.91825605  0.18738277  1.0
  O  O138  1  0.92997181  0.62569916  0.85925528  1.0
  O  O139  1  0.94012176  0.06936405  0.30355398  1.0
  O  O140  1  0.05643707  0.92934109  0.69479060  1.0
  O  O141  1  0.76741740  0.19718224  0.13403100  1.0
  O  O142  1  0.23685571  0.80779197  0.87391501  1.0
  O  O143  1  0.23378347  0.36330931  0.42871548  1.0
