# generated using pymatgen
data_Zn4H17C48I3(N4O)4
_symmetry_space_group_name_H-M   'P 1'
_cell_length_a   15.59107322
_cell_length_b   15.81193091
_cell_length_c   17.47811792
_cell_angle_alpha   104.30492661
_cell_angle_beta   108.42146241
_cell_angle_gamma   109.95228677
_symmetry_Int_Tables_number   1
_chemical_formula_structural   Zn4H17C48I3(N4O)4
_chemical_formula_sum   'Zn4 H17 C48 I3 N16 O4'
_cell_volume   3525.21758202
_cell_formula_units_Z   1
loop_
 _symmetry_equiv_pos_site_id
 _symmetry_equiv_pos_as_xyz
  1  'x, y, z'
loop_
 _atom_site_type_symbol
 _atom_site_label
 _atom_site_symmetry_multiplicity
 _atom_site_fract_x
 _atom_site_fract_y
 _atom_site_fract_z
 _atom_site_occupancy
  Zn  Zn0  1  0.87757555  0.87648757  0.50495771  1.0
  Zn  Zn1  1  0.13307982  0.12523930  0.49685367  1.0
  Zn  Zn2  1  0.14774643  0.99728588  0.64051048  1.0
  Zn  Zn3  1  0.87920289  0.01294627  0.37319414  1.0
  H  H4  1  0.80454880  0.74277540  0.61037859  1.0
  H  H5  1  0.10544152  0.30073734  0.61532193  1.0
  H  H6  1  0.86461926  0.19957315  0.32087431  1.0
  H  H7  1  0.12167116  0.92509069  0.79597642  1.0
  H  H8  1  0.64138625  0.65984249  0.34973306  1.0
  H  H9  1  0.21745656  0.77445346  0.56851507  1.0
  H  H10  1  0.62098890  0.85855979  0.15149884  1.0
  H  H11  1  0.76285267  0.70150107  0.86594223  1.0
  H  H12  1  0.24234002  0.21244425  0.87796308  1.0
  H  H13  1  0.37391541  0.24174863  0.54631437  1.0
  H  H14  1  0.86387553  0.86039328  0.20656338  1.0
  H  H15  1  0.87027952  0.70918746  0.34473143  1.0
  H  H16  1  0.38659515  0.05083825  0.68552662  1.0
  H  H17  1  0.35269266  0.44284400  0.03712360  1.0
  H  H18  1  0.35089495  0.59153383  0.95101675  1.0
  H  H19  1  0.08685201  0.82016089  0.00954702  1.0
  H  H20  1  0.83381474  0.17252966  0.47846837  1.0
  C  C21  1  0.88521115  0.79299046  0.64503815  1.0
  C  C22  1  0.94479769  0.75345063  0.40021901  1.0
  C  C23  1  0.68453273  0.82629629  0.26583663  1.0
  C  C24  1  0.10934569  0.29225090  0.44393154  1.0
  C  C25  1  0.36620828  0.09296876  0.64906799  1.0
  C  C26  1  0.61777839  0.72959234  0.25182013  1.0
  C  C27  1  0.42673879  0.15985648  0.62411098  1.0
  C  C28  1  0.02394824  0.72853886  0.43060206  1.0
  C  C29  1  0.02856960  0.89577247  0.25176843  1.0
  C  C30  1  0.74473154  0.14749611  0.60426424  1.0
  C  C31  1  0.68138278  0.16764303  0.62082702  1.0
  C  C32  1  0.03009496  0.31093653  0.39741979  1.0
  C  C33  1  0.60308310  0.17857198  0.63104936  1.0
  C  C34  1  0.52402063  0.17704459  0.63188709  1.0
  C  C35  1  0.03426365  0.39867259  0.39179726  1.0
  C  C36  1  0.15938515  0.18241802  0.73947287  1.0
  C  C37  1  0.03275482  0.47525946  0.38960848  1.0
  C  C38  1  0.03001223  0.56050260  0.39445682  1.0
  C  C39  1  0.02530738  0.63825883  0.40416939  1.0
  C  C40  1  0.20768642  0.36134393  0.81083929  1.0
  C  C41  1  0.32984443  0.51996490  0.95519291  1.0
  C  C42  1  0.37611474  0.51486619  0.03370779  1.0
  C  C43  1  0.16035721  0.27262759  0.73785192  1.0
  C  C44  1  0.45535871  0.59418599  0.10970489  1.0
  C  C45  1  0.26059636  0.43618122  0.87842876  1.0
  C  C46  1  0.52946997  0.65860856  0.17707113  1.0
  C  C47  1  0.03263290  0.85194016  0.17416686  1.0
  C  C48  1  0.83522593  0.12128271  0.50972009  1.0
  C  C49  1  0.01471930  0.79986795  0.01414167  1.0
  C  C50  1  0.92798054  0.76487710  0.93689159  1.0
  C  C51  1  0.93514659  0.76863021  0.85932068  1.0
  C  C52  1  0.01987752  0.81940366  0.09774359  1.0
  C  C53  1  0.94016818  0.78337338  0.79493995  1.0
  C  C54  1  0.80135444  0.10814640  0.57370250  1.0
  C  C55  1  0.11751563  0.25243578  0.64745576  1.0
  C  C56  1  0.82318010  0.03220481  0.58904618  1.0
  C  C57  1  0.94300539  0.21959924  0.36209252  1.0
  C  C58  1  0.04727604  0.88712918  0.74019789  1.0
  C  C59  1  0.95541435  0.81509955  0.72999473  1.0
  C  C60  1  0.18992991  0.83037059  0.57784062  1.0
  C  C61  1  0.68425687  0.88714952  0.21715538  1.0
  C  C62  1  0.82520286  0.73088188  0.93339773  1.0
  C  C63  1  0.21111684  0.15956746  0.80954395  1.0
  C  C64  1  0.66553942  0.72117832  0.33089811  1.0
  C  C65  1  0.36038842  0.19154612  0.57868504  1.0
  C  C66  1  0.10061381  0.81475024  0.50654197  1.0
  C  C67  1  0.94141177  0.89879756  0.25779759  1.0
  C  C68  1  0.10753552  0.95988911  0.33736567  1.0
  I  I69  1  0.25765061  0.98715995  0.37964596  1.0
  I  I70  1  0.26253115  0.38827830  0.51711619  1.0
  I  I71  1  0.79428847  0.97360755  0.67692014  1.0
  N  N72  1  0.93206253  0.84810566  0.60912814  1.0
  N  N73  1  0.11800277  0.11639679  0.65607167  1.0
  N  N74  1  0.87076424  0.05729629  0.48792626  1.0
  N  N75  1  0.09440362  0.15875779  0.60039165  1.0
  N  N76  1  0.86368825  0.00165233  0.53666730  1.0
  N  N77  1  0.96864950  0.15432521  0.38602545  1.0
  N  N78  1  0.03241223  0.90664862  0.66828489  1.0
  N  N79  1  0.75251678  0.80525306  0.38547065  1.0
  N  N80  1  0.26865829  0.14597457  0.57628297  1.0
  N  N81  1  0.06711705  0.88325689  0.51725585  1.0
  N  N82  1  0.96721265  0.96030435  0.33813908  1.0
  N  N83  1  0.07006072  0.99922675  0.38825704  1.0
  N  N84  1  0.97248108  0.84605658  0.45452055  1.0
  N  N85  1  0.76411583  0.86789827  0.34606066  1.0
  N  N86  1  0.27225306  0.08474166  0.61977963  1.0
  N  N87  1  0.07183464  0.19889217  0.43665217  1.0
  O  O88  1  0.23303309  0.90196941  0.64976850  1.0
  O  O89  1  0.75463541  0.97292335  0.24819244  1.0
  O  O90  1  0.80665100  0.73367961  0.99694566  1.0
  O  O91  1  0.22455267  0.08501548  0.79457591  1.0
