# generated using pymatgen
data_Al2H11(C7O5)2
_symmetry_space_group_name_H-M   'P 1'
_cell_length_a   6.67224266
_cell_length_b   13.07219018
_cell_length_c   16.98401642
_cell_angle_alpha   90.96924327
_cell_angle_beta   91.02956996
_cell_angle_gamma   90.74360275
_symmetry_Int_Tables_number   1
_chemical_formula_structural   Al2H11(C7O5)2
_chemical_formula_sum   'Al4 H22 C28 O20'
_cell_volume   1480.77813800
_cell_formula_units_Z   2
loop_
 _symmetry_equiv_pos_site_id
 _symmetry_equiv_pos_as_xyz
  1  'x, y, z'
loop_
 _atom_site_type_symbol
 _atom_site_label
 _atom_site_symmetry_multiplicity
 _atom_site_fract_x
 _atom_site_fract_y
 _atom_site_fract_z
 _atom_site_occupancy
  Al  Al0  1  0.86857540  0.49750588  0.50239675  1.0
  Al  Al1  1  0.36880721  0.50077935  0.50124162  1.0
  Al  Al2  1  0.39625962  0.01149386  0.00465924  1.0
  Al  Al3  1  0.89634279  0.00823917  0.00485601  1.0
  H  H4  1  0.97172769  0.34100353  0.14286283  1.0
  H  H5  1  0.77717854  0.28210004  0.28356201  1.0
  H  H6  1  0.96605930  0.08795153  0.27014716  1.0
  H  H7  1  0.29227433  0.16794394  0.36486415  1.0
  H  H8  1  0.29774782  0.42080656  0.23760003  1.0
  H  H9  1  0.82737791  0.29672762  0.68933452  1.0
  H  H10  1  0.28777300  0.31068397  0.70551401  1.0
  H  H11  1  0.83409177  0.19017424  0.80780549  1.0
  H  H12  1  0.29408970  0.21515298  0.80945431  1.0
  H  H13  1  0.94427506  0.80907187  0.20275839  1.0
  H  H14  1  0.48269876  0.80555242  0.20003037  1.0
  H  H15  1  0.92645481  0.70325399  0.32102681  1.0
  H  H16  1  0.46826447  0.69626924  0.29562963  1.0
  H  H17  1  0.93514833  0.80581169  0.81811992  1.0
  H  H18  1  0.47411715  0.80384951  0.80345680  1.0
  H  H19  1  0.93305038  0.68603501  0.70400383  1.0
  H  H20  1  0.47814004  0.72166508  0.68996273  1.0
  H  H21  1  0.48707621  0.22683646  0.22414867  1.0
  H  H22  1  0.60953217  0.37365472  0.46736259  1.0
  H  H23  1  0.11501310  0.62796879  0.47448743  1.0
  H  H24  1  0.65645765  0.13480415  0.04010991  1.0
  H  H25  1  0.14924000  0.88276261  0.03475837  1.0
  C  C26  1  0.61476463  0.61794370  0.39224883  1.0
  C  C27  1  0.63230133  0.62192377  0.60857396  1.0
  C  C28  1  0.12771384  0.38519618  0.61110502  1.0
  C  C29  1  0.10757570  0.37621747  0.39286549  1.0
  C  C30  1  0.93414443  0.26901050  0.26956809  1.0
  C  C31  1  0.04224033  0.30339343  0.19309667  1.0
  C  C32  1  0.14987238  0.19700912  0.18699685  1.0
  C  C33  1  0.03926073  0.16270490  0.26400177  1.0
  C  C34  1  0.22189909  0.20531663  0.31448668  1.0
  C  C35  1  0.32997511  0.23973770  0.23801347  1.0
  C  C36  1  0.22475628  0.34599265  0.24361452  1.0
  C  C37  1  0.11424955  0.31159535  0.32056141  1.0
  C  C38  1  0.97357620  0.28114216  0.71633431  1.0
  C  C39  1  0.13655424  0.32183698  0.68204654  1.0
  C  C40  1  0.97758074  0.21826279  0.78609603  1.0
  C  C41  1  0.14420132  0.19100764  0.82652772  1.0
  C  C42  1  0.79553242  0.78717290  0.22308217  1.0
  C  C43  1  0.63585827  0.82334417  0.18293350  1.0
  C  C44  1  0.78523225  0.72225891  0.29148848  1.0
  C  C45  1  0.61587870  0.68271911  0.32178972  1.0
  C  C46  1  0.79007488  0.78452930  0.79120181  1.0
  C  C47  1  0.62495955  0.82160273  0.82591492  1.0
  C  C48  1  0.78978649  0.71801223  0.72176641  1.0
  C  C49  1  0.62655463  0.69237784  0.67719242  1.0
  C  C50  1  0.63323204  0.88940006  0.89624523  1.0
  C  C51  1  0.65007112  0.88929169  0.11342418  1.0
  C  C52  1  0.15636872  0.13224442  0.11464657  1.0
  C  C53  1  0.13862714  0.12572404  0.89647709  1.0
  O  O54  1  0.46362806  0.60364552  0.57399978  1.0
  O  O55  1  0.78198191  0.59873737  0.42613476  1.0
  O  O56  1  0.93691865  0.40690382  0.41539834  1.0
  O  O57  1  0.79981015  0.58494534  0.58846756  1.0
  O  O58  1  0.95860288  0.40038539  0.57740249  1.0
  O  O59  1  0.44152572  0.58677308  0.41341739  1.0
  O  O60  1  0.61595310  0.43618680  0.49888498  1.0
  O  O61  1  0.29678599  0.41973653  0.58861030  1.0
  O  O62  1  0.27674948  0.39635040  0.42649518  1.0
  O  O63  1  0.11885064  0.56178194  0.49917200  1.0
  O  O64  1  0.82277228  0.91899199  0.09132465  1.0
  O  O65  1  0.46503762  0.92385053  0.91864269  1.0
  O  O66  1  0.30815026  0.10828234  0.92952751  1.0
  O  O67  1  0.48152762  0.91077665  0.08097471  1.0
  O  O68  1  0.32719900  0.10237852  0.09158240  1.0
  O  O69  1  0.80264687  0.90820477  0.92961414  1.0
  O  O70  1  0.64928106  0.07252506  0.00829623  1.0
  O  O71  1  0.98692206  0.11114522  0.08159783  1.0
  O  O72  1  0.96956188  0.09209327  0.91904701  1.0
  O  O73  1  0.14584965  0.94709032  0.00730159  1.0
