# generated using pymatgen
data_ZnH17C12N5O2
_symmetry_space_group_name_H-M   'P 1'
_cell_length_a   10.42161770
_cell_length_b   17.56893157
_cell_length_c   17.56675285
_cell_angle_alpha   119.98527112
_cell_angle_beta   89.99977918
_cell_angle_gamma   89.99997243
_symmetry_Int_Tables_number   1
_chemical_formula_structural   ZnH17C12N5O2
_chemical_formula_sum   'Zn6 H102 C72 N30 O12'
_cell_volume   2785.90979222
_cell_formula_units_Z   6
loop_
 _symmetry_equiv_pos_site_id
 _symmetry_equiv_pos_as_xyz
  1  'x, y, z'
loop_
 _atom_site_type_symbol
 _atom_site_label
 _atom_site_symmetry_multiplicity
 _atom_site_fract_x
 _atom_site_fract_y
 _atom_site_fract_z
 _atom_site_occupancy
  Zn  Zn0  1  0.86261512  0.46810120  0.92202853  1.0
  Zn  Zn1  1  0.69615093  0.92210026  0.45401260  1.0
  Zn  Zn2  1  0.52962299  0.45394905  0.53193507  1.0
  Zn  Zn3  1  0.36261485  0.53189678  0.07797073  1.0
  Zn  Zn4  1  0.19615376  0.07789959  0.54598677  1.0
  Zn  Zn5  1  0.02962304  0.54605201  0.46806508  1.0
  H  H6  1  0.96621758  0.63310736  0.15743339  1.0
  H  H7  1  0.79958602  0.15751929  0.52430280  1.0
  H  H8  1  0.63328494  0.52426110  0.36680280  1.0
  H  H9  1  0.46622015  0.36689108  0.84256488  1.0
  H  H10  1  0.29958386  0.84248288  0.47569942  1.0
  H  H11  1  0.13328207  0.47573757  0.63319352  1.0
  H  H12  1  0.99294846  0.52198437  0.19880073  1.0
  H  H13  1  0.82637022  0.19883177  0.67675931  1.0
  H  H14  1  0.65983318  0.67675706  0.47779270  1.0
  H  H15  1  0.49295409  0.47801459  0.80119802  1.0
  H  H16  1  0.32637292  0.80116798  0.32324178  1.0
  H  H17  1  0.15982828  0.32324162  0.52220689  1.0
  H  H18  1  0.78374630  0.41911615  0.06380307  1.0
  H  H19  1  0.61716582  0.06385301  0.64470371  1.0
  H  H20  1  0.45063597  0.64466847  0.58073384  1.0
  H  H21  1  0.28374616  0.58088036  0.93619351  1.0
  H  H22  1  0.11716244  0.93614306  0.35529529  1.0
  H  H23  1  0.95063577  0.35532928  0.41926178  1.0
  H  H24  1  0.81120431  0.40902136  0.15707020  1.0
  H  H25  1  0.64465158  0.15711024  0.74806891  1.0
  H  H26  1  0.47818824  0.74802809  0.59079349  1.0
  H  H27  1  0.31120573  0.59097566  0.84292686  1.0
  H  H28  1  0.14465183  0.84288545  0.25193033  1.0
  H  H29  1  0.97818915  0.25196886  0.40920393  1.0
  H  H30  1  0.03979353  0.36405376  0.11025815  1.0
  H  H31  1  0.87321592  0.11023349  0.74621904  1.0
  H  H32  1  0.70676297  0.74613995  0.63583111  1.0
  H  H33  1  0.53979291  0.63594703  0.88974108  1.0
  H  H34  1  0.37321613  0.88976414  0.25378051  1.0
  H  H35  1  0.20676683  0.25385823  0.36416988  1.0
  H  H36  1  0.00833521  0.36479383  0.01074153  1.0
  H  H37  1  0.84177204  0.01078379  0.64596640  1.0
  H  H38  1  0.67522760  0.64590425  0.63508532  1.0
  H  H39  1  0.50833298  0.63520343  0.98925683  1.0
  H  H40  1  0.34176958  0.98921528  0.35403529  1.0
  H  H41  1  0.17523137  0.35409384  0.36491365  1.0
  H  H42  1  0.92497213  0.29108071  0.03356441  1.0
  H  H43  1  0.75838159  0.03354144  0.74246630  1.0
  H  H44  1  0.59185831  0.74241003  0.70880923  1.0
  H  H45  1  0.42496977  0.70891559  0.96643507  1.0
  H  H46  1  0.25837786  0.96645673  0.25753329  1.0
  H  H47  1  0.09186552  0.25758675  0.29118919  1.0
  H  H48  1  0.83861703  0.64653327  0.27630250  1.0
  H  H49  1  0.67203537  0.27637535  0.62973833  1.0
  H  H50  1  0.50539501  0.62948711  0.35320721  1.0
  H  H51  1  0.33862423  0.35346469  0.72369349  1.0
  H  H52  1  0.17204072  0.72362248  0.37026433  1.0
  H  H53  1  0.00538350  0.37051148  0.64678985  1.0
  H  H54  1  0.79446940  0.55198503  0.28232008  1.0
  H  H55  1  0.62789410  0.28236637  0.73030970  1.0
  H  H56  1  0.46123549  0.73011789  0.44767639  1.0
  H  H57  1  0.29447751  0.44801391  0.71767629  1.0
  H  H58  1  0.12790011  0.71762993  0.26969016  1.0
  H  H59  1  0.96122586  0.26988106  0.55231911  1.0
  H  H60  1  0.71109868  0.57830638  0.21045232  1.0
  H  H61  1  0.54452160  0.21051847  0.63214192  1.0
  H  H62  1  0.37800381  0.63193753  0.42157437  1.0
  H  H63  1  0.21110539  0.42169043  0.78954204  1.0
  H  H64  1  0.04452307  0.78947855  0.36785878  1.0
  H  H65  1  0.87799777  0.36806247  0.57842164  1.0
  H  H66  1  0.74011592  0.63996454  0.00836561  1.0
  H  H67  1  0.57374258  0.00826231  0.36829573  1.0
  H  H68  1  0.40750530  0.36828033  0.36014956  1.0
  H  H69  1  0.24011945  0.36003351  0.99163192  1.0
  H  H70  1  0.07373256  0.99173770  0.63170070  1.0
  H  H71  1  0.90750343  0.63171861  0.63985191  1.0
  H  H72  1  0.90618794  0.66525941  0.03340675  1.0
  H  H73  1  0.73982043  0.03343052  0.36820171  1.0
  H  H74  1  0.57347194  0.36831775  0.33477018  1.0
  H  H75  1  0.40619165  0.33474012  0.96659072  1.0
  H  H76  1  0.23981427  0.96657421  0.63180052  1.0
  H  H77  1  0.07346873  0.63168118  0.66522846  1.0
  H  H78  1  0.54936141  0.78571534  0.30258867  1.0
  H  H79  1  0.38257491  0.30231528  0.51640641  1.0
  H  H80  1  0.21574758  0.51656160  0.21436481  1.0
  H  H81  1  0.04936697  0.21428912  0.69741026  1.0
  H  H82  1  0.88257304  0.69768550  0.48359563  1.0
  H  H83  1  0.71575256  0.48343558  0.78563714  1.0
  H  H84  1  0.58640612  0.67737145  0.14445089  1.0
  H  H85  1  0.41972868  0.14418178  0.46659221  1.0
  H  H86  1  0.25316082  0.46675150  0.32269285  1.0
  H  H87  1  0.08641632  0.32263539  0.85554775  1.0
  H  H88  1  0.91972444  0.85581863  0.53340546  1.0
  H  H89  1  0.75315975  0.53324546  0.67730685  1.0
  H  H90  1  0.96581445  0.78855411  0.17255325  1.0
  H  H91  1  0.79931684  0.17261828  0.38397564  1.0
  H  H92  1  0.63261863  0.38412662  0.21142248  1.0
  H  H93  1  0.46581533  0.21143999  0.82744594  1.0
  H  H94  1  0.29931186  0.82738625  0.61602763  1.0
  H  H95  1  0.13261846  0.61587311  0.78857620  1.0
  H  H96  1  0.90988784  0.89512155  0.33001486  1.0
  H  H97  1  0.74345580  0.33014941  0.43510955  1.0
  H  H98  1  0.57638008  0.43511567  0.10492955  1.0
  H  H99  1  0.40988504  0.10487724  0.66998448  1.0
  H  H100  1  0.24345416  0.66985334  0.56489464  1.0
  H  H101  1  0.07638022  0.56488562  0.89507013  1.0
  H  H102  1  0.74661859  0.54839974  0.06972926  1.0
  H  H103  1  0.58000308  0.06978875  0.52126689  1.0
  H  H104  1  0.41365178  0.52128876  0.45154279  1.0
  H  H105  1  0.24661956  0.45159887  0.93026882  1.0
  H  H106  1  0.08000274  0.93021239  0.47873065  1.0
  H  H107  1  0.91364967  0.47871100  0.54845556  1.0
  C  C108  1  0.06143903  0.52452947  0.05578159  1.0
  C  C109  1  0.89486876  0.05582751  0.53125573  1.0
  C  C110  1  0.72842817  0.53128070  0.47550286  1.0
  C  C111  1  0.56144011  0.47546803  0.94421628  1.0
  C  C112  1  0.39486751  0.94417244  0.46874480  1.0
  C  C113  1  0.22842696  0.46871884  0.52449552  1.0
  C  C114  1  0.93918165  0.56478362  0.11011511  1.0
  C  C115  1  0.77257385  0.11018320  0.54532792  1.0
  C  C116  1  0.60619199  0.54531883  0.43516041  1.0
  C  C117  1  0.43918481  0.43521577  0.88988348  1.0
  C  C118  1  0.27257371  0.88981593  0.45467064  1.0
  C  C119  1  0.10618766  0.45467858  0.56483731  1.0
  C  C120  1  0.90330030  0.52161143  0.16545547  1.0
  C  C121  1  0.73672399  0.16549965  0.64382285  1.0
  C  C122  1  0.57025689  0.64377684  0.47822391  1.0
  C  C123  1  0.40330283  0.47838745  0.83454267  1.0
  C  C124  1  0.23672453  0.83449823  0.35617714  1.0
  C  C125  1  0.07025292  0.35622162  0.52177294  1.0
  C  C126  1  0.85829407  0.42553297  0.11122299  1.0
  C  C127  1  0.69172702  0.11127298  0.68570649  1.0
  C  C128  1  0.52525299  0.68566565  0.57431791  1.0
  C  C129  1  0.35829521  0.57446331  0.88877457  1.0
  C  C130  1  0.19172491  0.88872475  0.31429275  1.0
  C  C131  1  0.02525544  0.31433224  0.42567974  1.0
  C  C132  1  0.96435744  0.35793856  0.06371898  1.0
  C  C133  1  0.79777002  0.06372895  0.70578272  1.0
  C  C134  1  0.63127756  0.70573097  0.64194327  1.0
  C  C135  1  0.46435341  0.64206159  0.93628100  1.0
  C  C136  1  0.29776896  0.93626915  0.29421675  1.0
  C  C137  1  0.13128239  0.29426720  0.35805584  1.0
  C  C138  1  0.80623066  0.57795250  0.23737470  1.0
  C  C139  1  0.63966700  0.23743432  0.65940373  1.0
  C  C140  1  0.47308789  0.65922993  0.42183056  1.0
  C  C141  1  0.30623754  0.42204642  0.76262163  1.0
  C  C142  1  0.13967058  0.76256342  0.34059690  1.0
  C  C143  1  0.97308091  0.34077080  0.57816538  1.0
  C  C144  1  0.81646188  0.64977610  0.05557956  1.0
  C  C145  1  0.64999931  0.05552727  0.40573575  1.0
  C  C146  1  0.48359236  0.40579190  0.35027402  1.0
  C  C147  1  0.31646572  0.35022229  0.94441952  1.0
  C  C148  1  0.14999245  0.94447355  0.59426402  1.0
  C  C149  1  0.98359045  0.59420893  0.64972859  1.0
  C  C150  1  0.63998276  0.78346703  0.27072948  1.0
  C  C151  1  0.47332773  0.27055182  0.48700017  1.0
  C  C152  1  0.30647630  0.48705023  0.21659404  1.0
  C  C153  1  0.13998908  0.21653465  0.72926721  1.0
  C  C154  1  0.97332852  0.72944562  0.51299906  1.0
  C  C155  1  0.80647551  0.51294875  0.78340564  1.0
  C  C156  1  0.66226081  0.72342751  0.18284855  1.0
  C  C157  1  0.49562286  0.18264904  0.45904368  1.0
  C  C158  1  0.32892753  0.45916421  0.27660153  1.0
  C  C159  1  0.16226458  0.27657437  0.81714897  1.0
  C  C160  1  0.99561572  0.81735072  0.54095653  1.0
  C  C161  1  0.82893286  0.54083374  0.72339906  1.0
  C  C162  1  0.78199953  0.72243439  0.14627781  1.0
  C  C163  1  0.61549497  0.14618206  0.42364970  1.0
  C  C164  1  0.44884462  0.42378682  0.27760977  1.0
  C  C165  1  0.28200019  0.27756505  0.85372040  1.0
  C  C166  1  0.11548927  0.85382176  0.57635180  1.0
  C  C167  1  0.94884610  0.57621213  0.72239034  1.0
  C  C168  1  0.87189997  0.78637221  0.19886173  1.0
  C  C169  1  0.70541289  0.19887053  0.41245265  1.0
  C  C170  1  0.53863895  0.41254319  0.21364185  1.0
  C  C171  1  0.37190294  0.21362599  0.80113840  1.0
  C  C172  1  0.20540812  0.80113468  0.58754815  1.0
  C  C173  1  0.03863787  0.58745728  0.78635771  1.0
  C  C174  1  0.84228813  0.84506340  0.28624155  1.0
  C  C175  1  0.67573790  0.28624608  0.44114597  1.0
  C  C176  1  0.50882035  0.44123171  0.15496151  1.0
  C  C177  1  0.34229076  0.15493519  0.71375834  1.0
  C  C178  1  0.17573627  0.71375869  0.55885770  1.0
  C  C179  1  0.00882274  0.55876580  0.84503776  1.0
  N  N180  1  0.83354756  0.56467657  0.05383634  1.0
  N  N181  1  0.66697241  0.05387781  0.48917242  1.0
  N  N182  1  0.50059420  0.48916218  0.43534584  1.0
  N  N183  1  0.33354940  0.43532244  0.94616203  1.0
  N  N184  1  0.16697089  0.94612365  0.51082663  1.0
  N  N185  1  0.00059174  0.51083837  0.56465384  1.0
  N  N186  1  0.72954736  0.84236056  0.32242254  1.0
  N  N187  1  0.56294241  0.32233950  0.47997114  1.0
  N  N188  1  0.39598083  0.48002819  0.15772300  1.0
  N  N189  1  0.22955022  0.15763922  0.67757674  1.0
  N  N190  1  0.06294394  0.67766368  0.52003241  1.0
  N  N191  1  0.89598542  0.51997020  0.84227794  1.0
  N  N192  1  0.85535159  0.33883705  0.87185541  1.0
  N  N193  1  0.68866241  0.87184087  0.53307743  1.0
  N  N194  1  0.52211218  0.53302711  0.66120558  1.0
  N  N195  1  0.35535952  0.66115954  0.12814642  1.0
  N  N196  1  0.18867627  0.12816379  0.46692742  1.0
  N  N197  1  0.02211315  0.46697183  0.33879445  1.0
  N  N198  1  0.76030680  0.31019592  0.88790369  1.0
  N  N199  1  0.59355419  0.88789806  0.57771461  1.0
  N  N200  1  0.42702319  0.57767698  0.68974871  1.0
  N  N201  1  0.26031673  0.68979962  0.11209853  1.0
  N  N202  1  0.09357410  0.11210782  0.42229292  1.0
  N  N203  1  0.92702076  0.42232479  0.31025098  1.0
  N  N204  1  0.66916545  0.28084010  0.90249375  1.0
  N  N205  1  0.50238105  0.90252333  0.62163033  1.0
  N  N206  1  0.33585488  0.62160225  0.71901204  1.0
  N  N207  1  0.16917353  0.71915830  0.09750948  1.0
  N  N208  1  0.00239455  0.09748053  0.37837398  1.0
  N  N209  1  0.83585460  0.37839937  0.28098826  1.0
  O  O210  1  0.05814867  0.48921966  0.97205260  1.0
  O  O211  1  0.89155810  0.97209803  0.48290994  1.0
  O  O212  1  0.72514643  0.48290640  0.51087576  1.0
  O  O213  1  0.55814896  0.51077637  0.02794447  1.0
  O  O214  1  0.39155828  0.02790217  0.51709150  1.0
  O  O215  1  0.22514542  0.51709518  0.48912401  1.0
  O  O216  1  0.15960311  0.52980143  0.10028957  1.0
  O  O217  1  0.99305490  0.10031381  0.57045853  1.0
  O  O218  1  0.82658087  0.57053817  0.47024533  1.0
  O  O219  1  0.65960544  0.47019791  0.89970935  1.0
  O  O220  1  0.49305395  0.89968605  0.42954046  1.0
  O  O221  1  0.32658063  0.42946095  0.52975183  1.0
