# generated using pymatgen
data_Zn4H3C24S4NO15F4
_symmetry_space_group_name_H-M   'P 1'
_cell_length_a   19.62757770
_cell_length_b   19.69120105
_cell_length_c   33.32747171
_cell_angle_alpha   79.26965794
_cell_angle_beta   79.45125424
_cell_angle_gamma   64.11427451
_symmetry_Int_Tables_number   1
_chemical_formula_structural   Zn4H3C24S4NO15F4
_chemical_formula_sum   'Zn16 H12 C96 S16 N4 O60 F16'
_cell_volume   11310.01371505
_cell_formula_units_Z   4
loop_
 _symmetry_equiv_pos_site_id
 _symmetry_equiv_pos_as_xyz
  1  'x, y, z'
loop_
 _atom_site_type_symbol
 _atom_site_label
 _atom_site_symmetry_multiplicity
 _atom_site_fract_x
 _atom_site_fract_y
 _atom_site_fract_z
 _atom_site_occupancy
  Zn  Zn0  1  0.05655312  0.40162350  0.47789769  1.0
  Zn  Zn1  1  0.98266108  0.48394493  0.56014805  1.0
  Zn  Zn2  1  0.06137287  0.55922800  0.48230577  1.0
  Zn  Zn3  1  0.89942850  0.55498773  0.47974328  1.0
  Zn  Zn4  1  0.69447891  0.34937387  0.27123082  1.0
  Zn  Zn5  1  0.69238127  0.18748501  0.26711062  1.0
  Zn  Zn6  1  0.76683394  0.26855176  0.18985862  1.0
  Zn  Zn7  1  0.84897087  0.19467051  0.27271681  1.0
  Zn  Zn8  1  0.26543554  0.76765109  0.68940365  1.0
  Zn  Zn9  1  0.34801818  0.69537007  0.77155249  1.0
  Zn  Zn10  1  0.19331068  0.85029672  0.77045550  1.0
  Zn  Zn11  1  0.18999588  0.68892767  0.76644442  1.0
  Zn  Zn12  1  0.56014591  0.06100879  0.98297821  1.0
  Zn  Zn13  1  0.40065722  0.05499102  0.97824724  1.0
  Zn  Zn14  1  0.55555045  0.90176620  0.97802482  1.0
  Zn  Zn15  1  0.48217289  0.98505500  0.06029458  1.0
  H  H16  1  0.95247937  0.24980985  0.35165020  1.0
  H  H17  1  0.74669733  0.45649311  0.35063548  1.0
  H  H18  1  0.99981263  0.29801618  0.40048117  1.0
  H  H19  1  0.09778447  0.59646332  0.69950215  1.0
  H  H20  1  0.20035026  0.70193193  0.59699673  1.0
  H  H21  1  0.05095415  0.54834711  0.65034901  1.0
  H  H22  1  0.54986683  0.05127621  0.15245476  1.0
  H  H23  1  0.65399143  0.15289803  0.04882460  1.0
  H  H24  1  0.59853230  0.10034810  0.20014357  1.0
  H  H25  1  0.50117672  0.79634274  0.89830287  1.0
  H  H26  1  0.29485898  0.00248456  0.89927577  1.0
  H  H27  1  0.45150571  0.75028106  0.84959583  1.0
  C  C28  1  0.06197151  0.31740453  0.56113302  1.0
  C  C29  1  0.07049859  0.56729129  0.56859273  1.0
  C  C30  1  0.18423627  0.43900375  0.43762126  1.0
  C  C31  1  0.93763586  0.68207684  0.43941669  1.0
  C  C32  1  0.93062646  0.42946591  0.43241216  1.0
  C  C33  1  0.81598771  0.56164960  0.56260867  1.0
  C  C34  1  0.56681665  0.30962146  0.31022053  1.0
  C  C35  1  0.68019211  0.18246325  0.18133337  1.0
  C  C36  1  0.69116731  0.43495180  0.18861202  1.0
  C  C37  1  0.93298569  0.18684953  0.18918583  1.0
  C  C38  1  0.81818430  0.32132469  0.31946391  1.0
  C  C39  1  0.81348843  0.06539258  0.31261488  1.0
  C  C40  1  0.43257673  0.69032797  0.68875592  1.0
  C  C41  1  0.31938760  0.82005318  0.81776738  1.0
  C  C42  1  0.18575472  0.93412736  0.68746763  1.0
  C  C43  1  0.06783542  0.80978839  0.81197667  1.0
  C  C44  1  0.18016371  0.68063344  0.68017545  1.0
  C  C45  1  0.31236193  0.56536282  0.81029313  1.0
  C  C46  1  0.43769257  0.18387921  0.93874549  1.0
  C  C47  1  0.43034904  0.93053961  0.93042467  1.0
  C  C48  1  0.68376840  0.93975657  0.93828239  1.0
  C  C49  1  0.56034343  0.81779165  0.06137866  1.0
  C  C50  1  0.56963399  0.07061888  0.06911483  1.0
  C  C51  1  0.31517946  0.06238264  0.06119825  1.0
  C  C52  1  0.90116262  0.40400765  0.40237357  1.0
  C  C53  1  0.84700929  0.35006585  0.34828026  1.0
  C  C54  1  0.83009809  0.44794484  0.38771373  1.0
  C  C55  1  0.91848263  0.30541109  0.36212926  1.0
  C  C56  1  0.80231305  0.42174292  0.36133022  1.0
  C  C57  1  0.94476879  0.33220332  0.38901766  1.0
  C  C58  1  0.09784592  0.59891675  0.59657857  1.0
  C  C59  1  0.15172814  0.65185032  0.65122597  1.0
  C  C60  1  0.13974372  0.64269321  0.58218098  1.0
  C  C61  1  0.10944550  0.60884884  0.66639864  1.0
  C  C62  1  0.16740721  0.66856422  0.60878846  1.0
  C  C63  1  0.08327407  0.58252447  0.63923018  1.0
  C  C64  1  0.30544449  0.45227536  0.39978839  1.0
  C  C65  1  0.44631569  0.29573693  0.34892194  1.0
  C  C66  1  0.25923078  0.41370144  0.41322941  1.0
  C  C67  1  0.49251460  0.33427707  0.33533222  1.0
  C  C68  1  0.37831662  0.33788346  0.37273483  1.0
  C  C69  1  0.37413946  0.40951532  0.37660467  1.0
  C  C70  1  0.72439786  0.57634857  0.62975919  1.0
  C  C71  1  0.52427966  0.67375731  0.62172622  1.0
  C  C72  1  0.74140292  0.58628122  0.58738503  1.0
  C  C73  1  0.50722572  0.66465061  0.66413609  1.0
  C  C74  1  0.60330568  0.64213666  0.60885830  1.0
  C  C75  1  0.64541410  0.60834922  0.64265354  1.0
  C  C76  1  0.07726855  0.22552260  0.62829300  1.0
  C  C77  1  0.17245499  0.02596058  0.62039254  1.0
  C  C78  1  0.08668875  0.24280140  0.58590243  1.0
  C  C79  1  0.16210661  0.00871028  0.66274367  1.0
  C  C80  1  0.14149047  0.10482787  0.60747597  1.0
  C  C81  1  0.10806088  0.14663077  0.64122884  1.0
  C  C82  1  0.84544622  0.79937174  0.39734700  1.0
  C  C83  1  0.90624176  0.94713865  0.35396119  1.0
  C  C84  1  0.91321054  0.75662474  0.41453682  1.0
  C  C85  1  0.83821636  0.99046502  0.33709916  1.0
  C  C86  1  0.90945885  0.87752594  0.37610851  1.0
  C  C87  1  0.84221943  0.86907569  0.37530337  1.0
  C  C88  1  0.65430384  0.15258139  0.15167387  1.0
  C  C89  1  0.59883353  0.09914143  0.09788473  1.0
  C  C90  1  0.66959246  0.16635456  0.10884120  1.0
  C  C91  1  0.58340101  0.08398190  0.14052281  1.0
  C  C92  1  0.64194736  0.14100082  0.08194962  1.0
  C  C93  1  0.61062801  0.11084470  0.16691770  1.0
  C  C94  1  0.67398879  0.52645189  0.12126694  1.0
  C  C95  1  0.57570605  0.72615136  0.12866185  1.0
  C  C96  1  0.66508575  0.50947780  0.16370221  1.0
  C  C97  1  0.58487879  0.74324453  0.08624608  1.0
  C  C98  1  0.60757193  0.64734168  0.14178395  1.0
  C  C99  1  0.64126087  0.60527723  0.10815733  1.0
  C  C100  1  0.07963781  0.12481965  0.17703505  1.0
  C  C101  1  0.16840089  0.12481998  0.07324059  1.0
  C  C102  1  0.00745883  0.16236477  0.16417639  1.0
  C  C103  1  0.24062544  0.08700455  0.08606388  1.0
  C  C104  1  0.10923992  0.13880716  0.10611822  1.0
  C  C105  1  0.13872693  0.11073068  0.14415481  1.0
  C  C106  1  0.34560065  0.84909695  0.84767774  1.0
  C  C107  1  0.40122135  0.90203433  0.90162691  1.0
  C  C108  1  0.30219815  0.91989111  0.86232272  1.0
  C  C109  1  0.44535223  0.83077814  0.88783851  1.0
  C  C110  1  0.32924850  0.94709477  0.88857965  1.0
  C  C111  1  0.41774241  0.80513343  0.86102440  1.0
  C  C112  1  0.40499524  0.44862580  0.85241473  1.0
  C  C113  1  0.34456039  0.30128219  0.89730322  1.0
  C  C114  1  0.33687847  0.49121530  0.83556407  1.0
  C  C115  1  0.41283051  0.25847192  0.91396269  1.0
  C  C116  1  0.34107308  0.37073739  0.87485614  1.0
  C  C117  1  0.40845916  0.37929244  0.87503597  1.0
  C  C118  1  0.94605268  0.79710639  0.84924669  1.0
  C  C119  1  0.80536877  0.95274169  0.90077699  1.0
  C  C120  1  0.99306714  0.83501731  0.83673114  1.0
  C  C121  1  0.75844947  0.91475638  0.91350105  1.0
  C  C122  1  0.87398289  0.91037590  0.87740660  1.0
  C  C123  1  0.87756453  0.83938114  0.87268426  1.0
  S  S124  1  0.30006128  0.32319496  0.39755992  1.0
  S  S125  1  0.45252418  0.42406991  0.35186843  1.0
  S  S126  1  0.65968774  0.63542856  0.56241686  1.0
  S  S127  1  0.58900487  0.61609791  0.68912919  1.0
  S  S128  1  0.13431190  0.16137282  0.56099493  1.0
  S  S129  1  0.11399656  0.09008826  0.68766911  1.0
  S  S130  1  0.97464710  0.80189580  0.40379020  1.0
  S  S131  1  0.77652776  0.94539109  0.34823881  1.0
  S  S132  1  0.61544154  0.59104985  0.18838008  1.0
  S  S133  1  0.63344714  0.66157426  0.06155556  1.0
  S  S134  1  0.01113039  0.18102429  0.11080556  1.0
  S  S135  1  0.23681241  0.06796884  0.13945627  1.0
  S  S136  1  0.27515611  0.44630173  0.84756766  1.0
  S  S137  1  0.47441945  0.30357425  0.90222962  1.0
  S  S138  1  0.95334050  0.92430716  0.85382097  1.0
  S  S139  1  0.79851297  0.82519648  0.89662550  1.0
  N  N140  1  0.78157285  0.52621977  0.39807761  1.0
  N  N141  1  0.15439262  0.66689800  0.53780569  1.0
  N  N142  1  0.71863539  0.20612705  0.08950292  1.0
  N  N143  1  0.22356175  0.96888571  0.85210632  1.0
  O  O144  1  0.00016950  0.49965369  0.49988316  1.0
  O  O145  1  0.07370468  0.31638973  0.52207415  1.0
  O  O146  1  0.02154885  0.54111653  0.58508008  1.0
  O  O147  1  0.15295295  0.50774810  0.44535943  1.0
  O  O148  1  0.03155007  0.37566382  0.58047346  1.0
  O  O149  1  0.15715576  0.38886138  0.44866211  1.0
  O  O150  1  0.09916202  0.56807926  0.53112968  1.0
  O  O151  1  0.00139632  0.65867541  0.45384048  1.0
  O  O152  1  0.88281953  0.48542438  0.45103640  1.0
  O  O153  1  0.89404664  0.64782671  0.44427786  1.0
  O  O154  1  0.00101902  0.39179914  0.43715070  1.0
  O  O155  1  0.87437213  0.52046333  0.58139336  1.0
  O  O156  1  0.81496898  0.58418411  0.52402467  1.0
  O  O157  1  0.75044020  0.25013607  0.25031425  1.0
  O  O158  1  0.59745864  0.35694334  0.30326767  1.0
  O  O159  1  0.67537577  0.15434977  0.21886767  1.0
  O  O160  1  0.73186717  0.37705027  0.16972547  1.0
  O  O161  1  0.59373942  0.24442564  0.29771284  1.0
  O  O162  1  0.67044135  0.43554398  0.22738088  1.0
  O  O163  1  0.70348159  0.23406941  0.16668351  1.0
  O  O164  1  0.87479754  0.21842393  0.16913221  1.0
  O  O165  1  0.86138845  0.25524706  0.30924845  1.0
  O  O166  1  0.93311064  0.17475619  0.22810288  1.0
  O  O167  1  0.75312507  0.36539013  0.30771591  1.0
  O  O168  1  0.74622229  0.09272911  0.30181422  1.0
  O  O169  1  0.86019294  0.09653301  0.30433740  1.0
  O  O170  1  0.24899531  0.75053732  0.74977370  1.0
  O  O171  1  0.37410928  0.72293031  0.66932474  1.0
  O  O172  1  0.35792186  0.75031606  0.81238435  1.0
  O  O173  1  0.16468046  0.93496049  0.72616009  1.0
  O  O174  1  0.43362850  0.67723879  0.72787198  1.0
  O  O175  1  0.22470478  0.87589753  0.66851173  1.0
  O  O176  1  0.26193808  0.86749738  0.79987069  1.0
  O  O177  1  0.09974848  0.85598184  0.80569512  1.0
  O  O178  1  0.16507074  0.66283814  0.71847836  1.0
  O  O179  1  0.09369447  0.74507615  0.79909062  1.0
  O  O180  1  0.21692646  0.72050926  0.66392376  1.0
  O  O181  1  0.35970555  0.59560679  0.80118389  1.0
  O  O182  1  0.24497314  0.59252086  0.79970070  1.0
  O  O183  1  0.50005992  0.00029417  0.99988148  1.0
  O  O184  1  0.50436812  0.15755959  0.95017847  1.0
  O  O185  1  0.38642556  0.99564569  0.94173299  1.0
  O  O186  1  0.65328303  0.89220595  0.94591173  1.0
  O  O187  1  0.39138946  0.15237673  0.94653937  1.0
  O  O188  1  0.65624173  0.00567404  0.94991593  1.0
  O  O189  1  0.49641947  0.88726482  0.94108644  1.0
  O  O190  1  0.57679216  0.81661328  0.02239274  1.0
  O  O191  1  0.53039044  0.03324096  0.08552338  1.0
  O  O192  1  0.52542197  0.87622217  0.08051784  1.0
  O  O193  1  0.58654587  0.08624064  0.03076671  1.0
  O  O194  1  0.31552418  0.07687472  0.02226825  1.0
  O  O195  1  0.37334773  0.02818567  0.08125889  1.0
  O  O196  1  0.80397619  0.57581456  0.38216064  1.0
  O  O197  1  0.72086521  0.53599278  0.42007726  1.0
  O  O198  1  0.09928077  0.71594870  0.52094758  1.0
  O  O199  1  0.22114085  0.63892005  0.52192267  1.0
  O  O200  1  0.78753613  0.17121506  0.09264802  1.0
  O  O201  1  0.68703515  0.26930980  0.07003891  1.0
  O  O202  1  0.17353190  0.94723896  0.86844201  1.0
  O  O203  1  0.21398262  0.02919423  0.82978828  1.0
  F  F204  1  0.28827406  0.52262172  0.40764416  1.0
  F  F205  1  0.46312304  0.22555301  0.34071418  1.0
  F  F206  1  0.77644707  0.54082073  0.65646520  1.0
  F  F207  1  0.47231250  0.70898135  0.59502355  1.0
  F  F208  1  0.04231646  0.27721872  0.65495959  1.0
  F  F209  1  0.20761732  0.97426802  0.59373180  1.0
  F  F210  1  0.78793639  0.77839486  0.40109776  1.0
  F  F211  1  0.96393802  0.96800630  0.35014527  1.0
  F  F212  1  0.70939409  0.47467435  0.09473531  1.0
  F  F213  1  0.54060636  0.77805879  0.15522357  1.0
  F  F214  1  0.09359870  0.10333357  0.21643026  1.0
  F  F215  1  0.15453128  0.14657066  0.03386615  1.0
  F  F216  1  0.46258671  0.46975474  0.84820612  1.0
  F  F217  1  0.28694042  0.28024151  0.90151974  1.0
  F  F218  1  0.96256717  0.72734605  0.84049909  1.0
  F  F219  1  0.78873074  0.02257168  0.90938034  1.0
