# generated using pymatgen
data_InHC8O5F4
_symmetry_space_group_name_H-M   'P 1'
_cell_length_a   13.90585822
_cell_length_b   17.16764390
_cell_length_c   21.76232280
_cell_angle_alpha   89.99968224
_cell_angle_beta   90.00006732
_cell_angle_gamma   89.99994066
_symmetry_Int_Tables_number   1
_chemical_formula_structural   InHC8O5F4
_chemical_formula_sum   'In12 H12 C96 O60 F48'
_cell_volume   5195.33721156
_cell_formula_units_Z   12
loop_
 _symmetry_equiv_pos_site_id
 _symmetry_equiv_pos_as_xyz
  1  'x, y, z'
loop_
 _atom_site_type_symbol
 _atom_site_label
 _atom_site_symmetry_multiplicity
 _atom_site_fract_x
 _atom_site_fract_y
 _atom_site_fract_z
 _atom_site_occupancy
  In  In0  1  0.74999477  0.25082239  0.24999970  1.0
  In  In1  1  0.74999523  0.24917685  0.74999964  1.0
  In  In2  1  0.25000707  0.74917753  0.75000019  1.0
  In  In3  1  0.25000589  0.75082365  0.25000072  1.0
  In  In4  1  0.75132499  0.24910812  0.08371782  1.0
  In  In5  1  0.75132647  0.25089345  0.91628290  1.0
  In  In6  1  0.74867677  0.24910230  0.41628480  1.0
  In  In7  1  0.74867764  0.25089345  0.58371408  1.0
  In  In8  1  0.24867828  0.75089879  0.91628253  1.0
  In  In9  1  0.24867537  0.74910764  0.08371792  1.0
  In  In10  1  0.25132506  0.75089180  0.58371371  1.0
  In  In11  1  0.25132276  0.74910530  0.41628536  1.0
  H  H12  1  0.87570068  0.29871272  0.16733981  1.0
  H  H13  1  0.87569991  0.20128816  0.83265917  1.0
  H  H14  1  0.62429887  0.29871399  0.33266582  1.0
  H  H15  1  0.62429708  0.20128419  0.66733297  1.0
  H  H16  1  0.12430044  0.70129011  0.83265963  1.0
  H  H17  1  0.12429905  0.79871176  0.16734073  1.0
  H  H18  1  0.37570225  0.70128476  0.66733316  1.0
  H  H19  1  0.37570332  0.79871515  0.33266738  1.0
  H  H20  1  0.60571885  0.24998977  0.99999909  1.0
  H  H21  1  0.89428742  0.25000830  0.49999927  1.0
  H  H22  1  0.39428246  0.74999033  0.99999838  1.0
  H  H23  1  0.10571226  0.75000968  0.49999787  1.0
  C  C24  1  0.61434676  0.35637537  0.16792270  1.0
  C  C25  1  0.61434175  0.14362399  0.83207838  1.0
  C  C26  1  0.88565775  0.35637585  0.33207854  1.0
  C  C27  1  0.88565603  0.14362270  0.66792137  1.0
  C  C28  1  0.38565651  0.64362397  0.83207719  1.0
  C  C29  1  0.38565721  0.85637768  0.16792290  1.0
  C  C30  1  0.11434697  0.64362058  0.66792090  1.0
  C  C31  1  0.11434293  0.85637547  0.33207991  1.0
  C  C32  1  0.54473361  0.42327510  0.16512503  1.0
  C  C33  1  0.54473444  0.07672490  0.83487461  1.0
  C  C34  1  0.95526722  0.42327549  0.33487591  1.0
  C  C35  1  0.95526702  0.07672532  0.66512543  1.0
  C  C36  1  0.45526679  0.57672599  0.83487394  1.0
  C  C37  1  0.45526884  0.92327619  0.16512666  1.0
  C  C38  1  0.04473462  0.57672501  0.66512490  1.0
  C  C39  1  0.04473410  0.92327285  0.33487631  1.0
  C  C40  1  0.47923175  0.43657731  0.21285748  1.0
  C  C41  1  0.47923467  0.06342216  0.78714304  1.0
  C  C42  1  0.02076317  0.43658073  0.28714211  1.0
  C  C43  1  0.02076524  0.06342203  0.71285668  1.0
  C  C44  1  0.52076433  0.56342029  0.78714058  1.0
  C  C45  1  0.52077004  0.93658009  0.21285732  1.0
  C  C46  1  0.97923435  0.56341919  0.71285687  1.0
  C  C47  1  0.97923444  0.93657789  0.28714460  1.0
  C  C48  1  0.41841634  0.50103638  0.21257334  1.0
  C  C49  1  0.41842014  0.99896349  0.78742540  1.0
  C  C50  1  0.08157707  0.50104034  0.28742413  1.0
  C  C51  1  0.08158074  0.99896215  0.71257343  1.0
  C  C52  1  0.58157975  0.49896063  0.78742472  1.0
  C  C53  1  0.58158242  0.00103876  0.21257357  1.0
  C  C54  1  0.91842189  0.49896017  0.71257301  1.0
  C  C55  1  0.91841894  0.00103835  0.28742693  1.0
  C  C56  1  0.42017882  0.55474747  0.16410183  1.0
  C  C57  1  0.42017919  0.94525298  0.83589737  1.0
  C  C58  1  0.07981883  0.55474993  0.33589770  1.0
  C  C59  1  0.07981744  0.94525256  0.66410078  1.0
  C  C60  1  0.57982086  0.44524837  0.83589669  1.0
  C  C61  1  0.57982337  0.05475043  0.16410207  1.0
  C  C62  1  0.92018013  0.44525058  0.66410036  1.0
  C  C63  1  0.92018008  0.05474794  0.33589866  1.0
  C  C64  1  0.48501837  0.54106665  0.11599948  1.0
  C  C65  1  0.48501880  0.95893259  0.88400160  1.0
  C  C66  1  0.01497930  0.54106823  0.38400057  1.0
  C  C67  1  0.01497637  0.95893256  0.61599970  1.0
  C  C68  1  0.51498203  0.45892978  0.88399904  1.0
  C  C69  1  0.51498376  0.04106908  0.11599967  1.0
  C  C70  1  0.98502110  0.45893344  0.61599887  1.0
  C  C71  1  0.98502043  0.04106736  0.38400111  1.0
  C  C72  1  0.54608979  0.47661747  0.11646605  1.0
  C  C73  1  0.54609078  0.02338194  0.88353406  1.0
  C  C74  1  0.95390881  0.47661928  0.38353558  1.0
  C  C75  1  0.95390499  0.02338212  0.61646576  1.0
  C  C76  1  0.45391061  0.52338070  0.88353201  1.0
  C  C77  1  0.45391178  0.97661856  0.11646630  1.0
  C  C78  1  0.04609231  0.52338181  0.61646615  1.0
  C  C79  1  0.04609181  0.97661721  0.38353506  1.0
  C  C80  1  0.35529677  0.62464877  0.16380940  1.0
  C  C81  1  0.35529291  0.87535291  0.83618975  1.0
  C  C82  1  0.14469792  0.62465233  0.33619074  1.0
  C  C83  1  0.14470093  0.87535127  0.66380871  1.0
  C  C84  1  0.64470507  0.37534999  0.83618957  1.0
  C  C85  1  0.64470605  0.12465051  0.16380831  1.0
  C  C86  1  0.85529817  0.37535051  0.66380916  1.0
  C  C87  1  0.85529731  0.12464806  0.33618981  1.0
  C  C88  1  0.87041527  0.13392774  0.99420411  1.0
  C  C89  1  0.87041710  0.36607198  0.00579808  1.0
  C  C90  1  0.62958467  0.13392548  0.50579614  1.0
  C  C91  1  0.62958739  0.36607386  0.49420312  1.0
  C  C92  1  0.12958297  0.86607218  0.00579671  1.0
  C  C93  1  0.12958545  0.63392736  0.99420319  1.0
  C  C94  1  0.37041285  0.86607153  0.49420514  1.0
  C  C95  1  0.37041373  0.63392722  0.50579724  1.0
  C  C96  1  0.93691391  0.06506852  0.99714469  1.0
  C  C97  1  0.93691565  0.43493290  0.00285663  1.0
  C  C98  1  0.56308540  0.06506808  0.50285586  1.0
  C  C99  1  0.56308588  0.43493248  0.49714564  1.0
  C  C100  1  0.06308433  0.93493198  0.00285705  1.0
  C  C101  1  0.06308547  0.56506761  0.99714464  1.0
  C  C102  1  0.43691428  0.93492951  0.49714496  1.0
  C  C103  1  0.43691596  0.56506860  0.50285655  1.0
  C  C104  1  0.93705115  0.01508538  0.04801450  1.0
  C  C105  1  0.93705455  0.48491429  0.95198591  1.0
  C  C106  1  0.56294516  0.01508528  0.45198686  1.0
  C  C107  1  0.56294639  0.48491412  0.54801510  1.0
  C  C108  1  0.06294637  0.98491396  0.95198770  1.0
  C  C109  1  0.06294585  0.51508563  0.04801491  1.0
  C  C110  1  0.43705380  0.98491348  0.54801442  1.0
  C  C111  1  0.43705329  0.51508755  0.45198663  1.0
  C  C112  1  0.99897338  0.95135534  0.05073461  1.0
  C  C113  1  0.99897733  0.54864463  0.94926641  1.0
  C  C114  1  0.50102246  0.95135474  0.44926724  1.0
  C  C115  1  0.50102424  0.54864565  0.55073432  1.0
  C  C116  1  0.00102199  0.04864400  0.94926667  1.0
  C  C117  1  0.00102163  0.45135646  0.05073532  1.0
  C  C118  1  0.49897794  0.04864402  0.55073449  1.0
  C  C119  1  0.49897759  0.45135543  0.44926650  1.0
  O  O120  1  0.65445941  0.34602139  0.21968468  1.0
  O  O121  1  0.65445500  0.15397851  0.78031459  1.0
  O  O122  1  0.84554439  0.34602459  0.28031569  1.0
  O  O123  1  0.84554132  0.15397690  0.71968419  1.0
  O  O124  1  0.34554315  0.65397969  0.78031476  1.0
  O  O125  1  0.34554396  0.84602257  0.21968484  1.0
  O  O126  1  0.15446320  0.65397067  0.71968329  1.0
  O  O127  1  0.15445692  0.84602244  0.28031663  1.0
  O  O128  1  0.62695797  0.31751406  0.11903141  1.0
  O  O129  1  0.62695444  0.18248762  0.88096968  1.0
  O  O130  1  0.87305018  0.31751071  0.38097046  1.0
  O  O131  1  0.87304689  0.18248668  0.61902852  1.0
  O  O132  1  0.37304315  0.68248644  0.88096894  1.0
  O  O133  1  0.37304380  0.81751580  0.11903022  1.0
  O  O134  1  0.12695454  0.68248455  0.61902852  1.0
  O  O135  1  0.12695279  0.81751091  0.38097138  1.0
  O  O136  1  0.34663929  0.66063897  0.21443443  1.0
  O  O137  1  0.34663610  0.83936446  0.78556379  1.0
  O  O138  1  0.15335751  0.66064113  0.28556463  1.0
  O  O139  1  0.15336210  0.83936363  0.71443574  1.0
  O  O140  1  0.65336183  0.33935979  0.78556409  1.0
  O  O141  1  0.65336645  0.16064070  0.21443381  1.0
  O  O142  1  0.84663930  0.33936228  0.71443664  1.0
  O  O143  1  0.84664118  0.16063629  0.28556232  1.0
  O  O144  1  0.31644474  0.64085678  0.11265535  1.0
  O  O145  1  0.31644243  0.85914610  0.88734240  1.0
  O  O146  1  0.18354561  0.64086053  0.38734656  1.0
  O  O147  1  0.18354783  0.85914013  0.61265338  1.0
  O  O148  1  0.68355997  0.35914256  0.88734271  1.0
  O  O149  1  0.68355437  0.14085965  0.11265337  1.0
  O  O150  1  0.81644760  0.35914231  0.61265471  1.0
  O  O151  1  0.81644681  0.14085513  0.38734422  1.0
  O  O152  1  0.86383083  0.17473517  0.04246646  1.0
  O  O153  1  0.86383084  0.32526630  0.95753619  1.0
  O  O154  1  0.63617247  0.17473206  0.45753328  1.0
  O  O155  1  0.63617246  0.32526902  0.54246690  1.0
  O  O156  1  0.13617101  0.82526941  0.95753344  1.0
  O  O157  1  0.13617243  0.67473303  0.04246601  1.0
  O  O158  1  0.36382649  0.82526786  0.54246846  1.0
  O  O159  1  0.36382651  0.67473148  0.45753300  1.0
  O  O160  1  0.82813520  0.14463355  0.94304363  1.0
  O  O161  1  0.82814001  0.35536505  0.05695899  1.0
  O  O162  1  0.67186330  0.14463031  0.55695795  1.0
  O  O163  1  0.67186306  0.35536842  0.44304180  1.0
  O  O164  1  0.17186161  0.85536579  0.05695718  1.0
  O  O165  1  0.17186542  0.64463196  0.94304229  1.0
  O  O166  1  0.32813638  0.85536728  0.44304425  1.0
  O  O167  1  0.32813662  0.64463150  0.55695810  1.0
  O  O168  1  0.83053125  0.25525599  0.16695022  1.0
  O  O169  1  0.83053402  0.24474784  0.83305010  1.0
  O  O170  1  0.66946044  0.25525023  0.33304778  1.0
  O  O171  1  0.66946003  0.24474558  0.66695104  1.0
  O  O172  1  0.16946843  0.74474917  0.83304967  1.0
  O  O173  1  0.16946494  0.75525382  0.16695072  1.0
  O  O174  1  0.33053996  0.74474736  0.66695028  1.0
  O  O175  1  0.33054109  0.75525376  0.33304978  1.0
  O  O176  1  0.67547650  0.25000722  0.99999958  1.0
  O  O177  1  0.82452905  0.24999143  0.49999970  1.0
  O  O178  1  0.32452769  0.75000842  0.99999881  1.0
  O  O179  1  0.17546919  0.74999218  0.49999974  1.0
  F  F180  1  0.47199531  0.38583576  0.26005154  1.0
  F  F181  1  0.47199952  0.11416255  0.73994714  1.0
  F  F182  1  0.02799896  0.38583776  0.23994828  1.0
  F  F183  1  0.02800105  0.11416441  0.76005052  1.0
  F  F184  1  0.52799934  0.61416008  0.73994514  1.0
  F  F185  1  0.52800736  0.88584028  0.26005414  1.0
  F  F186  1  0.97199784  0.61416041  0.76005162  1.0
  F  F187  1  0.97199504  0.88583784  0.23994892  1.0
  F  F188  1  0.35608149  0.50940256  0.25943318  1.0
  F  F189  1  0.35608378  0.99059795  0.74056689  1.0
  F  F190  1  0.14391118  0.50940796  0.24056425  1.0
  F  F191  1  0.14391854  0.99059739  0.75943244  1.0
  F  F192  1  0.64391459  0.49059328  0.74056534  1.0
  F  F193  1  0.64392165  0.00940663  0.25943209  1.0
  F  F194  1  0.85608634  0.49059138  0.75943289  1.0
  F  F195  1  0.85608330  0.00940428  0.24056791  1.0
  F  F196  1  0.49288548  0.59181402  0.06888492  1.0
  F  F197  1  0.49288175  0.90818638  0.93111388  1.0
  F  F198  1  0.00711428  0.59181528  0.43111399  1.0
  F  F199  1  0.00710989  0.90818319  0.56888536  1.0
  F  F200  1  0.50711420  0.40818649  0.93111360  1.0
  F  F201  1  0.50711577  0.09181645  0.06888648  1.0
  F  F202  1  0.99288684  0.40818697  0.56888591  1.0
  F  F203  1  0.99288476  0.09181498  0.43111270  1.0
  F  F204  1  0.60950691  0.46866195  0.06999127  1.0
  F  F205  1  0.60950726  0.03133392  0.93000934  1.0
  F  F206  1  0.89049313  0.46866522  0.43001085  1.0
  F  F207  1  0.89048491  0.03133856  0.56999319  1.0
  F  F208  1  0.39049492  0.53133099  0.93000771  1.0
  F  F209  1  0.39049386  0.96866542  0.06999193  1.0
  F  F210  1  0.10951158  0.53133703  0.56999180  1.0
  F  F211  1  0.10951045  0.96866369  0.43000854  1.0
  F  F212  1  0.87506005  0.02603782  0.09479852  1.0
  F  F213  1  0.87506338  0.47396307  0.90520184  1.0
  F  F214  1  0.62493769  0.02603625  0.40520187  1.0
  F  F215  1  0.62494117  0.47396310  0.59479830  1.0
  F  F216  1  0.12493676  0.97396036  0.90520230  1.0
  F  F217  1  0.12493990  0.52603802  0.09479806  1.0
  F  F218  1  0.37506415  0.97396309  0.59480032  1.0
  F  F219  1  0.37506067  0.52603799  0.40520252  1.0
  F  F220  1  0.99344629  0.90404757  0.10021886  1.0
  F  F221  1  0.99344793  0.59595124  0.89978124  1.0
  F  F222  1  0.50655105  0.90404789  0.39978366  1.0
  F  F223  1  0.50655143  0.59595249  0.60021836  1.0
  F  F224  1  0.00655339  0.09595060  0.89978196  1.0
  F  F225  1  0.00654815  0.40404927  0.10022004  1.0
  F  F226  1  0.49344576  0.09594970  0.60021945  1.0
  F  F227  1  0.49344466  0.40404976  0.39978153  1.0
