# generated using pymatgen
data_ZnH3C16NCl5(O2F)2
_symmetry_space_group_name_H-M   'P 1'
_cell_length_a   9.91240914
_cell_length_b   11.00968504
_cell_length_c   17.78748488
_cell_angle_alpha   89.01048652
_cell_angle_beta   88.45536755
_cell_angle_gamma   89.93852956
_symmetry_Int_Tables_number   1
_chemical_formula_structural   ZnH3C16NCl5(O2F)2
_chemical_formula_sum   'Zn2 H6 C32 N2 Cl10 O8 F4'
_cell_volume   1940.19763157
_cell_formula_units_Z   2
loop_
 _symmetry_equiv_pos_site_id
 _symmetry_equiv_pos_as_xyz
  1  'x, y, z'
loop_
 _atom_site_type_symbol
 _atom_site_label
 _atom_site_symmetry_multiplicity
 _atom_site_fract_x
 _atom_site_fract_y
 _atom_site_fract_z
 _atom_site_occupancy
  Zn  Zn0  1  0.63726590  0.49658656  0.50109986  1.0
  Zn  Zn1  1  0.35490581  0.49831442  0.50478104  1.0
  H  H2  1  0.68602715  0.66462420  0.86364396  1.0
  H  H3  1  0.58529561  0.10417646  0.32041426  1.0
  H  H4  1  0.36814802  0.90630351  0.33026155  1.0
  H  H5  1  0.13441653  0.75146400  0.42081557  1.0
  H  H6  1  0.32999198  0.44042590  0.89259792  1.0
  H  H7  1  0.33860988  0.66547925  0.12986195  1.0
  C  C8  1  0.49552344  0.72968850  0.49871065  1.0
  C  C9  1  0.50919912  0.54547591  0.11507466  1.0
  C  C10  1  0.48809821  0.93719575  0.43236412  1.0
  C  C11  1  0.49138148  0.50536959  0.35855965  1.0
  C  C12  1  0.49738875  0.86582282  0.49735855  1.0
  C  C13  1  0.50718991  0.93158528  0.56357757  1.0
  C  C14  1  0.50638341  0.05951740  0.56538872  1.0
  C  C15  1  0.49886443  0.12951817  0.49875082  1.0
  C  C16  1  0.49314096  0.06347375  0.43298988  1.0
  C  C17  1  0.49002637  0.07604640  0.34824050  1.0
  C  C18  1  0.46851863  0.93403970  0.34829525  1.0
  C  C19  1  0.50844518  0.55416128  0.88775897  1.0
  C  C20  1  0.06487319  0.60318299  0.49940924  1.0
  C  C21  1  0.06595664  0.41151815  0.54136046  1.0
  C  C22  1  0.92162053  0.40763596  0.54136211  1.0
  C  C23  1  0.49917725  0.26585156  0.49927035  1.0
  C  C24  1  0.92581136  0.60030221  0.49698293  1.0
  C  C25  1  0.91677774  0.73171410  0.46826324  1.0
  C  C26  1  0.07926763  0.73428349  0.47406628  1.0
  C  C27  1  0.49704105  0.50735285  0.64646400  1.0
  C  C28  1  0.60652054  0.60990164  0.84025697  1.0
  C  C29  1  0.60251362  0.59398138  0.76280428  1.0
  C  C30  1  0.51289722  0.56187858  0.96716466  1.0
  C  C31  1  0.50118722  0.52424456  0.72999848  1.0
  C  C32  1  0.40325758  0.47063033  0.77882992  1.0
  C  C33  1  0.40586122  0.48464038  0.85628217  1.0
  C  C34  1  0.51276369  0.55740290  0.03568239  1.0
  C  C35  1  0.60140858  0.46841600  0.15226295  1.0
  C  C36  1  0.59290311  0.45405820  0.23080280  1.0
  C  C37  1  0.49408872  0.51588330  0.27390238  1.0
  C  C38  1  0.40247738  0.59048961  0.23566061  1.0
  C  C39  1  0.41002630  0.60620096  0.15796287  1.0
  N  N40  1  0.13998617  0.50639433  0.51868010  1.0
  N  N41  1  0.85018690  0.50248354  0.51492522  1.0
  Cl  Cl42  1  0.51849070  0.12874439  0.65101319  1.0
  Cl  Cl43  1  0.27598311  0.66888561  0.28354447  1.0
  Cl  Cl44  1  0.35954090  0.16719499  0.30891087  1.0
  Cl  Cl45  1  0.84537201  0.28134523  0.57622125  1.0
  Cl  Cl46  1  0.85717100  0.75114439  0.37675354  1.0
  Cl  Cl47  1  0.72551444  0.66624562  0.70759353  1.0
  Cl  Cl48  1  0.13718691  0.83416109  0.54252387  1.0
  Cl  Cl49  1  0.27825672  0.37864960  0.74437454  1.0
  Cl  Cl50  1  0.72144046  0.39260751  0.10007431  1.0
  Cl  Cl51  1  0.70265751  0.35572752  0.27413826  1.0
  O  O52  1  0.60272908  0.67709598  0.51885519  1.0
  O  O53  1  0.38670562  0.67981833  0.47923445  1.0
  O  O54  1  0.60041477  0.53348261  0.38985404  1.0
  O  O55  1  0.38151985  0.47161367  0.39074209  1.0
  O  O56  1  0.60812821  0.31711980  0.47709008  1.0
  O  O57  1  0.39097688  0.31687380  0.52129061  1.0
  O  O58  1  0.60239508  0.46496023  0.61427688  1.0
  O  O59  1  0.38815806  0.53710346  0.61486494  1.0
  F  F60  1  0.56422808  0.86914792  0.30565429  1.0
  F  F61  1  0.12992217  0.31325418  0.56495589  1.0
  F  F62  1  0.85280044  0.81071543  0.51558456  1.0
  F  F63  1  0.51356520  0.86972488  0.62978791  1.0
