# generated using pymatgen
data_AlH4C13IO5
_symmetry_space_group_name_H-M   'P 1'
_cell_length_a   6.65334218
_cell_length_b   19.72974723
_cell_length_c   21.33356919
_cell_angle_alpha   93.24130076
_cell_angle_beta   89.99990639
_cell_angle_gamma   89.99979462
_symmetry_Int_Tables_number   1
_chemical_formula_structural   AlH4C13IO5
_chemical_formula_sum   'Al4 H16 C52 I4 O20'
_cell_volume   2795.95121923
_cell_formula_units_Z   4
loop_
 _symmetry_equiv_pos_site_id
 _symmetry_equiv_pos_as_xyz
  1  'x, y, z'
loop_
 _atom_site_type_symbol
 _atom_site_label
 _atom_site_symmetry_multiplicity
 _atom_site_fract_x
 _atom_site_fract_y
 _atom_site_fract_z
 _atom_site_occupancy
  Al  Al0  1  0.24570633  0.24843964  0.25087749  1.0
  Al  Al1  1  0.75429349  0.75156182  0.74912288  1.0
  Al  Al2  1  0.74570765  0.25156111  0.24912303  1.0
  Al  Al3  1  0.25429367  0.74843988  0.75087781  1.0
  H  H4  1  0.26651264  0.65339256  0.91700707  1.0
  H  H5  1  0.73349320  0.34660576  0.08299140  1.0
  H  H6  1  0.76653742  0.84661987  0.58300492  1.0
  H  H7  1  0.23346391  0.15338053  0.41699450  1.0
  H  H8  1  0.56313438  0.46551196  0.90210059  1.0
  H  H9  1  0.43686544  0.53448899  0.09789978  1.0
  H  H10  1  0.06309210  0.03447425  0.59788433  1.0
  H  H11  1  0.93690772  0.96552618  0.40211556  1.0
  H  H12  1  0.56650781  0.38923964  0.98912458  1.0
  H  H13  1  0.43349653  0.61075868  0.01087390  1.0
  H  H14  1  0.06645815  0.11073970  0.51085514  1.0
  H  H15  1  0.93354468  0.88926124  0.48914476  1.0
  H  H16  1  0.48733027  0.33554225  0.23415018  1.0
  H  H17  1  0.51266956  0.66445818  0.76584971  1.0
  H  H18  1  0.98733107  0.16445923  0.26585086  1.0
  H  H19  1  0.01266875  0.83554173  0.73414951  1.0
  C  C20  1  0.49656384  0.16502873  0.16283251  1.0
  C  C21  1  0.50343899  0.83497172  0.83716786  1.0
  C  C22  1  0.99656040  0.33497122  0.33716851  1.0
  C  C23  1  0.00344092  0.66502977  0.66283233  1.0
  C  C24  1  0.49969515  0.16644837  0.32926860  1.0
  C  C25  1  0.50030316  0.83355257  0.67073130  1.0
  C  C26  1  0.99969361  0.33354990  0.17072959  1.0
  C  C27  1  0.00030621  0.66645055  0.82927078  1.0
  C  C28  1  0.14890128  0.61546126  0.92107085  1.0
  C  C29  1  0.85110306  0.38453760  0.07892810  1.0
  C  C30  1  0.64891663  0.88454799  0.57893570  1.0
  C  C31  1  0.35108169  0.11545238  0.42106326  1.0
  C  C32  1  0.99446865  0.61298725  0.87650753  1.0
  C  C33  1  0.00553268  0.38701267  0.12349236  1.0
  C  C34  1  0.49447108  0.88701676  0.62349463  1.0
  C  C35  1  0.50553025  0.11298362  0.37650433  1.0
  C  C36  1  0.84372362  0.56310968  0.87963091  1.0
  C  C37  1  0.15627319  0.43689125  0.12036899  1.0
  C  C38  1  0.34371350  0.93688921  0.62036679  1.0
  C  C39  1  0.65628632  0.06311114  0.37963170  1.0
  C  C40  1  0.84026861  0.51794476  0.92895949  1.0
  C  C41  1  0.15973271  0.48205567  0.07104041  1.0
  C  C42  1  0.34025620  0.98205251  0.57103633  1.0
  C  C43  1  0.65974363  0.01794839  0.42896310  1.0
  C  C44  1  0.99845240  0.52246670  0.97491852  1.0
  C  C45  1  0.00155043  0.47753269  0.02508090  1.0
  C  C46  1  0.49845024  0.97753520  0.52508221  1.0
  C  C47  1  0.50154958  0.02246574  0.47491769  1.0
  C  C48  1  0.15456198  0.57141364  0.97014014  1.0
  C  C49  1  0.84544235  0.42858524  0.02985927  1.0
  C  C50  1  0.65457655  0.92859358  0.52986638  1.0
  C  C51  1  0.34542478  0.07140629  0.47013257  1.0
  C  C52  1  0.68573302  0.46825159  0.93598555  1.0
  C  C53  1  0.31426831  0.53174830  0.06401388  1.0
  C  C54  1  0.18570557  0.03173929  0.56400436  1.0
  C  C55  1  0.81429426  0.96826164  0.43599554  1.0
  C  C56  1  0.68762718  0.42587907  0.98431182  1.0
  C  C57  1  0.31237414  0.57411981  0.01568760  1.0
  C  C58  1  0.18759747  0.07410761  0.51567524  1.0
  C  C59  1  0.81240235  0.92589226  0.48432372  1.0
  C  C60  1  0.00280824  0.61481564  0.61104138  1.0
  C  C61  1  0.99718858  0.38518537  0.38895993  1.0
  C  C62  1  0.50280765  0.88518636  0.88895881  1.0
  C  C63  1  0.49719368  0.11481310  0.11104202  1.0
  C  C64  1  0.00206583  0.57068023  0.56817534  1.0
  C  C65  1  0.99792948  0.42931969  0.43182455  1.0
  C  C66  1  0.50206809  0.92932022  0.93182437  1.0
  C  C67  1  0.49793323  0.07068026  0.06817647  1.0
  C  C68  1  0.00071922  0.52233207  0.52142845  1.0
  C  C69  1  0.99927308  0.47766790  0.47857238  1.0
  C  C70  1  0.50072282  0.97766796  0.97857267  1.0
  C  C71  1  0.49928301  0.02233148  0.02142769  1.0
  I  I72  1  0.63306542  0.54628657  0.80574517  1.0
  I  I73  1  0.36692238  0.45371652  0.19425709  1.0
  I  I74  1  0.13304210  0.95371345  0.69424961  1.0
  I  I75  1  0.86695772  0.04628644  0.30574981  1.0
  O  O76  1  0.66623984  0.18980129  0.31124733  1.0
  O  O77  1  0.33375998  0.81019964  0.68875257  1.0
  O  O78  1  0.16623748  0.31019853  0.18875286  1.0
  O  O79  1  0.83376234  0.68980243  0.81124751  1.0
  O  O80  1  0.32473590  0.18236417  0.18452700  1.0
  O  O81  1  0.67526393  0.81763676  0.81547290  1.0
  O  O82  1  0.82473549  0.31763743  0.31547245  1.0
  O  O83  1  0.17526433  0.68236305  0.68452838  1.0
  O  O84  1  0.32679543  0.18576440  0.31188609  1.0
  O  O85  1  0.67320590  0.81423654  0.68811381  1.0
  O  O86  1  0.82679269  0.31423459  0.18811194  1.0
  O  O87  1  0.17320563  0.68576586  0.81188843  1.0
  O  O88  1  0.16800694  0.31400035  0.31798280  1.0
  O  O89  1  0.83199138  0.68600119  0.68201898  1.0
  O  O90  1  0.66800846  0.18600050  0.18201785  1.0
  O  O91  1  0.33199287  0.81400043  0.81798204  1.0
  O  O92  1  0.49404297  0.29024327  0.25012684  1.0
  O  O93  1  0.50595535  0.70975718  0.74987353  1.0
  O  O94  1  0.99404321  0.20975767  0.24987372  1.0
  O  O95  1  0.00595511  0.79024332  0.75012711  1.0
