# generated using pymatgen
data_Zn4H9C28S2O13F5
_symmetry_space_group_name_H-M   'P 1'
_cell_length_a   18.56170275
_cell_length_b   19.74192635
_cell_length_c   32.84735812
_cell_angle_alpha   78.68655439
_cell_angle_beta   73.58654027
_cell_angle_gamma   61.95696074
_symmetry_Int_Tables_number   1
_chemical_formula_structural   Zn4H9C28S2O13F5
_chemical_formula_sum   'Zn16 H36 C112 S8 O52 F20'
_cell_volume   10162.04955741
_cell_formula_units_Z   4
loop_
 _symmetry_equiv_pos_site_id
 _symmetry_equiv_pos_as_xyz
  1  'x, y, z'
loop_
 _atom_site_type_symbol
 _atom_site_label
 _atom_site_symmetry_multiplicity
 _atom_site_fract_x
 _atom_site_fract_y
 _atom_site_fract_z
 _atom_site_occupancy
  Zn  Zn0  1  0.60728181  0.44341894  0.51887137  1.0
  Zn  Zn1  1  0.52328814  0.51538385  0.43819845  1.0
  Zn  Zn2  1  0.43508971  0.60137883  0.52353749  1.0
  Zn  Zn3  1  0.43498533  0.44018482  0.51827876  1.0
  Zn  Zn4  1  0.64314070  0.80952122  0.73187071  1.0
  Zn  Zn5  1  0.80970640  0.64963384  0.72580676  1.0
  Zn  Zn6  1  0.72913221  0.73456300  0.81238540  1.0
  Zn  Zn7  1  0.81836419  0.80681027  0.72938134  1.0
  Zn  Zn8  1  0.22522388  0.23625996  0.31305672  1.0
  Zn  Zn9  1  0.31555584  0.30778400  0.23070888  1.0
  Zn  Zn10  1  0.14583028  0.30701446  0.22935275  1.0
  Zn  Zn11  1  0.31509842  0.14861327  0.22620516  1.0
  Zn  Zn12  1  0.93995402  0.10115964  0.02374359  1.0
  Zn  Zn13  1  0.93131900  0.94263103  0.01908445  1.0
  Zn  Zn14  1  0.10391916  0.94134106  0.01961388  1.0
  Zn  Zn15  1  0.02621269  0.01484204  0.93754384  1.0
  H  H16  1  0.54190098  0.03380157  0.65541336  1.0
  H  H17  1  0.28736359  0.02375973  0.40147474  1.0
  H  H18  1  0.83542130  0.51760822  0.62163441  1.0
  H  H19  1  0.78483700  0.47750128  0.66696817  1.0
  H  H20  1  0.73686559  0.42934622  0.61891059  1.0
  H  H21  1  0.78746335  0.46949411  0.57355722  1.0
  H  H22  1  0.21600559  0.32615487  0.43095671  1.0
  H  H23  1  0.30937630  0.23793535  0.42835505  1.0
  H  H24  1  0.35762040  0.28598166  0.47630086  1.0
  H  H25  1  0.26433580  0.37416358  0.47894156  1.0
  H  H26  1  0.02453249  0.23780970  0.42812039  1.0
  H  H27  1  0.02716511  0.32601381  0.43063729  1.0
  H  H28  1  0.88299154  0.37420561  0.47861028  1.0
  H  H29  1  0.88028348  0.28608019  0.47612006  1.0
  H  H30  1  0.03521412  0.82063581  0.63106679  1.0
  H  H31  1  0.08045239  0.78068248  0.67645821  1.0
  H  H32  1  0.22475769  0.73260443  0.62840774  1.0
  H  H33  1  0.17935590  0.77262260  0.58305237  1.0
  H  H34  1  0.84855329  0.34021308  0.96231644  1.0
  H  H35  1  0.22347550  0.92357268  0.81936100  1.0
  H  H36  1  0.22613187  0.01163329  0.82199526  1.0
  H  H37  1  0.37017409  0.96374240  0.77395486  1.0
  H  H38  1  0.36772322  0.87557422  0.77127616  1.0
  H  H39  1  0.85777238  0.78625838  0.97596890  1.0
  H  H40  1  0.76433866  0.87436943  0.97862766  1.0
  H  H41  1  0.71639487  0.82631642  0.93053093  1.0
  H  H42  1  0.80976147  0.73827478  0.92791334  1.0
  H  H43  1  0.97982981  0.71633217  0.09458853  1.0
  H  H44  1  0.66969239  0.96884306  0.07341641  1.0
  H  H45  1  0.71522753  0.92864997  0.11877036  1.0
  H  H46  1  0.57117210  0.97683076  0.16687024  1.0
  H  H47  1  0.52565995  0.01698541  0.12156682  1.0
  H  H48  1  0.96494720  0.27303108  0.08316908  1.0
  H  H49  1  0.91425505  0.23293107  0.12849758  1.0
  H  H50  1  0.96235209  0.28086044  0.17658227  1.0
  H  H51  1  0.01295705  0.32102090  0.13124720  1.0
  C  C52  1  0.70663038  0.43174721  0.43106322  1.0
  C  C53  1  0.43837575  0.68392571  0.43835434  1.0
  C  C54  1  0.56802210  0.56964909  0.56851267  1.0
  C  C55  1  0.29365056  0.56793379  0.56838431  1.0
  C  C56  1  0.56344501  0.31613838  0.56088881  1.0
  C  C57  1  0.43155168  0.43091177  0.43103416  1.0
  C  C58  1  0.67969291  0.68252722  0.68128507  1.0
  C  C59  1  0.81187403  0.56559595  0.81066442  1.0
  C  C60  1  0.54443315  0.81880618  0.81922714  1.0
  C  C61  1  0.81985464  0.81875184  0.81823809  1.0
  C  C62  1  0.68843025  0.93443970  0.68851404  1.0
  C  C63  1  0.95597588  0.68084225  0.68072789  1.0
  C  C64  1  0.31825507  0.31881458  0.31891481  1.0
  C  C65  1  0.18955048  0.43380260  0.18831731  1.0
  C  C66  1  0.04404387  0.31872692  0.31842385  1.0
  C  C67  1  0.18269043  0.18061360  0.18091178  1.0
  C  C68  1  0.31156969  0.06627756  0.31172472  1.0
  C  C69  1  0.45692665  0.18129119  0.18115341  1.0
  C  C70  1  0.79423629  0.06902714  0.06859542  1.0
  C  C71  1  0.05996269  0.81568157  0.06137808  1.0
  C  C72  1  0.06946575  0.06843902  0.06873656  1.0
  C  C73  1  0.20678843  0.93082915  0.93144734  1.0
  C  C74  1  0.93974157  0.18437751  0.93862234  1.0
  C  C75  1  0.93174105  0.93144133  0.93110474  1.0
  C  C76  1  0.66103621  0.19739242  0.60088671  1.0
  C  C77  1  0.59083369  0.05242386  0.64925403  1.0
  C  C78  1  0.58820455  0.24183900  0.58601110  1.0
  C  C79  1  0.66414270  0.00927990  0.66358794  1.0
  C  C80  1  0.59012153  0.12106976  0.62632151  1.0
  C  C81  1  0.66324814  0.12841542  0.62386184  1.0
  C  C82  1  0.42867402  0.77326850  0.36946271  1.0
  C  C83  1  0.32108698  0.97756470  0.38012183  1.0
  C  C84  1  0.41416374  0.75820708  0.41337629  1.0
  C  C85  1  0.33631530  0.99110306  0.33631130  1.0
  C  C86  1  0.35496148  0.89788532  0.39201499  1.0
  C  C87  1  0.39531705  0.85260169  0.35674738  1.0
  C  C88  1  0.65014263  0.65542911  0.65285371  1.0
  C  C89  1  0.59475241  0.59943498  0.59705324  1.0
  C  C90  1  0.69714840  0.58304631  0.63644313  1.0
  C  C91  1  0.54667231  0.67253772  0.61344616  1.0
  C  C92  1  0.67072140  0.55643688  0.60987058  1.0
  C  C93  1  0.57330274  0.69940802  0.64020035  1.0
  C  C94  1  0.77827579  0.51014712  0.63596948  1.0
  C  C95  1  0.74824942  0.47995622  0.60585961  1.0
  C  C96  1  0.34770437  0.34774381  0.34641762  1.0
  C  C97  1  0.40378736  0.40340554  0.40195796  1.0
  C  C98  1  0.32894684  0.33633914  0.39078182  1.0
  C  C99  1  0.42318152  0.41550680  0.35718885  1.0
  C  C100  1  0.35564173  0.36282781  0.41722441  1.0
  C  C101  1  0.39630689  0.38867997  0.33048727  1.0
  C  C102  1  0.28407017  0.30076214  0.42753211  1.0
  C  C103  1  0.31433252  0.33087516  0.45756830  1.0
  C  C104  1  0.95813294  0.34769046  0.34608396  1.0
  C  C105  1  0.79092757  0.40364484  0.40188214  1.0
  C  C106  1  0.94412555  0.33620446  0.39047149  1.0
  C  C107  1  0.80401158  0.41558392  0.35711521  1.0
  C  C108  1  0.86453031  0.36284624  0.41699582  1.0
  C  C109  1  0.88433677  0.38867297  0.33034212  1.0
  C  C110  1  0.98788916  0.30063875  0.42722694  1.0
  C  C111  1  0.89753375  0.33085240  0.45729787  1.0
  C  C112  1  0.04142808  0.65066139  0.65268727  1.0
  C  C113  1  0.20870830  0.59478346  0.59701549  1.0
  C  C114  1  0.08727277  0.69361342  0.64007391  1.0
  C  C115  1  0.16328259  0.55068854  0.60965299  1.0
  C  C116  1  0.16691906  0.66705165  0.61354453  1.0
  C  C117  1  0.08300126  0.57746798  0.63637586  1.0
  C  C118  1  0.08417621  0.77010639  0.64415706  1.0
  C  C119  1  0.17452082  0.74000793  0.61406680  1.0
  C  C120  1  0.88048309  0.41754099  0.82103519  1.0
  C  C121  1  0.87002644  0.33134241  0.92852625  1.0
  C  C122  1  0.83675437  0.49097755  0.83538616  1.0
  C  C123  1  0.91413901  0.25886980  0.91336160  1.0
  C  C124  1  0.85801106  0.38907648  0.89463868  1.0
  C  C125  1  0.89326398  0.35883511  0.85435098  1.0
  C  C126  1  0.29264046  0.90171562  0.90386182  1.0
  C  C127  1  0.45991616  0.84615624  0.84823451  1.0
  C  C128  1  0.30672713  0.91315956  0.85948427  1.0
  C  C129  1  0.44659108  0.83410678  0.89298373  1.0
  C  C130  1  0.38637322  0.88669957  0.83296732  1.0
  C  C131  1  0.36629221  0.86075089  0.91972712  1.0
  C  C132  1  0.26284397  0.94881011  0.82279308  1.0
  C  C133  1  0.35317429  0.91876641  0.79268300  1.0
  C  C134  1  0.90401550  0.90392702  0.90191921  1.0
  C  C135  1  0.84848603  0.84817114  0.84600095  1.0
  C  C136  1  0.85581609  0.86335090  0.91698576  1.0
  C  C137  1  0.89701589  0.88917786  0.83033644  1.0
  C  C138  1  0.82936721  0.83678183  0.89040063  1.0
  C  C139  1  0.92369872  0.91590799  0.85715494  1.0
  C  C140  1  0.81449203  0.83118067  0.95723236  1.0
  C  C141  1  0.78443157  0.80109982  0.92709487  1.0
  C  C142  1  0.20804837  0.55293885  0.14906177  1.0
  C  C143  1  0.04118408  0.69783596  0.10074433  1.0
  C  C144  1  0.16465205  0.50850821  0.16375598  1.0
  C  C145  1  0.08565776  0.74096532  0.08632615  1.0
  C  C146  1  0.08622538  0.62928560  0.12365315  1.0
  C  C147  1  0.16424821  0.62198604  0.12609950  1.0
  C  C148  1  0.70913070  0.09878104  0.09697438  1.0
  C  C149  1  0.54196228  0.15452559  0.15273404  1.0
  C  C150  1  0.66342660  0.05569021  0.10972211  1.0
  C  C151  1  0.58724910  0.19876307  0.14012314  1.0
  C  C152  1  0.58387744  0.08223677  0.13630101  1.0
  C  C153  1  0.66753875  0.17193211  0.11334850  1.0
  C  C154  1  0.66629982  0.97924658  0.10570456  1.0
  C  C155  1  0.57602152  0.00943775  0.13585629  1.0
  C  C156  1  0.09925863  0.09523404  0.09713791  1.0
  C  C157  1  0.15528851  0.15074558  0.15279267  1.0
  C  C158  1  0.05248897  0.16749562  0.11362366  1.0
  C  C159  1  0.20305891  0.07756484  0.13646196  1.0
  C  C160  1  0.07913118  0.19394874  0.14015658  1.0
  C  C161  1  0.17619001  0.05088834  0.10973151  1.0
  C  C162  1  0.97140852  0.24038004  0.11417210  1.0
  C  C163  1  0.00156284  0.27041727  0.14428894  1.0
  S  S164  1  0.52072385  0.19853433  0.60045897  1.0
  S  S165  1  0.73272944  0.05130241  0.64950220  1.0
  S  S166  1  0.35870664  0.84257168  0.43973782  1.0
  S  S167  1  0.39160801  0.90767593  0.30914047  1.0
  S  S168  1  0.81046941  0.48835391  0.89077406  1.0
  S  S169  1  0.94107632  0.25989339  0.85805273  1.0
  S  S170  1  0.06832979  0.55185075  0.14936577  1.0
  S  S171  1  0.18225933  0.69904243  0.10035860  1.0
  O  O172  1  0.50046724  0.49957222  0.50061221  1.0
  O  O173  1  0.70573231  0.41623323  0.47085445  1.0
  O  O174  1  0.47949081  0.62384131  0.41765958  1.0
  O  O175  1  0.49769216  0.61280963  0.55877530  1.0
  O  O176  1  0.64349815  0.46839245  0.41425630  1.0
  O  O177  1  0.61942659  0.50235570  0.55634720  1.0
  O  O178  1  0.41559351  0.68662138  0.47892096  1.0
  O  O179  1  0.32503696  0.61590528  0.55946605  1.0
  O  O180  1  0.49231207  0.34355024  0.55101086  1.0
  O  O181  1  0.32731067  0.50094493  0.55534964  1.0
  O  O182  1  0.61425421  0.34620262  0.55125479  1.0
  O  O183  1  0.47359441  0.46876004  0.41428056  1.0
  O  O184  1  0.41015151  0.41363819  0.47077816  1.0
  O  O185  1  0.74988786  0.75046716  0.74993574  1.0
  O  O186  1  0.63326150  0.74946049  0.69442586  1.0
  O  O187  1  0.83064205  0.56476906  0.77024851  1.0
  O  O188  1  0.60789446  0.78147734  0.83581370  1.0
  O  O189  1  0.75042565  0.63482083  0.68993238  1.0
  O  O190  1  0.54500246  0.83596018  0.77952646  1.0
  O  O191  1  0.77321993  0.62497551  0.83235168  1.0
  O  O192  1  0.77785582  0.78135870  0.83767972  1.0
  O  O193  1  0.76063435  0.90452663  0.69736876  1.0
  O  O194  1  0.83922842  0.83282986  0.77823159  1.0
  O  O195  1  0.63557001  0.90650222  0.69892492  1.0
  O  O196  1  0.91913958  0.63761361  0.69070992  1.0
  O  O197  1  0.92720291  0.74873813  0.69225912  1.0
  O  O198  1  0.24943382  0.24907944  0.25058264  1.0
  O  O199  1  0.27524855  0.28222891  0.33832549  1.0
  O  O200  1  0.26024222  0.40459026  0.19842707  1.0
  O  O201  1  0.05060014  0.33219918  0.27842492  1.0
  O  O202  1  0.33793944  0.33273695  0.27896396  1.0
  O  O203  1  0.10397851  0.28248353  0.33799331  1.0
  O  O204  1  0.13743583  0.40476717  0.19728666  1.0
  O  O205  1  0.13242610  0.24864936  0.19227220  1.0
  O  O206  1  0.33404960  0.06426172  0.27121711  1.0
  O  O207  1  0.25255586  0.13696688  0.19109099  1.0
  O  O208  1  0.27054469  0.12597692  0.33288370  1.0
  O  O209  1  0.42302062  0.24853241  0.19378927  1.0
  O  O210  1  0.42550457  0.13328795  0.19031609  1.0
  O  O211  1  0.99881304  0.00012192  0.99992892  1.0
  O  O212  1  0.83071616  0.11257387  0.05863488  1.0
  O  O213  1  0.98878804  0.84483572  0.05161886  1.0
  O  O214  1  0.11514894  0.00093287  0.05633683  1.0
  O  O215  1  0.82298660  0.00134757  0.05673776  1.0
  O  O216  1  0.99948297  0.11658953  0.05932127  1.0
  O  O217  1  0.11217695  0.84448880  0.05180344  1.0
  O  O218  1  0.20008453  0.91580184  0.97139431  1.0
  O  O219  1  0.98080124  0.12446818  0.91745193  1.0
  O  O220  1  0.14683646  0.96882912  0.91201647  1.0
  O  O221  1  0.91903114  0.18635704  0.97902298  1.0
  O  O222  1  0.90887265  0.91528408  0.97084259  1.0
  O  O223  1  0.97515833  0.96804793  0.91433417  1.0
  F  F224  1  0.72414035  0.21665055  0.59445917  1.0
  F  F225  1  0.46982294  0.71915315  0.34131636  1.0
  F  F226  1  0.90864170  0.40227978  0.77986227  1.0
  F  F227  1  0.28383837  0.53354556  0.15551383  1.0
  F  F228  1  0.47154267  0.72134918  0.60430754  1.0
  F  F229  1  0.52032362  0.77053797  0.65331167  1.0
  F  F230  1  0.46910406  0.45365704  0.33731449  1.0
  F  F231  1  0.41999707  0.40450390  0.28842926  1.0
  F  F232  1  0.73972895  0.45379247  0.33730485  1.0
  F  F233  1  0.88668280  0.40458085  0.28824629  1.0
  F  F234  1  0.19461924  0.47958847  0.59650063  1.0
  F  F235  1  0.04751777  0.52869007  0.64547194  1.0
  F  F236  1  0.51096463  0.79607917  0.91285285  1.0
  F  F237  1  0.36383135  0.84495473  0.96180726  1.0
  F  F238  1  0.92100965  0.90508259  0.78822932  1.0
  F  F239  1  0.96987453  0.95398265  0.83731933  1.0
  F  F240  1  0.55593850  0.26974884  0.15323584  1.0
  F  F241  1  0.70291044  0.22078787  0.10421927  1.0
  F  F242  1  0.27818731  0.02867600  0.14554205  1.0
  F  F243  1  0.22892056  0.97987512  0.09656022  1.0
