# generated using pymatgen
data_FeH16(C12N5)2
_symmetry_space_group_name_H-M   'P 1'
_cell_length_a   11.79825612
_cell_length_b   18.96055342
_cell_length_c   18.96034916
_cell_angle_alpha   115.81153951
_cell_angle_beta   101.95256650
_cell_angle_gamma   101.96731605
_symmetry_Int_Tables_number   1
_chemical_formula_structural   FeH16(C12N5)2
_chemical_formula_sum   'Fe3 H48 C72 N30'
_cell_volume   3515.89278331
_cell_formula_units_Z   3
loop_
 _symmetry_equiv_pos_site_id
 _symmetry_equiv_pos_as_xyz
  1  'x, y, z'
loop_
 _atom_site_type_symbol
 _atom_site_label
 _atom_site_symmetry_multiplicity
 _atom_site_fract_x
 _atom_site_fract_y
 _atom_site_fract_z
 _atom_site_occupancy
  Fe  Fe0  1  0.50000206  0.00000010  0.49999987  1.0
  Fe  Fe1  1  0.00000013  0.49999999  0.50000016  1.0
  Fe  Fe2  1  0.50000123  0.50000003  0.99999967  1.0
  H  H3  1  0.76261365  0.92917937  0.68390293  1.0
  H  H4  1  0.07867990  0.31590534  0.24524527  1.0
  H  H5  1  0.83317862  0.75472899  0.07068455  1.0
  H  H6  1  0.23738920  0.07082260  0.31609905  1.0
  H  H7  1  0.92131659  0.68409289  0.75475609  1.0
  H  H8  1  0.16682252  0.24527223  0.92931744  1.0
  H  H9  1  0.96477018  0.03978754  0.72537222  1.0
  H  H10  1  0.23944423  0.27436834  0.31424356  1.0
  H  H11  1  0.92523608  0.68570865  0.96028612  1.0
  H  H12  1  0.03523150  0.96021400  0.27462914  1.0
  H  H13  1  0.76055682  0.72563204  0.68575655  1.0
  H  H14  1  0.07476764  0.31429395  0.03971586  1.0
  H  H15  1  0.96601925  0.13386570  0.66385889  1.0
  H  H16  1  0.30237677  0.33594122  0.46984532  1.0
  H  H17  1  0.83277446  0.53011584  0.86633321  1.0
  H  H18  1  0.03398119  0.86613407  0.33613998  1.0
  H  H19  1  0.69762342  0.66405907  0.53015480  1.0
  H  H20  1  0.16722832  0.46988635  0.13366690  1.0
  H  H21  1  0.76905639  0.11483331  0.56552149  1.0
  H  H22  1  0.20376826  0.43432803  0.54923033  1.0
  H  H23  1  0.65469926  0.45074778  0.88523732  1.0
  H  H24  1  0.23094522  0.88516688  0.43447800  1.0
  H  H25  1  0.79623225  0.56567098  0.45077041  1.0
  H  H26  1  0.34530494  0.54925380  0.11476217  1.0
  H  H27  1  0.13564952  0.75073284  0.46668060  1.0
  H  H28  1  0.66906359  0.53324313  0.28407187  1.0
  H  H29  1  0.38495029  0.71604211  0.24926895  1.0
  H  H30  1  0.86434925  0.24926752  0.53332014  1.0
  H  H31  1  0.33093394  0.46675494  0.71592638  1.0
  H  H32  1  0.61505100  0.28396093  0.75072992  1.0
  H  H33  1  0.98977111  0.62457150  0.44891648  1.0
  H  H34  1  0.54076892  0.55093762  0.17566653  1.0
  H  H35  1  0.36525758  0.82439868  0.37551209  1.0
  H  H36  1  0.01022828  0.37542843  0.55108550  1.0
  H  H37  1  0.45923065  0.44906098  0.82433234  1.0
  H  H38  1  0.63474607  0.17560415  0.62448802  1.0
  H  H39  1  0.26826224  0.58561547  0.58588963  1.0
  H  H40  1  0.68257969  0.41419424  0.99976147  1.0
  H  H41  1  0.68252453  0.00034494  0.41423383  1.0
  H  H42  1  0.73173771  0.41438427  0.41411173  1.0
  H  H43  1  0.31742113  0.58580455  0.00023989  1.0
  H  H44  1  0.31747764  0.99965611  0.58576504  1.0
  H  H45  1  0.42653265  0.71013890  0.60773348  1.0
  H  H46  1  0.81919211  0.39242108  0.10244650  1.0
  H  H47  1  0.71617517  0.89771400  0.28960467  1.0
  H  H48  1  0.57346730  0.28986136  0.39226788  1.0
  H  H49  1  0.18080611  0.60757579  0.89755486  1.0
  H  H50  1  0.28382432  0.10228800  0.71039233  1.0
  C  C51  1  0.54353843  0.90694521  0.57797495  1.0
  C  C52  1  0.96570332  0.42193137  0.32895893  1.0
  C  C53  1  0.63640939  0.67100448  0.09287468  1.0
  C  C54  1  0.45646288  0.09305309  0.42202392  1.0
  C  C55  1  0.03429106  0.57806498  0.67103994  1.0
  C  C56  1  0.36359222  0.32899466  0.90712481  1.0
  C  C57  1  0.38207765  0.81335484  0.54786915  1.0
  C  C58  1  0.83441285  0.45209214  0.26548175  1.0
  C  C59  1  0.56861886  0.73455693  0.18653085  1.0
  C  C60  1  0.61792224  0.18664355  0.45213034  1.0
  C  C61  1  0.16558010  0.54790376  0.73451774  1.0
  C  C62  1  0.43137922  0.26544463  0.81346678  1.0
  C  C63  1  0.66399676  0.96570561  0.60506305  1.0
  C  C64  1  0.05898705  0.39477059  0.36061598  1.0
  C  C65  1  0.69817104  0.63935511  0.03414882  1.0
  C  C66  1  0.33600603  0.03429448  0.39493706  1.0
  C  C67  1  0.94100975  0.60522743  0.63938600  1.0
  C  C68  1  0.30183001  0.36064475  0.96585129  1.0
  C  C69  1  0.77011317  0.97199455  0.65976975  1.0
  C  C70  1  0.11038338  0.34002961  0.31218337  1.0
  C  C71  1  0.79806235  0.68778928  0.02789896  1.0
  C  C72  1  0.22989080  0.02800649  0.34023099  1.0
  C  C73  1  0.88961515  0.65996969  0.68781862  1.0
  C  C74  1  0.20193989  0.31221101  0.97210178  1.0
  C  C75  1  0.88072097  0.03293219  0.68213235  1.0
  C  C76  1  0.19868128  0.31763968  0.35067918  1.0
  C  C77  1  0.84802683  0.64928977  0.96710279  1.0
  C  C78  1  0.11928181  0.96707001  0.31786776  1.0
  C  C79  1  0.80131718  0.68235932  0.64932093  1.0
  C  C80  1  0.15197572  0.35071136  0.03289857  1.0
  C  C81  1  0.88169305  0.08520998  0.64814678  1.0
  C  C82  1  0.23371862  0.35166282  0.43694215  1.0
  C  C83  1  0.79691422  0.56303443  0.91490917  1.0
  C  C84  1  0.11830800  0.91479146  0.35185333  1.0
  C  C85  1  0.76628071  0.64833683  0.56305797  1.0
  C  C86  1  0.20308802  0.43696692  0.08509157  1.0
  C  C87  1  0.77266622  0.07537407  0.59354717  1.0
  C  C88  1  0.17926336  0.40628425  0.48174609  1.0
  C  C89  1  0.69761227  0.51823132  0.92468330  1.0
  C  C90  1  0.22733391  0.92462539  0.40645108  1.0
  C  C91  1  0.82073690  0.59371632  0.51825589  1.0
  C  C92  1  0.30239257  0.48177036  0.07531744  1.0
  C  C93  1  0.29445831  0.74133930  0.53886931  1.0
  C  C94  1  0.75580904  0.46117128  0.20250219  1.0
  C  C95  1  0.55303924  0.79761948  0.25855765  1.0
  C  C96  1  0.70553960  0.25866095  0.46113143  1.0
  C  C97  1  0.24418620  0.53882676  0.79749668  1.0
  C  C98  1  0.44695920  0.20238373  0.74144246  1.0
  C  C99  1  0.16874136  0.71576460  0.49410905  1.0
  C  C100  1  0.67477351  0.50586840  0.22170499  1.0
  C  C101  1  0.45295774  0.77842875  0.28420777  1.0
  C  C102  1  0.83125568  0.28423554  0.50589169  1.0
  C  C103  1  0.32522290  0.49413006  0.77829450  1.0
  C  C104  1  0.54704182  0.22157354  0.71579110  1.0
  C  C105  1  0.08702539  0.64572097  0.48437119  1.0
  C  C106  1  0.60269098  0.51555934  0.16138248  1.0
  C  C107  1  0.44131479  0.83871557  0.35429259  1.0
  C  C108  1  0.91297344  0.35427916  0.51563141  1.0
  C  C109  1  0.39730805  0.48443999  0.83861702  1.0
  C  C110  1  0.55868681  0.16128673  0.64570690  1.0
  C  C111  1  0.24281214  0.62368516  0.56011238  1.0
  C  C112  1  0.68294516  0.43994211  0.06360673  1.0
  C  C113  1  0.61903338  0.93650492  0.37618694  1.0
  C  C114  1  0.75718756  0.37631561  0.43989022  1.0
  C  C115  1  0.31705417  0.56005594  0.93639338  1.0
  C  C116  1  0.38096792  0.06349707  0.62381193  1.0
  C  C117  1  0.33029451  0.69309716  0.57240724  1.0
  C  C118  1  0.75821103  0.42769997  0.12074612  1.0
  C  C119  1  0.63704309  0.87941032  0.30672286  1.0
  C  C120  1  0.66970425  0.30690320  0.42759349  1.0
  C  C121  1  0.24178799  0.57229831  0.87925338  1.0
  C  C122  1  0.36295497  0.12059176  0.69327476  1.0
  N  N123  1  0.45106875  0.91519719  0.52911997  1.0
  N  N124  1  0.92206693  0.47082434  0.38605271  1.0
  N  N125  1  0.53576449  0.61392430  0.08474867  1.0
  N  N126  1  0.54893373  0.08480206  0.47087952  1.0
  N  N127  1  0.07793098  0.52917433  0.61394803  1.0
  N  N128  1  0.46423570  0.38607650  0.91525144  1.0
  N  N129  1  0.34673849  0.85556908  0.50971881  1.0
  N  N130  1  0.83717450  0.49025512  0.34583557  1.0
  N  N131  1  0.49108369  0.65419413  0.14440776  1.0
  N  N132  1  0.65326399  0.14443017  0.49028068  1.0
  N  N133  1  0.16282223  0.50974312  0.65416454  1.0
  N  N134  1  0.50891618  0.34580741  0.85559173  1.0
  N  N135  1  0.50449517  0.84362865  0.59134917  1.0
  N  N136  1  0.91331242  0.40857223  0.25226634  1.0
  N  N137  1  0.66068561  0.74771083  0.15615629  1.0
  N  N138  1  0.49550614  0.15637018  0.40864970  1.0
  N  N139  1  0.08667913  0.59142271  0.74773378  1.0
  N  N140  1  0.33931247  0.25229021  0.84384134  1.0
  N  N141  1  0.66441260  0.01726739  0.57205306  1.0
  N  N142  1  0.09244082  0.42779818  0.44518688  1.0
  N  N143  1  0.64715848  0.55477752  0.98265338  1.0
  N  N144  1  0.33558784  0.98273132  0.42794581  1.0
  N  N145  1  0.90755597  0.57220036  0.55481510  1.0
  N  N146  1  0.35284313  0.44522214  0.01734611  1.0
  N  N147  1  0.12195030  0.59910428  0.51644507  1.0
  N  N148  1  0.60563606  0.48352629  0.08273684  1.0
  N  N149  1  0.52283771  0.91738066  0.40085729  1.0
  N  N150  1  0.87804935  0.40089515  0.48355567  1.0
  N  N151  1  0.39436532  0.51647230  0.91726390  1.0
  N  N152  1  0.47716390  0.08262058  0.59914220  1.0
