# generated using pymatgen
data_Zn8H31C56(BrO11)3
_symmetry_space_group_name_H-M   'P 1'
_cell_length_a   18.41490466
_cell_length_b   18.41786418
_cell_length_c   18.46101235
_cell_angle_alpha   90.38818399
_cell_angle_beta   119.53262767
_cell_angle_gamma   119.87722656
_symmetry_Int_Tables_number   1
_chemical_formula_structural   Zn8H31C56(BrO11)3
_chemical_formula_sum   'Zn8 H31 C56 Br3 O33'
_cell_volume   4451.73814723
_cell_formula_units_Z   1
loop_
 _symmetry_equiv_pos_site_id
 _symmetry_equiv_pos_as_xyz
  1  'x, y, z'
loop_
 _atom_site_type_symbol
 _atom_site_label
 _atom_site_symmetry_multiplicity
 _atom_site_fract_x
 _atom_site_fract_y
 _atom_site_fract_z
 _atom_site_occupancy
  Zn  Zn0  1  0.42099115  0.46455465  0.55200925  1.0
  Zn  Zn1  1  0.58812753  0.45887170  0.54677588  1.0
  Zn  Zn2  1  0.58574187  0.62985937  0.53867148  1.0
  Zn  Zn3  1  0.40687676  0.45269582  0.37107108  1.0
  Zn  Zn4  1  0.59367746  0.05207128  0.96379714  1.0
  Zn  Zn5  1  0.41121995  0.86940173  0.95321248  1.0
  Zn  Zn6  1  0.41357062  0.04435991  0.95813414  1.0
  Zn  Zn7  1  0.58311004  0.04112157  0.12922795  1.0
  H  H8  1  0.90174331  0.20904344  0.32163847  1.0
  H  H9  1  0.39133087  0.35562930  0.13415269  1.0
  H  H10  1  0.29231693  0.26192676  0.13411986  1.0
  H  H11  1  0.09683468  0.91394621  0.78382341  1.0
  H  H12  1  0.08821479  0.65116673  0.90308454  1.0
  H  H13  1  0.90353928  0.52898922  0.71291986  1.0
  H  H14  1  0.89656664  0.55165580  0.80310443  1.0
  H  H15  1  0.39504329  0.30874353  0.71615783  1.0
  H  H16  1  0.39566777  0.21312280  0.81038335  1.0
  H  H17  1  0.70859488  0.23767817  0.83226651  1.0
  H  H18  1  0.60450273  0.14213694  0.73560021  1.0
  H  H19  1  0.25782018  0.64743110  0.05190054  1.0
  H  H20  1  0.70874620  0.33611112  0.73758379  1.0
  H  H21  1  0.60562681  0.24027040  0.64114349  1.0
  H  H22  1  0.07853077  0.27658947  0.25639165  1.0
  H  H23  1  0.58269761  0.82925388  0.66240838  1.0
  H  H24  1  0.33878805  0.63603433  0.80289831  1.0
  H  H25  1  0.65610017  0.77056079  0.44438478  1.0
  H  H26  1  0.64935849  0.94724658  0.27245578  1.0
  H  H27  1  0.82930378  0.78960183  0.65986881  1.0
  H  H28  1  0.11543606  0.57407358  0.83890952  1.0
  H  H29  1  0.03961790  0.32143003  0.44355519  1.0
  H  H30  1  0.31423831  0.61090076  0.01903610  1.0
  H  H31  1  0.44922216  0.62053378  0.92626510  1.0
  H  H32  1  0.47017626  0.53928901  0.74845990  1.0
  H  H33  1  0.25754808  0.55050099  0.14920659  1.0
  H  H34  1  0.61814475  0.29952930  0.41681977  1.0
  H  H35  1  0.61054375  0.19648586  0.32124159  1.0
  H  H36  1  0.38681042  0.25344048  0.03753661  1.0
  H  H37  1  0.92552540  0.25179609  0.17029547  1.0
  H  H38  1  0.28674418  0.15965895  0.03654352  1.0
  C  C39  1  0.50874055  0.37016888  0.36657613  1.0
  C  C40  1  0.40847006  0.59444834  0.75360355  1.0
  C  C41  1  0.42217546  0.65466159  0.20857537  1.0
  C  C42  1  0.50982353  0.65248432  0.63491687  1.0
  C  C43  1  0.50252441  0.68673594  0.29849288  1.0
  C  C44  1  0.58520287  0.77733028  0.33234677  1.0
  C  C45  1  0.58384213  0.83277577  0.27804387  1.0
  C  C46  1  0.50144064  0.79811028  0.18794182  1.0
  C  C47  1  0.42202524  0.70741675  0.15573603  1.0
  C  C48  1  0.31685101  0.63481484  0.07546429  1.0
  C  C49  1  0.31695591  0.57609307  0.13705468  1.0
  C  C50  1  0.11609399  0.31212505  0.32487794  1.0
  C  C51  1  0.44243896  0.28251489  0.21712699  1.0
  C  C52  1  0.50626294  0.31088229  0.30904721  1.0
  C  C53  1  0.56731443  0.27855474  0.34515145  1.0
  C  C54  1  0.50049986  0.36412529  0.64124114  1.0
  C  C55  1  0.56313632  0.22090180  0.29159769  1.0
  C  C56  1  0.49837263  0.19258069  0.19847542  1.0
  C  C57  1  0.43905165  0.22540342  0.16337985  1.0
  C  C58  1  0.36029385  0.22468680  0.07860494  1.0
  C  C59  1  0.36368066  0.28887389  0.13940292  1.0
  C  C60  1  0.94661946  0.66508304  0.75402671  1.0
  C  C61  1  0.46192745  0.67640021  0.73378653  1.0
  C  C62  1  0.88987524  0.69971927  0.71290953  1.0
  C  C63  1  0.94843419  0.79270490  0.72667612  1.0
  C  C64  1  0.05581637  0.84373550  0.77656847  1.0
  C  C65  1  0.11006952  0.80683298  0.81594609  1.0
  C  C66  1  0.50039723  0.63156615  0.35560262  1.0
  C  C67  1  0.05261026  0.71601473  0.80410853  1.0
  C  C68  1  0.05722927  0.64019755  0.83226969  1.0
  C  C69  1  0.93576211  0.58105222  0.77075061  1.0
  C  C70  1  0.56005280  0.27390018  0.71997413  1.0
  C  C71  1  0.50124807  0.30721860  0.69781072  1.0
  C  C72  1  0.50553840  0.70956201  0.68764431  1.0
  C  C73  1  0.44193200  0.28387625  0.73208101  1.0
  C  C74  1  0.44222062  0.23019656  0.78487333  1.0
  C  C75  1  0.50176901  0.19648704  0.80679636  1.0
  C  C76  1  0.56029689  0.22004648  0.77289994  1.0
  C  C77  1  0.63523163  0.21021423  0.76868397  1.0
  C  C78  1  0.77764493  0.64319671  0.65482888  1.0
  C  C79  1  0.63532242  0.27154490  0.70913496  1.0
  C  C80  1  0.50059749  0.85456437  0.13184632  1.0
  C  C81  1  0.50163060  0.13961961  0.86350587  1.0
  C  C82  1  0.51018708  0.87309582  0.86623716  1.0
  C  C83  1  0.54849025  0.79994416  0.69777707  1.0
  C  C84  1  0.49523842  0.13213216  0.14157978  1.0
  C  C85  1  0.22384122  0.86370117  0.86766241  1.0
  C  C86  1  0.77696885  0.15723313  0.14675362  1.0
  C  C87  1  0.22736600  0.36842738  0.37713482  1.0
  C  C88  1  0.94389026  0.23999454  0.29219889  1.0
  C  C89  1  0.88939238  0.22153036  0.20411235  1.0
  C  C90  1  0.05525450  0.29853031  0.35245696  1.0
  C  C91  1  0.54926210  0.85336208  0.75312600  1.0
  C  C92  1  0.50866248  0.82016310  0.80297728  1.0
  C  C93  1  0.46452757  0.72961060  0.78982601  1.0
  C  C94  1  0.41436439  0.65591888  0.82124325  1.0
  Br  Br95  1  0.26051733  0.50933507  0.64581035  1.0
  Br  Br96  1  0.30489380  0.46854271  0.09487731  1.0
  Br  Br97  1  0.60551836  0.97297332  0.75466433  1.0
  O  O98  1  0.50076755  0.50151926  0.50136755  1.0
  O  O99  1  0.43851914  0.11480324  0.05841998  1.0
  O  O100  1  0.26724062  0.82365652  0.89298397  1.0
  O  O101  1  0.44406135  0.38905257  0.32715452  1.0
  O  O102  1  0.73051653  0.12398390  0.18372268  1.0
  O  O103  1  0.26804080  0.94724951  0.88222823  1.0
  O  O104  1  0.73626785  0.14030006  0.06372340  1.0
  O  O105  1  0.58530248  0.95416651  0.90822791  1.0
  O  O106  1  0.54949327  0.10274330  0.18013306  1.0
  O  O107  1  0.43198242  0.81762336  0.04933299  1.0
  O  O108  1  0.44676637  0.12363690  0.89239558  1.0
  O  O109  1  0.44799056  0.39501916  0.62816127  1.0
  O  O110  1  0.47761258  0.57426649  0.64005534  1.0
  O  O111  1  0.55291742  0.37741447  0.61015392  1.0
  O  O112  1  0.57946084  0.66912661  0.43756066  1.0
  O  O113  1  0.73142917  0.55954962  0.63616255  1.0
  O  O114  1  0.26592898  0.37334599  0.33356171  1.0
  O  O115  1  0.73265508  0.68316274  0.62492322  1.0
  O  O116  1  0.27789688  0.40785086  0.46005618  1.0
  O  O117  1  0.66836204  0.81758874  0.41604487  1.0
  O  O118  1  0.66494103  0.91802234  0.31809402  1.0
  O  O119  1  0.90430531  0.83540051  0.69198828  1.0
  O  O120  1  0.42262232  0.55190134  0.32314963  1.0
  O  O121  1  0.10595403  0.61482056  0.80862833  1.0
  O  O122  1  0.09482092  0.33666237  0.43758448  1.0
  O  O123  1  0.48165944  0.67283334  0.91156726  1.0
  O  O124  1  0.45148531  0.54980498  0.78696657  1.0
  O  O125  1  0.57446785  0.39664601  0.44999781  1.0
  O  O126  1  0.54609781  0.68502998  0.59044362  1.0
  O  O127  1  0.50010287  0.00025463  0.00061383  1.0
  O  O128  1  0.57133794  0.93934862  0.17126934  1.0
  O  O129  1  0.55730529  0.11162885  0.87886547  1.0
  O  O130  1  0.43509777  0.82995805  0.87277670  1.0
