# generated using pymatgen
data_ZnH4(CN5)2
_symmetry_space_group_name_H-M   'P 1'
_cell_length_a   9.17705860
_cell_length_b   9.98159440
_cell_length_c   9.98371242
_cell_angle_alpha   93.08861490
_cell_angle_beta   116.92845857
_cell_angle_gamma   116.91292261
_symmetry_Int_Tables_number   1
_chemical_formula_structural   ZnH4(CN5)2
_chemical_formula_sum   'Zn2 H8 C4 N20'
_cell_volume   687.43426896
_cell_formula_units_Z   2
loop_
 _symmetry_equiv_pos_site_id
 _symmetry_equiv_pos_as_xyz
  1  'x, y, z'
loop_
 _atom_site_type_symbol
 _atom_site_label
 _atom_site_symmetry_multiplicity
 _atom_site_fract_x
 _atom_site_fract_y
 _atom_site_fract_z
 _atom_site_occupancy
  Zn  Zn0  1  0.74065673  0.83735944  0.55871468  1.0
  Zn  Zn1  1  0.24069476  0.55874525  0.83735956  1.0
  H  H2  1  0.84483884  0.12340966  0.41019631  1.0
  H  H3  1  0.34425091  0.41013250  0.12331990  1.0
  H  H4  1  0.03930526  0.32684285  0.50276875  1.0
  H  H5  1  0.53863282  0.50261833  0.32682139  1.0
  H  H6  1  0.65393805  0.88350806  0.96849595  1.0
  H  H7  1  0.15367868  0.96822690  0.88320870  1.0
  H  H8  1  0.79981197  0.95697032  0.89098685  1.0
  H  H9  1  0.29950328  0.89065924  0.95663566  1.0
  C  C10  1  0.99817233  0.20398788  0.65244372  1.0
  C  C11  1  0.49765249  0.65240562  0.20400032  1.0
  C  C12  1  0.53634386  0.75095528  0.74374339  1.0
  C  C13  1  0.03600400  0.74344258  0.75060180  1.0
  N  N14  1  0.96268884  0.21739353  0.51037139  1.0
  N  N15  1  0.46188443  0.51027686  0.21744417  1.0
  N  N16  1  0.12122884  0.32547608  0.79271624  1.0
  N  N17  1  0.62077040  0.79269282  0.32546860  1.0
  N  N18  1  0.12090195  0.25984778  0.90832412  1.0
  N  N19  1  0.62077778  0.90836973  0.25984041  1.0
  N  N20  1  0.00360611  0.10739705  0.84496955  1.0
  N  N21  1  0.50353940  0.84502946  0.10738898  1.0
  N  N22  1  0.92297046  0.06690196  0.68423782  1.0
  N  N23  1  0.42260802  0.68423903  0.06690881  1.0
  N  N24  1  0.68463122  0.86371917  0.88632295  1.0
  N  N25  1  0.18432254  0.88601703  0.86336776  1.0
  N  N26  1  0.53390696  0.73836634  0.60712936  1.0
  N  N27  1  0.03360957  0.60681788  0.73801686  1.0
  N  N28  1  0.36069638  0.60523258  0.49417667  1.0
  N  N29  1  0.86037785  0.49384352  0.60491582  1.0
  N  N30  1  0.26237824  0.54149678  0.55766107  1.0
  N  N31  1  0.76200690  0.55733125  0.54118903  1.0
  N  N32  1  0.36784238  0.62872156  0.71497631  1.0
  N  N33  1  0.86746864  0.71466632  0.62838792  1.0
