# generated using pymatgen
data_Al3H31C50(NO7)2
_symmetry_space_group_name_H-M   'P 1'
_cell_length_a   12.03825920
_cell_length_b   12.23164949
_cell_length_c   27.92933072
_cell_angle_alpha   90.13476609
_cell_angle_beta   94.15886950
_cell_angle_gamma   118.49273589
_symmetry_Int_Tables_number   1
_chemical_formula_structural   Al3H31C50(NO7)2
_chemical_formula_sum   'Al6 H62 C100 N4 O28'
_cell_volume   3601.69044982
_cell_formula_units_Z   2
loop_
 _symmetry_equiv_pos_site_id
 _symmetry_equiv_pos_as_xyz
  1  'x, y, z'
loop_
 _atom_site_type_symbol
 _atom_site_label
 _atom_site_symmetry_multiplicity
 _atom_site_fract_x
 _atom_site_fract_y
 _atom_site_fract_z
 _atom_site_occupancy
  Al  Al0  1  0.81543236  0.39831053  0.49739062  1.0
  Al  Al1  1  0.09139509  0.41866954  0.50205528  1.0
  Al  Al2  1  0.07489323  0.65614585  0.50304204  1.0
  Al  Al3  1  0.84158170  0.92588810  0.00758542  1.0
  Al  Al4  1  0.58135760  0.66908362  0.00418522  1.0
  Al  Al5  1  0.56539372  0.90622382  0.00406760  1.0
  H  H6  1  0.42611554  0.58491678  0.30604786  1.0
  H  H7  1  0.53323990  0.01703186  0.31155667  1.0
  H  H8  1  0.68550158  0.13416975  0.38232328  1.0
  H  H9  1  0.38677708  0.51558612  0.87566305  1.0
  H  H10  1  0.26567510  0.44551963  0.63313370  1.0
  H  H11  1  0.34128864  0.38801595  0.79961108  1.0
  H  H12  1  0.29993307  0.36445883  0.71091854  1.0
  H  H13  1  0.39984971  0.87279846  0.87158602  1.0
  H  H14  1  0.36289891  0.95384572  0.79462545  1.0
  H  H15  1  0.26524183  0.79364072  0.62807643  1.0
  H  H16  1  0.69958490  0.48291906  0.69966771  1.0
  H  H17  1  0.04433256  0.97703909  0.22337843  1.0
  H  H18  1  0.99725277  0.86285886  0.71842418  1.0
  H  H19  1  0.05107924  0.26001938  0.73598686  1.0
  H  H20  1  0.99467991  0.22175455  0.82056978  1.0
  H  H21  1  0.59836571  0.06396981  0.77214282  1.0
  H  H22  1  0.65467035  0.10367004  0.68740569  1.0
  H  H23  1  0.17829803  0.74727975  0.28379241  1.0
  H  H24  1  0.65266085  0.50962228  0.12303633  1.0
  H  H25  1  0.72755024  0.42816803  0.36085922  1.0
  H  H26  1  0.64506189  0.33502451  0.27857832  1.0
  H  H27  1  0.94340702  0.88929912  0.14224989  1.0
  H  H28  1  0.02759049  0.80393445  0.38009654  1.0
  H  H29  1  0.15295150  0.04625577  0.29572503  1.0
  H  H30  1  0.99013585  0.05843849  0.34048927  1.0
  H  H31  1  0.13693123  0.10027036  0.37484886  1.0
  H  H32  1  0.00437042  0.95197736  0.38031922  1.0
  H  H33  1  0.33179823  0.37494695  0.21786017  1.0
  H  H34  1  0.32098196  0.43883278  0.16143609  1.0
  H  H35  1  0.44485396  0.40106550  0.17576884  1.0
  H  H36  1  0.53058718  0.63046797  0.18587986  1.0
  H  H37  1  0.53644132  0.56703576  0.24215471  1.0
  H  H38  1  0.30355881  0.93514976  0.66320041  1.0
  H  H39  1  0.97209632  0.18332291  0.12711511  1.0
  H  H40  1  0.33750740  0.12568313  0.68949405  1.0
  H  H41  1  0.45720225  0.11814091  0.72884451  1.0
  H  H42  1  0.30499185  0.07498379  0.74870815  1.0
  H  H43  1  0.34950372  0.92900885  0.16216242  1.0
  H  H44  1  0.20722529  0.93911565  0.15602241  1.0
  H  H45  1  0.28896163  0.96030549  0.21392921  1.0
  H  H46  1  0.16031942  0.71701737  0.15136832  1.0
  H  H47  1  0.09518632  0.74773950  0.20105393  1.0
  H  H48  1  0.63883026  0.46729732  0.82837294  1.0
  H  H49  1  0.50202775  0.27779265  0.79098433  1.0
  H  H50  1  0.08552374  0.33423775  0.36628931  1.0
  H  H51  1  0.62277740  0.30453572  0.75213093  1.0
  H  H52  1  0.50787470  0.35418721  0.73623597  1.0
  H  H53  1  0.15912257  0.97723463  0.78587267  1.0
  H  H54  1  0.05998763  0.04087411  0.76460818  1.0
  H  H55  1  0.13712105  0.08161771  0.82361215  1.0
  H  H56  1  0.91061396  0.92479166  0.82829774  1.0
  H  H57  1  0.01104581  0.86716847  0.84963254  1.0
  H  H58  1  0.55745554  0.25781466  0.20433870  1.0
  H  H59  1  0.57743443  0.21346273  0.12579952  1.0
  H  H60  1  0.73371814  0.28176036  0.15523161  1.0
  H  H61  1  0.12401286  0.29693388  0.19791680  1.0
  H  H62  1  0.68637008  0.37096872  0.11715115  1.0
  H  H63  1  0.16566937  0.35320421  0.28497126  1.0
  H  H64  1  0.57262054  0.97629274  0.14340639  1.0
  H  H65  1  0.49269041  0.95825681  0.22489618  1.0
  H  H66  1  0.61052657  0.31718999  0.52202272  1.0
  H  H67  1  0.04947040  0.07257212  0.03428991  1.0
  C  C68  1  0.91268615  0.27508378  0.43060757  1.0
  C  C69  1  0.77468104  0.53024793  0.29532014  1.0
  C  C70  1  0.65412383  0.29886192  0.14365853  1.0
  C  C71  1  0.74980077  0.55973829  0.19463797  1.0
  C  C72  1  0.22779611  0.62260591  0.44016733  1.0
  C  C73  1  0.68386355  0.43735112  0.21435539  1.0
  C  C74  1  0.69492851  0.42663267  0.26333605  1.0
  C  C75  1  0.72736619  0.58207930  0.14665131  1.0
  C  C76  1  0.79761447  0.69988640  0.12843249  1.0
  C  C77  1  0.95387409  0.73175730  0.35608247  1.0
  C  C78  1  0.93843956  0.75236195  0.30731576  1.0
  C  C79  1  0.85014815  0.64962449  0.27612346  1.0
  C  C80  1  0.25230531  0.71721756  0.21993000  1.0
  C  C81  1  0.01032644  0.87336612  0.28714305  1.0
  C  C82  1  0.99339080  0.88548859  0.23856001  1.0
  C  C83  1  0.90815213  0.78342282  0.20687801  1.0
  C  C84  1  0.89116974  0.59630692  0.42671484  1.0
  C  C85  1  0.83645712  0.66305879  0.22589711  1.0
  C  C86  1  0.88974063  0.79897343  0.15778288  1.0
  C  C87  1  0.87545244  0.61660905  0.37483764  1.0
  C  C88  1  0.98923356  0.27758991  0.34985600  1.0
  C  C89  1  0.96772306  0.24944828  0.30021888  1.0
  C  C90  1  0.92004006  0.18492521  0.19977540  1.0
  C  C91  1  0.23920265  0.71435514  0.26919118  1.0
  C  C92  1  0.04627382  0.26232292  0.22117727  1.0
  C  C93  1  0.06919226  0.29325670  0.26923985  1.0
  C  C94  1  0.89478701  0.15161386  0.15053657  1.0
  C  C95  1  0.77015379  0.07836202  0.13060376  1.0
  C  C96  1  0.91948414  0.28098600  0.56860958  1.0
  C  C97  1  0.76270578  0.16329476  0.35895032  1.0
  C  C98  1  0.73751228  0.12913014  0.30980671  1.0
  C  C99  1  0.84067688  0.17296502  0.27979989  1.0
  C  C100  1  0.61130989  0.05130211  0.28839185  1.0
  C  C101  1  0.58882800  0.01906161  0.24043646  1.0
  C  C102  1  0.30179005  0.66689833  0.30039785  1.0
  C  C103  1  0.69011041  0.06294688  0.20936396  1.0
  C  C104  1  0.81693859  0.14044879  0.22977533  1.0
  C  C105  1  0.66877654  0.03398410  0.15976503  1.0
  C  C106  1  0.88763060  0.23508600  0.37881602  1.0
  C  C107  1  0.27875151  0.52909047  0.65232974  1.0
  C  C108  1  0.22745678  0.60207448  0.57433523  1.0
  C  C109  1  0.30274980  0.54225910  0.70247611  1.0
  C  C110  1  0.35076556  0.56984060  0.80467909  1.0
  C  C111  1  0.33458482  0.46070835  0.77902264  1.0
  C  C112  1  0.31192413  0.44771716  0.73016945  1.0
  C  C113  1  0.33091365  0.67235619  0.20180202  1.0
  C  C114  1  0.37689872  0.58607240  0.85476483  1.0
  C  C115  1  0.39386088  0.69502832  0.87823431  1.0
  C  C116  1  0.28001961  0.72815238  0.65046687  1.0
  C  C117  1  0.30596235  0.74621226  0.70029350  1.0
  C  C118  1  0.31709925  0.65176979  0.72709617  1.0
  C  C119  1  0.32217431  0.85782206  0.72565954  1.0
  C  C120  1  0.90182974  0.62783127  0.56607998  1.0
  C  C121  1  0.34949646  0.87074338  0.77496058  1.0
  C  C122  1  0.35822589  0.77599078  0.80210330  1.0
  C  C123  1  0.34161752  0.66524619  0.77793915  1.0
  C  C124  1  0.34923034  0.67790197  0.15220435  1.0
  C  C125  1  0.38434712  0.78852345  0.85225316  1.0
  C  C126  1  0.26724402  0.62148969  0.62656665  1.0
  C  C127  1  0.88046819  0.65752558  0.61306992  1.0
  C  C128  1  0.75532360  0.56445007  0.72356516  1.0
  C  C129  1  0.73486139  0.56266248  0.77247225  1.0
  C  C130  1  0.90592019  0.78241588  0.78287122  1.0
  C  C131  1  0.92488849  0.78118567  0.73438601  1.0
  C  C132  1  0.27180053  0.64869747  0.39309510  1.0
  C  C133  1  0.84985601  0.67262734  0.70485041  1.0
  C  C134  1  0.81200096  0.67249634  0.80207220  1.0
  C  C135  1  0.28569026  0.65974115  0.35021102  1.0
  C  C136  1  0.79262155  0.67145917  0.85096695  1.0
  C  C137  1  0.86885011  0.66891048  0.65554296  1.0
  C  C138  1  0.77775740  0.67334811  0.89374488  1.0
  C  C139  1  0.90527313  0.23177746  0.61590861  1.0
  C  C140  1  0.95216740  0.21702793  0.74404135  1.0
  C  C141  1  0.92100910  0.19665914  0.79120379  1.0
  C  C142  1  0.69724545  0.10846712  0.76397257  1.0
  C  C143  1  0.72838509  0.12922017  0.71681945  1.0
  C  C144  1  0.37848715  0.62179091  0.28160179  1.0
  C  C145  1  0.85645074  0.18410735  0.70609334  1.0
  C  C146  1  0.36965772  0.68363538  0.10984128  1.0
  C  C147  1  0.79306384  0.14239697  0.80193437  1.0
  C  C148  1  0.76366688  0.11958649  0.85022134  1.0
  C  C149  1  0.88623778  0.20839483  0.65789242  1.0
  C  C150  1  0.74603566  0.09829513  0.89242452  1.0
  C  C151  1  0.77031351  0.72351572  0.07800656  1.0
  C  C152  1  0.42157902  0.70713290  0.06413035  1.0
  C  C153  1  0.74543622  0.04238516  0.07833996  1.0
  C  C154  1  0.75659160  0.70142353  0.94080452  1.0
  C  C155  1  0.43412207  0.71799717  0.93053290  1.0
  C  C156  1  0.39410705  0.62350909  0.23273872  1.0
  C  C157  1  0.78572707  0.51702986  0.34502131  1.0
  C  C158  1  0.73375855  0.04885274  0.93962111  1.0
  C  C159  1  0.05444993  0.02361432  0.35492961  1.0
  C  C160  1  0.47150246  0.56985476  0.21303434  1.0
  C  C161  1  0.38714912  0.43830001  0.19056313  1.0
  C  C162  1  0.35480828  0.07213972  0.71766886  1.0
  C  C163  1  0.18466922  0.76693605  0.18655160  1.0
  C  C164  1  0.26242644  0.90716177  0.17937896  1.0
  C  C165  1  0.56595392  0.34403891  0.76652007  1.0
  C  C166  1  0.97829377  0.89554347  0.81645558  1.0
  C  C167  1  0.08974862  0.00514375  0.79630357  1.0
  N  N168  1  0.09905844  0.97514382  0.31665801  1.0
  N  N169  1  0.30884129  0.94615828  0.69931306  1.0
  N  N170  1  0.64446162  0.46075567  0.79251476  1.0
  N  N171  1  0.60438164  0.33330055  0.18423143  1.0
  O  O172  1  0.81546771  0.49175483  0.44200307  1.0
  O  O173  1  0.43494235  0.80561933  0.04358272  1.0
  O  O174  1  0.63274255  0.01059079  0.05910902  1.0
  O  O175  1  0.82641999  0.28131090  0.45152872  1.0
  O  O176  1  0.81559332  0.01665908  0.95339177  1.0
  O  O177  1  0.83575404  0.80633574  0.95998274  1.0
  O  O178  1  0.65538628  0.61918640  0.95902307  1.0
  O  O179  1  0.45467895  0.63738447  0.95296323  1.0
  O  O180  1  0.45269239  0.82126921  0.94972331  1.0
  O  O181  1  0.64006037  0.03714122  0.96301258  1.0
  O  O182  1  0.66070769  0.83303065  0.00544962  1.0
  O  O183  1  0.21358278  0.50232278  0.55333323  1.0
  O  O184  1  0.02516962  0.30620052  0.45024282  1.0
  O  O185  1  0.21276571  0.52105051  0.45825818  1.0
  O  O186  1  0.19980469  0.70062551  0.45945964  1.0
  O  O187  1  0.98307982  0.68526079  0.45283851  1.0
  O  O188  1  0.82200058  0.52462886  0.54586469  1.0
  O  O189  1  0.83677659  0.31132003  0.55366866  1.0
  O  O190  1  0.01508190  0.29407126  0.54640258  1.0
  O  O191  1  0.20221395  0.68186963  0.55389817  1.0
  O  O192  1  0.00602260  0.70854155  0.54894509  1.0
  O  O193  1  0.99635990  0.49207559  0.50141504  1.0
  O  O194  1  0.83319331  0.04110507  0.05652724  1.0
  O  O195  1  0.84405024  0.82788794  0.06204910  1.0
  O  O196  1  0.67050828  0.63690105  0.05426685  1.0
  O  O197  1  0.45728191  0.63131587  0.04844940  1.0
  O  O198  1  0.64945838  0.31193009  0.49366003  1.0
  O  O199  1  0.00729138  0.01211529  0.00788176  1.0
