# generated using pymatgen
data_ZnH18C20N5O2
_symmetry_space_group_name_H-M   'P 1'
_cell_length_a   19.81232545
_cell_length_b   19.95819755
_cell_length_c   20.74567816
_cell_angle_alpha   106.82545352
_cell_angle_beta   108.25397437
_cell_angle_gamma   111.51755404
_symmetry_Int_Tables_number   1
_chemical_formula_structural   ZnH18C20N5O2
_chemical_formula_sum   'Zn4 H72 C80 N20 O8'
_cell_volume   6443.88524016
_cell_formula_units_Z   4
loop_
 _symmetry_equiv_pos_site_id
 _symmetry_equiv_pos_as_xyz
  1  'x, y, z'
loop_
 _atom_site_type_symbol
 _atom_site_label
 _atom_site_symmetry_multiplicity
 _atom_site_fract_x
 _atom_site_fract_y
 _atom_site_fract_z
 _atom_site_occupancy
  Zn  Zn0  1  0.39582028  0.39983253  0.51105435  1.0
  Zn  Zn1  1  0.59900994  0.59720247  0.49956891  1.0
  Zn  Zn2  1  0.39675831  0.49579272  0.40506409  1.0
  Zn  Zn3  1  0.60037944  0.49800960  0.59937927  1.0
  H  H4  1  0.36335258  0.23329657  0.38647354  1.0
  H  H5  1  0.20028424  0.45659492  0.33846114  1.0
  H  H6  1  0.79489891  0.62421032  0.74281551  1.0
  H  H7  1  0.78558239  0.76424648  0.61861049  1.0
  H  H8  1  0.63731484  0.64789056  0.74402614  1.0
  H  H9  1  0.35594215  0.61696605  0.50389762  1.0
  H  H10  1  0.37110897  0.02142838  0.58621359  1.0
  H  H11  1  0.63375466  0.49611028  0.37266737  1.0
  H  H12  1  0.36561972  0.97144676  0.49730628  1.0
  H  H13  1  0.34928426  0.86351777  0.52660111  1.0
  H  H14  1  0.38262647  0.92376068  0.62390704  1.0
  H  H15  1  0.60403388  0.12916249  0.69440746  1.0
  H  H16  1  0.51467143  0.09940366  0.70571418  1.0
  H  H17  1  0.60680092  0.01091898  0.68848441  1.0
  H  H18  1  0.56515788  0.93409890  0.55142198  1.0
  H  H19  1  0.87015051  0.41358942  0.49515635  1.0
  H  H20  1  0.82751372  0.44508387  0.32384036  1.0
  H  H21  1  0.86752887  0.49221893  0.42386992  1.0
  H  H22  1  0.99529152  0.50551013  0.44179235  1.0
  H  H23  1  0.95793452  0.46613992  0.34211816  1.0
  H  H24  1  0.76215462  0.30518337  0.25229350  1.0
  H  H25  1  0.87669505  0.24858229  0.30358527  1.0
  H  H26  1  0.81722604  0.30718487  0.45019529  1.0
  H  H27  1  0.93344331  0.30516801  0.44435605  1.0
  H  H28  1  0.37823837  0.56417152  0.15293915  1.0
  H  H29  1  0.39170700  0.59672736  0.04864106  1.0
  H  H30  1  0.37565951  0.64898556  0.86817992  1.0
  H  H31  1  0.38869590  0.62351079  0.74871743  1.0
  H  H32  1  0.61538166  0.68139807  0.98509300  1.0
  H  H33  1  0.65319189  0.74625502  0.19014528  1.0
  H  H34  1  0.94941552  0.71381398  0.80168577  1.0
  H  H35  1  0.63516238  0.65744440  0.37124667  1.0
  H  H36  1  0.30974639  0.11593447  0.27341309  1.0
  H  H37  1  0.88914989  0.88436481  0.74711579  1.0
  H  H38  1  0.23998807  0.13515311  0.02960874  1.0
  H  H39  1  0.02471797  0.99687321  0.85590598  1.0
  H  H40  1  0.33169645  0.26000841  0.15277113  1.0
  H  H41  1  0.36539220  0.22623033  0.52522103  1.0
  H  H42  1  0.61841644  0.35399713  0.49650838  1.0
  H  H43  1  0.39420222  0.37528631  0.26336519  1.0
  H  H44  1  0.37175363  0.50732557  0.64250209  1.0
  H  H45  1  0.62190018  0.76290271  0.61515266  1.0
  H  H46  1  0.09415249  0.30623282  0.48547311  1.0
  H  H47  1  0.15524049  0.41149025  0.55279602  1.0
  H  H48  1  0.16570156  0.33762937  0.58170602  1.0
  H  H49  1  0.51554540  0.82165618  0.43896275  1.0
  H  H50  1  0.50666219  0.89124837  0.40211401  1.0
  H  H51  1  0.42023706  0.79254722  0.36215100  1.0
  H  H52  1  0.59597441  0.06725658  0.45769497  1.0
  H  H53  1  0.55174650  0.12872710  0.48266607  1.0
  H  H54  1  0.50288927  0.05001222  0.38724159  1.0
  H  H55  1  0.59089101  0.06146286  0.56682942  1.0
  H  H56  1  0.53294876  0.99403037  0.72124147  1.0
  H  H57  1  0.98932219  0.41093140  0.50375994  1.0
  H  H58  1  0.35499330  0.65379708  0.28665533  1.0
  H  H59  1  0.33779845  0.60681084  0.34611477  1.0
  H  H60  1  0.25856209  0.56389176  0.24992387  1.0
  H  H61  1  0.78330884  0.19577514  0.37218424  1.0
  H  H62  1  0.78865349  0.14628996  0.28833335  1.0
  H  H63  1  0.69255509  0.11175485  0.28922955  1.0
  H  H64  1  0.66476673  0.28302588  0.60112125  1.0
  H  H65  1  0.65831490  0.29031820  0.68690086  1.0
  H  H66  1  0.74793546  0.36494792  0.69188257  1.0
  H  H67  1  0.88241384  0.31151676  0.25877543  1.0
  H  H68  1  0.64070453  0.71795262  0.29613028  1.0
  H  H69  1  0.60031253  0.53250314  0.81406842  1.0
  H  H70  1  0.64792711  0.57953690  0.91660348  1.0
  H  H71  1  0.70972265  0.59883344  0.86951881  1.0
  H  H72  1  0.08824124  0.84846735  0.01786959  1.0
  H  H73  1  0.12287620  0.77802272  0.99199039  1.0
  H  H74  1  0.01533254  0.74527201  0.94471236  1.0
  H  H75  1  0.21847688  0.99138429  0.14912706  1.0
  C  C76  1  0.37511568  0.27900919  0.36658741  1.0
  C  C77  1  0.64045673  0.40700510  0.41755737  1.0
  C  C78  1  0.50378396  0.61491513  0.29172043  1.0
  C  C79  1  0.49912525  0.26456737  0.58623017  1.0
  C  C80  1  0.43604852  0.53498351  0.65583727  1.0
  C  C81  1  0.55773342  0.71541463  0.58205481  1.0
  C  C82  1  0.21751611  0.43589708  0.38067023  1.0
  C  C83  1  0.78006265  0.64765682  0.70245645  1.0
  C  C84  1  0.77468686  0.71964474  0.63989114  1.0
  C  C85  1  0.22530662  0.38884271  0.46542007  1.0
  C  C86  1  0.57190387  0.60584968  0.70819734  1.0
  C  C87  1  0.62497582  0.46853088  0.40961415  1.0
  C  C88  1  0.42166740  0.64094955  0.52536410  1.0
  C  C89  1  0.50636015  0.59838764  0.72452168  1.0
  C  C90  1  0.48690116  0.72135212  0.57316172  1.0
  C  C91  1  0.17278165  0.40586749  0.41676702  1.0
  C  C92  1  0.82624091  0.72335311  0.70691508  1.0
  C  C93  1  0.52375944  0.01998684  0.53900796  1.0
  C  C94  1  0.39932426  0.99267308  0.55898297  1.0
  C  C95  1  0.39677752  0.92187186  0.57645534  1.0
  C  C96  1  0.48249230  0.79281199  0.59436851  1.0
  C  C97  1  0.48935209  0.05750988  0.58800346  1.0
  C  C98  1  0.43534943  0.57238217  0.30064179  1.0
  C  C99  1  0.50755890  0.93614500  0.53745058  1.0
  C  C100  1  0.48130726  0.92681382  0.59905844  1.0
  C  C101  1  0.54553378  0.00352113  0.67573789  1.0
  C  C102  1  0.54200936  0.07821895  0.67162338  1.0
  C  C103  1  0.47939171  0.85432920  0.60235906  1.0
  C  C104  1  0.49340675  0.13042088  0.58443320  1.0
  C  C105  1  0.49784628  0.19370601  0.58686857  1.0
  C  C106  1  0.85594173  0.36028403  0.44655227  1.0
  C  C107  1  0.86071393  0.44335826  0.37630632  1.0
  C  C108  1  0.94529797  0.45399821  0.38671964  1.0
  C  C109  1  0.56566461  0.34364144  0.61605865  1.0
  C  C110  1  0.09428809  0.39451887  0.40382180  1.0
  C  C111  1  0.80640855  0.36152674  0.37278394  1.0
  C  C112  1  0.93539717  0.36232541  0.44931585  1.0
  C  C113  1  0.94748540  0.37631748  0.38308548  1.0
  C  C114  1  0.87456439  0.30355912  0.30667880  1.0
  C  C115  1  0.79102038  0.29418344  0.29977954  1.0
  C  C116  1  0.02613609  0.38473078  0.39107422  1.0
  C  C117  1  0.73235855  0.36007828  0.37264742  1.0
  C  C118  1  0.68451136  0.37657124  0.38889037  1.0
  C  C119  1  0.50746245  0.63334877  0.79732913  1.0
  C  C120  1  0.57008953  0.62804779  0.35508593  1.0
  C  C121  1  0.57301626  0.65436409  0.86672780  1.0
  C  C122  1  0.56617413  0.66930115  0.93316904  1.0
  C  C123  1  0.49373038  0.66479250  0.93343745  1.0
  C  C124  1  0.43073606  0.65036865  0.86686460  1.0
  C  C125  1  0.43832222  0.63589430  0.80056064  1.0
  C  C126  1  0.44545257  0.62350114  0.10358225  1.0
  C  C127  1  0.43832280  0.60572711  0.16187335  1.0
  C  C128  1  0.52347476  0.67380450  0.11333478  1.0
  C  C129  1  0.50845460  0.63805381  0.23211478  1.0
  C  C130  1  0.58572565  0.69097081  0.24211955  1.0
  C  C131  1  0.42989523  0.27252613  0.55396507  1.0
  C  C132  1  0.59327200  0.70767594  0.18363668  1.0
  C  C133  1  0.32532193  0.19796563  0.22288287  1.0
  C  C134  1  0.30739542  0.20125334  0.15262386  1.0
  C  C135  1  0.25633014  0.13183864  0.08340831  1.0
  C  C136  1  0.22131127  0.05553665  0.08192300  1.0
  C  C137  1  0.24445950  0.05097101  0.15113856  1.0
  C  C138  1  0.29542763  0.12092866  0.22039315  1.0
  C  C139  1  0.03844815  0.83859058  0.87624688  1.0
  C  C140  1  0.96327194  0.77575427  0.81434222  1.0
  C  C141  1  0.05987559  0.92020949  0.89361407  1.0
  C  C142  1  0.61691924  0.39555126  0.47273025  1.0
  C  C143  1  0.90705856  0.79019622  0.76780854  1.0
  C  C144  1  0.93102278  0.87099288  0.78234716  1.0
  C  C145  1  0.00628548  0.93396930  0.84307612  1.0
  C  C146  1  0.39083753  0.35124078  0.30368884  1.0
  C  C147  1  0.36551253  0.27167712  0.29410428  1.0
  C  C148  1  0.15419220  0.35348565  0.53463621  1.0
  C  C149  1  0.47429449  0.84316291  0.41517608  1.0
  C  C150  1  0.53781787  0.06734940  0.44775574  1.0
  C  C151  1  0.32498112  0.59554998  0.28721729  1.0
  C  C152  1  0.75099583  0.16596984  0.30926129  1.0
  C  C153  1  0.68112616  0.32513804  0.65857386  1.0
  C  C154  1  0.65023236  0.58771183  0.86689773  1.0
  C  C155  1  0.07828498  0.79654070  0.97075329  1.0
  N  N156  1  0.40218251  0.35606266  0.41393213  1.0
  N  N157  1  0.53535566  0.63797420  0.54110030  1.0
  N  N158  1  0.28853975  0.43576350  0.40460219  1.0
  N  N159  1  0.70741863  0.60303755  0.63832451  1.0
  N  N160  1  0.70428275  0.64770171  0.59909766  1.0
  N  N161  1  0.29338809  0.40618327  0.45738245  1.0
  N  N162  1  0.54222343  0.55017014  0.63640981  1.0
  N  N163  1  0.45199416  0.59227408  0.50644050  1.0
  N  N164  1  0.47732194  0.66593615  0.99492977  1.0
  N  N165  1  0.53947492  0.68725012  0.05567541  1.0
  N  N166  1  0.15861714  0.98249791  0.01647953  1.0
  N  N167  1  0.59652594  0.49218934  0.45761670  1.0
  N  N168  1  0.12813158  0.99079206  0.95737277  1.0
  N  N169  1  0.45945432  0.56135328  0.36307869  1.0
  N  N170  1  0.53780942  0.39265102  0.60237109  1.0
  N  N171  1  0.54359643  0.59659572  0.39727890  1.0
  N  N172  1  0.45293347  0.34826041  0.56375008  1.0
  N  N173  1  0.59165104  0.44760591  0.49636941  1.0
  N  N174  1  0.41181992  0.40047967  0.37517909  1.0
  N  N175  1  0.45882831  0.50637217  0.60449258  1.0
  O  O176  1  0.21961768  0.35967941  0.51600679  1.0
  O  O177  1  0.44469938  0.86949753  0.46586513  1.0
  O  O178  1  0.48740078  0.00844437  0.46288577  1.0
  O  O179  1  0.35376077  0.54327901  0.25672954  1.0
  O  O180  1  0.72921297  0.21418719  0.27818441  1.0
  O  O181  1  0.64850830  0.37816490  0.65467226  1.0
  O  O182  1  0.64432779  0.65739906  0.86737585  1.0
  O  O183  1  0.09315219  0.81983098  0.91516677  1.0
