# generated using pymatgen
data_Zn4H18C36O13
_symmetry_space_group_name_H-M   'P 1'
_cell_length_a   18.29800869
_cell_length_b   18.32723353
_cell_length_c   18.30171003
_cell_angle_alpha   119.32167834
_cell_angle_beta   119.37526581
_cell_angle_gamma   60.69608033
_symmetry_Int_Tables_number   1
_chemical_formula_structural   Zn4H18C36O13
_chemical_formula_sum   'Zn8 H36 C72 O26'
_cell_volume   4405.16082643
_cell_formula_units_Z   2
loop_
 _symmetry_equiv_pos_site_id
 _symmetry_equiv_pos_as_xyz
  1  'x, y, z'
loop_
 _atom_site_type_symbol
 _atom_site_label
 _atom_site_symmetry_multiplicity
 _atom_site_fract_x
 _atom_site_fract_y
 _atom_site_fract_z
 _atom_site_occupancy
  Zn  Zn0  1  0.14445416  0.94100051  0.04318382  1.0
  Zn  Zn1  1  0.97612440  0.93727314  0.04808744  1.0
  Zn  Zn2  1  0.97385049  0.93833809  0.87225719  1.0
  Zn  Zn3  1  0.97239323  0.11473179  0.04658941  1.0
  Zn  Zn4  1  0.38431150  0.52753687  0.45791651  1.0
  Zn  Zn5  1  0.56455673  0.52531148  0.46058444  1.0
  Zn  Zn6  1  0.55785493  0.35539670  0.46061612  1.0
  Zn  Zn7  1  0.55957114  0.52366349  0.63202303  1.0
  H  H8  1  0.12714020  0.72437850  0.15211986  1.0
  H  H9  1  0.22477176  0.63006378  0.24975575  1.0
  H  H10  1  0.48045327  0.72691674  0.43207780  1.0
  H  H11  1  0.52338556  0.84338321  0.44891700  1.0
  H  H12  1  0.42636376  0.93632523  0.34941431  1.0
  H  H13  1  0.28745125  0.91210550  0.23513615  1.0
  H  H14  1  0.11843864  0.82825283  0.69995331  1.0
  H  H15  1  0.21448053  0.73162846  0.60331954  1.0
  H  H16  1  0.47446274  0.55182798  0.77146044  1.0
  H  H17  1  0.52102866  0.53534192  0.91451429  1.0
  H  H18  1  0.42594579  0.63344376  0.01192943  1.0
  H  H19  1  0.28513651  0.74618176  0.96441721  1.0
  H  H20  1  0.12040701  0.28051964  0.25669254  1.0
  H  H21  1  0.21545598  0.37750455  0.35327197  1.0
  H  H22  1  0.47970466  0.21483060  0.27094511  1.0
  H  H23  1  0.52804612  0.07473222  0.15830523  1.0
  H  H24  1  0.43225607  0.97802022  0.06042048  1.0
  H  H25  1  0.28970762  0.02245920  0.07689665  1.0
  H  H26  1  0.86584966  0.73292008  0.70847223  1.0
  H  H27  1  0.77146106  0.63531523  0.61226196  1.0
  H  H28  1  0.57957714  0.72478921  0.77123949  1.0
  H  H29  1  0.55585009  0.84047563  0.90961450  1.0
  H  H30  1  0.65128301  0.93745438  0.00657877  1.0
  H  H31  1  0.76929017  0.91772080  0.96364651  1.0
  H  H32  1  0.77061067  0.27812988  0.15650577  1.0
  H  H33  1  0.67294100  0.37616687  0.25128752  1.0
  H  H34  1  0.75327158  0.21533755  0.43727184  1.0
  H  H35  1  0.86559434  0.07556830  0.46004839  1.0
  H  H36  1  0.96435272  0.97798262  0.36636291  1.0
  H  H37  1  0.94912972  0.02123297  0.25086319  1.0
  H  H38  1  0.86223512  0.28287045  0.89734054  1.0
  H  H39  1  0.76504946  0.37878135  0.80121198  1.0
  H  H40  1  0.58548486  0.21067248  0.54142308  1.0
  H  H41  1  0.56619185  0.06950617  0.49664894  1.0
  H  H42  1  0.66119403  0.97475473  0.59437916  1.0
  H  H43  1  0.77484601  0.02174434  0.73480020  1.0
  C  C44  1  0.15823214  0.84312414  0.14006339  1.0
  C  C45  1  0.21869847  0.79205301  0.20334181  1.0
  C  C46  1  0.19134518  0.73143505  0.19933527  1.0
  C  C47  1  0.24613990  0.67853930  0.25419361  1.0
  C  C48  1  0.32842394  0.68610254  0.31390772  1.0
  C  C49  1  0.38345182  0.62409892  0.36673502  1.0
  C  C50  1  0.35778692  0.75070106  0.32309516  1.0
  C  C51  1  0.43784199  0.76683400  0.38857815  1.0
  C  C52  1  0.46190789  0.83208335  0.39771905  1.0
  C  C53  1  0.40724209  0.88454600  0.34178408  1.0
  C  C54  1  0.32908486  0.87114369  0.27765337  1.0
  C  C55  1  0.30174850  0.80463820  0.26621636  1.0
  C  C56  1  0.15451544  0.84249958  0.86295837  1.0
  C  C57  1  0.21305622  0.77837448  0.80737251  1.0
  C  C58  1  0.18343017  0.78163405  0.72298246  1.0
  C  C59  1  0.23716483  0.72746072  0.66887283  1.0
  C  C60  1  0.32061063  0.66935700  0.69859549  1.0
  C  C61  1  0.37614334  0.61872668  0.63952145  1.0
  C  C62  1  0.35176733  0.66005276  0.78335313  1.0
  C  C63  1  0.43271734  0.59515844  0.81313987  1.0
  C  C64  1  0.45881612  0.58603139  0.89364475  1.0
  C  C65  1  0.40519570  0.64119701  0.94845157  1.0
  C  C66  1  0.32604233  0.70454572  0.92177490  1.0
  C  C67  1  0.29681193  0.71612850  0.83920573  1.0
  C  C68  1  0.15633576  0.12030133  0.14146083  1.0
  C  C69  1  0.21571071  0.17570238  0.19385950  1.0
  C  C70  1  0.18580878  0.25846281  0.25247443  1.0
  C  C71  1  0.23920347  0.31291219  0.30678113  1.0
  C  C72  1  0.32309439  0.28489068  0.30316792  1.0
  C  C73  1  0.37773324  0.34468681  0.36635264  1.0
  C  C74  1  0.35532797  0.20152673  0.24085520  1.0
  C  C75  1  0.43760430  0.17340107  0.22923491  1.0
  C  C76  1  0.46474214  0.09460799  0.16593069  1.0
  C  C77  1  0.41078228  0.04010626  0.11084843  1.0
  C  C78  1  0.33058693  0.06504677  0.11995809  1.0
  C  C79  1  0.30027711  0.14569555  0.18473479  1.0
  C  C80  1  0.87252667  0.84977905  0.86730233  1.0
  C  C81  1  0.80917880  0.79851097  0.81183901  1.0
  C  C82  1  0.81685390  0.73832587  0.72990571  1.0
  C  C83  1  0.76380223  0.68357599  0.67585716  1.0
  C  C84  1  0.70247749  0.68873930  0.70322242  1.0
  C  C85  1  0.65291642  0.62400800  0.64403860  1.0
  C  C86  1  0.68907576  0.75304892  0.78543512  1.0
  C  C87  1  0.62144987  0.76649263  0.81261204  1.0
  C  C88  1  0.60831257  0.83139968  0.89044713  1.0
  C  C89  1  0.66209322  0.88611716  0.94507930  1.0
  C  C90  1  0.72822517  0.87524730  0.92102115  1.0
  C  C91  1  0.74387305  0.80912295  0.84114345  1.0
  C  C92  1  0.88416252  0.11827524  0.14795756  1.0
  C  C93  1  0.83255936  0.17395734  0.21106275  1.0
  C  C94  1  0.77421191  0.25676291  0.20458124  1.0
  C  C95  1  0.71945107  0.31163573  0.25759765  1.0
  C  C96  1  0.72228950  0.28383818  0.31729833  1.0
  C  C97  1  0.65802073  0.34350282  0.36730489  1.0
  C  C98  1  0.78440465  0.20067848  0.32944661  1.0
  C  C99  1  0.79528068  0.17335325  0.39576051  1.0
  C  C100  1  0.85839862  0.09477432  0.40847101  1.0
  C  C101  1  0.91394528  0.03978243  0.35559110  1.0
  C  C102  1  0.90563095  0.06401513  0.29077850  1.0
  C  C103  1  0.84108865  0.14444314  0.27526951  1.0
  C  C104  1  0.87496819  0.12112686  0.86399981  1.0
  C  C105  1  0.81067145  0.17623737  0.80468614  1.0
  C  C106  1  0.81492354  0.25981053  0.83292011  1.0
  C  C107  1  0.76045920  0.31360778  0.77890627  1.0
  C  C108  1  0.70181096  0.28390458  0.69585655  1.0
  C  C109  1  0.65037331  0.34302760  0.64036458  1.0
  C  C110  1  0.69221255  0.19963285  0.66536683  1.0
  C  C111  1  0.62741242  0.16988459  0.58414310  1.0
  C  C112  1  0.61677759  0.09054150  0.55902148  1.0
  C  C113  1  0.67038710  0.03711216  0.61403051  1.0
  C  C114  1  0.73411649  0.06350041  0.69307523  1.0
  C  C115  1  0.74747217  0.14476005  0.72130393  1.0
  O  O116  1  0.01493240  0.98441454  0.00243240  1.0
  O  O117  1  0.07523972  0.87058978  0.12733024  1.0
  O  O118  1  0.19353151  0.85406179  0.10241869  1.0
  O  O119  1  0.46729383  0.59442431  0.38332219  1.0
  O  O120  1  0.34118145  0.60433684  0.38925054  1.0
  O  O121  1  0.07120028  0.85626030  0.82337886  1.0
  O  O122  1  0.19174249  0.88000236  0.94492560  1.0
  O  O123  1  0.45945857  0.60604404  0.67682061  1.0
  O  O124  1  0.33536679  0.59389365  0.55599864  1.0
  O  O125  1  0.07310444  0.16079799  0.11447625  1.0
  O  O126  1  0.19323878  0.03712801  0.12917013  1.0
  O  O127  1  0.46022121  0.30824369  0.40330782  1.0
  O  O128  1  0.33737903  0.42756397  0.37967412  1.0
  O  O129  1  0.89046684  0.87533675  0.82613683  1.0
  O  O130  1  0.90535510  0.86193647  0.95047106  1.0
  O  O131  1  0.64000921  0.58990020  0.68125205  1.0
  O  O132  1  0.62940392  0.60627227  0.56049803  1.0
  O  O133  1  0.90698623  0.15952839  0.12730650  1.0
  O  O134  1  0.89948877  0.03474772  0.11801687  1.0
  O  O135  1  0.61962005  0.30734936  0.37622376  1.0
  O  O136  1  0.64526389  0.42639543  0.39565544  1.0
  O  O137  1  0.89342498  0.16210142  0.94755725  1.0
  O  O138  1  0.90778691  0.03819853  0.82670086  1.0
  O  O139  1  0.64226669  0.30690777  0.55801372  1.0
  O  O140  1  0.62009753  0.42588336  0.68040068  1.0
  O  O141  1  0.51494588  0.48464094  0.50215347  1.0
