# generated using pymatgen
data_Zn4H12C28O15
_symmetry_space_group_name_H-M   'P 1'
_cell_length_a   15.94457314
_cell_length_b   16.00707138
_cell_length_c   17.14501426
_cell_angle_alpha   62.26333711
_cell_angle_beta   62.98363538
_cell_angle_gamma   89.95034738
_symmetry_Int_Tables_number   1
_chemical_formula_structural   Zn4H12C28O15
_chemical_formula_sum   'Zn8 H24 C56 O30'
_cell_volume   3325.13536437
_cell_formula_units_Z   2
loop_
 _symmetry_equiv_pos_site_id
 _symmetry_equiv_pos_as_xyz
  1  'x, y, z'
loop_
 _atom_site_type_symbol
 _atom_site_label
 _atom_site_symmetry_multiplicity
 _atom_site_fract_x
 _atom_site_fract_y
 _atom_site_fract_z
 _atom_site_occupancy
  Zn  Zn0  1  0.79429852  0.89378302  0.91044609  1.0
  Zn  Zn1  1  0.39256137  0.29314254  0.91290714  1.0
  Zn  Zn2  1  0.79336166  0.69453559  0.91129798  1.0
  Zn  Zn3  1  0.20664559  0.30546927  0.08869588  1.0
  Zn  Zn4  1  0.60744166  0.70686233  0.08708851  1.0
  Zn  Zn5  1  0.20570011  0.10621601  0.08955161  1.0
  Zn  Zn6  1  0.80509835  0.70496522  0.09093394  1.0
  Zn  Zn7  1  0.19490459  0.29503672  0.90906243  1.0
  H  H8  1  0.06565968  0.54802415  0.73850317  1.0
  H  H9  1  0.02492349  0.42603849  0.35312568  1.0
  H  H10  1  0.45046495  0.36498529  0.24744160  1.0
  H  H11  1  0.54951541  0.63502702  0.75255174  1.0
  H  H12  1  0.97501348  0.57395121  0.64689757  1.0
  H  H13  1  0.10146696  0.92895130  0.40045326  1.0
  H  H14  1  0.89853900  0.07105137  0.59954210  1.0
  H  H15  1  0.33592829  0.38764913  0.59751821  1.0
  H  H16  1  0.93427839  0.45194870  0.26152453  1.0
  H  H17  1  0.66407196  0.61235063  0.40247966  1.0
  H  H18  1  0.91373129  0.68375307  0.55632605  1.0
  H  H19  1  0.08622429  0.31625339  0.44368966  1.0
  H  H20  1  0.56653865  0.36680086  0.28907873  1.0
  H  H21  1  0.43345224  0.63321147  0.71090079  1.0
  H  H22  1  0.29477229  0.40544415  0.26637020  1.0
  H  H23  1  0.10325710  0.84997450  0.65582975  1.0
  H  H24  1  0.89675477  0.15000844  0.34415643  1.0
  H  H25  1  0.29186472  0.51724323  0.45300090  1.0
  H  H26  1  0.70813606  0.48275571  0.54701226  1.0
  H  H27  1  0.70519886  0.59456518  0.73364292  1.0
  H  H28  1  0.13114565  0.68671764  0.74240334  1.0
  H  H29  1  0.86883744  0.31325513  0.25759828  1.0
  H  H30  1  0.21475082  0.48311935  0.36963593  1.0
  H  H31  1  0.78523067  0.51688107  0.63039179  1.0
  C  C32  1  0.61300854  0.60719490  0.27851257  1.0
  C  C33  1  0.90881198  0.30239906  0.29742976  1.0
  C  C34  1  0.58496477  0.53696443  0.60353221  1.0
  C  C35  1  0.02388856  0.80486138  0.60288148  1.0
  C  C36  1  0.97610796  0.19513767  0.39711361  1.0
  C  C37  1  0.41503465  0.46303753  0.39646273  1.0
  C  C38  1  0.07537049  0.78883205  0.65427979  1.0
  C  C39  1  0.92462470  0.21115164  0.34571956  1.0
  C  C40  1  0.32585428  0.48301408  0.40845000  1.0
  C  C41  1  0.67413906  0.51698343  0.59156285  1.0
  C  C42  1  0.28232437  0.46320848  0.36207021  1.0
  C  C43  1  0.71766200  0.53679709  0.63794564  1.0
  C  C44  1  0.09116263  0.69757885  0.70257440  1.0
  C  C45  1  0.05486966  0.62009566  0.70000871  1.0
  C  C46  1  0.94507775  0.37987789  0.30001589  1.0
  C  C47  1  0.32716378  0.42070451  0.30396797  1.0
  C  C48  1  0.38699401  0.39280558  0.72148401  1.0
  C  C49  1  0.67281492  0.57930404  0.69604636  1.0
  C  C50  1  0.05597565  0.95914682  0.44519283  1.0
  C  C51  1  0.94403281  0.04085730  0.55480142  1.0
  C  C52  1  0.40785629  0.43835085  0.55355173  1.0
  C  C53  1  0.59214576  0.56165036  0.44644592  1.0
  C  C54  1  0.88950334  0.88897287  0.72154119  1.0
  C  C55  1  0.04994353  0.05495737  0.39290602  1.0
  C  C56  1  0.95006071  0.94504676  0.60708886  1.0
  C  C57  1  0.44609952  0.45219522  0.60703732  1.0
  C  C58  1  0.55390475  0.54780378  0.39296033  1.0
  C  C59  1  0.11050000  0.11103054  0.27845438  1.0
  C  C60  1  0.99221952  0.09725760  0.44780503  1.0
  C  C61  1  0.00778381  0.90274582  0.55218762  1.0
  C  C62  1  0.54002866  0.51538033  0.55343023  1.0
  C  C63  1  0.45997631  0.48461868  0.44656538  1.0
  C  C64  1  0.97284474  0.52656043  0.00069299  1.0
  C  C65  1  0.02716369  0.47344885  0.99929556  1.0
  C  C66  1  0.52730884  0.97361478  0.99912010  1.0
  C  C67  1  0.47269259  0.02638936  0.00087713  1.0
  C  C68  1  0.52685756  0.52710470  0.99969641  1.0
  C  C69  1  0.47315316  0.47289207  0.00030355  1.0
  C  C70  1  0.59145255  0.90964077  0.99820739  1.0
  C  C71  1  0.40855079  0.09036264  0.00178877  1.0
  C  C72  1  0.90811153  0.59003397  0.00179853  1.0
  C  C73  1  0.09189682  0.40997236  0.99819366  1.0
  C  C74  1  0.59137297  0.59158030  0.99867047  1.0
  C  C75  1  0.40863513  0.40841722  0.00132737  1.0
  C  C76  1  0.90817495  0.90829436  0.00182262  1.0
  C  C77  1  0.09182096  0.09170759  0.99817965  1.0
  C  C78  1  0.97286661  0.97260490  0.00086926  1.0
  C  C79  1  0.02712728  0.02739998  0.99913319  1.0
  C  C80  1  0.00390791  0.63450517  0.64872089  1.0
  C  C81  1  0.99603895  0.36547936  0.35130214  1.0
  C  C82  1  0.41505471  0.39838173  0.29271636  1.0
  C  C83  1  0.58493003  0.60162321  0.70728412  1.0
  C  C84  1  0.98854367  0.72634388  0.60006813  1.0
  C  C85  1  0.01143006  0.27365155  0.39994229  1.0
  C  C86  1  0.45912184  0.41988667  0.33780588  1.0
  C  C87  1  0.54087466  0.58011750  0.66218994  1.0
  O  O88  1  0.75086410  0.74999254  0.00000821  1.0
  O  O89  1  0.29408520  0.37068331  0.76323045  1.0
  O  O90  1  0.87200377  0.93886091  0.76496503  1.0
  O  O91  1  0.12799524  0.06114471  0.23503085  1.0
  O  O92  1  0.54964977  0.81840154  0.06051212  1.0
  O  O93  1  0.45035637  0.18160189  0.93947817  1.0
  O  O94  1  0.87561033  0.60777372  0.94181232  1.0
  O  O95  1  0.12439340  0.39223114  0.05818421  1.0
  O  O96  1  0.24914095  0.25000941  0.99998669  1.0
  O  O97  1  0.55004829  0.62416072  0.05774553  1.0
  O  O98  1  0.44996172  0.37583608  0.94225064  1.0
  O  O99  1  0.68232206  0.60828857  0.93874712  1.0
  O  O100  1  0.31768682  0.39171189  0.06124795  1.0
  O  O101  1  0.88889400  0.81695376  0.06426987  1.0
  O  O102  1  0.11110523  0.18304747  0.93572781  1.0
  O  O103  1  0.87765442  0.95037787  0.93995748  1.0
  O  O104  1  0.12233919  0.04962335  0.06004550  1.0
  O  O105  1  0.68237711  0.95137426  0.93542022  1.0
  O  O106  1  0.31762651  0.04863281  0.06457424  1.0
  O  O107  1  0.89086483  0.62082671  0.06256995  1.0
  O  O108  1  0.10914332  0.37917887  0.93742497  1.0
  O  O109  1  0.56574199  0.63396672  0.23168207  1.0
  O  O110  1  0.43425904  0.36603595  0.76831713  1.0
  O  O111  1  0.85771191  0.79640243  0.76699154  1.0
  O  O112  1  0.14229304  0.20360169  0.23300537  1.0
  O  O113  1  0.70591735  0.62931718  0.23676496  1.0
  O  O114  1  0.93737998  0.74381877  0.55023565  1.0
  O  O115  1  0.06260371  0.25619277  0.44976185  1.0
  O  O116  1  0.54669976  0.40055785  0.32674311  1.0
  O  O117  1  0.45329241  0.59944345  0.67324762  1.0
