# generated using pymatgen
data_ZnH21C47N5O12
_symmetry_space_group_name_H-M   'P 1'
_cell_length_a   14.75734258
_cell_length_b   16.19047654
_cell_length_c   27.90654927
_cell_angle_alpha   90.21942802
_cell_angle_beta   89.97143626
_cell_angle_gamma   89.98841730
_symmetry_Int_Tables_number   1
_chemical_formula_structural   ZnH21C47N5O12
_chemical_formula_sum   'Zn2 H42 C94 N10 O24'
_cell_volume   6667.61754873
_cell_formula_units_Z   2
loop_
 _symmetry_equiv_pos_site_id
 _symmetry_equiv_pos_as_xyz
  1  'x, y, z'
loop_
 _atom_site_type_symbol
 _atom_site_label
 _atom_site_symmetry_multiplicity
 _atom_site_fract_x
 _atom_site_fract_y
 _atom_site_fract_z
 _atom_site_occupancy
  Zn  Zn0  1  0.59733784  0.49996223  0.49995730  1.0
  Zn  Zn1  1  0.40195981  0.49992769  0.50003119  1.0
  H  H2  1  0.64449275  0.49796813  0.35033282  1.0
  H  H3  1  0.64461572  0.50326000  0.64960941  1.0
  H  H4  1  0.64864866  0.50109022  0.26005407  1.0
  H  H5  1  0.64867198  0.50023321  0.73988024  1.0
  H  H6  1  0.58240166  0.70505562  0.12255911  1.0
  H  H7  1  0.58253481  0.29559197  0.87736714  1.0
  H  H8  1  0.35418681  0.49066010  0.65385054  1.0
  H  H9  1  0.35400768  0.50875224  0.34616194  1.0
  H  H10  1  0.47618668  0.69884284  0.87874657  1.0
  H  H11  1  0.47615664  0.30181682  0.12117200  1.0
  H  H12  1  0.50297707  0.70534099  0.96639795  1.0
  H  H13  1  0.50281896  0.29538167  0.03350827  1.0
  H  H14  1  0.05343161  0.53284244  0.37114618  1.0
  H  H15  1  0.14273506  0.61409895  0.31258960  1.0
  H  H16  1  0.23708502  0.73259671  0.34056992  1.0
  H  H17  1  0.24464235  0.76668590  0.42770498  1.0
  H  H18  1  0.15908582  0.68305664  0.48637483  1.0
  H  H19  1  0.94689216  0.28094061  0.52968981  1.0
  H  H20  1  0.86089225  0.18705373  0.58305310  1.0
  H  H21  1  0.76907286  0.24500628  0.65027740  1.0
  H  H22  1  0.76031261  0.39690645  0.66222270  1.0
  H  H23  1  0.84321494  0.49135094  0.60740380  1.0
  H  H24  1  0.05304741  0.46678807  0.62893533  1.0
  H  H25  1  0.14237846  0.38553312  0.68741990  1.0
  H  H26  1  0.23707541  0.26724805  0.65938456  1.0
  H  H27  1  0.24490972  0.23335641  0.57221913  1.0
  H  H28  1  0.15932024  0.31697947  0.51360013  1.0
  H  H29  1  0.94679011  0.71898287  0.47035749  1.0
  H  H30  1  0.86084985  0.81283623  0.41697590  1.0
  H  H31  1  0.76933069  0.75487810  0.34971925  1.0
  H  H32  1  0.76083583  0.60299241  0.33769513  1.0
  H  H33  1  0.84367540  0.50854729  0.39252090  1.0
  H  H34  1  0.71161519  0.66035798  0.98784262  1.0
  H  H35  1  0.78044836  0.78672483  0.95360360  1.0
  H  H36  1  0.71943729  0.92542257  0.97537017  1.0
  H  H37  1  0.59027998  0.93644280  0.03285324  1.0
  H  H38  1  0.52169485  0.80991287  0.06709117  1.0
  H  H39  1  0.71128368  0.34049387  0.01213234  1.0
  H  H40  1  0.78015209  0.21415535  0.04645975  1.0
  H  H41  1  0.71926655  0.07543518  0.02469861  1.0
  H  H42  1  0.59039300  0.06432674  0.96717950  1.0
  H  H43  1  0.52178275  0.19076585  0.93286468  1.0
  C  C44  1  0.50102239  0.66008759  0.49993519  1.0
  C  C45  1  0.50107792  0.33980991  0.50009881  1.0
  C  C46  1  0.49778132  0.50087345  0.40730766  1.0
  C  C47  1  0.49798452  0.49918721  0.59267204  1.0
  C  C48  1  0.53313270  0.58288057  0.17944939  1.0
  C  C49  1  0.53320742  0.41779935  0.82049282  1.0
  C  C50  1  0.49500884  0.43148983  0.17902502  1.0
  C  C51  1  0.49503637  0.56919519  0.82092521  1.0
  C  C52  1  0.42162706  0.51087654  0.27780392  1.0
  C  C53  1  0.42173530  0.48918683  0.72220501  1.0
  C  C54  1  0.41887578  0.50770420  0.32763845  1.0
  C  C55  1  0.41902221  0.49214273  0.67236352  1.0
  C  C56  1  0.58251996  0.50157183  0.32930242  1.0
  C  C57  1  0.58263265  0.49921028  0.67064336  1.0
  C  C58  1  0.58466625  0.50370000  0.27952585  1.0
  C  C59  1  0.58473710  0.49723691  0.72041749  1.0
  C  C60  1  0.50462724  0.50872273  0.25320604  1.0
  C  C61  1  0.50471888  0.49185105  0.74676820  1.0
  C  C62  1  0.52959311  0.50369257  0.10172695  1.0
  C  C63  1  0.52966173  0.49698659  0.89820659  1.0
  C  C64  1  0.54204726  0.57908974  0.12678294  1.0
  C  C65  1  0.54211111  0.42158672  0.87314705  1.0
  C  C66  1  0.56701995  0.64940628  0.10197009  1.0
  C  C67  1  0.56706409  0.35125495  0.89794591  1.0
  C  C68  1  0.50731576  0.43046677  0.12662439  1.0
  C  C69  1  0.50745952  0.57023475  0.87331558  1.0
  C  C70  1  0.49952605  0.50353621  0.35356731  1.0
  C  C71  1  0.49967331  0.49665767  0.64641032  1.0
  C  C72  1  0.53475336  0.57600168  0.97379989  1.0
  C  C73  1  0.53464558  0.42472764  0.02611558  1.0
  C  C74  1  0.55161620  0.42263428  0.97447221  1.0
  C  C75  1  0.55164250  0.57807879  0.02544661  1.0
  C  C76  1  0.53882945  0.49839729  0.94913448  1.0
  C  C77  1  0.53880878  0.50230615  0.05078973  1.0
  C  C78  1  0.51065533  0.64662905  0.94782896  1.0
  C  C79  1  0.51045375  0.35411307  0.05207660  1.0
  C  C80  1  0.49578897  0.64371479  0.89849004  1.0
  C  C81  1  0.49561760  0.35700859  0.10143793  1.0
  C  C82  1  0.57402459  0.65035118  0.05161547  1.0
  C  C83  1  0.57401995  0.35036047  0.94830378  1.0
  C  C84  1  0.58246284  0.04264040  0.49905320  1.0
  C  C85  1  0.41965300  0.95723830  0.50112441  1.0
  C  C86  1  0.58243901  0.95719098  0.50131962  1.0
  C  C87  1  0.41968093  0.04267340  0.49877766  1.0
  C  C88  1  0.50107849  0.08854654  0.49801301  1.0
  C  C89  1  0.50103805  0.91134123  0.50209655  1.0
  C  C90  1  0.50101766  0.17515007  0.49847505  1.0
  C  C91  1  0.50095998  0.82474286  0.50160015  1.0
  C  C92  1  0.50086761  0.74969394  0.50034169  1.0
  C  C93  1  0.50096637  0.25019341  0.49974032  1.0
  C  C94  1  0.95253598  0.55256426  0.46731923  1.0
  C  C95  1  0.04754751  0.44783813  0.53299458  1.0
  C  C96  1  0.95246134  0.44736179  0.53270426  1.0
  C  C97  1  0.04761847  0.55205761  0.46705349  1.0
  C  C98  1  0.90755697  0.49995833  0.50000307  1.0
  C  C99  1  0.09235189  0.49995472  0.50003525  1.0
  C  C100  1  0.81140349  0.49995872  0.49996552  1.0
  C  C101  1  0.18841795  0.49996300  0.50006998  1.0
  C  C102  1  0.10020700  0.60260637  0.43254473  1.0
  C  C103  1  0.09554666  0.58405768  0.38342608  1.0
  C  C104  1  0.14540975  0.63013211  0.35054545  1.0
  C  C105  1  0.19888486  0.69604009  0.36637166  1.0
  C  C106  1  0.20353511  0.71499525  0.41518102  1.0
  C  C107  1  0.15504223  0.66804354  0.44828237  1.0
  C  C108  1  0.90053515  0.39220139  0.56502265  1.0
  C  C109  1  0.90564881  0.30631029  0.55864494  1.0
  C  C110  1  0.85770829  0.25363031  0.58883806  1.0
  C  C111  1  0.80572789  0.28619612  0.62627744  1.0
  C  C112  1  0.80059862  0.37159042  0.63288773  1.0
  C  C113  1  0.84712035  0.42460041  0.60217807  1.0
  C  C114  1  0.10010801  0.39723943  0.56747776  1.0
  C  C115  1  0.09534323  0.41568733  0.61660413  1.0
  C  C116  1  0.14521017  0.36961457  0.64945516  1.0
  C  C117  1  0.19885056  0.30379185  0.63359364  1.0
  C  C118  1  0.20364576  0.28495725  0.58477450  1.0
  C  C119  1  0.15511710  0.33189663  0.55170374  1.0
  C  C120  1  0.90072196  0.60771067  0.43496251  1.0
  C  C121  1  0.90569277  0.69359853  0.44136779  1.0
  C  C122  1  0.85780099  0.74627253  0.41116572  1.0
  C  C123  1  0.80596325  0.71368641  0.37371343  1.0
  C  C124  1  0.80097282  0.62829849  0.36706734  1.0
  C  C125  1  0.84746851  0.57529841  0.39777670  1.0
  C  C126  1  0.61126373  0.72628431  0.02946668  1.0
  C  C127  1  0.68466539  0.72095108  0.99739797  1.0
  C  C128  1  0.72323623  0.79199889  0.97818326  1.0
  C  C129  1  0.68921015  0.86987822  0.99057196  1.0
  C  C130  1  0.61692238  0.87599050  0.02270226  1.0
  C  C131  1  0.57845241  0.80479648  0.04218832  1.0
  C  C132  1  0.61119053  0.27445853  0.97048583  1.0
  C  C133  1  0.68444804  0.27987665  0.00260032  1.0
  C  C134  1  0.72302319  0.20887217  0.02185727  1.0
  C  C135  1  0.68911698  0.13097224  0.00945629  1.0
  C  C136  1  0.61697024  0.12478352  0.97729211  1.0
  C  C137  1  0.57849073  0.19592739  0.95776627  1.0
  N  N138  1  0.51180807  0.50767920  0.20197424  1.0
  N  N139  1  0.51193358  0.49300438  0.79798552  1.0
  N  N140  1  0.26694089  0.49997615  0.50008466  1.0
  N  N141  1  0.73284872  0.49992229  0.49991992  1.0
  N  N142  1  0.33418506  0.48317916  0.74759592  1.0
  N  N143  1  0.33408619  0.51649483  0.25243949  1.0
  N  N144  1  0.66969661  0.91187170  0.50158748  1.0
  N  N145  1  0.33264271  0.08823910  0.49881220  1.0
  N  N146  1  0.66973725  0.08788411  0.49904219  1.0
  N  N147  1  0.33258677  0.91174778  0.50089209  1.0
  O  O148  1  0.57861540  0.62667271  0.49816245  1.0
  O  O149  1  0.42358252  0.37352120  0.49856890  1.0
  O  O150  1  0.57864296  0.37326914  0.50179877  1.0
  O  O151  1  0.42356779  0.62633962  0.50149488  1.0
  O  O152  1  0.57442021  0.49691303  0.42804848  1.0
  O  O153  1  0.42076554  0.49696308  0.57261964  1.0
  O  O154  1  0.57463544  0.50316401  0.57190373  1.0
  O  O155  1  0.42055379  0.50292924  0.42740103  1.0
  O  O156  1  0.54398662  0.64616403  0.20333057  1.0
  O  O157  1  0.54396038  0.35450660  0.79660888  1.0
  O  O158  1  0.47223650  0.62979812  0.79731231  1.0
  O  O159  1  0.47236759  0.37084869  0.20266178  1.0
  O  O160  1  0.26558525  0.50594385  0.72565431  1.0
  O  O161  1  0.33384969  0.45465153  0.78880100  1.0
  O  O162  1  0.26570017  0.49275273  0.27424088  1.0
  O  O163  1  0.33354590  0.54571697  0.21140164  1.0
  O  O164  1  0.68461646  0.86756181  0.53637391  1.0
  O  O165  1  0.71917512  0.92253642  0.46634430  1.0
  O  O166  1  0.31744620  0.13308109  0.46428430  1.0
  O  O167  1  0.28367093  0.07774519  0.53429827  1.0
  O  O168  1  0.68516702  0.13219248  0.46431020  1.0
  O  O169  1  0.71876559  0.07711077  0.53442389  1.0
  O  O170  1  0.31699453  0.86698551  0.53541146  1.0
  O  O171  1  0.28398886  0.92224146  0.46528409  1.0
