# generated using pymatgen
data_ZnH22C26NO4
_symmetry_space_group_name_H-M   'P 1'
_cell_length_a   11.01286980
_cell_length_b   13.93229294
_cell_length_c   15.34996210
_cell_angle_alpha   89.01333804
_cell_angle_beta   87.87133093
_cell_angle_gamma   89.18168109
_symmetry_Int_Tables_number   1
_chemical_formula_structural   ZnH22C26NO4
_chemical_formula_sum   'Zn2 H44 C52 N2 O8'
_cell_volume   2353.02061219
_cell_formula_units_Z   2
loop_
 _symmetry_equiv_pos_site_id
 _symmetry_equiv_pos_as_xyz
  1  'x, y, z'
loop_
 _atom_site_type_symbol
 _atom_site_label
 _atom_site_symmetry_multiplicity
 _atom_site_fract_x
 _atom_site_fract_y
 _atom_site_fract_z
 _atom_site_occupancy
  Zn  Zn0  1  0.50379121  0.40047289  0.49740876  1.0
  Zn  Zn1  1  0.49433893  0.59956651  0.49894717  1.0
  H  H2  1  0.58374520  0.92674570  0.62598158  1.0
  H  H3  1  0.46111548  0.30563169  0.00428971  1.0
  H  H4  1  0.61772070  0.29672809  0.02277483  1.0
  H  H5  1  0.51183620  0.25491191  0.10428000  1.0
  H  H6  1  0.57721716  0.74737753  0.61992307  1.0
  H  H7  1  0.35380189  0.25105984  0.42228745  1.0
  H  H8  1  0.42245360  0.75627172  0.37899041  1.0
  H  H9  1  0.65245408  0.24568511  0.57731269  1.0
  H  H10  1  0.42416948  0.93532036  0.37239519  1.0
  H  H11  1  0.66155432  0.06619918  0.58006715  1.0
  H  H12  1  0.77407313  0.69508918  0.19686014  1.0
  H  H13  1  0.34628099  0.07200275  0.41963339  1.0
  H  H14  1  0.23621978  0.31798047  0.80302849  1.0
  H  H15  1  0.95278701  0.50616526  0.27921464  1.0
  H  H16  1  0.80074013  0.48252096  0.31221607  1.0
  H  H17  1  0.83263707  0.53445659  0.20777719  1.0
  H  H18  1  0.02536936  0.48715298  0.72185313  1.0
  H  H19  1  0.14882018  0.47194720  0.79275153  1.0
  H  H20  1  0.17159369  0.52568892  0.68752788  1.0
  H  H21  1  0.91261198  0.69809854  0.56552939  1.0
  H  H22  1  0.98295420  0.80566016  0.52841603  1.0
  H  H23  1  0.82664176  0.80676368  0.56006093  1.0
  H  H24  1  0.80326108  0.88851149  0.41071211  1.0
  H  H25  1  0.13918057  0.28302083  0.43104450  1.0
  H  H26  1  0.12525071  0.15922713  0.46198346  1.0
  H  H27  1  0.99918537  0.23970013  0.47282142  1.0
  H  H28  1  0.11943776  0.62469159  0.42352054  1.0
  H  H29  1  0.87811914  0.37186551  0.57511106  1.0
  H  H30  1  0.69813855  0.43595269  0.93312960  1.0
  H  H31  1  0.50796299  0.64803475  0.04727942  1.0
  H  H32  1  0.71066681  0.36031757  0.72007375  1.0
  H  H33  1  0.76676920  0.47785616  0.71009356  1.0
  H  H34  1  0.80555805  0.40500915  0.80148211  1.0
  H  H35  1  0.20882519  0.11460054  0.59672106  1.0
  H  H36  1  0.55609661  0.70751909  0.26045391  1.0
  H  H37  1  0.48796804  0.74424823  0.16105825  1.0
  H  H38  1  0.39787353  0.69694977  0.25008809  1.0
  H  H39  1  0.34090529  0.56040465  0.78004951  1.0
  H  H40  1  0.52016077  0.35287479  0.22771128  1.0
  H  H41  1  0.74733020  0.85864645  0.25805570  1.0
  H  H42  1  0.27608652  0.15464944  0.74457349  1.0
  H  H43  1  0.27296733  0.51046213  0.00679188  1.0
  H  H44  1  0.31109183  0.63132130  0.98690840  1.0
  H  H45  1  0.22420822  0.57070814  0.91063067  1.0
  C  C46  1  0.51017608  0.49903480  0.66864915  1.0
  C  C47  1  0.50310171  0.59157817  0.17818648  1.0
  C  C48  1  0.51853878  0.49691824  0.76592134  1.0
  C  C49  1  0.50744494  0.50579056  0.22874925  1.0
  C  C50  1  0.41836877  0.53174384  0.81480953  1.0
  C  C51  1  0.51796570  0.41736840  0.18643714  1.0
  C  C52  1  0.41367888  0.52955867  0.90585249  1.0
  C  C53  1  0.52309943  0.40900687  0.09587552  1.0
  C  C54  1  0.51699399  0.49435386  0.94862871  1.0
  C  C55  1  0.51885229  0.49444901  0.04532431  1.0
  C  C56  1  0.54859848  0.89237563  0.56908051  1.0
  C  C57  1  0.50066608  0.50331539  0.32662091  1.0
  C  C58  1  0.41743450  0.10695722  0.45437571  1.0
  C  C59  1  0.54499498  0.79280856  0.56678963  1.0
  C  C60  1  0.41993455  0.20650731  0.45594145  1.0
  C  C61  1  0.73646277  0.49621063  0.49386349  1.0
  C  C62  1  0.26157147  0.50039674  0.50344383  1.0
  C  C63  1  0.45692433  0.79771437  0.43201164  1.0
  C  C64  1  0.58694026  0.20338479  0.54344590  1.0
  C  C65  1  0.45776301  0.89729679  0.42940780  1.0
  C  C66  1  0.59050130  0.10370067  0.54493064  1.0
  C  C67  1  0.50390573  0.94713266  0.49933057  1.0
  C  C68  1  0.12548784  0.49725347  0.50343083  1.0
  C  C69  1  0.50420742  0.05305873  0.49952368  1.0
  C  C70  1  0.79981443  0.70883584  0.26345219  1.0
  C  C71  1  0.20770345  0.30037576  0.73790295  1.0
  C  C72  1  0.84677351  0.63310100  0.31352540  1.0
  C  C73  1  0.14954432  0.37105801  0.68789604  1.0
  C  C74  1  0.88122398  0.65120571  0.39940747  1.0
  C  C75  1  0.11601098  0.34883565  0.60290873  1.0
  C  C76  1  0.86556672  0.74335665  0.43485465  1.0
  C  C77  1  0.13539593  0.25587174  0.57002775  1.0
  C  C78  1  0.81638599  0.81711156  0.38319091  1.0
  C  C79  1  0.87221104  0.49911788  0.49468590  1.0
  C  C80  1  0.19262303  0.18661642  0.62208382  1.0
  C  C81  1  0.78452551  0.80044937  0.29785123  1.0
  C  C82  1  0.23002816  0.20885333  0.70513105  1.0
  C  C83  1  0.06503185  0.56943405  0.45668537  1.0
  C  C84  1  0.93231661  0.42700585  0.54155479  1.0
  C  C85  1  0.29973277  0.56217532  0.95492429  1.0
  C  C86  1  0.52863377  0.31149169  0.05485079  1.0
  C  C87  1  0.85907986  0.53408123  0.27600346  1.0
  C  C88  1  0.12273134  0.46898695  0.72458995  1.0
  C  C89  1  0.89880528  0.76406131  0.52702687  1.0
  C  C90  1  0.05846060  0.42469215  0.54779250  1.0
  C  C91  1  0.09805761  0.23278788  0.47941592  1.0
  C  C92  1  0.73212585  0.42394376  0.75763277  1.0
  C  C93  1  0.48603445  0.69070752  0.21446258  1.0
  C  C94  1  0.93867441  0.57258091  0.45157199  1.0
  C  C95  1  0.61812187  0.46131555  0.89902747  1.0
  C  C96  1  0.51056997  0.58267383  0.08755411  1.0
  C  C97  1  0.62133107  0.46039103  0.80786169  1.0
  N  N98  1  0.49953717  0.74645131  0.49947776  1.0
  N  N99  1  0.50327664  0.25369874  0.49957740  1.0
  O  O100  1  0.52562083  0.41981995  0.62942460  1.0
  O  O101  1  0.50340600  0.58309313  0.36616545  1.0
  O  O102  1  0.48547554  0.57993291  0.63312644  1.0
  O  O103  1  0.49355411  0.42112910  0.36422361  1.0
  O  O104  1  0.68990119  0.41414062  0.48397243  1.0
  O  O105  1  0.30907397  0.58317096  0.49782451  1.0
  O  O106  1  0.67918991  0.57520229  0.50448191  1.0
  O  O107  1  0.31896630  0.42058769  0.50777101  1.0
