# generated using pymatgen
data_Zn4H38C55(NO5)4
_symmetry_space_group_name_H-M   'P 1'
_cell_length_a   9.66231652
_cell_length_b   11.04837872
_cell_length_c   26.32416072
_cell_angle_alpha   92.15743049
_cell_angle_beta   96.12083725
_cell_angle_gamma   90.26610939
_symmetry_Int_Tables_number   1
_chemical_formula_structural   Zn4H38C55(NO5)4
_chemical_formula_sum   'Zn4 H38 C55 N4 O20'
_cell_volume   2792.07452806
_cell_formula_units_Z   1
loop_
 _symmetry_equiv_pos_site_id
 _symmetry_equiv_pos_as_xyz
  1  'x, y, z'
loop_
 _atom_site_type_symbol
 _atom_site_label
 _atom_site_symmetry_multiplicity
 _atom_site_fract_x
 _atom_site_fract_y
 _atom_site_fract_z
 _atom_site_occupancy
  Zn  Zn0  1  0.63713170  0.50960854  0.50331784  1.0
  Zn  Zn1  1  0.34983474  0.50235309  0.49413535  1.0
  Zn  Zn2  1  0.36258478  0.49243110  0.91334869  1.0
  Zn  Zn3  1  0.65029449  0.48982855  0.92524716  1.0
  H  H4  1  0.09229620  0.36362871  0.44032686  1.0
  H  H5  1  0.15924466  0.64029381  0.55103773  1.0
  H  H6  1  0.83067768  0.37134302  0.44881298  1.0
  H  H7  1  0.72197372  0.11404681  0.50223672  1.0
  H  H8  1  0.27678863  0.12621882  0.49066581  1.0
  H  H9  1  0.70879681  0.88732858  0.50016781  1.0
  H  H10  1  0.26100719  0.47811154  0.32609380  1.0
  H  H11  1  0.69993179  0.52635458  0.35111140  1.0
  H  H12  1  0.73580658  0.53243384  0.09421026  1.0
  H  H13  1  0.29729974  0.46942294  0.06688380  1.0
  H  H14  1  0.30164144  0.56297356  0.75120101  1.0
  H  H15  1  0.71220599  0.41436751  0.76175800  1.0
  H  H16  1  0.30109947  0.56859690  0.65614306  1.0
  H  H17  1  0.90916984  0.37101087  0.98294447  1.0
  H  H18  1  0.84048855  0.61071532  0.86568932  1.0
  H  H19  1  0.16976440  0.37237934  0.97208974  1.0
  H  H20  1  0.27577410  0.09764973  0.91447349  1.0
  H  H21  1  0.72122336  0.11387174  0.92854360  1.0
  H  H22  1  0.28765592  0.87128046  0.91656785  1.0
  H  H23  1  0.81759893  0.74192770  0.54720186  1.0
  H  H24  1  0.81755183  0.63279831  0.59371948  1.0
  H  H25  1  0.96933672  0.72713714  0.59208771  1.0
  H  H26  1  0.13890272  0.96147744  0.48222466  1.0
  H  H27  1  0.20163714  0.82037182  0.45860704  1.0
  H  H28  1  0.19915120  0.84667723  0.52476410  1.0
  H  H29  1  0.81470796  0.34998529  0.69004755  1.0
  H  H30  1  0.72297580  0.34708699  0.62737243  1.0
  H  H31  1  0.81718346  0.47747082  0.65084389  1.0
  H  H32  1  0.17421525  0.71589387  0.86494948  1.0
  H  H33  1  0.18642001  0.58894109  0.82369056  1.0
  H  H34  1  0.02846687  0.67579098  0.81940714  1.0
  H  H35  1  0.85817170  0.95110720  0.93685197  1.0
  H  H36  1  0.79386301  0.81513323  0.96107786  1.0
  H  H37  1  0.79800591  0.82696563  0.89488323  1.0
  H  H38  1  0.14287094  0.47208965  0.10208796  1.0
  H  H39  1  0.10770208  0.49906198  0.27150401  1.0
  H  H40  1  0.95760793  0.53367217  0.19973385  1.0
  H  H41  1  0.84383453  0.57978880  0.31570780  1.0
  C  C42  1  0.50250113  0.26908143  0.49765525  1.0
  C  C43  1  0.47708649  0.50026502  0.39877325  1.0
  C  C44  1  0.49058777  0.74357222  0.49768112  1.0
  C  C45  1  0.49840521  0.50621330  0.59879915  1.0
  C  C46  1  0.49620412  0.25481619  0.92003296  1.0
  C  C47  1  0.52026500  0.49842737  0.01923268  1.0
  C  C48  1  0.50559740  0.72875728  0.91990723  1.0
  C  C49  1  0.51080289  0.48587740  0.81923379  1.0
  C  C50  1  0.94124874  0.58788077  0.53305038  1.0
  C  C51  1  0.04749386  0.42706268  0.46661710  1.0
  C  C52  1  0.08416872  0.58125426  0.52816697  1.0
  C  C53  1  0.90561358  0.43143189  0.47126442  1.0
  C  C54  1  0.48629165  0.87920870  0.49639317  1.0
  C  C55  1  0.49913422  0.13345839  0.49684025  1.0
  C  C56  1  0.36091754  0.94592798  0.49311044  1.0
  C  C57  1  0.62220098  0.06666875  0.49963031  1.0
  C  C58  1  0.37130048  0.07230453  0.49322178  1.0
  C  C59  1  0.61445859  0.94116349  0.49891658  1.0
  C  C60  1  0.35764343  0.49171596  0.30896724  1.0
  C  C61  1  0.36166535  0.49255226  0.25577774  1.0
  C  C62  1  0.23901064  0.47969920  0.22020146  1.0
  C  C63  1  0.60848372  0.51938309  0.32295797  1.0
  C  C64  1  0.61752699  0.52248551  0.27016944  1.0
  C  C65  1  0.74705517  0.54035001  0.24948806  1.0
  C  C66  1  0.63667324  0.51995861  0.10946182  1.0
  C  C67  1  0.63104845  0.52177660  0.16254261  1.0
  C  C68  1  0.75535432  0.53907721  0.19742692  1.0
  C  C69  1  0.38745856  0.48497535  0.09511780  1.0
  C  C70  1  0.37741007  0.48765108  0.14777950  1.0
  C  C71  1  0.24661869  0.47465159  0.16824804  1.0
  C  C72  1  0.48036702  0.50412230  0.34213027  1.0
  C  C73  1  0.49288815  0.50726753  0.23584912  1.0
  C  C74  1  0.51553971  0.50163504  0.07599540  1.0
  C  C75  1  0.50051014  0.50608595  0.18244761  1.0
  C  C76  1  0.50726836  0.49771478  0.65574437  1.0
  C  C77  1  0.50841705  0.48968634  0.76224073  1.0
  C  C78  1  0.62562853  0.45219956  0.68505401  1.0
  C  C79  1  0.39141424  0.53277972  0.73255513  1.0
  C  C80  1  0.62298722  0.44967565  0.73810250  1.0
  C  C81  1  0.39156864  0.53612540  0.67991152  1.0
  C  C82  1  0.05814659  0.56266886  0.88379243  1.0
  C  C83  1  0.95332696  0.42508618  0.95475508  1.0
  C  C84  1  0.91571593  0.55920563  0.88978062  1.0
  C  C85  1  0.09464337  0.42609723  0.94887528  1.0
  C  C86  1  0.51028421  0.86477461  0.92134934  1.0
  C  C87  1  0.49880932  0.11919616  0.92098608  1.0
  C  C88  1  0.63605109  0.93276715  0.92535792  1.0
  C  C89  1  0.37535137  0.05120825  0.91756438  1.0
  C  C90  1  0.62632106  0.05911286  0.92531573  1.0
  C  C91  1  0.38238652  0.92576567  0.91825558  1.0
  C  C92  1  0.88494655  0.67768700  0.56893120  1.0
  C  C93  1  0.21722956  0.89064557  0.48927757  1.0
  C  C94  1  0.75156504  0.40364371  0.66211003  1.0
  C  C95  1  0.11347056  0.64008808  0.84534254  1.0
  C  C96  1  0.77946874  0.87866837  0.92994621  1.0
  N  N97  1  0.85374187  0.51125933  0.50393857  1.0
  N  N98  1  0.13549289  0.50277842  0.49528615  1.0
  N  N99  1  0.14587986  0.49434853  0.91387928  1.0
  N  N100  1  0.86499555  0.49191133  0.92477315  1.0
  O  O101  1  0.62071923  0.32191629  0.50619427  1.0
  O  O102  1  0.38521279  0.32163395  0.48992006  1.0
  O  O103  1  0.35937989  0.50927636  0.41632497  1.0
  O  O104  1  0.59421174  0.48877510  0.42554767  1.0
  O  O105  1  0.37739972  0.68655260  0.50167772  1.0
  O  O106  1  0.60857677  0.69357021  0.49516456  1.0
  O  O107  1  0.61199156  0.52362841  0.57917131  1.0
  O  O108  1  0.37836675  0.49680892  0.57387171  1.0
  O  O109  1  0.37870926  0.30542723  0.90989635  1.0
  O  O110  1  0.61331033  0.30957836  0.92935812  1.0
  O  O111  1  0.63799411  0.51259030  0.00244042  1.0
  O  O112  1  0.40441176  0.48151141  0.99158865  1.0
  O  O113  1  0.61862191  0.67169097  0.91576292  1.0
  O  O114  1  0.38751675  0.67823292  0.92227236  1.0
  O  O115  1  0.39466639  0.50056872  0.83769105  1.0
  O  O116  1  0.62745001  0.46915382  0.84510926  1.0
  O  O117  1  0.12496036  0.45825345  0.13712049  1.0
  O  O118  1  0.10802367  0.46989904  0.23611634  1.0
  O  O119  1  0.87524341  0.55511100  0.17628928  1.0
  O  O120  1  0.86907482  0.55912858  0.28161322  1.0
