# generated using pymatgen
data_AlH24C30(NO2)3
_symmetry_space_group_name_H-M   'P 1'
_cell_length_a   3.95798172
_cell_length_b   15.80834722
_cell_length_c   15.81867216
_cell_angle_alpha   60.33113680
_cell_angle_beta   87.17977315
_cell_angle_gamma   84.76106663
_symmetry_Int_Tables_number   1
_chemical_formula_structural   AlH24C30(NO2)3
_chemical_formula_sum   'Al1 H24 C30 N3 O6'
_cell_volume   856.40207185
_cell_formula_units_Z   1
loop_
 _symmetry_equiv_pos_site_id
 _symmetry_equiv_pos_as_xyz
  1  'x, y, z'
loop_
 _atom_site_type_symbol
 _atom_site_label
 _atom_site_symmetry_multiplicity
 _atom_site_fract_x
 _atom_site_fract_y
 _atom_site_fract_z
 _atom_site_occupancy
  Al  Al0  1  0.03549011  0.99642230  0.50144153  1.0
  H  H1  1  0.46255278  0.54564422  0.59758324  1.0
  H  H2  1  0.70128127  0.54134066  0.86123424  1.0
  H  H3  1  0.65882975  0.35105240  0.60054375  1.0
  H  H4  1  0.28033752  0.10486510  0.85238194  1.0
  H  H5  1  0.34697134  0.09984273  0.04765866  1.0
  H  H6  1  0.65592696  0.35086866  0.05028757  1.0
  H  H7  1  0.51449701  0.78464757  0.78744555  1.0
  H  H8  1  0.94337221  0.78522257  0.75048730  1.0
  H  H9  1  0.80925567  0.68581679  0.86196632  1.0
  H  H10  1  0.67031853  0.78004688  0.43314108  1.0
  H  H11  1  0.23789182  0.79832722  0.45809011  1.0
  H  H12  1  0.38315460  0.69274020  0.44949316  1.0
  H  H13  1  0.78955352  0.34838083  0.45592763  1.0
  H  H14  1  0.49023982  0.28858544  0.42795833  1.0
  H  H15  1  0.90346947  0.23209585  0.46603574  1.0
  H  H16  1  0.46659523  0.93134171  0.78723032  1.0
  H  H17  1  0.06529924  0.97675809  0.73076276  1.0
  H  H18  1  0.13316928  0.96634884  0.84610925  1.0
  H  H19  1  0.30120765  0.95460601  0.18369812  1.0
  H  H20  1  0.06061437  0.97189517  0.27264551  1.0
  H  H21  1  0.48686431  0.92611438  0.29612436  1.0
  H  H22  1  0.96271352  0.25328456  0.27232906  1.0
  H  H23  1  0.53668156  0.26743897  0.30257316  1.0
  H  H24  1  0.70139211  0.35686622  0.18935917  1.0
  C  C25  1  0.53245928  0.07037127  0.35089714  1.0
  C  C26  1  0.57407074  0.84499097  0.57939701  1.0
  C  C27  1  0.49512371  0.07605082  0.57481737  1.0
  C  C28  1  0.48572037  0.28565995  0.78683663  1.0
  C  C29  1  0.55519773  0.42642474  0.78830180  1.0
  C  C30  1  0.50634832  0.28464361  0.93070324  1.0
  C  C31  1  0.52217586  0.68693735  0.58226873  1.0
  C  C32  1  0.51860671  0.58556326  0.63437706  1.0
  C  C33  1  0.57880694  0.53311434  0.73470377  1.0
  C  C34  1  0.65091067  0.58308023  0.78333384  1.0
  C  C35  1  0.65690057  0.68451339  0.73376096  1.0
  C  C36  1  0.58813414  0.73576761  0.63320378  1.0
  C  C37  1  0.57422572  0.27748830  0.63432525  1.0
  C  C38  1  0.57911757  0.22841477  0.58134924  1.0
  C  C39  1  0.47479590  0.13255061  0.62841766  1.0
  C  C40  1  0.36319583  0.08697130  0.72604656  1.0
  C  C41  1  0.36396919  0.13838231  0.77671221  1.0
  C  C42  1  0.47090955  0.23311354  0.73189077  1.0
  C  C43  1  0.41663515  0.13380433  0.08910062  1.0
  C  C44  1  0.41459023  0.08098654  0.19059289  1.0
  C  C45  1  0.51761789  0.12613572  0.24261826  1.0
  C  C46  1  0.60734324  0.22431524  0.19191354  1.0
  C  C47  1  0.59280328  0.27505275  0.09054947  1.0
  C  C48  1  0.50393398  0.23046940  0.03831937  1.0
  C  C49  1  0.73558132  0.73763390  0.78650439  1.0
  C  C50  1  0.44912587  0.74227895  0.47494592  1.0
  C  C51  1  0.69744757  0.27707887  0.47722434  1.0
  C  C52  1  0.25026610  0.98487762  0.77531537  1.0
  C  C53  1  0.31183447  0.97777814  0.23839599  1.0
  C  C54  1  0.70666733  0.27841657  0.24170556  1.0
  N  N55  1  0.52869362  0.38171426  0.73570573  1.0
  N  N56  1  0.55615409  0.38031487  0.88620520  1.0
  N  N57  1  0.46195767  0.23438605  0.88451038  1.0
  O  O58  1  0.74791376  0.01332352  0.59359986  1.0
  O  O59  1  0.75921448  0.08813980  0.39358678  1.0
  O  O60  1  0.81029986  0.88633681  0.51865750  1.0
  O  O61  1  0.26343090  0.09289496  0.51408345  1.0
  O  O62  1  0.32247205  0.89056681  0.59710379  1.0
  O  O63  1  0.31772313  0.00659729  0.39709944  1.0
