# generated using pymatgen
data_Zn8H26C40S5O47
_symmetry_space_group_name_H-M   'P 1'
_cell_length_a   18.48273347
_cell_length_b   18.48994590
_cell_length_c   18.51056445
_cell_angle_alpha   90.67955715
_cell_angle_beta   119.37003682
_cell_angle_gamma   119.52006914
_symmetry_Int_Tables_number   1
_chemical_formula_structural   Zn8H26C40S5O47
_chemical_formula_sum   'Zn8 H26 C40 S5 O47'
_cell_volume   4521.15834190
_cell_formula_units_Z   1
loop_
 _symmetry_equiv_pos_site_id
 _symmetry_equiv_pos_as_xyz
  1  'x, y, z'
loop_
 _atom_site_type_symbol
 _atom_site_label
 _atom_site_symmetry_multiplicity
 _atom_site_fract_x
 _atom_site_fract_y
 _atom_site_fract_z
 _atom_site_occupancy
  Zn  Zn0  1  0.08042466  0.94383960  0.53549654  1.0
  Zn  Zn1  1  0.09305605  0.12100199  0.54229029  1.0
  Zn  Zn2  1  0.90971310  0.94826836  0.53785309  1.0
  Zn  Zn3  1  0.91356920  0.94870397  0.36788564  1.0
  Zn  Zn4  1  0.90702932  0.54079072  0.96207098  1.0
  Zn  Zn5  1  0.07680465  0.53785871  0.95229250  1.0
  Zn  Zn6  1  0.90635206  0.36908264  0.95503537  1.0
  Zn  Zn7  1  0.08597393  0.53851138  0.12892732  1.0
  H  H8  1  0.83923235  0.59905311  0.16213244  1.0
  H  H9  1  0.59255730  0.18813750  0.81211516  1.0
  H  H10  1  0.57125267  0.34404791  0.80722450  1.0
  H  H11  1  0.04196147  0.81695673  0.15544179  1.0
  H  H12  1  0.16276585  0.88786027  0.34302497  1.0
  H  H13  1  0.95980572  0.66951509  0.34908349  1.0
  H  H14  1  0.99955629  0.67802615  0.75890488  1.0
  H  H15  1  0.20545575  0.95475132  0.73859422  1.0
  H  H16  1  0.63955472  0.80142946  0.21315025  1.0
  H  H17  1  0.29930106  0.44647902  0.43699825  1.0
  H  H18  1  0.87377958  0.08001330  0.22054139  1.0
  H  H19  1  0.40159307  0.71641236  0.30142808  1.0
  H  H20  1  0.84968491  0.10073186  0.77656805  1.0
  H  H21  1  0.11027660  0.28217693  0.68223681  1.0
  H  H22  1  0.44658536  0.11074672  0.82689257  1.0
  H  H23  1  0.30589083  0.22112437  0.48868025  1.0
  H  H24  1  0.18576477  0.75533223  0.50204850  1.0
  H  H25  1  0.96329442  0.90454505  0.86447422  1.0
  H  H26  1  0.83445670  0.75819287  0.72222314  1.0
  H  H27  1  0.41061137  0.69898977  0.14058154  1.0
  H  H28  1  0.58618917  0.80710628  0.39432611  1.0
  H  H29  1  0.14066921  0.38752990  0.29216573  1.0
  H  H30  1  0.92465396  0.23001698  0.14799444  1.0
  H  H31  1  0.86743901  0.76433781  0.15343421  1.0
  H  H32  1  0.04267013  0.33850160  0.78375500  1.0
  H  H33  1  0.90430839  0.09222787  0.70486179  1.0
  C  C34  1  0.00042019  0.12757878  0.35961829  1.0
  C  C35  1  0.03644031  0.84680827  0.72925712  1.0
  C  C36  1  0.43981873  0.72796679  0.26841653  1.0
  C  C37  1  0.01749813  0.87734187  0.65261317  1.0
  C  C38  1  0.37991326  0.69032631  0.17948786  1.0
  C  C39  1  0.54851682  0.78115782  0.32372236  1.0
  C  C40  1  0.61167281  0.80272086  0.29749711  1.0
  C  C41  1  0.07425833  0.32004707  0.26550510  1.0
  C  C42  1  0.99400693  0.29591645  0.18323833  1.0
  C  C43  1  0.08113967  0.26621503  0.32097937  1.0
  C  C44  1  0.00286450  0.18193459  0.30034626  1.0
  C  C45  1  0.02294298  0.78518158  0.19871581  1.0
  C  C46  1  0.94351225  0.21265083  0.77908747  1.0
  C  C47  1  0.99370290  0.30247024  0.80491448  1.0
  C  C48  1  0.95229459  0.16412867  0.72548975  1.0
  C  C49  1  0.27172645  0.11872556  0.61413714  1.0
  C  C50  1  0.01238455  0.19479728  0.69560748  1.0
  C  C51  1  0.55309512  0.22056116  0.79337900  1.0
  C  C52  1  0.60719454  0.30890421  0.82293974  1.0
  C  C53  1  0.44237904  0.16445070  0.73767664  1.0
  C  C54  1  0.38352467  0.17140301  0.66091848  1.0
  C  C55  1  0.26859593  0.63468483  0.12940604  1.0
  C  C56  1  0.09023736  0.82376744  0.30149184  1.0
  C  C57  1  0.71945196  0.36382664  0.87536946  1.0
  C  C58  1  0.98517604  0.63195809  0.86264854  1.0
  C  C59  1  0.99718521  0.35813380  0.13362015  1.0
  C  C60  1  0.98851211  0.35623150  0.85806709  1.0
  C  C61  1  0.72374155  0.85701699  0.36005565  1.0
  C  C62  1  0.00542519  0.63656447  0.14571516  1.0
  C  C63  1  0.00812488  0.13229059  0.63920909  1.0
  C  C64  1  0.98961614  0.84780123  0.35516502  1.0
  C  C65  1  0.92627828  0.75478529  0.19670185  1.0
  C  C66  1  0.91046008  0.66424939  0.20262697  1.0
  C  C67  1  0.07392850  0.73309197  0.30737366  1.0
  C  C68  1  0.00741907  0.69437390  0.20416143  1.0
  C  C69  1  0.97723383  0.70211164  0.30544542  1.0
  C  C70  1  0.99223223  0.79247171  0.29943936  1.0
  C  C71  1  0.97464981  0.75636048  0.81245373  1.0
  C  C72  1  0.98590394  0.69049526  0.80738512  1.0
  C  C73  1  0.96462383  0.80201180  0.74636476  1.0
  S  S74  1  0.15829936  0.86479413  0.80007426  1.0
  S  S75  1  0.20304345  0.31281389  0.42252343  1.0
  S  S76  1  0.43475996  0.24409767  0.61110521  1.0
  S  S77  1  0.17195911  0.72302522  0.38225286  1.0
  S  S78  1  0.94882808  0.78578563  0.88565036  1.0
  O  O79  1  0.99798286  0.99199003  0.49611719  1.0
  O  O80  1  0.92128352  0.32328648  0.05325153  1.0
  O  O81  1  0.04013956  0.43943421  0.87017003  1.0
  O  O82  1  0.92614331  0.04581195  0.31837897  1.0
  O  O83  1  0.05545762  0.60393987  0.18107047  1.0
  O  O84  1  0.93537408  0.31924792  0.88861092  1.0
  O  O85  1  0.94940269  0.62407717  0.06411177  1.0
  O  O86  1  0.91473834  0.59923301  0.87434740  1.0
  O  O87  1  0.07255720  0.43909369  0.17281928  1.0
  O  O88  1  0.22159790  0.60654955  0.04560333  1.0
  O  O89  1  0.76222673  0.32421526  0.88619987  1.0
  O  O90  1  0.22399904  0.03522946  0.59036356  1.0
  O  O91  1  0.08549607  0.90564453  0.63624453  1.0
  O  O92  1  0.23380251  0.16311164  0.60247294  1.0
  O  O93  1  0.76540265  0.88442820  0.44246022  1.0
  O  O94  1  0.06900048  0.17088002  0.61593036  1.0
  O  O95  1  0.94667683  0.88618090  0.31799491  1.0
  O  O96  1  0.94746920  0.04979766  0.61924752  1.0
  O  O97  1  0.03129679  0.85308624  0.43608861  1.0
  O  O98  1  0.18557739  0.87700758  0.88851814  1.0
  O  O99  1  0.15785460  0.79930531  0.75655384  1.0
  O  O100  1  0.23184094  0.95965510  0.80141036  1.0
  O  O101  1  0.76958336  0.87104500  0.32181060  1.0
  O  O102  1  0.57791002  0.77646878  0.21210666  1.0
  O  O103  1  0.21248045  0.35397085  0.49582235  1.0
  O  O104  1  0.22690147  0.24902973  0.42462683  1.0
  O  O105  1  0.27685643  0.38992984  0.40311403  1.0
  O  O106  1  0.91476261  0.13987176  0.22002447  1.0
  O  O107  1  0.88008310  0.16270104  0.80273776  1.0
  O  O108  1  0.07845576  0.28091460  0.71256476  1.0
  O  O109  1  0.39610348  0.10158684  0.76709466  1.0
  O  O110  1  0.45070955  0.32722128  0.63737370  1.0
  O  O111  1  0.51492671  0.24110751  0.62042441  1.0
  O  O112  1  0.06464798  0.16503523  0.44143101  1.0
  O  O113  1  0.34117052  0.19110870  0.51085324  1.0
  O  O114  1  0.12980959  0.63553874  0.38799509  1.0
  O  O115  1  0.25090582  0.76388460  0.36828642  1.0
  O  O116  1  0.21591143  0.79038217  0.47327157  1.0
  O  O117  1  0.84134983  0.74907175  0.83084984  1.0
  O  O118  1  0.99576445  0.77315057  0.96762773  1.0
  O  O119  1  0.00923662  0.89127063  0.90730569  1.0
  O  O120  1  0.87576752  0.79373284  0.70082337  1.0
  O  O121  1  0.93662094  0.87379436  0.60691174  1.0
  O  O122  1  0.99409257  0.49879574  0.99982145  1.0
  O  O123  1  0.22795518  0.61829965  0.17194663  1.0
  O  O124  1  0.76269095  0.44692090  0.90395425  1.0
  O  O125  1  0.05419752  0.61940835  0.88860215  1.0
