# generated using pymatgen
data_Zn2H6C14SBrO7
_symmetry_space_group_name_H-M   'P 1'
_cell_length_a   18.58556984
_cell_length_b   19.69466353
_cell_length_c   32.74512933
_cell_angle_alpha   86.10107869
_cell_angle_beta   73.62607844
_cell_angle_gamma   62.04814846
_symmetry_Int_Tables_number   1
_chemical_formula_structural   Zn2H6C14SBrO7
_chemical_formula_sum   'Zn16 H48 C112 S8 Br8 O56'
_cell_volume   10129.11585477
_cell_formula_units_Z   8
loop_
 _symmetry_equiv_pos_site_id
 _symmetry_equiv_pos_as_xyz
  1  'x, y, z'
loop_
 _atom_site_type_symbol
 _atom_site_label
 _atom_site_symmetry_multiplicity
 _atom_site_fract_x
 _atom_site_fract_y
 _atom_site_fract_z
 _atom_site_occupancy
  Zn  Zn0  1  0.87291394  0.55436577  0.51836575  1.0
  Zn  Zn1  1  0.03857731  0.48356724  0.43824593  1.0
  Zn  Zn2  1  0.04351005  0.39923398  0.52393857  1.0
  Zn  Zn3  1  0.04439009  0.56216908  0.51763003  1.0
  Zn  Zn4  1  0.62527060  0.19187344  0.73286341  1.0
  Zn  Zn5  1  0.46402685  0.35043604  0.72511664  1.0
  Zn  Zn6  1  0.45610592  0.26574646  0.81230672  1.0
  Zn  Zn7  1  0.45357764  0.19337939  0.72843250  1.0
  Zn  Zn8  1  0.46253808  0.76332350  0.31273473  1.0
  Zn  Zn9  1  0.45358053  0.69057879  0.23193254  1.0
  Zn  Zn10  1  0.62506702  0.69487779  0.22947136  1.0
  Zn  Zn11  1  0.45679964  0.85085492  0.22561021  1.0
  Zn  Zn12  1  0.03672009  0.89969839  0.02446790  1.0
  Zn  Zn13  1  0.05004752  0.05729320  0.01881026  1.0
  Zn  Zn14  1  0.87628040  0.05779969  0.01950156  1.0
  Zn  Zn15  1  0.03703070  0.98642320  0.93719259  1.0
  H  H16  1  0.80549679  0.96383581  0.65494969  1.0
  H  H17  1  0.31295075  0.97419171  0.40140503  1.0
  H  H18  1  0.81140102  0.24206019  0.65456898  1.0
  H  H19  1  0.54780071  0.48388317  0.61907937  1.0
  H  H20  1  0.55253865  0.52505536  0.66437389  1.0
  H  H21  1  0.65415250  0.56770055  0.61601028  1.0
  H  H22  1  0.64969750  0.52616187  0.57077724  1.0
  H  H23  1  0.29292612  0.60466905  0.29605637  1.0
  H  H24  1  0.34870043  0.67233546  0.43602030  1.0
  H  H25  1  0.25857659  0.76120097  0.43368751  1.0
  H  H26  1  0.16135030  0.71085322  0.47826388  1.0
  H  H27  1  0.25118610  0.62236520  0.48095392  1.0
  H  H28  1  0.80907485  0.60239918  0.29469849  1.0
  H  H29  1  0.54884109  0.76141781  0.43086150  1.0
  H  H30  1  0.54355454  0.67312551  0.43287444  1.0
  H  H31  1  0.64371463  0.62236369  0.47900389  1.0
  H  H32  1  0.64956608  0.71023320  0.47667664  1.0
  H  H33  1  0.30999256  0.45625641  0.64597648  1.0
  H  H34  1  0.32671145  0.18068904  0.62882264  1.0
  H  H35  1  0.23635992  0.22216672  0.67427636  1.0
  H  H36  1  0.14090227  0.27676210  0.62569751  1.0
  H  H37  1  0.23136604  0.23538018  0.58037601  1.0
  H  H38  1  0.18742149  0.66001112  0.96262689  1.0
  H  H39  1  0.69058597  0.14728925  0.95595668  1.0
  H  H40  1  0.95213771  0.07962255  0.81598927  1.0
  H  H41  1  0.94835609  0.99081607  0.81825438  1.0
  H  H42  1  0.84530772  0.04140789  0.77349673  1.0
  H  H43  1  0.84928553  0.13017751  0.77147474  1.0
  H  H44  1  0.19117039  0.05290891  0.84490724  1.0
  H  H45  1  0.17279157  0.21619330  0.97501163  1.0
  H  H46  1  0.26378272  0.12772168  0.97691890  1.0
  H  H47  1  0.35828011  0.17418854  0.92542163  1.0
  H  H48  1  0.26744929  0.26222207  0.92351784  1.0
  H  H49  1  0.92720746  0.28385789  0.09401379  1.0
  H  H50  1  0.19187763  0.79446342  0.10294325  1.0
  H  H51  1  0.26325912  0.03008121  0.07514320  1.0
  H  H52  1  0.17233679  0.07151392  0.12043098  1.0
  H  H53  1  0.26691280  0.01740859  0.16921547  1.0
  H  H54  1  0.35778299  0.97623338  0.12409528  1.0
  H  H55  1  0.69128441  0.00655641  0.09570975  1.0
  H  H56  1  0.94921312  0.72230046  0.08592001  1.0
  H  H57  1  0.95311195  0.76324533  0.13152857  1.0
  H  H58  1  0.85068709  0.72121158  0.17912427  1.0
  H  H59  1  0.84628457  0.68044768  0.13355052  1.0
  H  H60  1  0.61999157  0.82254279  0.60783174  1.0
  H  H61  1  0.21319956  0.26064522  0.31332580  1.0
  H  H62  1  0.28593817  0.65191132  0.77518798  1.0
  H  H63  1  0.55387638  0.43023956  0.14354746  1.0
  C  C64  1  0.86305409  0.56718983  0.43003262  1.0
  C  C65  1  0.12454262  0.31460049  0.43937683  1.0
  C  C66  1  0.86755330  0.42603857  0.56877796  1.0
  C  C67  1  0.13903378  0.43704700  0.56794154  1.0
  C  C68  1  0.87143488  0.68437906  0.56021021  1.0
  C  C69  1  0.13756070  0.56846184  0.43035348  1.0
  C  C70  1  0.63987119  0.31762520  0.68146879  1.0
  C  C71  1  0.37620402  0.43493024  0.81031259  1.0
  C  C72  1  0.63229101  0.18206405  0.82148208  1.0
  C  C73  1  0.36095508  0.18021684  0.81642315  1.0
  C  C74  1  0.62582877  0.06611099  0.68844556  1.0
  C  C75  1  0.36269012  0.31892667  0.68020048  1.0
  C  C76  1  0.36232020  0.68177241  0.32071243  1.0
  C  C77  1  0.62433862  0.56641000  0.18874521  1.0
  C  C78  1  0.63784592  0.68252332  0.31855104  1.0
  C  C79  1  0.63306702  0.82262388  0.18026806  1.0
  C  C80  1  0.37526731  0.93323341  0.31138780  1.0
  C  C81  1  0.36064077  0.81586695  0.18138074  1.0
  C  C82  1  0.13848184  0.93163158  0.06857893  1.0
  C  C83  1  0.87940974  0.18406083  0.06135470  1.0
  C  C84  1  0.86242184  0.93054497  0.06922007  1.0
  C  C85  1  0.86203446  0.06898046  0.93095696  1.0
  C  C86  1  0.12165164  0.81639033  0.93886086  1.0
  C  C87  1  0.13858890  0.06879155  0.93083063  1.0
  C  C88  1  0.73378559  0.80327368  0.60088813  1.0
  C  C89  1  0.76164072  0.94628644  0.64906732  1.0
  C  C90  1  0.82172660  0.75847063  0.58556782  1.0
  C  C91  1  0.67446082  0.99089795  0.66376003  1.0
  C  C92  1  0.78360152  0.87795722  0.62605099  1.0
  C  C93  1  0.71221985  0.87182719  0.62394177  1.0
  C  C94  1  0.20182115  0.22680854  0.36986918  1.0
  C  C95  1  0.29947959  0.02105550  0.38037324  1.0
  C  C96  1  0.17414489  0.24051382  0.41425551  1.0
  C  C97  1  0.32623921  0.00799168  0.33640546  1.0
  C  C98  1  0.25410566  0.10073990  0.39280917  1.0
  C  C99  1  0.24749542  0.14662707  0.35778978  1.0
  C  C100  1  0.69752598  0.34513607  0.65306361  1.0
  C  C101  1  0.81342169  0.39493562  0.59745380  1.0
  C  C102  1  0.66857365  0.41665927  0.63592383  1.0
  C  C103  1  0.84232072  0.32195416  0.61503414  1.0
  C  C104  1  0.72494211  0.43991113  0.60929706  1.0
  C  C105  1  0.78619867  0.29841460  0.64186259  1.0
  C  C106  1  0.59059002  0.49063647  0.63378813  1.0
  C  C107  1  0.65419634  0.51723121  0.60362241  1.0
  C  C108  1  0.30510257  0.65370763  0.34881554  1.0
  C  C109  1  0.19387739  0.59630146  0.40091287  1.0
  C  C110  1  0.27904273  0.66437944  0.39321039  1.0
  C  C111  1  0.22058563  0.58594736  0.35557305  1.0
  C  C112  1  0.22542373  0.63653479  0.41787946  1.0
  C  C113  1  0.27420223  0.61379615  0.33067270  1.0
  C  C114  1  0.28487070  0.69819125  0.43161942  1.0
  C  C115  1  0.22401570  0.66666667  0.45965968  1.0
  C  C116  1  0.69475582  0.65316986  0.34680224  1.0
  C  C117  1  0.80918789  0.59458871  0.40008746  1.0
  C  C118  1  0.66501350  0.66379615  0.39116813  1.0
  C  C119  1  0.83893501  0.58389607  0.35473142  1.0
  C  C120  1  0.72068030  0.63525176  0.41643130  1.0
  C  C121  1  0.78337252  0.61219750  0.32926010  1.0
  C  C122  1  0.58652075  0.69836578  0.42902512  1.0
  C  C123  1  0.64940510  0.66632845  0.45779155  1.0
  C  C124  1  0.30576362  0.34871569  0.65195473  1.0
  C  C125  1  0.19603180  0.41062367  0.59635355  1.0
  C  C126  1  0.27142214  0.30732175  0.63899736  1.0
  C  C127  1  0.23152996  0.45229131  0.60976386  1.0
  C  C128  1  0.21873833  0.33773241  0.61224482  1.0
  C  C129  1  0.28432197  0.42220187  0.63655444  1.0
  C  C130  1  0.26617971  0.23261827  0.64211780  1.0
  C  C131  1  0.20647722  0.26684370  0.61179423  1.0
  C  C132  1  0.29835178  0.58336101  0.81998441  1.0
  C  C133  1  0.20040107  0.66885406  0.92873740  1.0
  C  C134  1  0.32684971  0.50972014  0.83487234  1.0
  C  C135  1  0.17213062  0.74162464  0.91373606  1.0
  C  C136  1  0.24643262  0.61089292  0.89472264  1.0
  C  C137  1  0.25236045  0.64105966  0.85439881  1.0
  C  C138  1  0.80401506  0.09768560  0.90319485  1.0
  C  C139  1  0.68681134  0.15493231  0.85116758  1.0
  C  C140  1  0.83222099  0.08719916  0.85880194  1.0
  C  C141  1  0.65866679  0.16521902  0.89651295  1.0
  C  C142  1  0.77523980  0.11510178  0.83419740  1.0
  C  C143  1  0.71538343  0.13773644  0.92136717  1.0
  C  C144  1  0.90968519  0.05375543  0.82038557  1.0
  C  C145  1  0.84533977  0.08534385  0.79242733  1.0
  C  C146  1  0.19499501  0.09713320  0.90204421  1.0
  C  C147  1  0.30403808  0.15073234  0.84369933  1.0
  C  C148  1  0.22880178  0.13749945  0.91659818  1.0
  C  C149  1  0.26904625  0.10967640  0.82918743  1.0
  C  C150  1  0.28106085  0.16299873  0.88814363  1.0
  C  C151  1  0.21654223  0.08407461  0.85748695  1.0
  C  C152  1  0.23353323  0.17049795  0.95565732  1.0
  C  C153  1  0.29277109  0.19942181  0.92345922  1.0
  C  C154  1  0.64348654  0.44791012  0.14934510  1.0
  C  C155  1  0.85969244  0.30259350  0.10040697  1.0
  C  C156  1  0.67349870  0.49213874  0.16374968  1.0
  C  C157  1  0.82957530  0.25901144  0.08626183  1.0
  C  C158  1  0.79217787  0.37159793  0.12332879  1.0
  C  C159  1  0.71178969  0.37896204  0.12617651  1.0
  C  C160  1  0.19482731  0.90259625  0.09710913  1.0
  C  C161  1  0.30380447  0.84190892  0.15300010  1.0
  C  C162  1  0.22830185  0.94468996  0.11022969  1.0
  C  C163  1  0.26934611  0.79939941  0.13943499  1.0
  C  C164  1  0.28060395  0.91478280  0.13715605  1.0
  C  C165  1  0.21684787  0.82906196  0.11248014  1.0
  C  C166  1  0.23301082  0.01967666  0.10721546  1.0
  C  C167  1  0.29225457  0.98593055  0.13778008  1.0
  C  C168  1  0.80468574  0.90290832  0.09731561  1.0
  C  C169  1  0.68776576  0.85339982  0.15193830  1.0
  C  C170  1  0.83305752  0.83112341  0.11415305  1.0
  C  C171  1  0.65946157  0.92638890  0.13437325  1.0
  C  C172  1  0.77618920  0.80809572  0.14047381  1.0
  C  C173  1  0.71606278  0.95001378  0.10822539  1.0
  C  C174  1  0.91061714  0.75684755  0.11643118  1.0
  C  C175  1  0.84641550  0.73058443  0.14625725  1.0
  S  S176  1  0.87729886  0.79995641  0.59949508  1.0
  S  S177  1  0.61823855  0.95025818  0.64997587  1.0
  S  S178  1  0.20425046  0.15587545  0.44074559  1.0
  S  S179  1  0.29678559  0.09202285  0.30968573  1.0
  S  S180  1  0.29740483  0.51152295  0.89051365  1.0
  S  S181  1  0.20136022  0.74046936  0.85827617  1.0
  S  S182  1  0.78422585  0.44948296  0.14896129  1.0
  S  S183  1  0.71916413  0.30123150  0.10068886  1.0
  Br  Br184  1  0.95935092  0.24759721  0.60386900  1.0
  Br  Br185  1  0.18603902  0.53521513  0.32344105  1.0
  Br  Br186  1  0.95605633  0.53028916  0.32329761  1.0
  Br  Br187  1  0.21211540  0.55285895  0.59300701  1.0
  Br  Br188  1  0.54176444  0.21681050  0.92857255  1.0
  Br  Br189  1  0.28818651  0.08526082  0.77033077  1.0
  Br  Br190  1  0.28947399  0.69877862  0.15614437  1.0
  Br  Br191  1  0.54253040  0.00014705  0.14398590  1.0
  O  O192  1  0.99794339  0.50067931  0.50069730  1.0
  O  O193  1  0.82319577  0.57747594  0.46985311  1.0
  O  O194  1  0.10023502  0.37480313  0.41873598  1.0
  O  O195  1  0.94763293  0.38666871  0.56095319  1.0
  O  O196  1  0.94306332  0.53666182  0.41406781  1.0
  O  O197  1  0.82713275  0.49125709  0.55462467  1.0
  O  O198  1  0.10955966  0.31237159  0.48010041  1.0
  O  O199  1  0.11709607  0.38817998  0.55946842  1.0
  O  O200  1  0.95231568  0.65795911  0.55010693  1.0
  O  O201  1  0.11698053  0.50397314  0.55456452  1.0
  O  O202  1  0.83140644  0.65296262  0.55045964  1.0
  O  O203  1  0.11677313  0.52567756  0.41440318  1.0
  O  O204  1  0.11526236  0.59006361  0.46994846  1.0
  O  O205  1  0.50073914  0.24978307  0.74970476  1.0
  O  O206  1  0.67446605  0.25193185  0.69617985  1.0
  O  O207  1  0.39913693  0.43505455  0.76972815  1.0
  O  O208  1  0.55214051  0.21708997  0.83715049  1.0
  O  O209  1  0.56031308  0.36273059  0.68851057  1.0
  O  O210  1  0.67276000  0.16691913  0.78169475  1.0
  O  O211  1  0.39208223  0.37548635  0.83219120  1.0
  O  O212  1  0.38133745  0.21916448  0.83638837  1.0
  O  O213  1  0.54503443  0.09669073  0.69620333  1.0
  O  O214  1  0.38482545  0.16466399  0.77634664  1.0
  O  O215  1  0.66781569  0.09376859  0.69972414  1.0
  O  O216  1  0.38985719  0.36273087  0.68957876  1.0
  O  O217  1  0.37957727  0.25144478  0.69252816  1.0
  O  O218  1  0.50030952  0.75062310  0.25018553  1.0
  O  O219  1  0.38804987  0.71757953  0.33926269  1.0
  O  O220  1  0.54368920  0.59425925  0.20023630  1.0
  O  O221  1  0.67285995  0.67054932  0.27837169  1.0
  O  O222  1  0.38080221  0.66766867  0.28058218  1.0
  O  O223  1  0.55821753  0.71742958  0.33749686  1.0
  O  O224  1  0.66708071  0.59685124  0.19695441  1.0
  O  O225  1  0.67299994  0.75585289  0.19298259  1.0
  O  O226  1  0.39138232  0.93554204  0.27077511  1.0
  O  O227  1  0.55295224  0.86367245  0.18941757  1.0
  O  O228  1  0.39708357  0.87339912  0.33244176  1.0
  O  O229  1  0.38243518  0.74909270  0.19485642  1.0
  O  O230  1  0.38307696  0.86451026  0.18973069  1.0
  O  O231  1  0.00074575  0.00026401  0.99984690  1.0
  O  O232  1  0.11141367  0.88742372  0.05952428  1.0
  O  O233  1  0.96013899  0.15512719  0.05118038  1.0
  O  O234  1  0.82773311  0.99757990  0.05598149  1.0
  O  O235  1  0.12209969  0.99864249  0.05566149  1.0
  O  O236  1  0.94206745  0.88451699  0.06073109  1.0
  O  O237  1  0.83658738  0.15481213  0.05219675  1.0
  O  O238  1  0.82753230  0.08189559  0.97119066  1.0
  O  O239  1  0.10254122  0.87624163  0.91749823  1.0
  O  O240  1  0.94163334  0.03371906  0.91196779  1.0
  O  O241  1  0.10146139  0.81472161  0.97940352  1.0
  O  O242  1  0.12169849  0.08343689  0.97083000  1.0
  O  O243  1  0.11201213  0.03264439  0.91322442  1.0
  O  O244  1  0.67748659  0.78278325  0.59412219  1.0
  O  O245  1  0.18643514  0.28359252  0.34259594  1.0
  O  O246  1  0.31332795  0.59652199  0.77796543  1.0
  O  O247  1  0.55986106  0.46937641  0.15684850  1.0
