# generated using pymatgen
data_CdH18C28(NO)4
_symmetry_space_group_name_H-M   'P 1'
_cell_length_a   12.21111362
_cell_length_b   12.21338928
_cell_length_c   13.67500000
_cell_angle_alpha   67.78308903
_cell_angle_beta   67.77872782
_cell_angle_gamma   83.33814586
_symmetry_Int_Tables_number   1
_chemical_formula_structural   CdH18C28(NO)4
_chemical_formula_sum   'Cd2 H36 C56 N8 O8'
_cell_volume   1746.97130556
_cell_formula_units_Z   2
loop_
 _symmetry_equiv_pos_site_id
 _symmetry_equiv_pos_as_xyz
  1  'x, y, z'
loop_
 _atom_site_type_symbol
 _atom_site_label
 _atom_site_symmetry_multiplicity
 _atom_site_fract_x
 _atom_site_fract_y
 _atom_site_fract_z
 _atom_site_occupancy
  Cd  Cd0  1  0.65343604  0.34652273  0.25001290  1.0
  Cd  Cd1  1  0.34656344  0.65347746  0.74998882  1.0
  H  H2  1  0.68916410  0.59580404  0.28443859  1.0
  H  H3  1  0.40422446  0.31089064  0.21552832  1.0
  H  H4  1  0.31083451  0.40419615  0.71556342  1.0
  H  H5  1  0.59577588  0.68910867  0.78447267  1.0
  H  H6  1  0.36431701  0.29128184  0.45691694  1.0
  H  H7  1  0.70878102  0.63569592  0.04307078  1.0
  H  H8  1  0.63568248  0.70871835  0.54308405  1.0
  H  H9  1  0.29122021  0.36430339  0.95692992  1.0
  H  H10  1  0.15341647  0.34627055  0.53982803  1.0
  H  H11  1  0.65375976  0.84656132  0.96017669  1.0
  H  H12  1  0.84658296  0.65372788  0.46017284  1.0
  H  H13  1  0.34624238  0.15343887  0.03982267  1.0
  H  H14  1  0.10511326  0.55051355  0.53308519  1.0
  H  H15  1  0.44947433  0.89483295  0.96693941  1.0
  H  H16  1  0.89488440  0.44948487  0.46691335  1.0
  H  H17  1  0.55052693  0.10516724  0.03306171  1.0
  H  H18  1  0.26163646  0.70711761  0.44744361  1.0
  H  H19  1  0.29285686  0.73832534  0.05257586  1.0
  H  H20  1  0.73836037  0.29288258  0.55255608  1.0
  H  H21  1  0.70714437  0.26167397  0.94742410  1.0
  H  H22  1  0.39634554  0.76808630  0.48839129  1.0
  H  H23  1  0.23192164  0.60364314  0.01162389  1.0
  H  H24  1  0.60365221  0.23191478  0.51160998  1.0
  H  H25  1  0.76807793  0.39635971  0.98837397  1.0
  H  H26  1  0.43753088  0.97858182  0.44818319  1.0
  H  H27  1  0.02138517  0.56245315  0.05184081  1.0
  H  H28  1  0.56246864  0.02141925  0.55181676  1.0
  H  H29  1  0.97861346  0.43754792  0.94816016  1.0
  H  H30  1  0.71657470  0.00284133  0.13331978  1.0
  H  H31  1  0.99714427  0.28342947  0.36666189  1.0
  H  H32  1  0.28342385  0.99715709  0.86668213  1.0
  H  H33  1  0.00285696  0.71656984  0.63333588  1.0
  H  H34  1  0.67091968  0.79342023  0.16796265  1.0
  H  H35  1  0.20660242  0.32909426  0.33201564  1.0
  H  H36  1  0.32907799  0.20657819  0.83203955  1.0
  H  H37  1  0.79339881  0.67090504  0.66798287  1.0
  C  C38  1  0.59569498  0.57068602  0.32492940  1.0
  C  C39  1  0.42934368  0.40433950  0.17504542  1.0
  C  C40  1  0.40430274  0.42931417  0.67507218  1.0
  C  C41  1  0.57065667  0.59565981  0.82495339  1.0
  C  C42  1  0.42975746  0.46946355  0.40576737  1.0
  C  C43  1  0.53057279  0.57025332  0.09422564  1.0
  C  C44  1  0.57024114  0.53053664  0.59423391  1.0
  C  C45  1  0.46942847  0.42974688  0.90577183  1.0
  C  C46  1  0.34132066  0.38105758  0.45440353  1.0
  C  C47  1  0.61898737  0.65868405  0.04558789  1.0
  C  C48  1  0.65867791  0.61894172  0.54559806  1.0
  C  C49  1  0.38101474  0.34131525  0.95441178  1.0
  C  C50  1  0.22494585  0.41278385  0.49994222  1.0
  C  C51  1  0.58724580  0.77503521  0.00006016  1.0
  C  C52  1  0.77505270  0.58721457  0.50005822  1.0
  C  C53  1  0.41275632  0.22496409  0.99994097  1.0
  C  C54  1  0.19717469  0.52931021  0.49600611  1.0
  C  C55  1  0.47069105  0.80279016  0.00400987  1.0
  C  C56  1  0.80282303  0.47068998  0.50399401  1.0
  C  C57  1  0.52931106  0.19720915  0.99598980  1.0
  C  C58  1  0.28438052  0.61820728  0.44782748  1.0
  C  C59  1  0.38178703  0.71558763  0.05219119  1.0
  C  C60  1  0.71561808  0.38179291  0.55217234  1.0
  C  C61  1  0.61821508  0.28441168  0.94780774  1.0
  C  C62  1  0.40113211  0.58594478  0.40375544  1.0
  C  C63  1  0.41406623  0.59886394  0.09625110  1.0
  C  C64  1  0.59886647  0.41405453  0.59624615  1.0
  C  C65  1  0.58593589  0.40113537  0.90374637  1.0
  C  C66  1  0.53082117  0.76881366  0.32984981  1.0
  C  C67  1  0.23118170  0.46918393  0.17015384  1.0
  C  C68  1  0.46917741  0.23118564  0.67015251  1.0
  C  C69  1  0.76881864  0.53081538  0.82984423  1.0
  C  C70  1  0.46388328  0.82012926  0.40900334  1.0
  C  C71  1  0.17986644  0.53611843  0.09100572  1.0
  C  C72  1  0.53611535  0.17987182  0.59099836  1.0
  C  C73  1  0.82013402  0.46388442  0.90899258  1.0
  C  C74  1  0.48748874  0.93767057  0.38686708  1.0
  C  C75  1  0.06230337  0.51250911  0.11314990  1.0
  C  C76  1  0.51251252  0.06232962  0.61313550  1.0
  C  C77  1  0.93769618  0.48749285  0.88685047  1.0
  C  C78  1  0.57834291  0.00368550  0.28768493  1.0
  C  C79  1  0.99629992  0.42165471  0.21231656  1.0
  C  C80  1  0.42165658  0.99631469  0.71231533  1.0
  C  C81  1  0.00370222  0.57834549  0.78768207  1.0
  C  C82  1  0.64551157  0.95073396  0.20965499  1.0
  C  C83  1  0.04925309  0.35449014  0.29033945  1.0
  C  C84  1  0.35448875  0.04926446  0.79034632  1.0
  C  C85  1  0.95074817  0.64551005  0.70965801  1.0
  C  C86  1  0.62139781  0.83404655  0.22975571  1.0
  C  C87  1  0.16595997  0.37860914  0.27023477  1.0
  C  C88  1  0.37860077  0.16595275  0.77024661  1.0
  C  C89  1  0.83404128  0.62139105  0.72976197  1.0
  C  C90  1  0.60557123  0.12851109  0.26689786  1.0
  C  C91  1  0.87146000  0.39442537  0.23310004  1.0
  C  C92  1  0.39443006  0.87148998  0.73310003  1.0
  C  C93  1  0.12854040  0.60557570  0.76689742  1.0
  N  N94  1  0.55197391  0.46353401  0.35599778  1.0
  N  N95  1  0.53651595  0.44805934  0.14397866  1.0
  N  N96  1  0.44802381  0.53646618  0.64400381  1.0
  N  N97  1  0.46348439  0.55193997  0.85602161  1.0
  N  N98  1  0.50969244  0.64854075  0.35141621  1.0
  N  N99  1  0.35147117  0.49032090  0.14857980  1.0
  N  N100  1  0.49030614  0.35145856  0.64858612  1.0
  N  N101  1  0.64853009  0.50967929  0.85141840  1.0
  O  O102  1  0.53964520  0.17347418  0.34018766  1.0
  O  O103  1  0.82649239  0.46033519  0.15981797  1.0
  O  O104  1  0.46035609  0.82652690  0.65981023  1.0
  O  O105  1  0.17350887  0.53966500  0.84017949  1.0
  O  O106  1  0.69234724  0.18530936  0.17960105  1.0
  O  O107  1  0.81464896  0.30765908  0.32038836  1.0
  O  O108  1  0.30765311  0.81468994  0.82039775  1.0
  O  O109  1  0.18535062  0.69234376  0.67961023  1.0
