# generated using pymatgen
data_AlH7C15ClO7
_symmetry_space_group_name_H-M   'P 1'
_cell_length_a   6.56952800
_cell_length_b   11.10789434
_cell_length_c   17.58050683
_cell_angle_alpha   91.17933095
_cell_angle_beta   98.25338178
_cell_angle_gamma   106.87628093
_symmetry_Int_Tables_number   1
_chemical_formula_structural   AlH7C15ClO7
_chemical_formula_sum   'Al2 H14 C30 Cl2 O14'
_cell_volume   1212.32008242
_cell_formula_units_Z   2
loop_
 _symmetry_equiv_pos_site_id
 _symmetry_equiv_pos_as_xyz
  1  'x, y, z'
loop_
 _atom_site_type_symbol
 _atom_site_label
 _atom_site_symmetry_multiplicity
 _atom_site_fract_x
 _atom_site_fract_y
 _atom_site_fract_z
 _atom_site_occupancy
  Al  Al0  1  0.02206610  0.50706684  0.50440251  1.0
  Al  Al1  1  0.51849844  0.50404657  0.50018504  1.0
  H  H2  1  0.36850226  0.65873304  0.54271425  1.0
  H  H3  1  0.71325363  0.44657595  0.40808742  1.0
  H  H4  1  0.82120185  0.39476967  0.27656372  1.0
  H  H5  1  0.72698812  0.38583653  0.13401913  1.0
  H  H6  1  0.48913060  0.57019978  0.25911527  1.0
  H  H7  1  0.50275667  0.40395935  0.72863706  1.0
  H  H8  1  0.18233758  0.58066472  0.73585870  1.0
  H  H9  1  0.23888527  0.57321661  0.87945193  1.0
  H  H10  1  0.56984784  0.76670009  0.39171489  1.0
  H  H11  1  0.76373860  0.23429077  0.42592990  1.0
  H  H12  1  0.37326521  0.12793876  0.55878688  1.0
  H  H13  1  0.25902899  0.89235799  0.55292017  1.0
  H  H14  1  0.47296545  0.85446479  0.22908779  1.0
  H  H15  1  0.41155534  0.25030589  0.40498787  1.0
  C  C16  1  0.88651273  0.73298796  0.49282678  1.0
  C  C17  1  0.80731941  0.49909616  0.63909135  1.0
  C  C18  1  0.14611056  0.27851890  0.50588099  1.0
  C  C19  1  0.21399158  0.49405585  0.36181010  1.0
  C  C20  1  0.16051125  0.48441261  0.27668558  1.0
  C  C21  1  0.94576816  0.43200620  0.24130085  1.0
  C  C22  1  0.89295269  0.42669693  0.16197193  1.0
  C  C23  1  0.05270926  0.47622865  0.11556648  1.0
  C  C24  1  0.26898862  0.52738902  0.15226316  1.0
  C  C25  1  0.32254571  0.52997825  0.23175254  1.0
  C  C26  1  0.99592517  0.47555973  0.03517294  1.0
  C  C27  1  0.94465047  0.47587659  0.96566981  1.0
  C  C28  1  0.90483124  0.48107818  0.88509659  1.0
  C  C29  1  0.69630199  0.43269046  0.84126832  1.0
  C  C30  1  0.66373608  0.44005676  0.76178402  1.0
  C  C31  1  0.83983700  0.49303279  0.72406219  1.0
  C  C32  1  0.04777958  0.54034781  0.76634875  1.0
  C  C33  1  0.07903769  0.53583660  0.84567293  1.0
  C  C34  1  0.94788275  0.87273645  0.48864006  1.0
  C  C35  1  0.80425720  0.93504384  0.45000741  1.0
  C  C36  1  0.14973316  0.94199602  0.52593038  1.0
  C  C37  1  0.61311299  0.86903163  0.39936713  1.0
  C  C38  1  0.48570794  0.93232795  0.35825045  1.0
  C  C39  1  0.07138454  0.13802939  0.49891524  1.0
  C  C40  1  0.21312368  0.07431098  0.52997047  1.0
  C  C41  1  0.86384725  0.07025724  0.45775249  1.0
  C  C42  1  0.72171847  0.13206109  0.41892484  1.0
  C  C43  1  0.53785531  0.06579889  0.36968087  1.0
  C  C44  1  0.28760487  0.85829629  0.30378505  1.0
  C  C45  1  0.41177136  0.13379086  0.31856964  1.0
  Cl  Cl46  1  0.46906091  0.59018472  0.09799798  1.0
  Cl  Cl47  1  0.48023430  0.36366956  0.88730238  1.0
  O  O48  1  0.03121725  0.67958966  0.48713801  1.0
  O  O49  1  0.61541656  0.47534705  0.60358089  1.0
  O  O50  1  0.33589856  0.33075244  0.49081650  1.0
  O  O51  1  0.05598900  0.47463709  0.39937983  1.0
  O  O52  1  0.02012034  0.33710370  0.52493761  1.0
  O  O53  1  0.41146355  0.52067138  0.39299031  1.0
  O  O54  1  0.69587271  0.67812961  0.50551796  1.0
  O  O55  1  0.97522450  0.52916300  0.60667990  1.0
  O  O56  1  0.31617647  0.56752012  0.53531075  1.0
  O  O57  1  0.72855410  0.44774867  0.46400803  1.0
  O  O58  1  0.32317236  0.81517485  0.23561494  1.0
  O  O59  1  0.10688650  0.83149387  0.32029870  1.0
  O  O60  1  0.38130154  0.23948524  0.34808421  1.0
  O  O61  1  0.34593952  0.09862986  0.25088394  1.0
