# generated using pymatgen
data_AlH7C16Cl2O5
_symmetry_space_group_name_H-M   'P 1'
_cell_length_a   6.63142388
_cell_length_b   24.30231828
_cell_length_c   25.25869492
_cell_angle_alpha   89.99040179
_cell_angle_beta   89.72999260
_cell_angle_gamma   88.04180609
_symmetry_Int_Tables_number   1
_chemical_formula_structural   AlH7C16Cl2O5
_chemical_formula_sum   'Al4 H28 C64 Cl8 O20'
_cell_volume   4068.24301382
_cell_formula_units_Z   4
loop_
 _symmetry_equiv_pos_site_id
 _symmetry_equiv_pos_as_xyz
  1  'x, y, z'
loop_
 _atom_site_type_symbol
 _atom_site_label
 _atom_site_symmetry_multiplicity
 _atom_site_fract_x
 _atom_site_fract_y
 _atom_site_fract_z
 _atom_site_occupancy
  Al  Al0  1  0.01177413  0.00137833  0.49826614  1.0
  Al  Al1  1  0.51249749  0.99772288  0.49886110  1.0
  Al  Al2  1  0.98702098  0.50241110  0.00114977  1.0
  Al  Al3  1  0.48764537  0.49871756  0.00173329  1.0
  H  H4  1  0.26300685  0.06765325  0.52019209  1.0
  H  H5  1  0.78026773  0.93469481  0.52584150  1.0
  H  H6  1  0.23619657  0.43233466  0.98010447  1.0
  H  H7  1  0.71910576  0.56539962  0.97412163  1.0
  H  H8  1  0.46531850  0.41488208  0.14051714  1.0
  H  H9  1  0.45517918  0.34504601  0.21266089  1.0
  H  H10  1  0.04614850  0.28323952  0.16400078  1.0
  H  H11  1  0.45049059  0.21626180  0.33555742  1.0
  H  H12  1  0.03394489  0.08563841  0.35960548  1.0
  H  H13  1  0.04276636  0.15517564  0.28717120  1.0
  H  H14  1  0.93977118  0.63712075  0.90071704  1.0
  H  H15  1  0.94062097  0.71125693  0.83258506  1.0
  H  H16  1  0.53458435  0.65315129  0.78267889  1.0
  H  H17  1  0.96904296  0.84669503  0.71778752  1.0
  H  H18  1  0.56049634  0.86278151  0.59860140  1.0
  H  H19  1  0.56217627  0.78884845  0.66693564  1.0
  H  H20  1  0.52824651  0.63123284  0.09516318  1.0
  H  H21  1  0.54025771  0.70608593  0.16252035  1.0
  H  H22  1  0.95742179  0.65916072  0.22116717  1.0
  H  H23  1  0.54184119  0.84077647  0.27895433  1.0
  H  H24  1  0.97108177  0.86894481  0.40489651  1.0
  H  H25  1  0.95925602  0.79387356  0.33774075  1.0
  H  H26  1  0.46727961  0.41560361  0.85889294  1.0
  H  H27  1  0.46071639  0.34672850  0.78589862  1.0
  H  H28  1  0.04341015  0.28221943  0.83664798  1.0
  H  H29  1  0.46057465  0.21835507  0.66333116  1.0
  H  H30  1  0.03220902  0.08359241  0.64141536  1.0
  H  H31  1  0.04061772  0.15239849  0.71445286  1.0
  C  C32  1  0.75478759  0.06809327  0.56946745  1.0
  C  C33  1  0.74475152  0.06653114  0.42867331  1.0
  C  C34  1  0.26340543  0.93529137  0.42650366  1.0
  C  C35  1  0.26977585  0.93344034  0.57169170  1.0
  C  C36  1  0.74490358  0.43185637  0.93063734  1.0
  C  C37  1  0.75467950  0.43369698  0.07141374  1.0
  C  C38  1  0.23597956  0.56494758  0.07340737  1.0
  C  C39  1  0.23000240  0.56649688  0.92818868  1.0
  C  C40  1  0.76154513  0.39042891  0.11337398  1.0
  C  C41  1  0.59313484  0.38634075  0.14699558  1.0
  C  C42  1  0.58683748  0.34726228  0.18691431  1.0
  C  C43  1  0.75111622  0.30945271  0.19374036  1.0
  C  C44  1  0.91982211  0.31270943  0.15991672  1.0
  C  C45  1  0.92561659  0.35275115  0.12053113  1.0
  C  C46  1  0.74830696  0.26798272  0.23303862  1.0
  C  C47  1  0.74832490  0.23172254  0.26650745  1.0
  C  C48  1  0.74599638  0.19036144  0.30592537  1.0
  C  C49  1  0.57733027  0.18697654  0.33974741  1.0
  C  C50  1  0.57244210  0.14712446  0.37932877  1.0
  C  C51  1  0.73732114  0.10972528  0.38663426  1.0
  C  C52  1  0.90562422  0.11395920  0.35300955  1.0
  C  C53  1  0.91108691  0.15285800  0.31291123  1.0
  C  C54  1  0.23688313  0.60537057  0.88236745  1.0
  C  C55  1  0.07009377  0.64173286  0.87489973  1.0
  C  C56  1  0.07003987  0.68282421  0.83685437  1.0
  C  C57  1  0.24015083  0.68835558  0.80373757  1.0
  C  C58  1  0.40474793  0.65054423  0.80900870  1.0
  C  C59  1  0.40326474  0.60978547  0.84778428  1.0
  C  C60  1  0.24768808  0.73125554  0.76602973  1.0
  C  C61  1  0.25652390  0.76873731  0.73400738  1.0
  C  C62  1  0.26318641  0.81164091  0.69627278  1.0
  C  C63  1  0.09815629  0.84935259  0.69122284  1.0
  C  C64  1  0.09842114  0.89004580  0.65237242  1.0
  C  C65  1  0.26389288  0.89448426  0.61749488  1.0
  C  C66  1  0.43103428  0.85819527  0.62470503  1.0
  C  C67  1  0.43239275  0.81718800  0.66283587  1.0
  C  C68  1  0.23439256  0.60550148  0.11782196  1.0
  C  C69  1  0.40245070  0.63888291  0.12239442  1.0
  C  C70  1  0.40974667  0.68023615  0.16003099  1.0
  C  C71  1  0.24703675  0.68884235  0.19565898  1.0
  C  C72  1  0.08115417  0.65419760  0.19288499  1.0
  C  C73  1  0.07473565  0.61320416  0.15441051  1.0
  C  C74  1  0.24934468  0.73141991  0.23381489  1.0
  C  C75  1  0.25013474  0.76841485  0.26649676  1.0
  C  C76  1  0.25238044  0.81108324  0.30455769  1.0
  C  C77  1  0.41813653  0.84578785  0.30722287  1.0
  C  C78  1  0.42449401  0.88690669  0.34556238  1.0
  C  C79  1  0.26487383  0.89467381  0.38214180  1.0
  C  C80  1  0.09685270  0.86126587  0.37766710  1.0
  C  C81  1  0.08964959  0.81978708  0.34015005  1.0
  C  C82  1  0.75679705  0.38909410  0.88809531  1.0
  C  C83  1  0.59333420  0.38630083  0.85295342  1.0
  C  C84  1  0.58942028  0.34791049  0.81246006  1.0
  C  C85  1  0.75212623  0.30945799  0.80613520  1.0
  C  C86  1  0.91728553  0.31179981  0.84077364  1.0
  C  C87  1  0.92010255  0.35094795  0.88101824  1.0
  C  C88  1  0.75094400  0.26814122  0.76673694  1.0
  C  C89  1  0.75240481  0.23166763  0.73349143  1.0
  C  C90  1  0.75046557  0.19037576  0.69407425  1.0
  C  C91  1  0.58559564  0.18843840  0.65929624  1.0
  C  C92  1  0.58165365  0.14933867  0.61903177  1.0
  C  C93  1  0.74376949  0.11081610  0.61205168  1.0
  C  C94  1  0.90705400  0.11319411  0.64730417  1.0
  C  C95  1  0.91198140  0.15153121  0.68784005  1.0
  Cl  Cl96  1  0.13609896  0.35150079  0.07987987  1.0
  Cl  Cl97  1  0.36201042  0.14829332  0.42000084  1.0
  Cl  Cl98  1  0.61024111  0.56444389  0.84961551  1.0
  Cl  Cl99  1  0.89096555  0.93522431  0.65075783  1.0
  Cl  Cl100  1  0.87017575  0.57106200  0.15552729  1.0
  Cl  Cl101  1  0.62883542  0.92912783  0.34431524  1.0
  Cl  Cl102  1  0.12913907  0.34662879  0.92199603  1.0
  Cl  Cl103  1  0.37320841  0.15409281  0.57788872  1.0
  O  O104  1  0.93091882  0.04982425  0.55658021  1.0
  O  O105  1  0.58232493  0.04344659  0.44078004  1.0
  O  O106  1  0.42909811  0.94383427  0.44968667  1.0
  O  O107  1  0.10373972  0.94502437  0.54861613  1.0
  O  O108  1  0.09207085  0.95652109  0.43931957  1.0
  O  O109  1  0.44266974  0.95004910  0.55802758  1.0
  O  O110  1  0.58997453  0.05309554  0.54959008  1.0
  O  O111  1  0.91673373  0.05588814  0.44934389  1.0
  O  O112  1  0.26032993  0.03300537  0.50109554  1.0
  O  O113  1  0.76886459  0.96514460  0.50104818  1.0
  O  O114  1  0.90950137  0.44693288  0.95058927  1.0
  O  O115  1  0.58278345  0.44434164  0.05070866  1.0
  O  O116  1  0.40726040  0.54367860  0.06063979  1.0
  O  O117  1  0.05698794  0.54992037  0.94178319  1.0
  O  O118  1  0.07034709  0.55646367  0.05015741  1.0
  O  O119  1  0.39577552  0.55495192  0.95139427  1.0
  O  O120  1  0.56863704  0.45008322  0.94343599  1.0
  O  O121  1  0.91718398  0.45680174  0.05939367  1.0
  O  O122  1  0.23912232  0.46707976  0.99901834  1.0
  O  O123  1  0.73058439  0.53494866  0.99891331  1.0
