# generated using pymatgen
data_Zn2H12C27BrN2O8F5
_symmetry_space_group_name_H-M   'P 1'
_cell_length_a   9.97702560
_cell_length_b   11.13995417
_cell_length_c   24.36471679
_cell_angle_alpha   89.97566279
_cell_angle_beta   87.97520105
_cell_angle_gamma   89.85588006
_symmetry_Int_Tables_number   1
_chemical_formula_structural   Zn2H12C27BrN2O8F5
_chemical_formula_sum   'Zn4 H24 C54 Br2 N4 O16 F10'
_cell_volume   2706.28302788
_cell_formula_units_Z   2
loop_
 _symmetry_equiv_pos_site_id
 _symmetry_equiv_pos_as_xyz
  1  'x, y, z'
loop_
 _atom_site_type_symbol
 _atom_site_label
 _atom_site_symmetry_multiplicity
 _atom_site_fract_x
 _atom_site_fract_y
 _atom_site_fract_z
 _atom_site_occupancy
  Zn  Zn0  1  0.36623748  0.50046322  0.50075117  1.0
  Zn  Zn1  1  0.64920428  0.49857999  0.49865518  1.0
  Zn  Zn2  1  0.63442659  0.50222775  0.95754251  1.0
  Zn  Zn3  1  0.35201248  0.50199288  0.95339502  1.0
  H  H4  1  0.89422711  0.61600230  0.38080664  1.0
  H  H5  1  0.88164683  0.73468692  0.43002189  1.0
  H  H6  1  0.13539817  0.74191283  0.43317788  1.0
  H  H7  1  0.14719855  0.62373868  0.38335379  1.0
  H  H8  1  0.80313905  0.88834937  0.53878245  1.0
  H  H9  1  0.81511384  0.89481680  0.46558184  1.0
  H  H10  1  0.81167901  0.11914199  0.46871700  1.0
  H  H11  1  0.79710710  0.11496881  0.54184904  1.0
  H  H12  1  0.66899668  0.50532542  0.13462973  1.0
  H  H13  1  0.24119764  0.49222101  0.12617185  1.0
  H  H14  1  0.32352358  0.49774898  0.32037218  1.0
  H  H15  1  0.75164617  0.50137984  0.32844386  1.0
  H  H16  1  0.19203721  0.42425438  0.78016769  1.0
  H  H17  1  0.18994653  0.58436837  0.78008645  1.0
  H  H18  1  0.19735004  0.58382116  0.67657836  1.0
  H  H19  1  0.19903617  0.42373323  0.67682114  1.0
  H  H20  1  0.11337064  0.62039827  0.07294371  1.0
  H  H21  1  0.11959679  0.73887492  0.02352906  1.0
  H  H22  1  0.86556906  0.74320477  0.02340271  1.0
  H  H23  1  0.85966323  0.62567222  0.07369559  1.0
  H  H24  1  0.19676633  0.89163275  0.91646060  1.0
  H  H25  1  0.18680941  0.89855760  0.98965493  1.0
  H  H26  1  0.18947049  0.12269443  0.98621047  1.0
  H  H27  1  0.20262379  0.11820071  0.91306344  1.0
  C  C28  1  0.50171525  0.73448709  0.49689596  1.0
  C  C29  1  0.52434145  0.49979296  0.39178281  1.0
  C  C30  1  0.49564439  0.26659714  0.49939413  1.0
  C  C31  1  0.51120251  0.50504859  0.60599689  1.0
  C  C32  1  0.50023750  0.73689635  0.95759883  1.0
  C  C33  1  0.47118565  0.50152819  0.06300791  1.0
  C  C34  1  0.50518511  0.26912618  0.95540698  1.0
  C  C35  1  0.49535708  0.50657770  0.84906390  1.0
  C  C36  1  0.94095273  0.56087965  0.46503119  1.0
  C  C37  1  0.07588393  0.42938029  0.53422615  1.0
  C  C38  1  0.07981181  0.56424917  0.46625782  1.0
  C  C39  1  0.93421591  0.42628951  0.53309072  1.0
  C  C40  1  0.93415053  0.65105836  0.41897243  1.0
  C  C41  1  0.09344527  0.65564691  0.42063513  1.0
  C  C42  1  0.49714039  0.86888594  0.49749892  1.0
  C  C43  1  0.49327478  0.13244784  0.49936119  1.0
  C  C44  1  0.61273822  0.93912168  0.49992260  1.0
  C  C45  1  0.37578760  0.06291593  0.49700985  1.0
  C  C46  1  0.61068580  0.06421993  0.50103835  1.0
  C  C47  1  0.37784770  0.93685420  0.49617587  1.0
  C  C48  1  0.76420859  0.93269131  0.50235832  1.0
  C  C49  1  0.76159652  0.07445314  0.50397885  1.0
  C  C50  1  0.57101803  0.50351561  0.15561450  1.0
  C  C51  1  0.32938779  0.49642968  0.15108044  1.0
  C  C52  1  0.31835218  0.49666994  0.20748504  1.0
  C  C53  1  0.43134234  0.49996273  0.24131925  1.0
  C  C54  1  0.42142844  0.49976072  0.29932258  1.0
  C  C55  1  0.66333603  0.50243618  0.30353642  1.0
  C  C56  1  0.67413196  0.50482212  0.24721279  1.0
  C  C57  1  0.56091600  0.50304438  0.21354228  1.0
  C  C58  1  0.45785151  0.50055179  0.12464293  1.0
  C  C59  1  0.53496229  0.50070566  0.33011451  1.0
  C  C60  1  0.50310800  0.50662878  0.78771132  1.0
  C  C61  1  0.51107653  0.50562614  0.66730604  1.0
  C  C62  1  0.38812720  0.50583569  0.75650350  1.0
  C  C63  1  0.62787126  0.50654010  0.69827694  1.0
  C  C64  1  0.39200068  0.50512580  0.69927911  1.0
  C  C65  1  0.62402984  0.50684528  0.75598285  1.0
  C  C66  1  0.23615034  0.50462564  0.76076682  1.0
  C  C67  1  0.24065711  0.50414974  0.69583956  1.0
  C  C68  1  0.06108374  0.56421021  0.98956350  1.0
  C  C69  1  0.92321661  0.43109228  0.92216641  1.0
  C  C70  1  0.92198638  0.56591870  0.99012632  1.0
  C  C71  1  0.06509594  0.42987895  0.92153878  1.0
  C  C72  1  0.06966145  0.65472428  0.03534665  1.0
  C  C73  1  0.91006168  0.65757701  0.03569770  1.0
  C  C74  1  0.50399091  0.87131623  0.95664892  1.0
  C  C75  1  0.50733844  0.13496114  0.95471206  1.0
  C  C76  1  0.38825327  0.94195705  0.95438181  1.0
  C  C77  1  0.62503608  0.06502512  0.95663484  1.0
  C  C78  1  0.39007600  0.06705914  0.95317971  1.0
  C  C79  1  0.62325432  0.93897437  0.95754334  1.0
  C  C80  1  0.23668609  0.93603889  0.95261052  1.0
  C  C81  1  0.23907206  0.07777997  0.95084636  1.0
  Br  Br82  1  0.84816103  0.51014703  0.21332199  1.0
  Br  Br83  1  0.14424472  0.49189797  0.24131656  1.0
  N  N84  1  0.86395905  0.49244974  0.49856082  1.0
  N  N85  1  0.15146325  0.49867715  0.50094244  1.0
  N  N86  1  0.13691787  0.49673474  0.95503061  1.0
  N  N87  1  0.84888311  0.49962788  0.95640096  1.0
  O  O88  1  0.38962608  0.67974578  0.50045199  1.0
  O  O89  1  0.61744102  0.68633729  0.49313677  1.0
  O  O90  1  0.63576786  0.49361729  0.41600692  1.0
  O  O91  1  0.40817816  0.50529319  0.41462043  1.0
  O  O92  1  0.61069586  0.31501468  0.50175389  1.0
  O  O93  1  0.38380531  0.32115469  0.49683796  1.0
  O  O94  1  0.39707756  0.49722783  0.58454397  1.0
  O  O95  1  0.62422341  0.51242936  0.58020629  1.0
  O  O96  1  0.61262807  0.68234446  0.95663412  1.0
  O  O97  1  0.38461303  0.68840044  0.95914478  1.0
  O  O98  1  0.36216844  0.49522385  0.03720216  1.0
  O  O99  1  0.58900572  0.50880323  0.04179559  1.0
  O  O100  1  0.39122405  0.31871132  0.94988000  1.0
  O  O101  1  0.61598417  0.32245044  0.96196837  1.0
  O  O102  1  0.60347312  0.49746440  0.87465851  1.0
  O  O103  1  0.37723570  0.51515631  0.87083497  1.0
  F  F104  1  0.13645251  0.36016491  0.57028155  1.0
  F  F105  1  0.86825368  0.35382941  0.56788788  1.0
  F  F106  1  0.25276655  0.11412876  0.49524378  1.0
  F  F107  1  0.25587674  0.88367423  0.49348125  1.0
  F  F108  1  0.75199589  0.50686213  0.67388134  1.0
  F  F109  1  0.74477352  0.50813510  0.77968135  1.0
  F  F110  1  0.86153045  0.36105740  0.88705780  1.0
  F  F111  1  0.13008724  0.35827551  0.88580263  1.0
  F  F112  1  0.74808849  0.11579483  0.95759089  1.0
  F  F113  1  0.74548408  0.88562518  0.95967156  1.0
