# generated using pymatgen
data_Zn4H8C24S6O19
_symmetry_space_group_name_H-M   'P 1'
_cell_length_a   19.59302029
_cell_length_b   19.63427195
_cell_length_c   33.27122537
_cell_angle_alpha   79.31769986
_cell_angle_beta   79.43672036
_cell_angle_gamma   64.04057080
_symmetry_Int_Tables_number   1
_chemical_formula_structural   Zn4H8C24S6O19
_chemical_formula_sum   'Zn16 H32 C96 S24 O76'
_cell_volume   11232.55940839
_cell_formula_units_Z   4
loop_
 _symmetry_equiv_pos_site_id
 _symmetry_equiv_pos_as_xyz
  1  'x, y, z'
loop_
 _atom_site_type_symbol
 _atom_site_label
 _atom_site_symmetry_multiplicity
 _atom_site_fract_x
 _atom_site_fract_y
 _atom_site_fract_z
 _atom_site_occupancy
  Zn  Zn0  1  0.60221063  0.94458521  0.52028789  1.0
  Zn  Zn1  1  0.52007595  0.01484376  0.43900400  1.0
  Zn  Zn2  1  0.43865730  0.94262271  0.51834200  1.0
  Zn  Zn3  1  0.44185408  0.09688996  0.52161230  1.0
  Zn  Zn4  1  0.65047769  0.30822478  0.72683646  1.0
  Zn  Zn5  1  0.80797789  0.31409720  0.73258018  1.0
  Zn  Zn6  1  0.73359638  0.22963597  0.80928174  1.0
  Zn  Zn7  1  0.80622885  0.15135998  0.73027499  1.0
  Zn  Zn8  1  0.23545233  0.72954245  0.31107351  1.0
  Zn  Zn9  1  0.30536211  0.64816969  0.22976639  1.0
  Zn  Zn10  1  0.15301702  0.80809826  0.22842069  1.0
  Zn  Zn11  1  0.30795756  0.81091678  0.23175783  1.0
  Zn  Zn12  1  0.93596447  0.44202162  0.01747463  1.0
  Zn  Zn13  1  0.94168905  0.59934657  0.02290400  1.0
  Zn  Zn14  1  0.09908512  0.44368011  0.01986245  1.0
  Zn  Zn15  1  0.02027279  0.51663386  0.94072362  1.0
  H  H16  1  0.55000993  0.25026850  0.65069772  1.0
  H  H17  1  0.70006627  0.99877116  0.59984266  1.0
  H  H18  1  0.29927200  0.79912538  0.39964927  1.0
  H  H19  1  0.45043392  0.95077238  0.35059745  1.0
  H  H20  1  0.49000547  0.71535570  0.58717709  1.0
  H  H21  1  0.75917162  0.53887888  0.65959518  1.0
  H  H22  1  0.45162172  0.22569881  0.35249694  1.0
  H  H23  1  0.30019737  0.51914063  0.39978044  1.0
  H  H24  1  0.73041225  0.95039160  0.35008384  1.0
  H  H25  1  0.02457733  0.79833402  0.39754826  1.0
  H  H26  1  0.22103391  0.19771726  0.60027220  1.0
  H  H27  1  0.02198822  0.05554909  0.65026531  1.0
  H  H28  1  0.85095242  0.35004183  0.95082301  1.0
  H  H29  1  0.89989260  0.39866348  0.79943046  1.0
  H  H30  1  0.52523439  0.30124681  0.89790180  1.0
  H  H31  1  0.23030144  0.44929833  0.85099211  1.0
  H  H32  1  0.88992183  0.91032618  0.78998247  1.0
  H  H33  1  0.86197288  0.83455797  0.96055905  1.0
  H  H34  1  0.99945960  0.70015557  0.09880754  1.0
  H  H35  1  0.25110306  0.55076329  0.15043918  1.0
  H  H36  1  0.52562286  0.55210671  0.15215018  1.0
  H  H37  1  0.71907285  0.69984008  0.09949578  1.0
  H  H38  1  0.25966828  0.04035385  0.15988393  1.0
  H  H39  1  0.98909538  0.21437102  0.08849893  1.0
  H  H40  1  0.42832074  0.15502211  0.59988739  1.0
  H  H41  1  0.76405522  0.03660268  0.70828499  1.0
  H  H42  1  0.31351537  0.93017538  0.48598367  1.0
  H  H43  1  0.31977097  0.93538537  0.26413284  1.0
  H  H44  1  0.82183642  0.20590695  0.87816766  1.0
  H  H45  1  0.04319625  0.42903872  0.87229921  1.0
  H  H46  1  0.09375566  0.82240246  0.14996165  1.0
  H  H47  1  0.21451197  0.48567996  0.04200690  1.0
  C  C48  1  0.68679750  0.93826510  0.43711346  1.0
  C  C49  1  0.42631906  0.93567813  0.43134043  1.0
  C  C50  1  0.56141772  0.81818865  0.56051870  1.0
  C  C51  1  0.31280211  0.06195256  0.56233771  1.0
  C  C52  1  0.56668045  0.06603997  0.57133131  1.0
  C  C53  1  0.43954645  0.18152297  0.43929721  1.0
  C  C54  1  0.68730338  0.43692035  0.68740830  1.0
  C  C55  1  0.82330454  0.31374117  0.81913445  1.0
  C  C56  1  0.56802564  0.31075655  0.81076824  1.0
  C  C57  1  0.81303575  0.06267470  0.81162934  1.0
  C  C58  1  0.67871102  0.17861655  0.68370296  1.0
  C  C59  1  0.93167753  0.19050642  0.68932244  1.0
  C  C60  1  0.31208756  0.56305622  0.31277915  1.0
  C  C61  1  0.18340099  0.68387298  0.17870844  1.0
  C  C62  1  0.06850672  0.81039784  0.31074510  1.0
  C  C63  1  0.18917264  0.93663859  0.18748138  1.0
  C  C64  1  0.31441016  0.82312368  0.31893264  1.0
  C  C65  1  0.43227790  0.68813955  0.18975204  1.0
  C  C66  1  0.81254113  0.56354088  0.06201371  1.0
  C  C67  1  0.07136768  0.57140047  0.06625945  1.0
  C  C68  1  0.05915738  0.31826781  0.06090962  1.0
  C  C69  1  0.18700595  0.43760764  0.93789613  1.0
  C  C70  1  0.93558031  0.42688524  0.93115423  1.0
  C  C71  1  0.93894635  0.68231662  0.93929209  1.0
  C  C72  1  0.59397299  0.09942737  0.59878815  1.0
  C  C73  1  0.65455393  0.14805483  0.65330175  1.0
  C  C74  1  0.55235358  0.17164743  0.61297503  1.0
  C  C75  1  0.69735868  0.07701027  0.63794827  1.0
  C  C76  1  0.58282579  0.19455193  0.63983567  1.0
  C  C77  1  0.66666667  0.05386363  0.61132378  1.0
  C  C78  1  0.39896500  0.90224498  0.40394830  1.0
  C  C79  1  0.34770680  0.85067602  0.34629863  1.0
  C  C80  1  0.35693998  0.85775543  0.41750517  1.0
  C  C81  1  0.39199294  0.89290363  0.33273174  1.0
  C  C82  1  0.33196620  0.83310335  0.38878486  1.0
  C  C83  1  0.41653311  0.91798514  0.36145550  1.0
  C  C84  1  0.54616710  0.69837797  0.59646345  1.0
  C  C85  1  0.70263837  0.55617563  0.65075394  1.0
  C  C86  1  0.58637898  0.74337095  0.58520652  1.0
  C  C87  1  0.66223991  0.51141976  0.66233862  1.0
  C  C88  1  0.66034010  0.62441801  0.62693138  1.0
  C  C89  1  0.58830225  0.63034575  0.62051285  1.0
  C  C90  1  0.42400871  0.27097317  0.37229150  1.0
  C  C91  1  0.32840889  0.47381237  0.38003043  1.0
  C  C92  1  0.41510671  0.25654817  0.41485012  1.0
  C  C93  1  0.33744115  0.48821365  0.33748748  1.0
  C  C94  1  0.36025132  0.39469471  0.39281337  1.0
  C  C95  1  0.39283476  0.35005427  0.35959094  1.0
  C  C96  1  0.77589958  0.92211467  0.36986633  1.0
  C  C97  1  0.97914793  0.82617258  0.37772285  1.0
  C  C98  1  0.76166084  0.91296248  0.41241539  1.0
  C  C99  1  0.99342883  0.83515550  0.33515896  1.0
  C  C100  1  0.89998064  0.85750248  0.39038916  1.0
  C  C101  1  0.85512799  0.89020371  0.35713195  1.0
  C  C102  1  0.19872885  0.15473036  0.60406021  1.0
  C  C103  1  0.04503497  0.09786898  0.64694527  1.0
  C  C104  1  0.23803822  0.08663887  0.58705907  1.0
  C  C105  1  0.00623905  0.16561579  0.66431722  1.0
  C  C106  1  0.11544604  0.09356960  0.62522001  1.0
  C  C107  1  0.12874765  0.15862443  0.62611916  1.0
  C  C108  1  0.84799307  0.34395890  0.84949240  1.0
  C  C109  1  0.90546909  0.40211891  0.90077487  1.0
  C  C110  1  0.83330075  0.33169993  0.89275742  1.0
  C  C111  1  0.91784883  0.41670095  0.85750917  1.0
  C  C112  1  0.86229070  0.36030998  0.91749119  1.0
  C  C113  1  0.88958089  0.38736852  0.83277206  1.0
  C  C114  1  0.47948727  0.32801310  0.87823863  1.0
  C  C115  1  0.27589567  0.42174277  0.87073324  1.0
  C  C116  1  0.49333808  0.33625225  0.83565543  1.0
  C  C117  1  0.26190330  0.41276487  0.91331049  1.0
  C  C118  1  0.35506780  0.39055138  0.85793337  1.0
  C  C119  1  0.40027829  0.35876165  0.89107392  1.0
  C  C120  1  0.87471199  0.91730579  0.82255183  1.0
  C  C121  1  0.87673261  0.82750521  0.92799886  1.0
  C  C122  1  0.83737283  0.98825370  0.83666357  1.0
  C  C123  1  0.91384737  0.75652511  0.91392993  1.0
  C  C124  1  0.86212105  0.88607581  0.89475662  1.0
  C  C125  1  0.88873915  0.85862080  0.85578357  1.0
  C  C126  1  0.15012991  0.65659377  0.15116843  1.0
  C  C127  1  0.10185293  0.59578938  0.09662982  1.0
  C  C128  1  0.07782872  0.69798987  0.13679298  1.0
  C  C129  1  0.17293660  0.55318515  0.11221970  1.0
  C  C130  1  0.05519832  0.66745416  0.10985606  1.0
  C  C131  1  0.19594354  0.58405327  0.13881241  1.0
  C  C132  1  0.54710322  0.59574775  0.14813259  1.0
  C  C133  1  0.69780568  0.65599001  0.10376735  1.0
  C  C134  1  0.50706430  0.66388909  0.16504052  1.0
  C  C135  1  0.73801720  0.58775871  0.08701264  1.0
  C  C136  1  0.62844869  0.65881111  0.12627514  1.0
  C  C137  1  0.61680728  0.59256510  0.12602184  1.0
  C  C138  1  0.20317243  0.05692744  0.15115566  1.0
  C  C139  1  0.04540089  0.19799387  0.09740142  1.0
  C  C140  1  0.16359391  0.01135285  0.16270112  1.0
  C  C141  1  0.08479970  0.24376421  0.08600107  1.0
  C  C142  1  0.08827037  0.13012202  0.12130085  1.0
  C  C143  1  0.16003508  0.12514560  0.12754213  1.0
  S  S144  1  0.67517732  0.70345372  0.60345379  1.0
  S  S145  1  0.57319305  0.55160461  0.64437825  1.0
  S  S146  1  0.36937631  0.33844140  0.43959977  1.0
  S  S147  1  0.38440249  0.40627812  0.31281503  1.0
  S  S148  1  0.84384615  0.86591318  0.43714307  1.0
  S  S149  1  0.91126915  0.88115426  0.31036649  1.0
  S  S150  1  0.19033278  0.02743945  0.59751360  1.0
  S  S151  1  0.05441406  0.22432799  0.65426799  1.0
  S  S152  1  0.41087791  0.38149734  0.81107729  1.0
  S  S153  1  0.34433341  0.36690658  0.93791432  1.0
  S  S154  1  0.81911813  0.98426245  0.89002983  1.0
  S  S155  1  0.93086827  0.76038851  0.86056131  1.0
  S  S156  1  0.55356244  0.72412692  0.15436408  1.0
  S  S157  1  0.69213426  0.52692580  0.09831312  1.0
  S  S158  1  0.07429135  0.05072709  0.14505111  1.0
  S  S159  1  0.17353612  0.20502106  0.10423248  1.0
  S  S160  1  0.46248854  0.24252716  0.59645496  1.0
  S  S161  1  0.79426561  0.01330048  0.64748109  1.0
  S  S162  1  0.33620192  0.82382616  0.47058656  1.0
  S  S163  1  0.42612856  0.91332172  0.27966768  1.0
  S  S164  1  0.77333293  0.28554764  0.92013520  1.0
  S  S165  1  0.96341765  0.47719245  0.83019876  1.0
  S  S166  1  0.00662546  0.78759620  0.15314859  1.0
  S  S167  1  0.23680761  0.45632585  0.10308010  1.0
  O  O168  1  0.50191080  0.99931894  0.49941623  1.0
  O  O169  1  0.68689346  0.92124610  0.47621171  1.0
  O  O170  1  0.48041477  0.95456106  0.41565998  1.0
  O  O171  1  0.49682319  0.84360279  0.54669495  1.0
  O  O172  1  0.62812073  0.97501102  0.41764312  1.0
  O  O173  1  0.60660377  0.85142031  0.55514905  1.0
  O  O174  1  0.39265178  0.94518341  0.46817193  1.0
  O  O175  1  0.34145841  0.99457435  0.55158732  1.0
  O  O176  1  0.49446058  0.09154709  0.56972319  1.0
  O  O177  1  0.34341939  0.10940427  0.55349276  1.0
  O  O178  1  0.61740005  0.01260667  0.55206460  1.0
  O  O179  1  0.46935598  0.12326702  0.41947771  1.0
  O  O180  1  0.42837862  0.18129613  0.47853990  1.0
  O  O181  1  0.74915220  0.25204591  0.74935451  1.0
  O  O182  1  0.63945727  0.40658511  0.69618209  1.0
  O  O183  1  0.82113446  0.34721413  0.78269218  1.0
  O  O184  1  0.62689150  0.28005299  0.83032780  1.0
  O  O185  1  0.75453108  0.40876654  0.69833477  1.0
  O  O186  1  0.56741448  0.32138166  0.77159493  1.0
  O  O187  1  0.80801469  0.25531766  0.83119219  1.0
  O  O188  1  0.77530728  0.12138265  0.83101019  1.0
  O  O189  1  0.72925096  0.13149360  0.70704625  1.0
  O  O190  1  0.83131570  0.06317226  0.77266636  1.0
  O  O191  1  0.64556908  0.24992918  0.68517694  1.0
  O  O192  1  0.90747240  0.25422200  0.70387687  1.0
  O  O193  1  0.89767608  0.14625629  0.69444896  1.0
  O  O194  1  0.25092123  0.74800514  0.25067494  1.0
  O  O195  1  0.27514460  0.62147726  0.33222828  1.0
  O  O196  1  0.23714250  0.63321503  0.19797256  1.0
  O  O197  1  0.06857759  0.82190110  0.27149677  1.0
  O  O198  1  0.32934069  0.56315590  0.27370143  1.0
  O  O199  1  0.12696990  0.77998668  0.33060599  1.0
  O  O200  1  0.15756970  0.75590862  0.18040779  1.0
  O  O201  1  0.14147648  0.90605405  0.19636997  1.0
  O  O202  1  0.30470348  0.85677426  0.28206171  1.0
  O  O203  1  0.25657687  0.90799960  0.19825308  1.0
  O  O204  1  0.29572151  0.76897136  0.33467051  1.0
  O  O205  1  0.39872609  0.64349328  0.19493984  1.0
  O  O206  1  0.40723615  0.75245013  0.20380742  1.0
  O  O207  1  0.99804178  0.50086604  0.00063229  1.0
  O  O208  1  0.84106846  0.49612848  0.05137323  1.0
  O  O209  1  0.99997446  0.60482854  0.06443197  1.0
  O  O210  1  0.10393294  0.35200133  0.05539248  1.0
  O  O211  1  0.84256848  0.61144178  0.05303532  1.0
  O  O212  1  0.99504835  0.34277131  0.04668681  1.0
  O  O213  1  0.11860319  0.52046777  0.04333798  1.0
  O  O214  1  0.18653938  0.42005865  0.97701550  1.0
  O  O215  1  0.99394841  0.44240366  0.91914205  1.0
  O  O216  1  0.12827245  0.47473428  0.91843923  1.0
  O  O217  1  0.90219385  0.42876843  0.96757909  1.0
  O  O218  1  0.92797127  0.68294837  0.97835343  1.0
  O  O219  1  0.97002316  0.62340000  0.91980339  1.0
  O  O220  1  0.40656730  0.20215791  0.61434231  1.0
  O  O221  1  0.43781561  0.30669970  0.61876471  1.0
  O  O222  1  0.47154048  0.25144661  0.55213447  1.0
  O  O223  1  0.78409410  0.98766329  0.69559781  1.0
  O  O224  1  0.81666164  0.94656027  0.62768481  1.0
  O  O225  1  0.83852048  0.05775607  0.63858870  1.0
  O  O226  1  0.28098869  0.90114832  0.48922127  1.0
  O  O227  1  0.29053657  0.78292258  0.47157420  1.0
  O  O228  1  0.40695731  0.78842047  0.48864725  1.0
  O  O229  1  0.34870836  0.96807324  0.26067217  1.0
  O  O230  1  0.46680267  0.95922308  0.27858710  1.0
  O  O231  1  0.46184539  0.84246079  0.26197520  1.0
  O  O232  1  0.82037734  0.20065978  0.90896085  1.0
  O  O233  1  0.77495069  0.28191768  0.96339892  1.0
  O  O234  1  0.70210850  0.32112894  0.90252537  1.0
  O  O235  1  0.04859002  0.43067963  0.84147796  1.0
  O  O236  1  0.96711433  0.47573495  0.78692160  1.0
  O  O237  1  0.92729782  0.54809771  0.84785385  1.0
  O  O238  1  0.04677784  0.84362178  0.13529574  1.0
  O  O239  1  0.94236217  0.81206040  0.13071775  1.0
  O  O240  1  0.99761299  0.77851233  0.19746476  1.0
  O  O241  1  0.26307389  0.46626419  0.05504993  1.0
  O  O242  1  0.30340448  0.43411209  0.12320208  1.0
  O  O243  1  0.19219408  0.41227385  0.11185769  1.0
