# generated using pymatgen
data_AlH13C12NO5
_symmetry_space_group_name_H-M   'P 1'
_cell_length_a   6.62596349
_cell_length_b   15.08046047
_cell_length_c   17.72802657
_cell_angle_alpha   79.00943416
_cell_angle_beta   87.33290519
_cell_angle_gamma   89.06240618
_symmetry_Int_Tables_number   1
_chemical_formula_structural   AlH13C12NO5
_chemical_formula_sum   'Al4 H52 C48 N4 O20'
_cell_volume   1737.00524910
_cell_formula_units_Z   4
loop_
 _symmetry_equiv_pos_site_id
 _symmetry_equiv_pos_as_xyz
  1  'x, y, z'
loop_
 _atom_site_type_symbol
 _atom_site_label
 _atom_site_symmetry_multiplicity
 _atom_site_fract_x
 _atom_site_fract_y
 _atom_site_fract_z
 _atom_site_occupancy
  Al  Al0  1  0.11734717  0.50194662  0.49960285  1.0
  Al  Al1  1  0.61701948  0.50118095  0.50181365  1.0
  Al  Al2  1  0.64643235  0.99858817  0.99829848  1.0
  Al  Al3  1  0.14702242  0.99211459  0.00279365  1.0
  H  H4  1  0.09691511  0.10685129  0.20224369  1.0
  H  H5  1  0.13702227  0.86605467  0.82182439  1.0
  H  H6  1  0.20330968  0.14963155  0.32398090  1.0
  H  H7  1  0.99617680  0.82038617  0.70526812  1.0
  H  H8  1  0.60376211  0.36309462  0.16743278  1.0
  H  H9  1  0.74108965  0.67073873  0.79670802  1.0
  H  H10  1  0.16197389  0.24979753  0.42076162  1.0
  H  H11  1  0.02882676  0.72800370  0.60223206  1.0
  H  H12  1  0.66666667  0.38858102  0.29912196  1.0
  H  H13  1  0.61765250  0.63603866  0.67615474  1.0
  H  H14  1  0.54575660  0.82409626  0.19928495  1.0
  H  H15  1  0.13747337  0.12574721  0.76452322  1.0
  H  H16  1  0.62415554  0.72527605  0.16693507  1.0
  H  H17  1  0.06091358  0.19930771  0.82716690  1.0
  H  H18  1  0.55454158  0.65426011  0.29619368  1.0
  H  H19  1  0.06296095  0.32506120  0.72779956  1.0
  H  H20  1  0.57253259  0.75535584  0.33081396  1.0
  H  H21  1  0.07665208  0.24794879  0.66418404  1.0
  H  H22  1  0.81924476  0.90028514  0.26729200  1.0
  H  H23  1  0.51347759  0.08929711  0.74436223  1.0
  H  H24  1  0.90563257  0.79902082  0.37914670  1.0
  H  H25  1  0.42757756  0.18730386  0.63130139  1.0
  H  H26  1  0.17806508  0.75727830  0.19137512  1.0
  H  H27  1  0.60455313  0.27179602  0.84527617  1.0
  H  H28  1  0.87981205  0.60341332  0.23203832  1.0
  H  H29  1  0.36369348  0.40751863  0.75298579  1.0
  H  H30  1  0.11443759  0.61732964  0.27304887  1.0
  H  H31  1  0.60832758  0.36888882  0.73016716  1.0
  H  H32  1  0.07657513  0.88969820  0.23768267  1.0
  H  H33  1  0.69040333  0.16564933  0.76682318  1.0
  H  H34  1  0.12951111  0.76250575  0.33552060  1.0
  H  H35  1  0.64520415  0.24885557  0.64245345  1.0
  H  H36  1  0.07426887  0.75308564  0.06749356  1.0
  H  H37  1  0.16311697  0.61199618  0.04490160  1.0
  H  H38  1  0.08951959  0.56097008  0.14065400  1.0
  H  H39  1  0.31095286  0.62885164  0.12260455  1.0
  H  H40  1  0.31105977  0.25999855  0.93215550  1.0
  H  H41  1  0.25649477  0.40177745  0.95421506  1.0
  H  H42  1  0.29458416  0.45071594  0.85582240  1.0
  H  H43  1  0.50580285  0.40957214  0.91029470  1.0
  H  H44  1  0.58911377  0.34545337  0.03945538  1.0
  H  H45  1  0.77745630  0.34177661  0.93122983  1.0
  H  H46  1  0.75436980  0.22213133  0.94999825  1.0
  H  H47  1  0.95674844  0.27432301  0.98740737  1.0
  H  H48  1  0.83274554  0.69564142  0.91366654  1.0
  H  H49  1  0.75505739  0.69041932  0.04288949  1.0
  H  H50  1  0.52231401  0.65588133  0.00866119  1.0
  H  H51  1  0.55698034  0.76857666  0.02328636  1.0
  H  H52  1  0.38267166  0.45920130  0.41630538  1.0
  H  H53  1  0.86306753  0.45378524  0.59773023  1.0
  H  H54  1  0.38750917  0.03729112  0.08498740  1.0
  H  H55  1  0.91652183  0.03017889  0.90095727  1.0
  C  C56  1  0.36671095  0.37731931  0.61132160  1.0
  C  C57  1  0.86238938  0.62095250  0.39093332  1.0
  C  C58  1  0.34076522  0.61572411  0.57740910  1.0
  C  C59  1  0.89182878  0.38625295  0.42117146  1.0
  C  C60  1  0.88147102  0.18210102  0.12900819  1.0
  C  C61  1  0.41554568  0.81516285  0.86960871  1.0
  C  C62  1  0.90863052  0.32381812  0.36534235  1.0
  C  C63  1  0.32653611  0.67693578  0.63419063  1.0
  C  C64  1  0.08711481  0.20240188  0.31840558  1.0
  C  C65  1  0.13156734  0.77967182  0.69909837  1.0
  C  C66  1  0.06372914  0.25684351  0.37234124  1.0
  C  C67  1  0.14915323  0.72939323  0.64179523  1.0
  C  C68  1  0.78361381  0.33625056  0.30376398  1.0
  C  C69  1  0.48297929  0.67672224  0.68333006  1.0
  C  C70  1  0.81299446  0.28531160  0.24456324  1.0
  C  C71  1  0.46546856  0.72467708  0.74466753  1.0
  C  C72  1  0.96554954  0.21554073  0.25323804  1.0
  C  C73  1  0.28546004  0.77727374  0.75277943  1.0
  C  C74  1  0.99106013  0.16381902  0.19481639  1.0
  C  C75  1  0.26819252  0.82274455  0.81566216  1.0
  C  C76  1  0.74851217  0.25912967  0.11575934  1.0
  C  C77  1  0.58650658  0.75585574  0.86544270  1.0
  C  C78  1  0.70851905  0.30564436  0.17558410  1.0
  C  C79  1  0.61146897  0.71550977  0.80132473  1.0
  C  C80  1  0.65743312  0.76891163  0.20780018  1.0
  C  C81  1  0.17055251  0.19066432  0.78085328  1.0
  C  C82  1  0.64577057  0.71547577  0.29118988  1.0
  C  C83  1  0.15333207  0.26939389  0.71134715  1.0
  C  C84  1  0.93649357  0.85182668  0.25515663  1.0
  C  C85  1  0.53537391  0.16026856  0.74865079  1.0
  C  C86  1  0.02715005  0.73042758  0.18337487  1.0
  C  C87  1  0.44861678  0.27932238  0.82509231  1.0
  C  C88  1  0.87066289  0.80775550  0.18798113  1.0
  C  C89  1  0.38589920  0.18524312  0.81103032  1.0
  C  C90  1  0.86157630  0.69009145  0.31644080  1.0
  C  C91  1  0.36545485  0.30399489  0.68334289  1.0
  C  C92  1  0.96822609  0.77728789  0.32699806  1.0
  C  C93  1  0.50120458  0.22349450  0.67076446  1.0
  C  C94  1  0.97678580  0.65269864  0.25131018  1.0
  C  C95  1  0.45291197  0.34688813  0.74738014  1.0
  C  C96  1  0.40195752  0.87796796  0.92536329  1.0
  C  C97  1  0.89147370  0.11515648  0.07680406  1.0
  C  C98  1  0.40133823  0.11477963  0.88477129  1.0
  C  C99  1  0.87935652  0.87727111  0.11370072  1.0
  C  C100  1  0.15458438  0.62219614  0.10472057  1.0
  C  C101  1  0.34530539  0.39607676  0.90141092  1.0
  C  C102  1  0.79553829  0.28035089  0.97482175  1.0
  C  C103  1  0.63212214  0.71124324  0.00372143  1.0
  N  N104  1  0.02563964  0.70051790  0.10948718  1.0
  N  N105  1  0.30869736  0.30774249  0.88281951  1.0
  N  N106  1  0.67160810  0.28760693  0.04389414  1.0
  N  N107  1  0.71758729  0.73705421  0.92516139  1.0
  O  O108  1  0.51013790  0.57703774  0.56851825  1.0
  O  O109  1  0.05478673  0.39992928  0.45286922  1.0
  O  O110  1  0.20072074  0.41671393  0.59149742  1.0
  O  O111  1  0.69543060  0.60509947  0.42899931  1.0
  O  O112  1  0.18058326  0.60293768  0.54394310  1.0
  O  O113  1  0.72099598  0.42347786  0.43133755  1.0
  O  O114  1  0.02995098  0.58271163  0.41024245  1.0
  O  O115  1  0.53946542  0.39671452  0.57791719  1.0
  O  O116  1  0.37390297  0.49894162  0.45342227  1.0
  O  O117  1  0.86286062  0.49622419  0.54915504  1.0
  O  O118  1  0.23782801  0.07565124  0.91199664  1.0
  O  O119  1  0.71670676  0.90162170  0.08035862  1.0
  O  O120  1  0.56469904  0.91644269  0.93637049  1.0
  O  O121  1  0.06605004  0.08917578  0.05631938  1.0
  O  O122  1  0.57408150  0.09860457  0.91387008  1.0
  O  O123  1  0.05438509  0.90762689  0.08993147  1.0
  O  O124  1  0.72289263  0.08644037  0.05951628  1.0
  O  O125  1  0.22853313  0.89272420  0.95497685  1.0
  O  O126  1  0.39373556  0.99932548  0.04647736  1.0
  O  O127  1  0.90291648  0.99896587  0.95402822  1.0
