# generated using pymatgen
data_ZnH20C27NO8
_symmetry_space_group_name_H-M   'P 1'
_cell_length_a   13.96149754
_cell_length_b   15.00401117
_cell_length_c   15.14559168
_cell_angle_alpha   90.62600858
_cell_angle_beta   90.76972363
_cell_angle_gamma   91.38684994
_symmetry_Int_Tables_number   1
_chemical_formula_structural   ZnH20C27NO8
_chemical_formula_sum   'Zn2 H40 C54 N2 O16'
_cell_volume   3171.25883371
_cell_formula_units_Z   2
loop_
 _symmetry_equiv_pos_site_id
 _symmetry_equiv_pos_as_xyz
  1  'x, y, z'
loop_
 _atom_site_type_symbol
 _atom_site_label
 _atom_site_symmetry_multiplicity
 _atom_site_fract_x
 _atom_site_fract_y
 _atom_site_fract_z
 _atom_site_occupancy
  Zn  Zn0  1  0.39908543  0.50391616  0.49964799  1.0
  Zn  Zn1  1  0.60379882  0.50317256  0.50472142  1.0
  H  H2  1  0.60929425  0.76661555  0.41937253  1.0
  H  H3  1  0.37071960  0.23579134  0.52724997  1.0
  H  H4  1  0.28720243  0.09709609  0.58057641  1.0
  H  H5  1  0.66216208  0.89812907  0.33038272  1.0
  H  H6  1  0.33938463  0.45730043  0.94338286  1.0
  H  H7  1  0.62972926  0.45691515  0.06608678  1.0
  H  H8  1  0.34860482  0.56926862  0.05831832  1.0
  H  H9  1  0.63596334  0.54305279  0.94073344  1.0
  H  H10  1  0.34064947  0.44042516  0.77944118  1.0
  H  H11  1  0.63370924  0.47386602  0.23007825  1.0
  H  H12  1  0.35283908  0.58354387  0.22252074  1.0
  H  H13  1  0.63665014  0.52323678  0.77705265  1.0
  H  H14  1  0.75008180  0.36626157  0.49568471  1.0
  H  H15  1  0.24869613  0.51831434  0.36214195  1.0
  H  H16  1  0.75682514  0.64201659  0.50690729  1.0
  H  H17  1  0.25119575  0.49264063  0.63367144  1.0
  H  H18  1  0.36519497  0.84935237  0.69430501  1.0
  H  H19  1  0.70854387  0.19090977  0.35209528  1.0
  H  H20  1  0.25109779  0.85413055  0.59833461  1.0
  H  H21  1  0.63542177  0.11771561  0.23610907  1.0
  H  H22  1  0.84509434  0.26536584  0.42632465  1.0
  H  H23  1  0.85401622  0.25450644  0.54358994  1.0
  H  H24  1  0.01932170  0.19156768  0.52718844  1.0
  H  H25  1  0.93191576  0.12646793  0.46694869  1.0
  H  H26  1  0.00909267  0.20192309  0.41027489  1.0
  H  H27  1  0.01686575  0.39049115  0.32168232  1.0
  H  H28  1  0.12159857  0.42635322  0.26403628  1.0
  H  H29  1  0.02056601  0.52323936  0.16727588  1.0
  H  H30  1  0.97809406  0.41022731  0.16113744  1.0
  H  H31  1  0.91635722  0.48952055  0.22614477  1.0
  H  H32  1  0.99121249  0.66935162  0.62755052  1.0
  H  H33  1  0.88978935  0.73469824  0.60041694  1.0
  H  H34  1  0.99515980  0.83630937  0.51000955  1.0
  H  H35  1  0.04017349  0.83215921  0.62042993  1.0
  H  H36  1  0.09553513  0.76974467  0.53506876  1.0
  H  H37  1  0.15603038  0.54796171  0.74110880  1.0
  H  H38  1  0.14387942  0.42907857  0.73769263  1.0
  H  H39  1  0.97767500  0.43985911  0.80083461  1.0
  H  H40  1  0.06559782  0.49131778  0.87233146  1.0
  H  H41  1  0.99123359  0.55826397  0.80501715  1.0
  C  C42  1  0.49106254  0.47466088  0.66980294  1.0
  C  C43  1  0.49473493  0.53421114  0.33446204  1.0
  C  C44  1  0.34724261  0.05869467  0.55659557  1.0
  C  C45  1  0.61577554  0.94017089  0.36966507  1.0
  C  C46  1  0.40444777  0.47304822  0.90695688  1.0
  C  C47  1  0.56971920  0.48661074  0.10003152  1.0
  C  C48  1  0.41083319  0.54728615  0.09579876  1.0
  C  C49  1  0.57154848  0.51880573  0.90570448  1.0
  C  C50  1  0.40507995  0.46288815  0.81547592  1.0
  C  C51  1  0.57247921  0.49578394  0.19141371  1.0
  C  C52  1  0.41323256  0.55615507  0.18732071  1.0
  C  C53  1  0.57229071  0.50843009  0.81454281  1.0
  C  C54  1  0.48902741  0.48057941  0.76835157  1.0
  C  C55  1  0.49396571  0.53031083  0.23585916  1.0
  C  C56  1  0.48773958  0.50130077  0.95368226  1.0
  C  C57  1  0.48897625  0.51194987  0.05062251  1.0
  C  C58  1  0.89577822  0.42404755  0.49430469  1.0
  C  C59  1  0.10536791  0.51287107  0.41848152  1.0
  C  C60  1  0.89878582  0.58474534  0.49986306  1.0
  C  C61  1  0.10607331  0.49994823  0.57705128  1.0
  C  C62  1  0.79583604  0.42598755  0.49761351  1.0
  C  C63  1  0.20544097  0.51174022  0.42124312  1.0
  C  C64  1  0.79881086  0.58178574  0.50364599  1.0
  C  C65  1  0.20604938  0.49849608  0.57497361  1.0
  C  C66  1  0.94858968  0.50518977  0.49672097  1.0
  C  C67  1  0.05440610  0.50599475  0.49691039  1.0
  C  C68  1  0.50403408  0.33476024  0.45838290  1.0
  C  C69  1  0.51105061  0.67407356  0.53436217  1.0
  C  C70  1  0.56133262  0.80974377  0.45557322  1.0
  C  C71  1  0.42195415  0.19398474  0.49358657  1.0
  C  C72  1  0.50694369  0.77364044  0.52298967  1.0
  C  C73  1  0.49453152  0.23499932  0.44544122  1.0
  C  C74  1  0.44412076  0.82807455  0.57122918  1.0
  C  C75  1  0.56008875  0.18309057  0.39810684  1.0
  C  C76  1  0.42616753  0.91580518  0.54210589  1.0
  C  C77  1  0.55375019  0.08834894  0.40144216  1.0
  C  C78  1  0.48885013  0.95489416  0.47839541  1.0
  C  C79  1  0.48675291  0.04772911  0.46048466  1.0
  C  C80  1  0.55721914  0.90090088  0.43528937  1.0
  C  C81  1  0.41852832  0.10134050  0.50448721  1.0
  C  C82  1  0.34839024  0.96887659  0.57401405  1.0
  C  C83  1  0.61332475  0.02974608  0.35054601  1.0
  C  C84  1  0.41298628  0.80137720  0.66049530  1.0
  C  C85  1  0.63950032  0.22753183  0.34979857  1.0
  C  C86  1  0.26024835  0.92722301  0.61139511  1.0
  C  C87  1  0.66510598  0.05857553  0.27010120  1.0
  C  C88  1  0.89563328  0.26399734  0.48287799  1.0
  C  C89  1  0.96859151  0.19200523  0.47118576  1.0
  C  C90  1  0.04911266  0.44567091  0.28375897  1.0
  C  C91  1  0.98739625  0.46876783  0.20487583  1.0
  C  C92  1  0.96061075  0.71380246  0.57754683  1.0
  C  C93  1  0.02665990  0.79274014  0.55981328  1.0
  C  C94  1  0.10400328  0.49163032  0.73549252  1.0
  C  C95  1  0.02997711  0.49546377  0.80742532  1.0
  N  N96  1  0.75007554  0.50376639  0.50274577  1.0
  N  N97  1  0.25289304  0.50419998  0.49808226  1.0
  O  O98  1  0.41155293  0.46173947  0.62811476  1.0
  O  O99  1  0.57460886  0.52243038  0.37388715  1.0
  O  O100  1  0.41499845  0.54694272  0.37220589  1.0
  O  O101  1  0.57252857  0.48468649  0.63412154  1.0
  O  O102  1  0.42689468  0.37704872  0.45042742  1.0
  O  O103  1  0.59307459  0.64010067  0.52779334  1.0
  O  O104  1  0.43088321  0.63328614  0.53992698  1.0
  O  O105  1  0.58550179  0.36530391  0.48314750  1.0
  O  O106  1  0.44222644  0.73697464  0.70067225  1.0
  O  O107  1  0.63477273  0.29843238  0.31113447  1.0
  O  O108  1  0.19727868  0.96852721  0.64853194  1.0
  O  O109  1  0.73219219  0.01884767  0.23799320  1.0
  O  O110  1  0.94735782  0.34855209  0.48859823  1.0
  O  O111  1  0.05629791  0.52420391  0.34059351  1.0
  O  O112  1  0.94898020  0.66409614  0.49507437  1.0
  O  O113  1  0.05344273  0.49616115  0.65179069  1.0
