# generated using pymatgen
data_Zn2H32C34SN2O11
_symmetry_space_group_name_H-M   'P 1'
_cell_length_a   10.90793979
_cell_length_b   11.80916649
_cell_length_c   13.04197647
_cell_angle_alpha   87.33556752
_cell_angle_beta   87.64343283
_cell_angle_gamma   84.85433330
_symmetry_Int_Tables_number   1
_chemical_formula_structural   Zn2H32C34SN2O11
_chemical_formula_sum   'Zn2 H32 C34 S1 N2 O11'
_cell_volume   1670.25249736
_cell_formula_units_Z   1
loop_
 _symmetry_equiv_pos_site_id
 _symmetry_equiv_pos_as_xyz
  1  'x, y, z'
loop_
 _atom_site_type_symbol
 _atom_site_label
 _atom_site_symmetry_multiplicity
 _atom_site_fract_x
 _atom_site_fract_y
 _atom_site_fract_z
 _atom_site_occupancy
  Zn  Zn0  1  0.47866817  0.62427297  0.50347039  1.0
  Zn  Zn1  1  0.50715744  0.38342590  0.48929500  1.0
  H  H2  1  0.07082764  0.66831298  0.55327876  1.0
  H  H3  1  0.53832893  0.63724858  0.81809823  1.0
  H  H4  1  0.56668330  0.81000055  0.38799111  1.0
  H  H5  1  0.08294683  0.57151164  0.66066257  1.0
  H  H6  1  0.34905376  0.00825360  0.67509005  1.0
  H  H7  1  0.62789698  0.21762682  0.33645751  1.0
  H  H8  1  0.41607378  0.19683037  0.60547125  1.0
  H  H9  1  0.87940011  0.52258322  0.65060852  1.0
  H  H10  1  0.85846211  0.65636199  0.58560216  1.0
  H  H11  1  0.12887971  0.61061972  0.37900678  1.0
  H  H12  1  0.12322381  0.31119357  0.49855626  1.0
  H  H13  1  0.92185716  0.33549647  0.43698987  1.0
  H  H14  1  0.07340015  0.35803699  0.62086235  1.0
  H  H15  1  0.87281541  0.34349698  0.56659506  1.0
  H  H16  1  0.18800413  0.91024851  0.73293389  1.0
  H  H17  1  0.14570202  0.82881927  0.63068239  1.0
  H  H18  1  0.15188102  0.76805763  0.75777821  1.0
  H  H19  1  0.33513648  0.69167903  0.65802174  1.0
  H  H20  1  0.38071282  0.77646919  0.75426155  1.0
  H  H21  1  0.65013712  0.13412510  0.17371103  1.0
  H  H22  1  0.78644040  0.11873555  0.24513251  1.0
  H  H23  1  0.76666567  0.02317946  0.14775110  1.0
  H  H24  1  0.12790475  0.46646760  0.34810431  1.0
  H  H25  1  0.72939107  0.92644981  0.31685883  1.0
  H  H26  1  0.59565056  0.94046399  0.24652120  1.0
  H  H27  1  0.76016201  0.70651916  0.45239079  1.0
  H  H28  1  0.91987248  0.49600724  0.32502910  1.0
  H  H29  1  0.47992148  0.36225459  0.17306925  1.0
  H  H30  1  0.50790919  0.72203551  0.17665044  1.0
  H  H31  1  0.49533951  0.26481005  0.00661956  1.0
  H  H32  1  0.53169189  0.73345458  0.98527831  1.0
  H  H33  1  0.51570189  0.27661237  0.81492925  1.0
  C  C34  1  0.52798189  0.46644178  0.69150663  1.0
  C  C35  1  0.51874480  0.55308963  0.96893457  1.0
  C  C36  1  0.50472770  0.44577607  0.02256610  1.0
  C  C37  1  0.25579046  0.49159546  0.51991445  1.0
  C  C38  1  0.49120237  0.44270017  0.13076158  1.0
  C  C39  1  0.50640940  0.64662691  0.13188462  1.0
  C  C40  1  0.51969930  0.65231439  0.02647082  1.0
  C  C41  1  0.58871094  0.04430477  0.37633798  1.0
  C  C42  1  0.58332058  0.15997350  0.39053324  1.0
  C  C43  1  0.46356576  0.15090076  0.54259084  1.0
  C  C44  1  0.46150859  0.03185265  0.53673685  1.0
  C  C45  1  0.87804413  0.50790572  0.48749865  1.0
  C  C46  1  0.52523909  0.97744909  0.45228116  1.0
  C  C47  1  0.52087156  0.85829867  0.45012220  1.0
  C  C48  1  0.39865006  0.85008692  0.60317292  1.0
  C  C49  1  0.48073706  0.53293051  0.29957908  1.0
  C  C50  1  0.39848893  0.96638791  0.61093836  1.0
  C  C51  1  0.73813656  0.51468784  0.47644423  1.0
  C  C52  1  0.04924173  0.58334756  0.58220619  1.0
  C  C53  1  0.90968039  0.57260802  0.58238793  1.0
  C  C54  1  0.08693687  0.53133962  0.40012358  1.0
  C  C55  1  0.06609655  0.37822625  0.53798171  1.0
  C  C56  1  0.94622748  0.54820769  0.38673766  1.0
  C  C57  1  0.11627769  0.49404486  0.51238407  1.0
  C  C58  1  0.33119457  0.77943004  0.68206496  1.0
  C  C59  1  0.19667436  0.82490160  0.70180825  1.0
  C  C60  1  0.65844974  0.99023453  0.28651659  1.0
  C  C61  1  0.71823777  0.07161532  0.20929243  1.0
  C  C62  1  0.93059563  0.38283839  0.50649242  1.0
  C  C63  1  0.49183674  0.54073737  0.18489325  1.0
  C  C64  1  0.52626936  0.45878509  0.80631228  1.0
  C  C65  1  0.50495348  0.34625733  0.96520336  1.0
  C  C66  1  0.51596209  0.35223108  0.85969164  1.0
  C  C67  1  0.52906811  0.55653691  0.86049876  1.0
  S  S68  1  0.89557386  0.69132636  0.33122799  1.0
  N  N69  1  0.46146922  0.79807126  0.52206181  1.0
  N  N70  1  0.52229185  0.21133372  0.47191132  1.0
  O  O71  1  0.52101702  0.56612984  0.64868625  1.0
  O  O72  1  0.80513072  0.67391587  0.25660653  1.0
  O  O73  1  0.82886127  0.75742870  0.42423050  1.0
  O  O74  1  0.53381227  0.37385210  0.64450446  1.0
  O  O75  1  0.29921740  0.58846792  0.51945648  1.0
  O  O76  1  0.31901401  0.39597475  0.52239042  1.0
  O  O77  1  0.47735893  0.62495199  0.34742658  1.0
  O  O78  1  0.47638651  0.43347186  0.34138348  1.0
  O  O79  1  0.67828655  0.61365255  0.48064853  1.0
  O  O80  1  0.68888002  0.42358586  0.46643869  1.0
  O  O81  1  0.00068482  0.75219506  0.29999827  1.0
