# generated using pymatgen
data_Al2H16C24N2O11
_symmetry_space_group_name_H-M   'P 1'
_cell_length_a   6.70807392
_cell_length_b   11.14549329
_cell_length_c   17.62303266
_cell_angle_alpha   94.98678039
_cell_angle_beta   100.08511753
_cell_angle_gamma   107.36527623
_symmetry_Int_Tables_number   1
_chemical_formula_structural   Al2H16C24N2O11
_chemical_formula_sum   'Al2 H16 C24 N2 O11'
_cell_volume   1224.44031357
_cell_formula_units_Z   1
loop_
 _symmetry_equiv_pos_site_id
 _symmetry_equiv_pos_as_xyz
  1  'x, y, z'
loop_
 _atom_site_type_symbol
 _atom_site_label
 _atom_site_symmetry_multiplicity
 _atom_site_fract_x
 _atom_site_fract_y
 _atom_site_fract_z
 _atom_site_occupancy
  Al  Al0  1  0.98969950  0.47726619  0.49850432  1.0
  Al  Al1  1  0.49056307  0.47955861  0.49853067  1.0
  H  H2  1  0.15400961  0.39030775  0.40540114  1.0
  H  H3  1  0.84214375  0.62519687  0.55865510  1.0
  H  H4  1  0.74240184  0.85831869  0.48484961  1.0
  H  H5  1  0.11976760  0.86323018  0.51314962  1.0
  H  H6  1  0.85509312  0.09243882  0.48433404  1.0
  H  H7  1  0.99024536  0.57237680  0.27740291  1.0
  H  H8  1  0.93437380  0.61121418  0.13875075  1.0
  H  H9  1  0.31206890  0.46152197  0.26334120  1.0
  H  H10  1  0.64750070  0.46339015  0.73033928  1.0
  H  H11  1  0.07531738  0.56054265  0.73399160  1.0
  H  H12  1  0.17085923  0.60181104  0.87994765  1.0
  H  H13  1  0.26998342  0.19635462  0.51155980  1.0
  H  H14  1  0.19066633  0.48517761  0.05551409  1.0
  H  H15  1  0.08233291  0.44103991  0.13459913  1.0
  H  H16  1  0.78600299  0.48356309  0.94286070  1.0
  H  H17  1  0.84825050  0.43878109  0.85629073  1.0
  C  C18  1  0.68276138  0.48646781  0.35952998  1.0
  C  C19  1  0.62457230  0.24892510  0.49730757  1.0
  C  C20  1  0.30569677  0.48877907  0.63796399  1.0
  C  C21  1  0.35677260  0.70730371  0.50091762  1.0
  C  C22  1  0.55265078  0.11042095  0.49807379  1.0
  C  C23  1  0.42453546  0.84723613  0.49941865  1.0
  C  C24  1  0.34240332  0.04504983  0.50650037  1.0
  C  C25  1  0.63261835  0.91152930  0.49096981  1.0
  C  C26  1  0.28084685  0.91340836  0.50688547  1.0
  C  C27  1  0.69431710  0.04148676  0.49029460  1.0
  C  C28  1  0.65264393  0.51177835  0.27731714  1.0
  C  C29  1  0.83022894  0.55484733  0.24288828  1.0
  C  C30  1  0.79829531  0.57614917  0.16595738  1.0
  C  C31  1  0.59084589  0.55216966  0.12100917  1.0
  C  C32  1  0.41108793  0.51094588  0.15655384  1.0
  C  C33  1  0.44669978  0.49272269  0.23488044  1.0
  C  C34  1  0.55448720  0.56182530  0.04075505  1.0
  C  C35  1  0.50325498  0.56013772  0.97025658  1.0
  C  C36  1  0.45632948  0.54807460  0.88813621  1.0
  C  C37  1  0.59474524  0.50849985  0.84587688  1.0
  C  C38  1  0.54302938  0.49153331  0.76419894  1.0
  C  C39  1  0.35631710  0.50843905  0.72475491  1.0
  C  C40  1  0.21902392  0.54675770  0.76612620  1.0
  C  C41  1  0.27208789  0.56860688  0.84690604  1.0
  N  N42  1  0.20879310  0.49187962  0.11424292  1.0
  N  N43  1  0.77693514  0.49056804  0.88543804  1.0
  O  O44  1  0.86708290  0.48399516  0.39174741  1.0
  O  O45  1  0.48484237  0.30654588  0.50187068  1.0
  O  O46  1  0.45800396  0.48784033  0.60388768  1.0
  O  O47  1  0.16442869  0.65273934  0.50614936  1.0
  O  O48  1  0.11517692  0.47626841  0.60406252  1.0
  O  O49  1  0.49818350  0.65270835  0.49758638  1.0
  O  O50  1  0.52128002  0.46789951  0.39154251  1.0
  O  O51  1  0.81492718  0.30432500  0.49161916  1.0
  O  O52  1  0.19398955  0.41870640  0.46115745  1.0
  O  O53  1  0.78570349  0.53757080  0.53355116  1.0
  O  O54  1  0.19767435  0.10457480  0.51450307  1.0
