# generated using pymatgen
data_AlH5(C4O3)2
_symmetry_space_group_name_H-M   'P 1'
_cell_length_a   6.74351886
_cell_length_b   13.43612168
_cell_length_c   16.46481877
_cell_angle_alpha   89.98146208
_cell_angle_beta   89.89513189
_cell_angle_gamma   89.84760074
_symmetry_Int_Tables_number   1
_chemical_formula_structural   AlH5(C4O3)2
_chemical_formula_sum   'Al4 H20 C32 O24'
_cell_volume   1491.81570091
_cell_formula_units_Z   4
loop_
 _symmetry_equiv_pos_site_id
 _symmetry_equiv_pos_as_xyz
  1  'x, y, z'
loop_
 _atom_site_type_symbol
 _atom_site_label
 _atom_site_symmetry_multiplicity
 _atom_site_fract_x
 _atom_site_fract_y
 _atom_site_fract_z
 _atom_site_occupancy
  Al  Al0  1  0.00038879  0.99874764  0.50128324  1.0
  Al  Al1  1  0.50037149  0.00142158  0.49904013  1.0
  Al  Al2  1  0.99789201  0.50003150  0.00003756  1.0
  Al  Al3  1  0.49786656  0.50015732  0.00028135  1.0
  H  H4  1  0.24949490  0.86685188  0.49722000  1.0
  H  H5  1  0.75221599  0.13330289  0.50055800  1.0
  H  H6  1  0.24695650  0.63205588  0.99892819  1.0
  H  H7  1  0.74831746  0.36811965  0.99980481  1.0
  H  H8  1  0.06740105  0.69198402  0.81028655  1.0
  H  H9  1  0.42887414  0.69286063  0.81081581  1.0
  H  H10  1  0.06697633  0.80670286  0.69170304  1.0
  H  H11  1  0.56722925  0.31012267  0.19210299  1.0
  H  H12  1  0.92892347  0.30498351  0.18705386  1.0
  H  H13  1  0.56501565  0.19547131  0.31071161  1.0
  H  H14  1  0.92962406  0.31005769  0.80868539  1.0
  H  H15  1  0.56797531  0.30563855  0.81209175  1.0
  H  H16  1  0.93154584  0.19509965  0.69037718  1.0
  H  H17  1  0.06787619  0.68881744  0.19160613  1.0
  H  H18  1  0.42962081  0.69561000  0.18802085  1.0
  H  H19  1  0.06742670  0.80376467  0.31001593  1.0
  H  H20  1  0.41857850  0.85697206  0.64178383  1.0
  H  H21  1  0.91646905  0.13927001  0.35495011  1.0
  H  H22  1  0.58071954  0.13990396  0.64456175  1.0
  H  H23  1  0.41888428  0.86187603  0.35514444  1.0
  C  C24  1  0.75302385  0.88179314  0.38745760  1.0
  C  C25  1  0.75382864  0.88159436  0.61266254  1.0
  C  C26  1  0.24706597  0.11824480  0.61279287  1.0
  C  C27  1  0.24989583  0.11846317  0.38755096  1.0
  C  C28  1  0.74763770  0.61744010  0.11123958  1.0
  C  C29  1  0.74731581  0.61794423  0.88935370  1.0
  C  C30  1  0.24871352  0.38259546  0.88908251  1.0
  C  C31  1  0.24802804  0.38230346  0.11096442  1.0
  C  C32  1  0.74849441  0.81473431  0.68332615  1.0
  C  C33  1  0.74781864  0.68622301  0.81748153  1.0
  C  C34  1  0.56620570  0.78240291  0.71768733  1.0
  C  C35  1  0.92885655  0.71800595  0.78387395  1.0
  C  C36  1  0.56831089  0.71803120  0.78458935  1.0
  C  C37  1  0.92774480  0.78151789  0.71776555  1.0
  C  C38  1  0.24641339  0.18514683  0.31677775  1.0
  C  C39  1  0.24784169  0.31387338  0.18273508  1.0
  C  C40  1  0.06476066  0.21608565  0.28093705  1.0
  C  C41  1  0.42830113  0.28321548  0.21758613  1.0
  C  C42  1  0.06789187  0.28075404  0.21424653  1.0
  C  C43  1  0.42614298  0.21970974  0.28371984  1.0
  C  C44  1  0.25022647  0.18516778  0.68338816  1.0
  C  C45  1  0.24902506  0.31421653  0.81728438  1.0
  C  C46  1  0.43192622  0.21646427  0.71873964  1.0
  C  C47  1  0.06851570  0.28326057  0.78291580  1.0
  C  C48  1  0.42886204  0.28124624  0.78531465  1.0
  C  C49  1  0.07050962  0.21959794  0.71690701  1.0
  C  C50  1  0.74892913  0.81490587  0.31682737  1.0
  C  C51  1  0.74833609  0.68580338  0.18302828  1.0
  C  C52  1  0.56673560  0.78433542  0.28139577  1.0
  C  C53  1  0.92933340  0.71609211  0.21738588  1.0
  C  C54  1  0.56896638  0.71949676  0.21486900  1.0
  C  C55  1  0.92816988  0.77974964  0.28340837  1.0
  O  O56  1  0.91803278  0.90650441  0.41862870  1.0
  O  O57  1  0.58493295  0.90844629  0.58170461  1.0
  O  O58  1  0.41764194  0.08886744  0.58458626  1.0
  O  O59  1  0.08045867  0.08843188  0.41566419  1.0
  O  O60  1  0.08228944  0.09277268  0.58187872  1.0
  O  O61  1  0.41584555  0.09389685  0.41856050  1.0
  O  O62  1  0.58268714  0.91196228  0.41534333  1.0
  O  O63  1  0.92050093  0.90936221  0.58454685  1.0
  O  O64  1  0.25195471  0.93887182  0.50003205  1.0
  O  O65  1  0.75050930  0.06120081  0.50016605  1.0
  O  O66  1  0.91604820  0.59108006  0.08338731  1.0
  O  O67  1  0.57891445  0.59179801  0.91718424  1.0
  O  O68  1  0.41672196  0.40821224  0.91734696  1.0
  O  O69  1  0.07991137  0.40793746  0.08258769  1.0
  O  O70  1  0.07994499  0.40893796  0.91663364  1.0
  O  O71  1  0.41659534  0.40873008  0.08351339  1.0
  O  O72  1  0.57931104  0.59184285  0.08329409  1.0
  O  O73  1  0.91566350  0.59215605  0.91741759  1.0
  O  O74  1  0.24759419  0.56005474  0.00020264  1.0
  O  O75  1  0.74804512  0.44013425  0.00005036  1.0
  O  O76  1  0.38848854  0.81174856  0.68838016  1.0
  O  O77  1  0.88670785  0.18518928  0.30869969  1.0
  O  O78  1  0.61023638  0.18587903  0.69070632  1.0
  O  O79  1  0.38874301  0.81575702  0.30917560  1.0
