# generated using pymatgen
data_AlH15C21(N2O3)2
_symmetry_space_group_name_H-M   'P 1'
_cell_length_a   4.12066191
_cell_length_b   13.48468208
_cell_length_c   13.48446447
_cell_angle_alpha   60.00047489
_cell_angle_beta   89.99962827
_cell_angle_gamma   90.00023161
_symmetry_Int_Tables_number   1
_chemical_formula_structural   AlH15C21(N2O3)2
_chemical_formula_sum   'Al1 H15 C21 N4 O6'
_cell_volume   648.89452277
_cell_formula_units_Z   1
loop_
 _symmetry_equiv_pos_site_id
 _symmetry_equiv_pos_as_xyz
  1  'x, y, z'
loop_
 _atom_site_type_symbol
 _atom_site_label
 _atom_site_symmetry_multiplicity
 _atom_site_fract_x
 _atom_site_fract_y
 _atom_site_fract_z
 _atom_site_occupancy
  Al  Al0  1  0.99504374  0.50001584  0.99999664  1.0
  H  H1  1  0.80723266  0.21712756  0.96750105  1.0
  H  H2  1  0.80549689  0.10595149  0.86716281  1.0
  H  H3  1  0.20852931  0.36404143  0.60232999  1.0
  H  H4  1  0.20855111  0.03362089  0.86405553  1.0
  H  H5  1  0.80724156  0.81537760  0.71712105  1.0
  H  H6  1  0.80548705  0.02688769  0.60594691  1.0
  H  H7  1  0.20852838  0.10233708  0.53361541  1.0
  H  H8  1  0.80722082  0.46750204  0.31538251  1.0
  H  H9  1  0.80549733  0.36715653  0.52689495  1.0
  H  H10  1  0.04187432  0.51011471  0.75427583  1.0
  H  H11  1  0.99591651  0.50798312  0.63255691  1.0
  H  H12  1  0.04184875  0.73562355  0.01011297  1.0
  H  H13  1  0.99592201  0.85946487  0.00798718  1.0
  H  H14  1  0.04180446  0.25428412  0.23561809  1.0
  H  H15  1  0.99587481  0.13257295  0.35946638  1.0
  C  C16  1  0.49574492  0.67654564  0.91447868  1.0
  C  C17  1  0.49573557  0.40898644  0.17654310  1.0
  C  C18  1  0.49574574  0.41448881  0.90897502  1.0
  C  C19  1  0.66935536  0.24808814  0.88843164  1.0
  C  C20  1  0.67298606  0.18604654  0.83158424  1.0
  C  C21  1  0.50928219  0.22815628  0.72670421  1.0
  C  C22  1  0.33980181  0.33161243  0.68264666  1.0
  C  C23  1  0.32523353  0.39320607  0.74096694  1.0
  C  C24  1  0.49757097  0.35084868  0.84496021  1.0
  C  C25  1  0.33980923  0.98573758  0.83161949  1.0
  C  C26  1  0.32523005  0.86583142  0.89321421  1.0
  C  C27  1  0.49757379  0.80419923  0.85084431  1.0
  C  C28  1  0.66935349  0.86348748  0.74808886  1.0
  C  C29  1  0.67299510  0.98237458  0.68604200  1.0
  C  C30  1  0.50926160  0.04514101  0.72816408  1.0
  C  C31  1  0.33979472  0.18265025  0.48572976  1.0
  C  C32  1  0.32524046  0.24097540  0.36581911  1.0
  C  C33  1  0.49756118  0.34496779  0.30419227  1.0
  C  C34  1  0.66936817  0.38842835  0.36349596  1.0
  C  C35  1  0.67298974  0.33157669  0.48237735  1.0
  C  C36  1  0.50929140  0.22670310  0.54514221  1.0
  N  N37  1  0.51434474  0.16666010  0.66666873  1.0
  N  N38  1  0.15564542  0.49615267  0.69501134  1.0
  N  N39  1  0.15563448  0.80884029  0.99615122  1.0
  N  N40  1  0.15558842  0.19502065  0.30883859  1.0
  O  O41  1  0.25877812  0.39662880  0.97668614  1.0
  O  O42  1  0.25876345  0.62669909  0.89662004  1.0
  O  O43  1  0.25876975  0.47670031  0.12668843  1.0
  O  O44  1  0.73099255  0.48330561  0.89212295  1.0
  O  O45  1  0.73099191  0.39213716  0.12457507  1.0
  O  O46  1  0.73098276  0.62458245  0.98329842  1.0
