# generated using pymatgen
data_CdNiH14(C3N2)3
_symmetry_space_group_name_H-M   'P 1'
_cell_length_a   7.56737697
_cell_length_b   13.80946803
_cell_length_c   22.26207686
_cell_angle_alpha   89.99954442
_cell_angle_beta   89.99996707
_cell_angle_gamma   89.86687882
_symmetry_Int_Tables_number   1
_chemical_formula_structural   CdNiH14(C3N2)3
_chemical_formula_sum   'Cd4 Ni4 H56 C36 N24'
_cell_volume   2326.41304010
_cell_formula_units_Z   4
loop_
 _symmetry_equiv_pos_site_id
 _symmetry_equiv_pos_as_xyz
  1  'x, y, z'
loop_
 _atom_site_type_symbol
 _atom_site_label
 _atom_site_symmetry_multiplicity
 _atom_site_fract_x
 _atom_site_fract_y
 _atom_site_fract_z
 _atom_site_occupancy
  Cd  Cd0  1  0.06414836  0.82741713  0.20118086  1.0
  Cd  Cd1  1  0.93585531  0.67258245  0.70118167  1.0
  Cd  Cd2  1  0.93584793  0.17258615  0.79881889  1.0
  Cd  Cd3  1  0.06414910  0.32741073  0.29881988  1.0
  Ni  Ni4  1  0.56501143  0.57683161  0.23231778  1.0
  Ni  Ni5  1  0.43498428  0.92316682  0.73232150  1.0
  Ni  Ni6  1  0.43499417  0.42316882  0.76768242  1.0
  Ni  Ni7  1  0.56501740  0.07683142  0.26767825  1.0
  H  H8  1  0.04297362  0.84488058  0.33103303  1.0
  H  H9  1  0.86979134  0.78987143  0.30225365  1.0
  H  H10  1  0.21800740  0.70364436  0.32938527  1.0
  H  H11  1  0.05939115  0.64458405  0.28481996  1.0
  H  H12  1  0.84636564  0.63920557  0.36812209  1.0
  H  H13  1  0.04606382  0.57941922  0.38383963  1.0
  H  H14  1  0.93559121  0.77829781  0.43396240  1.0
  H  H15  1  0.14668009  0.72598518  0.44450162  1.0
  H  H16  1  0.00526220  0.57849749  0.48950094  1.0
  H  H17  1  0.79490215  0.63220363  0.48161287  1.0
  H  H18  1  0.09484594  0.71522679  0.55960681  1.0
  H  H19  1  0.87693837  0.76030103  0.55625652  1.0
  H  H20  1  0.02461332  0.93605074  0.09682600  1.0
  H  H21  1  0.22578455  0.89075961  0.09660599  1.0
  H  H22  1  0.95703383  0.65511736  0.83103302  1.0
  H  H23  1  0.13021478  0.71012904  0.80225489  1.0
  H  H24  1  0.78199741  0.79635287  0.82938730  1.0
  H  H25  1  0.94061368  0.85541664  0.78482166  1.0
  H  H26  1  0.15363916  0.86078898  0.86812303  1.0
  H  H27  1  0.95394355  0.92057804  0.88383966  1.0
  H  H28  1  0.06440419  0.72169875  0.93396540  1.0
  H  H29  1  0.85331528  0.77401197  0.94450239  1.0
  H  H30  1  0.99473173  0.92150198  0.98949961  1.0
  H  H31  1  0.20509314  0.86779449  0.98161287  1.0
  H  H32  1  0.90514604  0.78477456  0.05960873  1.0
  H  H33  1  0.12305232  0.73969891  0.05625793  1.0
  H  H34  1  0.97538256  0.56395088  0.59682554  1.0
  H  H35  1  0.77421135  0.60924128  0.59660669  1.0
  H  H36  1  0.95702930  0.15512201  0.66896537  1.0
  H  H37  1  0.13020892  0.21013187  0.69774521  1.0
  H  H38  1  0.78199028  0.29635531  0.67061224  1.0
  H  H39  1  0.94060518  0.35541706  0.71517845  1.0
  H  H40  1  0.15362936  0.36079626  0.63187766  1.0
  H  H41  1  0.95393514  0.42058335  0.61615922  1.0
  H  H42  1  0.06441037  0.22170549  0.56603780  1.0
  H  H43  1  0.85332285  0.27401595  0.55549589  1.0
  H  H44  1  0.99474202  0.42150583  0.51049881  1.0
  H  H45  1  0.20510210  0.36779823  0.51838733  1.0
  H  H46  1  0.90515698  0.28477507  0.44039429  1.0
  H  H47  1  0.12306457  0.23970011  0.44374457  1.0
  H  H48  1  0.97537905  0.06395036  0.90317599  1.0
  H  H49  1  0.77420650  0.10924148  0.90339691  1.0
  H  H50  1  0.04297050  0.34488016  0.16896493  1.0
  H  H51  1  0.86978822  0.28986920  0.19774486  1.0
  H  H52  1  0.21800692  0.20364466  0.17061380  1.0
  H  H53  1  0.05939063  0.14458233  0.21517854  1.0
  H  H54  1  0.84636923  0.13920349  0.13187762  1.0
  H  H55  1  0.04606478  0.07941733  0.11616009  1.0
  H  H56  1  0.93559226  0.27829657  0.06603794  1.0
  H  H57  1  0.14668111  0.22598625  0.05549736  1.0
  H  H58  1  0.00526068  0.07849694  0.01049969  1.0
  H  H59  1  0.79490193  0.13220372  0.01838823  1.0
  H  H60  1  0.09484636  0.21522508  0.94039237  1.0
  H  H61  1  0.87694135  0.26030363  0.94374361  1.0
  H  H62  1  0.02462038  0.43605026  0.40317466  1.0
  H  H63  1  0.22579158  0.39076058  0.40339306  1.0
  C  C64  1  0.39451237  0.65873958  0.20298925  1.0
  C  C65  1  0.39094313  0.99633007  0.23933094  1.0
  C  C66  1  0.73491920  0.99770791  0.23452676  1.0
  C  C67  1  0.73561745  0.15804279  0.29755395  1.0
  C  C68  1  0.07492078  0.69532962  0.32239629  1.0
  C  C69  1  0.98738025  0.65194919  0.37785339  1.0
  C  C70  1  0.00629850  0.70844803  0.43660663  1.0
  C  C71  1  0.93576745  0.64895206  0.48927876  1.0
  C  C72  1  0.95680071  0.69406879  0.55147276  1.0
  C  C73  1  0.60547544  0.84125991  0.70298705  1.0
  C  C74  1  0.60906184  0.50366758  0.73933175  1.0
  C  C75  1  0.26507776  0.50229412  0.73453619  1.0
  C  C76  1  0.26439793  0.34196287  0.79756619  1.0
  C  C77  1  0.92508534  0.80466914  0.82239690  1.0
  C  C78  1  0.01262185  0.84804739  0.87785443  1.0
  C  C79  1  0.99369955  0.79154779  0.93660819  1.0
  C  C80  1  0.06422650  0.85104668  0.98927798  1.0
  C  C81  1  0.04319394  0.80593195  0.05147296  1.0
  C  C82  1  0.60548406  0.34125646  0.79700736  1.0
  C  C83  1  0.60905469  0.00366236  0.76067016  1.0
  C  C84  1  0.26507448  0.00229391  0.76547119  1.0
  C  C85  1  0.26438815  0.84195764  0.70244131  1.0
  C  C86  1  0.92507556  0.30467149  0.67760211  1.0
  C  C87  1  0.01261871  0.34805265  0.62214591  1.0
  C  C88  1  0.99370046  0.29155382  0.56339312  1.0
  C  C89  1  0.06423811  0.35105054  0.51072054  1.0
  C  C90  1  0.04320222  0.30593307  0.44852834  1.0
  C  C91  1  0.39451824  0.15874191  0.29700911  1.0
  C  C92  1  0.39093976  0.49633500  0.26066576  1.0
  C  C93  1  0.73492386  0.49770702  0.26546895  1.0
  C  C94  1  0.73560089  0.65804694  0.20244030  1.0
  C  C95  1  0.07492165  0.19532767  0.17760285  1.0
  C  C96  1  0.98738121  0.15194723  0.12214667  1.0
  C  C97  1  0.00630218  0.20844755  0.06339426  1.0
  C  C98  1  0.93576723  0.14895224  0.01072132  1.0
  C  C99  1  0.95680109  0.19406843  0.94852814  1.0
  N  N100  1  0.28469971  0.71265962  0.18667394  1.0
  N  N101  1  0.27851615  0.94491449  0.22234075  1.0
  N  N102  1  0.84262779  0.94809378  0.21228726  1.0
  N  N103  1  0.84335902  0.71117936  0.18388348  1.0
  N  N104  1  0.00495227  0.79025858  0.30297200  1.0
  N  N105  1  0.09504251  0.87290802  0.09990178  1.0
  N  N106  1  0.71529215  0.78733648  0.68667198  1.0
  N  N107  1  0.72148335  0.55509422  0.72234532  1.0
  N  N108  1  0.15738239  0.55191004  0.71229467  1.0
  N  N109  1  0.15664077  0.78881681  0.68388793  1.0
  N  N110  1  0.99505518  0.70974116  0.80297261  1.0
  N  N111  1  0.90495338  0.62709283  0.59990327  1.0
  N  N112  1  0.71528761  0.28732841  0.81333031  1.0
  N  N113  1  0.72147203  0.05509889  0.77765855  1.0
  N  N114  1  0.15736718  0.05190950  0.78770935  1.0
  N  N115  1  0.15664649  0.28882541  0.81611761  1.0
  N  N116  1  0.99504932  0.20974400  0.69702685  1.0
  N  N117  1  0.90494854  0.12709307  0.90009797  1.0
  N  N118  1  0.28470960  0.21265741  0.31332553  1.0
  N  N119  1  0.27850887  0.44491484  0.27765622  1.0
  N  N120  1  0.84262453  0.44809039  0.28770733  1.0
  N  N121  1  0.84337302  0.21116917  0.31611227  1.0
  N  N122  1  0.00494782  0.29025636  0.19702669  1.0
  N  N123  1  0.09504958  0.37290758  0.40009603  1.0
