# generated using pymatgen
data_Zn2H21C45N9O13
_symmetry_space_group_name_H-M   'P 1'
_cell_length_a   10.88024281
_cell_length_b   12.62592839
_cell_length_c   13.62366315
_cell_angle_alpha   74.45859495
_cell_angle_beta   85.00405984
_cell_angle_gamma   70.54235746
_symmetry_Int_Tables_number   1
_chemical_formula_structural   Zn2H21C45N9O13
_chemical_formula_sum   'Zn2 H21 C45 N9 O13'
_cell_volume   1700.11399070
_cell_formula_units_Z   1
loop_
 _symmetry_equiv_pos_site_id
 _symmetry_equiv_pos_as_xyz
  1  'x, y, z'
loop_
 _atom_site_type_symbol
 _atom_site_label
 _atom_site_symmetry_multiplicity
 _atom_site_fract_x
 _atom_site_fract_y
 _atom_site_fract_z
 _atom_site_occupancy
  Zn  Zn0  1  0.42830543  0.63134613  0.49699460  1.0
  Zn  Zn1  1  0.52993516  0.36993945  0.51111972  1.0
  H  H2  1  0.79809187  0.67875655  0.40209919  1.0
  H  H3  1  0.25697606  0.10468174  0.68738342  1.0
  H  H4  1  0.70087394  0.26054360  0.37708984  1.0
  H  H5  1  0.63423655  0.94423645  0.36993987  1.0
  H  H6  1  0.82545024  0.57951448  0.60666327  1.0
  H  H7  1  0.03490318  0.57225480  0.62832267  1.0
  H  H8  1  0.94677223  0.37986269  0.38392717  1.0
  H  H9  1  0.13426378  0.43236632  0.36684810  1.0
  H  H10  1  0.76580702  0.65412513  0.90158588  1.0
  H  H11  1  0.09374464  0.04280250  0.64381929  1.0
  H  H12  1  0.61894275  0.70737465  0.48146544  1.0
  H  H13  1  0.18512921  0.33228506  0.48563610  1.0
  H  H14  1  0.34735187  0.24351001  0.69910943  1.0
  H  H15  1  0.14240944  0.67776687  0.33935143  1.0
  H  H16  1  0.87527529  0.42614105  0.64823793  1.0
  H  H17  1  0.53337001  0.24649956  0.80943782  1.0
  H  H18  1  0.46617830  0.25169473  0.15787906  1.0
  H  H19  1  0.71589686  0.72923814  0.03918790  1.0
  H  H20  1  0.89166500  0.58726683  0.32676298  1.0
  H  H21  1  0.44719716  0.39461186  0.25537463  1.0
  H  H22  1  0.21282110  0.78111902  0.58796016  1.0
  C  C23  1  0.49154083  0.56275437  0.30839784  1.0
  C  C24  1  0.57844657  0.52170696  0.03525405  1.0
  C  C25  1  0.53170529  0.50414456  0.13835917  1.0
  C  C26  1  0.73158172  0.48572584  0.48235192  1.0
  C  C27  1  0.55548087  0.45569733  0.97011779  1.0
  C  C28  1  0.52778473  0.35094962  0.01869504  1.0
  C  C29  1  0.49312094  0.32943440  0.12359852  1.0
  C  C30  1  0.48395139  0.40776496  0.17803973  1.0
  C  C31  1  0.54637241  0.49280563  0.86102274  1.0
  C  C32  1  0.53443232  0.30506477  0.85499426  1.0
  C  C33  1  0.53762218  0.57790010  0.19991383  1.0
  C  C34  1  0.10037144  0.51132715  0.49241318  1.0
  C  C35  1  0.25263659  0.92896969  0.60897181  1.0
  C  C36  1  0.65626637  0.19311843  0.40823042  1.0
  C  C37  1  0.68086199  0.09847244  0.36497851  1.0
  C  C38  1  0.51539538  0.45076064  0.69204239  1.0
  C  C39  1  0.61899823  0.01572948  0.40482536  1.0
  C  C40  1  0.53230940  0.02868752  0.48728635  1.0
  C  C41  1  0.51298951  0.12686612  0.52703100  1.0
  C  C42  1  0.45376002  0.95427567  0.52579145  1.0
  C  C43  1  0.34321735  0.99221545  0.58674448  1.0
  C  C44  1  0.33221756  0.08516652  0.63052814  1.0
  C  C45  1  0.03638788  0.49758509  0.60034998  1.0
  C  C46  1  0.42217562  0.14333947  0.60971987  1.0
  C  C47  1  0.48270448  0.84264479  0.50832003  1.0
  C  C48  1  0.28126295  0.82974425  0.57510763  1.0
  C  C49  1  0.23784509  0.51749372  0.49966484  1.0
  C  C50  1  0.88307239  0.60180856  0.40344297  1.0
  C  C51  1  0.00903285  0.62544989  0.42242945  1.0
  C  C52  1  0.89367622  0.49939561  0.59149470  1.0
  C  C53  1  0.97387170  0.38787759  0.45691963  1.0
  C  C54  1  0.86881322  0.49401241  0.48329993  1.0
  C  C55  1  0.11556346  0.39495670  0.67254614  1.0
  C  C56  1  0.10735909  0.40997575  0.44746805  1.0
  C  C57  1  0.50641511  0.16493534  0.00891248  1.0
  C  C58  1  0.53676155  0.60912779  0.80698083  1.0
  C  C59  1  0.61121757  0.74155788  0.21402721  1.0
  C  C60  1  0.76298700  0.09338631  0.27766914  1.0
  C  C61  1  0.97431477  0.72284995  0.47158000  1.0
  C  C62  1  0.98292583  0.27818118  0.53088213  1.0
  C  C63  1  0.52456749  0.27373876  0.96033224  1.0
  C  C64  1  0.53522210  0.41728284  0.80531086  1.0
  C  C65  1  0.59713236  0.66371517  0.15953113  1.0
  C  C66  1  0.65964375  0.66962069  0.06434959  1.0
  C  C67  1  0.65491528  0.59714652  0.00502943  1.0
  N  N68  1  0.39565282  0.78589323  0.52822813  1.0
  N  N69  1  0.57496971  0.20701379  0.48628203  1.0
  N  N70  1  0.18250968  0.31432870  0.72994296  1.0
  N  N71  1  0.49141882  0.07546546  0.04702041  1.0
  N  N72  1  0.52562814  0.70491654  0.76272698  1.0
  N  N73  1  0.63533519  0.80722635  0.24917688  1.0
  N  N74  1  0.82771114  0.09341053  0.20461848  1.0
  N  N75  1  0.94100130  0.80011778  0.50991957  1.0
  N  N76  1  0.00074737  0.18902846  0.59030375  1.0
  O  O77  1  0.45495406  0.65289249  0.34258330  1.0
  O  O78  1  0.14354137  0.95839407  0.66563485  1.0
  O  O79  1  0.60121989  0.79255123  0.47502121  1.0
  O  O80  1  0.43039227  0.21741738  0.66186275  1.0
  O  O81  1  0.06817469  0.65570607  0.32634101  1.0
  O  O82  1  0.49521091  0.46140980  0.36011124  1.0
  O  O83  1  0.63839431  0.57231699  0.49996933  1.0
  O  O84  1  0.72015396  0.39471454  0.46895128  1.0
  O  O85  1  0.43581532  0.54915990  0.65135881  1.0
  O  O86  1  0.57815545  0.37176879  0.64782943  1.0
  O  O87  1  0.24831287  0.61841782  0.48190691  1.0
  O  O88  1  0.32768370  0.42153011  0.52428057  1.0
  O  O89  1  0.73015223  0.59008556  0.92053063  1.0
