# generated using pymatgen
data_Al2H20C27O14
_symmetry_space_group_name_H-M   'P 1'
_cell_length_a   6.64324969
_cell_length_b   17.27116261
_cell_length_c   19.60534705
_cell_angle_alpha   107.65522944
_cell_angle_beta   89.99971909
_cell_angle_gamma   89.99958654
_symmetry_Int_Tables_number   1
_chemical_formula_structural   Al2H20C27O14
_chemical_formula_sum   'Al4 H40 C54 O28'
_cell_volume   2143.49978999
_cell_formula_units_Z   2
loop_
 _symmetry_equiv_pos_site_id
 _symmetry_equiv_pos_as_xyz
  1  'x, y, z'
loop_
 _atom_site_type_symbol
 _atom_site_label
 _atom_site_symmetry_multiplicity
 _atom_site_fract_x
 _atom_site_fract_y
 _atom_site_fract_z
 _atom_site_occupancy
  Al  Al0  1  0.89151012  0.49714445  0.49800090  1.0
  Al  Al1  1  0.39150624  0.50284899  0.50199508  1.0
  Al  Al2  1  0.38790054  0.99846980  0.99913802  1.0
  Al  Al3  1  0.88789194  0.00152731  0.00085852  1.0
  H  H4  1  0.38120511  0.66751937  0.70714827  1.0
  H  H5  1  0.88120086  0.33247693  0.29284240  1.0
  H  H6  1  0.43546536  0.67276036  0.39064043  1.0
  H  H7  1  0.93547935  0.32725089  0.60936569  1.0
  H  H8  1  0.58471355  0.78321231  0.35017989  1.0
  H  H9  1  0.08472960  0.21680761  0.64982926  1.0
  H  H10  1  0.40088601  0.91245653  0.17469749  1.0
  H  H11  1  0.90090279  0.08754928  0.82530601  1.0
  H  H12  1  0.67482138  0.62415902  0.22389031  1.0
  H  H13  1  0.17480768  0.37584455  0.77611212  1.0
  H  H14  1  0.56662019  0.77329320  0.76487853  1.0
  H  H15  1  0.06662381  0.22670166  0.23510435  1.0
  H  H16  1  0.81046611  0.71472644  0.02921526  1.0
  H  H17  1  0.68911897  0.80854170  0.06532808  1.0
  H  H18  1  0.90027366  0.80127715  0.00783555  1.0
  H  H19  1  0.31046090  0.28527933  0.97079274  1.0
  H  H20  1  0.18911958  0.19146517  0.93467220  1.0
  H  H21  1  0.40026575  0.19872383  0.99216739  1.0
  H  H22  1  0.53360282  0.67223540  0.14410360  1.0
  H  H23  1  0.03360121  0.32777139  0.85590240  1.0
  H  H24  1  0.84909814  0.83162240  0.84465995  1.0
  H  H25  1  0.34909828  0.16836967  0.15534199  1.0
  H  H26  1  0.94170762  0.75343130  0.59785557  1.0
  H  H27  1  0.81265300  0.73650455  0.67092758  1.0
  H  H28  1  0.98696869  0.81797542  0.68706364  1.0
  H  H29  1  0.44174000  0.24656282  0.40214616  1.0
  H  H30  1  0.31267095  0.26348293  0.32907604  1.0
  H  H31  1  0.48700541  0.18202047  0.31294013  1.0
  H  H32  1  0.81764882  0.56171053  0.36605217  1.0
  H  H33  1  0.31764916  0.43829080  0.63394617  1.0
  H  H34  1  0.69240603  0.88087428  0.22223631  1.0
  H  H35  1  0.56109394  0.95224261  0.29204853  1.0
  H  H36  1  0.73669843  0.88454555  0.31241117  1.0
  H  H37  1  0.19241063  0.11912852  0.77776394  1.0
  H  H38  1  0.06109222  0.04776969  0.70794995  1.0
  H  H39  1  0.23671041  0.11546253  0.68758954  1.0
  H  H40  1  0.65074083  0.60426581  0.53650809  1.0
  H  H41  1  0.15074462  0.39573015  0.46348367  1.0
  H  H42  1  0.64019935  0.90436339  0.01155400  1.0
  H  H43  1  0.14019702  0.09563419  0.98843566  1.0
  C  C44  1  0.64295734  0.42323756  0.58724597  1.0
  C  C45  1  0.14296495  0.57676005  0.41275063  1.0
  C  C46  1  0.63788490  0.37850616  0.39757173  1.0
  C  C47  1  0.13788724  0.62148802  0.60242326  1.0
  C  C48  1  0.27975437  0.78050406  0.77969841  1.0
  C  C49  1  0.77975089  0.21949201  0.22029785  1.0
  C  C50  1  0.12193476  0.81895284  0.82190382  1.0
  C  C51  1  0.62193131  0.18104011  0.17809601  1.0
  C  C52  1  0.26187284  0.71319039  0.71440482  1.0
  C  C53  1  0.76187432  0.28680363  0.28559040  1.0
  C  C54  1  0.12370155  0.69962089  0.66116487  1.0
  C  C55  1  0.62371248  0.30037463  0.33883230  1.0
  C  C56  1  0.96582437  0.62364423  0.31920094  1.0
  C  C57  1  0.46582707  0.37637034  0.68080833  1.0
  C  C58  1  0.13848499  0.62459896  0.36199120  1.0
  C  C59  1  0.63849288  0.37541178  0.63801510  1.0
  C  C60  1  0.30424216  0.67327130  0.35743858  1.0
  C  C61  1  0.80425117  0.32674260  0.64256947  1.0
  C  C62  1  0.30143301  0.72281068  0.31282253  1.0
  C  C63  1  0.80145915  0.27721022  0.68719251  1.0
  C  C64  1  0.13395814  0.71733078  0.26552638  1.0
  C  C65  1  0.63397145  0.28268679  0.73448638  1.0
  C  C66  1  0.96843138  0.66612164  0.26759729  1.0
  C  C67  1  0.46844341  0.33389637  0.73241359  1.0
  C  C68  1  0.45888537  0.77947718  0.31346195  1.0
  C  C69  1  0.95890237  0.22053625  0.68654732  1.0
  C  C70  1  0.45540937  0.82873426  0.27045367  1.0
  C  C71  1  0.95541944  0.17127690  0.72955399  1.0
  C  C72  1  0.29194765  0.82069191  0.21982950  1.0
  C  C73  1  0.79195832  0.17932626  0.78017914  1.0
  C  C74  1  0.13194686  0.76394245  0.21658548  1.0
  C  C75  1  0.63194706  0.23607414  0.78342781  1.0
  C  C76  1  0.97254497  0.75474353  0.16481207  1.0
  C  C77  1  0.47253815  0.24526907  0.83519824  1.0
  C  C78  1  0.80683451  0.70236889  0.17022955  1.0
  C  C79  1  0.30683702  0.29764098  0.82977687  1.0
  C  C80  1  0.80536701  0.66080590  0.21975384  1.0
  C  C81  1  0.30536469  0.33920372  0.78025526  1.0
  C  C82  1  0.28512094  0.86727335  0.17279160  1.0
  C  C83  1  0.78513358  0.13273625  0.82721220  1.0
  C  C84  1  0.13241002  0.85728214  0.12175139  1.0
  C  C85  1  0.63241115  0.14272782  0.87824744  1.0
  C  C86  1  0.97879927  0.79873995  0.11399560  1.0
  C  C87  1  0.47880032  0.20127013  0.88601414  1.0
  C  C88  1  0.63935481  0.11332062  0.11061493  1.0
  C  C89  1  0.13936318  0.88667192  0.88938379  1.0
  C  C90  1  0.63702072  0.08625162  0.92272729  1.0
  C  C91  1  0.13701883  0.91375460  0.07727418  1.0
  C  C92  1  0.83767774  0.78012120  0.05063992  1.0
  C  C93  1  0.33767293  0.21988492  0.94936587  1.0
  C  C94  1  0.95794022  0.75539941  0.65417966  1.0
  C  C95  1  0.45796592  0.24459391  0.34582150  1.0
  C  C96  1  0.61984318  0.88963909  0.27445953  1.0
  C  C97  1  0.11985474  0.11037007  0.72554200  1.0
  O  O98  1  0.47137997  0.40897418  0.42597290  1.0
  O  O99  1  0.97138651  0.59101693  0.57402179  1.0
  O  O100  1  0.81016168  0.43588570  0.56089785  1.0
  O  O101  1  0.31016321  0.56410608  0.43909617  1.0
  O  O102  1  0.81103910  0.40937230  0.41680402  1.0
  O  O103  1  0.31103494  0.59062151  0.58318574  1.0
  O  O104  1  0.97133233  0.55101374  0.42840311  1.0
  O  O105  1  0.47132577  0.44898502  0.57159537  1.0
  O  O106  1  0.64368043  0.54893112  0.50484120  1.0
  O  O107  1  0.14369296  0.45106529  0.49515700  1.0
  O  O108  1  0.80880876  0.06549546  0.94068460  1.0
  O  O109  1  0.30881716  0.93450502  0.05931803  1.0
  O  O110  1  0.46656187  0.08743784  0.08291367  1.0
  O  O111  1  0.96657378  0.91255799  0.91708641  1.0
  O  O112  1  0.46900526  0.06074779  0.93847418  1.0
  O  O113  1  0.96899398  0.93925370  0.06152378  1.0
  O  O114  1  0.30969949  0.91268182  0.91517403  1.0
  O  O115  1  0.80968761  0.08731054  0.08482000  1.0
  O  O116  1  0.63913061  0.95133729  0.99420991  1.0
  O  O117  1  0.13912676  0.04866153  0.00578511  1.0
  O  O118  1  0.47350100  0.80167799  0.80268906  1.0
  O  O119  1  0.97349234  0.19831733  0.19729924  1.0
  O  O120  1  0.64274949  0.69929737  0.12705455  1.0
  O  O121  1  0.14274229  0.30070249  0.87294527  1.0
  O  O122  1  0.92745511  0.79344526  0.80557264  1.0
  O  O123  1  0.42744624  0.20654499  0.19443124  1.0
  O  O124  1  0.79637464  0.58257513  0.32416210  1.0
  O  O125  1  0.29637640  0.41743422  0.67584274  1.0
