# generated using pymatgen
data_Zn4H53C71N19O4
_symmetry_space_group_name_H-M   'P 1'
_cell_length_a   18.58121969
_cell_length_b   19.84665711
_cell_length_c   19.99628905
_cell_angle_alpha   108.85298937
_cell_angle_beta   108.50665761
_cell_angle_gamma   108.80689913
_symmetry_Int_Tables_number   1
_chemical_formula_structural   Zn4H53C71N19O4
_chemical_formula_sum   'Zn4 H53 C71 N19 O4'
_cell_volume   5828.67381792
_cell_formula_units_Z   1
loop_
 _symmetry_equiv_pos_site_id
 _symmetry_equiv_pos_as_xyz
  1  'x, y, z'
loop_
 _atom_site_type_symbol
 _atom_site_label
 _atom_site_symmetry_multiplicity
 _atom_site_fract_x
 _atom_site_fract_y
 _atom_site_fract_z
 _atom_site_occupancy
  Zn  Zn0  1  0.86871756  0.87140575  0.49686871  1.0
  Zn  Zn1  1  0.09842206  0.08262188  0.49878180  1.0
  Zn  Zn2  1  0.08633047  0.97528552  0.59897620  1.0
  Zn  Zn3  1  0.89539951  0.98955249  0.40102837  1.0
  H  H4  1  0.82713489  0.86368071  0.64610975  1.0
  H  H5  1  0.86837228  0.47912080  0.30351152  1.0
  H  H6  1  0.50588195  0.33863121  0.92620101  1.0
  H  H7  1  0.43172120  0.50599091  0.86789579  1.0
  H  H8  1  0.55842744  0.61977721  0.99536738  1.0
  H  H9  1  0.85707269  0.05504703  0.93335512  1.0
  H  H10  1  0.14956160  0.14628770  0.14202457  1.0
  H  H11  1  0.84216193  0.11170546  0.48827481  1.0
  H  H12  1  0.16620502  0.24876791  0.62473659  1.0
  H  H13  1  0.81054480  0.96778871  0.61043367  1.0
  H  H14  1  0.86170998  0.13915762  0.35213790  1.0
  H  H15  1  0.28866326  0.11785396  0.51377296  1.0
  H  H16  1  0.10097530  0.02620667  0.76743851  1.0
  H  H17  1  0.69281034  0.69942211  0.33749662  1.0
  H  H18  1  0.81379287  0.92847834  0.23320781  1.0
  H  H19  1  0.75710916  0.93312532  0.11786468  1.0
  H  H20  1  0.84580531  0.92106173  0.10981081  1.0
  H  H21  1  0.85312278  0.01851105  0.14697296  1.0
  H  H22  1  0.15536370  0.36923711  0.54197965  1.0
  H  H23  1  0.18888916  0.35057432  0.46671877  1.0
  H  H24  1  0.32368136  0.36016032  0.56329124  1.0
  H  H25  1  0.31636213  0.45065858  0.60183816  1.0
  H  H26  1  0.13035192  0.86191075  0.48167710  1.0
  H  H27  1  0.29041913  0.38045662  0.63864500  1.0
  H  H28  1  0.76469007  0.34721084  0.21970604  1.0
  H  H29  1  0.77344463  0.38322864  0.31763313  1.0
  H  H30  1  0.71918330  0.24108299  0.29901047  1.0
  H  H31  1  0.64339014  0.24701134  0.22286388  1.0
  H  H32  1  0.71014265  0.20540846  0.20118748  1.0
  H  H33  1  0.75095243  0.54869591  0.09004306  1.0
  H  H34  1  0.74437241  0.45361280  0.03589449  1.0
  H  H35  1  0.76381476  0.43052412  0.15613768  1.0
  H  H36  1  0.85258016  0.52036168  0.18064650  1.0
  H  H37  1  0.15301688  0.07513002  0.36510269  1.0
  H  H38  1  0.77268332  0.52698217  0.20939336  1.0
  H  H39  1  0.81732549  0.08407912  0.03242568  1.0
  H  H40  1  0.83255960  0.15802325  0.15776728  1.0
  H  H41  1  0.91909957  0.22574412  0.15271192  1.0
  H  H42  1  0.93794749  0.17160215  0.20629719  1.0
  H  H43  1  0.12233581  0.10432398  0.94079273  1.0
  H  H44  1  0.26940636  0.17485050  0.03005331  1.0
  H  H45  1  0.23814794  0.11989233  0.08008915  1.0
  H  H46  1  0.24878367  0.21901914  0.10967304  1.0
  H  H47  1  0.29892184  0.22711013  0.88009833  1.0
  H  H48  1  0.85559633  0.70791223  0.37604688  1.0
  H  H49  1  0.35180768  0.19041380  0.82851203  1.0
  H  H50  1  0.31693982  0.07275811  0.85735847  1.0
  H  H51  1  0.37557398  0.16592547  0.94791234  1.0
  H  H52  1  0.26224909  0.10767109  0.90752421  1.0
  H  H53  1  0.81440394  0.83254456  0.23662743  1.0
  H  H54  1  0.28889350  0.98323848  0.64665298  1.0
  H  H55  1  0.14653372  0.47484323  0.41236738  1.0
  H  H56  1  0.14513130  0.59748847  0.40571584  1.0
  C  C57  1  0.89474113  0.89786251  0.66355369  1.0
  C  C58  1  0.92101318  0.75711238  0.40884555  1.0
  C  C59  1  0.78894268  0.81385408  0.27315976  1.0
  C  C60  1  0.07040207  0.21518403  0.45986649  1.0
  C  C61  1  0.27467865  0.01438180  0.61256113  1.0
  C  C62  1  0.73467776  0.73478488  0.25430650  1.0
  C  C63  1  0.32566734  0.05562583  0.58486807  1.0
  C  C64  1  0.99690371  0.75473582  0.41143806  1.0
  C  C65  1  0.01890234  0.03890115  0.27767180  1.0
  C  C66  1  0.74785485  0.07812770  0.58138781  1.0
  C  C67  1  0.68902947  0.08616475  0.59261504  1.0
  C  C68  1  0.00370294  0.22566662  0.41288954  1.0
  C  C69  1  0.62008966  0.08809389  0.59922223  1.0
  C  C70  1  0.55274517  0.08372708  0.60075960  1.0
  C  C71  1  0.47758079  0.07592211  0.59863131  1.0
  C  C72  1  0.19122703  0.14604958  0.72224759  1.0
  C  C73  1  0.40691165  0.06641058  0.59371066  1.0
  C  C74  1  0.08509694  0.54424142  0.38399449  1.0
  C  C75  1  0.00661842  0.54662841  0.35543446  1.0
  C  C76  1  0.92857060  0.47682960  0.32591845  1.0
  C  C77  1  0.92947432  0.40796264  0.32881581  1.0
  C  C78  1  0.00908780  0.40726624  0.36270444  1.0
  C  C79  1  0.22586288  0.22179985  0.72334318  1.0
  C  C80  1  0.08566672  0.47575300  0.38765242  1.0
  C  C81  1  0.00539640  0.61963338  0.36318202  1.0
  C  C82  1  0.00953982  0.34145618  0.37511078  1.0
  C  C83  1  0.00835905  0.28765000  0.39263119  1.0
  C  C84  1  0.84130086  0.07004778  0.51260853  1.0
  C  C85  1  0.00395729  0.68400658  0.38057444  1.0
  C  C86  1  0.51654768  0.40000779  0.94061277  1.0
  C  C87  1  0.45665080  0.41393340  0.89037164  1.0
  C  C88  1  0.47565075  0.49446514  0.90807519  1.0
  C  C89  1  0.54656322  0.55776507  0.97878590  1.0
  C  C90  1  0.80426993  0.05411395  0.56104706  1.0
  C  C91  1  0.60164368  0.54407653  0.03407164  1.0
  C  C92  1  0.58896260  0.46384753  0.01091338  1.0
  C  C93  1  0.37683574  0.34845105  0.82695080  1.0
  C  C94  1  0.65882802  0.60812464  0.11290526  1.0
  C  C95  1  0.69519906  0.66527870  0.18011110  1.0
  C  C96  1  0.16482978  0.20760786  0.64986134  1.0
  C  C97  1  0.30515121  0.29118740  0.77904923  1.0
  C  C98  1  0.93684436  0.09957502  0.05903286  1.0
  C  C99  1  0.01835233  0.11564840  0.11537888  1.0
  C  C100  1  0.08680857  0.12976165  0.09636631  1.0
  C  C101  1  0.72786888  0.74497330  0.32478626  1.0
  C  C102  1  0.07337442  0.11455241  0.01895403  1.0
  C  C103  1  0.98629871  0.07755463  0.95744271  1.0
  C  C104  1  0.92173287  0.07685226  0.97999607  1.0
  C  C105  1  0.02651509  0.10315251  0.18247140  1.0
  C  C106  1  0.96911352  0.03871041  0.87710579  1.0
  C  C107  1  0.96303994  0.99967540  0.81207383  1.0
  C  C108  1  0.82563658  0.99620233  0.57514296  1.0
  C  C109  1  0.02673048  0.07433701  0.22823097  1.0
  C  C110  1  0.92816957  0.15623893  0.38960046  1.0
  C  C111  1  0.03471448  0.98019763  0.72571027  1.0
  C  C112  1  0.27426116  0.08305429  0.54432329  1.0
  C  C113  1  0.96262044  0.96045239  0.73929963  1.0
  C  C114  1  0.82758655  0.96022842  0.14648202  1.0
  C  C115  1  0.19376896  0.34466382  0.52061903  1.0
  C  C116  1  0.28639336  0.38605548  0.58484911  1.0
  C  C117  1  0.77519000  0.33562361  0.27152057  1.0
  C  C118  1  0.70804315  0.25224836  0.24723540  1.0
  C  C119  1  0.73298110  0.48764628  0.08371839  1.0
  C  C120  1  0.78329698  0.49150395  0.16209542  1.0
  C  C121  1  0.89176524  0.16737033  0.15272665  1.0
  C  C122  1  0.22779001  0.16190011  0.05762382  1.0
  C  C123  1  0.06178017  0.83559290  0.46261162  1.0
  C  C124  1  0.30089477  0.17245400  0.84571949  1.0
  C  C125  1  0.31438870  0.12676929  0.89206560  1.0
  C  C126  1  0.94140490  0.99227162  0.27632672  1.0
  C  C127  1  0.08378936  0.04461354  0.34307917  1.0
  N  N128  1  0.92392511  0.88312093  0.60933365  1.0
  N  N129  1  0.11738649  0.09287194  0.65400056  1.0
  N  N130  1  0.87886251  0.02312130  0.49783122  1.0
  N  N131  1  0.10129041  0.13030955  0.60825536  1.0
  N  N132  1  0.86931170  0.97795613  0.53625333  1.0
  N  N133  1  0.94843101  0.10971517  0.41948023  1.0
  N  N134  1  0.01158480  0.93468766  0.64870095  1.0
  N  N135  1  0.77346214  0.82375771  0.38029131  1.0
  N  N136  1  0.85750936  0.96939504  0.22737241  1.0
  N  N137  1  0.87141733  0.09840883  0.08018339  1.0
  N  N138  1  0.13974661  0.13052398  0.99999080  1.0
  N  N139  1  0.20000374  0.06019905  0.54806793  1.0
  N  N140  1  0.02667001  0.88136130  0.48947870  1.0
  N  N141  1  0.96084999  0.97438968  0.33774707  1.0
  N  N142  1  0.04976850  0.00759048  0.37972882  1.0
  N  N143  1  0.94033487  0.83269986  0.45620373  1.0
  N  N144  1  0.81086148  0.86652084  0.34739434  1.0
  N  N145  1  0.20025694  0.01750123  0.59025054  1.0
  N  N146  1  0.03685078  0.14647304  0.46339387  1.0
  O  O147  1  0.15735101  0.25940210  0.49904401  1.0
  O  O148  1  0.85774622  0.33859931  0.30307461  1.0
  O  O149  1  0.64160568  0.44544130  0.05913669  1.0
  O  O150  1  0.21884528  0.11846823  0.77354524  1.0
