# generated using pymatgen
data_Zn4H18C32N4O23
_symmetry_space_group_name_H-M   'P 1'
_cell_length_a   10.85665374
_cell_length_b   19.19397489
_cell_length_c   19.20460038
_cell_angle_alpha   94.67356072
_cell_angle_beta   92.34074315
_cell_angle_gamma   95.73344053
_symmetry_Int_Tables_number   1
_chemical_formula_structural   Zn4H18C32N4O23
_chemical_formula_sum   'Zn4 H18 C32 N4 O23'
_cell_volume   3963.79644147
_cell_formula_units_Z   1
loop_
 _symmetry_equiv_pos_site_id
 _symmetry_equiv_pos_as_xyz
  1  'x, y, z'
loop_
 _atom_site_type_symbol
 _atom_site_label
 _atom_site_symmetry_multiplicity
 _atom_site_fract_x
 _atom_site_fract_y
 _atom_site_fract_z
 _atom_site_occupancy
  Zn  Zn0  1  0.38986802  0.43527790  0.43553568  1.0
  Zn  Zn1  1  0.61393114  0.55809237  0.44675206  1.0
  Zn  Zn2  1  0.58912120  0.44878467  0.56375283  1.0
  Zn  Zn3  1  0.40393666  0.56205709  0.55902436  1.0
  H  H4  1  0.00126683  0.50760226  0.41876536  1.0
  H  H5  1  0.51551588  0.40260305  0.77130488  1.0
  H  H6  1  0.92269474  0.49494996  0.61706425  1.0
  H  H7  1  0.35040581  0.76929488  0.53610485  1.0
  H  H8  1  0.34954274  0.95442072  0.52791431  1.0
  H  H9  1  0.25639596  0.03259702  0.47594208  1.0
  H  H10  1  0.18918261  0.18016199  0.46697811  1.0
  H  H11  1  0.73220500  0.72720105  0.46828145  1.0
  H  H12  1  0.66633631  0.10774148  0.52859592  1.0
  H  H13  1  0.73207798  0.91246931  0.47422821  1.0
  H  H14  1  0.68007646  0.29241655  0.53358588  1.0
  H  H15  1  0.54995457  0.60775283  0.28711671  1.0
  H  H16  1  0.49930904  0.59074414  0.04532764  1.0
  H  H17  1  0.45827479  0.62787014  0.90822034  1.0
  H  H18  1  0.45544512  0.62192008  0.77697676  1.0
  H  H19  1  0.47484513  0.37412593  0.22588930  1.0
  H  H20  1  0.49986289  0.40699229  0.95730901  1.0
  H  H21  1  0.46670131  0.31585642  0.11409128  1.0
  C  C22  1  0.53199259  0.69033623  0.50635647  1.0
  C  C23  1  0.53884193  0.76755737  0.50518203  1.0
  C  C24  1  0.64851219  0.80787308  0.48666986  1.0
  C  C25  1  0.48144596  0.31339228  0.49692860  1.0
  C  C26  1  0.64903234  0.88041548  0.48725431  1.0
  C  C27  1  0.48628134  0.51195358  0.76696231  1.0
  C  C28  1  0.50173554  0.45173137  0.80105669  1.0
  C  C29  1  0.49744516  0.45329423  0.87396371  1.0
  C  C30  1  0.48344606  0.51868392  0.91286736  1.0
  C  C31  1  0.46934636  0.57900646  0.87705248  1.0
  C  C32  1  0.46833714  0.57591470  0.80496252  1.0
  C  C33  1  0.58555949  0.20411132  0.51659943  1.0
  C  C34  1  0.50554460  0.54623020  0.12903304  1.0
  C  C35  1  0.51754315  0.55032971  0.20320734  1.0
  C  C36  1  0.49084686  0.47942454  0.08983290  1.0
  C  C37  1  0.50600840  0.48995181  0.31369921  1.0
  C  C38  1  0.50379351  0.48752800  0.23676342  1.0
  C  C39  1  0.48519850  0.42114548  0.19752524  1.0
  C  C40  1  0.48219853  0.41665307  0.12555759  1.0
  C  C41  1  0.48975307  0.50867384  0.68931539  1.0
  C  C42  1  0.82698251  0.50907956  0.51376215  1.0
  C  C43  1  0.17500984  0.50167568  0.48046072  1.0
  C  C44  1  0.58209733  0.13163416  0.51680938  1.0
  C  C45  1  0.04137969  0.50730720  0.47152452  1.0
  C  C46  1  0.96436223  0.50718721  0.52525340  1.0
  C  C47  1  0.47533599  0.23678320  0.50020476  1.0
  C  C48  1  0.46910322  0.08949134  0.50401134  1.0
  C  C49  1  0.35946641  0.12022881  0.49008394  1.0
  C  C50  1  0.36220079  0.19322132  0.48709004  1.0
  C  C51  1  0.43183541  0.87288615  0.51990566  1.0
  C  C52  1  0.43336325  0.80078613  0.52221953  1.0
  C  C53  1  0.54255501  0.91374873  0.50258253  1.0
  N  N54  1  0.45496711  0.01639356  0.50497730  1.0
  N  N55  1  0.55486218  0.98603941  0.49948311  1.0
  N  N56  1  0.48376772  0.52739281  0.98511413  1.0
  N  N57  1  0.48656721  0.47110971  0.01786386  1.0
  O  O58  1  0.50015063  0.50148573  0.49985841  1.0
  O  O59  1  0.78403203  0.52901644  0.45704859  1.0
  O  O60  1  0.23006305  0.53018080  0.53727578  1.0
  O  O61  1  0.76514448  0.49078040  0.56603872  1.0
  O  O62  1  0.22528782  0.46842480  0.43009403  1.0
  O  O63  1  0.69657560  0.24208003  0.53123299  1.0
  O  O64  1  0.53776471  0.61527835  0.23672872  1.0
  O  O65  1  0.51162830  0.60608380  0.09774946  1.0
  O  O66  1  0.50810447  0.39411191  0.90529453  1.0
  O  O67  1  0.46958902  0.35453136  0.08418095  1.0
  O  O68  1  0.00032651  0.50112449  0.59231782  1.0
  O  O69  1  0.46485647  0.43555114  0.34261891  1.0
  O  O70  1  0.32765730  0.90307508  0.53458212  1.0
  O  O71  1  0.24553135  0.08261629  0.47685999  1.0
  O  O72  1  0.25389681  0.21991235  0.47260254  1.0
  O  O73  1  0.75288308  0.77886801  0.46919284  1.0
  O  O74  1  0.44873763  0.55898629  0.65872437  1.0
  O  O75  1  0.62265204  0.65913838  0.47993768  1.0
  O  O76  1  0.58156196  0.35038373  0.52492457  1.0
  O  O77  1  0.43860472  0.65891091  0.53248309  1.0
  O  O78  1  0.39314184  0.34041867  0.46742454  1.0
  O  O79  1  0.55066082  0.54895636  0.34820905  1.0
  O  O80  1  0.53487582  0.45557148  0.65901054  1.0
