# generated using pymatgen
data_ZnH12C20(NO2)3
_symmetry_space_group_name_H-M   'P 1'
_cell_length_a   14.81582668
_cell_length_b   15.91388335
_cell_length_c   19.17094116
_cell_angle_alpha   89.98605833
_cell_angle_beta   90.00001887
_cell_angle_gamma   89.99831921
_symmetry_Int_Tables_number   1
_chemical_formula_structural   ZnH12C20(NO2)3
_chemical_formula_sum   'Zn2 H24 C40 N6 O12'
_cell_volume   4520.07332869
_cell_formula_units_Z   2
loop_
 _symmetry_equiv_pos_site_id
 _symmetry_equiv_pos_as_xyz
  1  'x, y, z'
loop_
 _atom_site_type_symbol
 _atom_site_label
 _atom_site_symmetry_multiplicity
 _atom_site_fract_x
 _atom_site_fract_y
 _atom_site_fract_z
 _atom_site_occupancy
  Zn  Zn0  1  0.40586704  0.49714652  0.50458005  1.0
  Zn  Zn1  1  0.59412721  0.49714332  0.50457904  1.0
  H  H2  1  0.35527225  0.51550257  0.72535554  1.0
  H  H3  1  0.08442097  0.36465712  0.48849381  1.0
  H  H4  1  0.91558418  0.36465768  0.48849185  1.0
  H  H5  1  0.08441607  0.63436617  0.51730700  1.0
  H  H6  1  0.36728648  0.80843513  0.38002041  1.0
  H  H7  1  0.30575838  0.89242211  0.33819811  1.0
  H  H8  1  0.25122451  0.82606885  0.40123133  1.0
  H  H9  1  0.63259698  0.18836118  0.38137100  1.0
  H  H10  1  0.69367283  0.10535633  0.33787981  1.0
  H  H11  1  0.74864547  0.16995674  0.40188729  1.0
  H  H12  1  0.30631071  0.10537482  0.33789593  1.0
  H  H13  1  0.64461411  0.51505076  0.28321034  1.0
  H  H14  1  0.36737722  0.18836920  0.38139809  1.0
  H  H15  1  0.25133269  0.16996292  0.40191069  1.0
  H  H16  1  0.69421055  0.89240360  0.33817574  1.0
  H  H17  1  0.63269928  0.80842395  0.38001627  1.0
  H  H18  1  0.74876678  0.82606456  0.40120480  1.0
  H  H19  1  0.35538421  0.51505221  0.28320247  1.0
  H  H20  1  0.64473365  0.51550552  0.72535245  1.0
  H  H21  1  0.35469880  0.54344152  0.85413982  1.0
  H  H22  1  0.64530817  0.54299893  0.15417993  1.0
  H  H23  1  0.35469732  0.54300166  0.15417259  1.0
  H  H24  1  0.64531167  0.54344257  0.85413569  1.0
  H  H25  1  0.91557860  0.63437050  0.51730503  1.0
  C  C26  1  0.49999624  0.66046573  0.49374251  1.0
  C  C27  1  0.95316229  0.57602354  0.51089523  1.0
  C  C28  1  0.09333837  0.49949645  0.50287224  1.0
  C  C29  1  0.90665850  0.49949663  0.50286975  1.0
  C  C30  1  0.18923043  0.49907266  0.50352793  1.0
  C  C31  1  0.81076510  0.49907421  0.50352489  1.0
  C  C32  1  0.50000347  0.50265385  0.64020832  1.0
  C  C33  1  0.49999803  0.50245641  0.36796502  1.0
  C  C34  1  0.41821093  0.52154535  0.75428690  1.0
  C  C35  1  0.58183115  0.52115278  0.25406941  1.0
  C  C36  1  0.41816900  0.52115314  0.25406574  1.0
  C  C37  1  0.49999461  0.33453599  0.49329769  1.0
  C  C38  1  0.58179749  0.52154625  0.75428431  1.0
  C  C39  1  0.41793465  0.53694759  0.82564350  1.0
  C  C40  1  0.58211842  0.53656011  0.18274079  1.0
  C  C41  1  0.41788661  0.53656111  0.18273712  1.0
  C  C42  1  0.58207804  0.53694785  0.82563987  1.0
  C  C43  1  0.50000824  0.54570183  0.86189118  1.0
  C  C44  1  0.50000203  0.54536473  0.14656581  1.0
  C  C45  1  0.49999993  0.51453079  0.71788173  1.0
  C  C46  1  0.49999850  0.51421227  0.29035863  1.0
  C  C47  1  0.50000377  0.56305674  0.07157385  1.0
  C  C48  1  0.49998972  0.17271699  0.45843589  1.0
  C  C49  1  0.50000595  0.56325137  0.93689134  1.0
  C  C50  1  0.41681991  0.04167108  0.43960701  1.0
  C  C51  1  0.58316080  0.95350269  0.43999037  1.0
  C  C52  1  0.41683393  0.95350434  0.43999713  1.0
  C  C53  1  0.58316702  0.04167069  0.43960025  1.0
  C  C54  1  0.49998973  0.08597969  0.44365268  1.0
  C  C55  1  0.50000042  0.90923108  0.44433291  1.0
  C  C56  1  0.31489513  0.85663564  0.38694964  1.0
  C  C57  1  0.68485065  0.13984063  0.38728047  1.0
  C  C58  1  0.31512980  0.13984883  0.38730180  1.0
  C  C59  1  0.50000044  0.82243813  0.45915650  1.0
  C  C60  1  0.68509655  0.85662807  0.38693300  1.0
  C  C61  1  0.49999485  0.74858354  0.47610687  1.0
  C  C62  1  0.49998992  0.24650638  0.47557148  1.0
  C  C63  1  0.04683015  0.57602401  0.51089614  1.0
  C  C64  1  0.95318427  0.42301249  0.49462051  1.0
  C  C65  1  0.04681837  0.42301171  0.49462194  1.0
  N  N66  1  0.57981232  0.57538732  0.96996132  1.0
  N  N67  1  0.42020917  0.57525298  0.03857142  1.0
  N  N68  1  0.57979932  0.57525017  0.03857249  1.0
  N  N69  1  0.42019854  0.57538951  0.96995974  1.0
  N  N70  1  0.73250219  0.49816390  0.50425253  1.0
  N  N71  1  0.26749945  0.49817152  0.50425872  1.0
  O  O72  1  0.42292583  0.62563544  0.50023893  1.0
  O  O73  1  0.66449023  0.08217155  0.44290727  1.0
  O  O74  1  0.33549340  0.08217103  0.44291974  1.0
  O  O75  1  0.66440361  0.91285046  0.44348795  1.0
  O  O76  1  0.57709608  0.36926988  0.49983662  1.0
  O  O77  1  0.42288126  0.36926948  0.49984077  1.0
  O  O78  1  0.57706573  0.62563396  0.50023635  1.0
  O  O79  1  0.42335711  0.49880528  0.61016801  1.0
  O  O80  1  0.57668163  0.49869595  0.39782425  1.0
  O  O81  1  0.42330240  0.49869805  0.39782266  1.0
  O  O82  1  0.57664049  0.49880318  0.61016855  1.0
  O  O83  1  0.33559712  0.91284993  0.44350824  1.0
