# generated using pymatgen
data_Zr3H24C44Br2O21
_symmetry_space_group_name_H-M   'P 1'
_cell_length_a   19.07281858
_cell_length_b   19.18654526
_cell_length_c   19.18669761
_cell_angle_alpha   89.79009579
_cell_angle_beta   60.20215069
_cell_angle_gamma   119.79693295
_symmetry_Int_Tables_number   1
_chemical_formula_structural   Zr3H24C44Br2O21
_chemical_formula_sum   'Zr6 H48 C88 Br4 O42'
_cell_volume   4985.99529505
_cell_formula_units_Z   2
loop_
 _symmetry_equiv_pos_site_id
 _symmetry_equiv_pos_as_xyz
  1  'x, y, z'
loop_
 _atom_site_type_symbol
 _atom_site_label
 _atom_site_symmetry_multiplicity
 _atom_site_fract_x
 _atom_site_fract_y
 _atom_site_fract_z
 _atom_site_occupancy
  Zr  Zr0  1  0.31503388  0.90768989  0.09232833  1.0
  Zr  Zr1  1  0.68442118  0.09233009  0.90767257  1.0
  Zr  Zr2  1  0.49860350  0.09189335  0.90819130  1.0
  Zr  Zr3  1  0.50082406  0.90815866  0.09190135  1.0
  Zr  Zr4  1  0.49976417  0.90821363  0.90821617  1.0
  Zr  Zr5  1  0.49978124  0.09182353  0.09183698  1.0
  H  H6  1  0.35366249  0.92705951  0.92781993  1.0
  H  H7  1  0.64574187  0.92776023  0.92702529  1.0
  H  H8  1  0.64393417  0.21705805  0.92774129  1.0
  H  H9  1  0.35555716  0.92772489  0.21706670  1.0
  H  H10  1  0.93193590  0.31830880  0.88953841  1.0
  H  H11  1  0.06779425  0.67873495  0.11319703  1.0
  H  H12  1  0.29071517  0.67832130  0.89011520  1.0
  H  H13  1  0.16227000  0.55258305  0.88940852  1.0
  H  H14  1  0.70913736  0.31914237  0.11234199  1.0
  H  H15  1  0.83759423  0.44833077  0.10951102  1.0
  H  H16  1  0.93184219  0.11313335  0.67893820  1.0
  H  H17  1  0.06772629  0.88953553  0.31846635  1.0
  H  H18  1  0.29061012  0.11228399  0.31925565  1.0
  H  H19  1  0.16220492  0.10938573  0.44856809  1.0
  H  H20  1  0.70903219  0.89001556  0.67843673  1.0
  H  H21  1  0.83754058  0.88929849  0.55279186  1.0
  H  H22  1  0.49715087  0.31781076  0.11314083  1.0
  H  H23  1  0.49725713  0.67964385  0.88954517  1.0
  H  H24  1  0.49860207  0.67816064  0.11214122  1.0
  H  H25  1  0.50165404  0.55238151  0.10941426  1.0
  H  H26  1  0.49633830  0.31959601  0.89029966  1.0
  H  H27  1  0.50072671  0.44904216  0.88932921  1.0
  H  H28  1  0.50265666  0.88961070  0.67956695  1.0
  H  H29  1  0.50270262  0.11317185  0.31773689  1.0
  H  H30  1  0.50354617  0.89033519  0.31940838  1.0
  H  H31  1  0.49941203  0.88943576  0.44874070  1.0
  H  H32  1  0.50130897  0.11220141  0.67794568  1.0
  H  H33  1  0.49846181  0.10950865  0.55207705  1.0
  H  H34  1  0.93215593  0.11232034  0.89013265  1.0
  H  H35  1  0.70987006  0.88988244  0.11254305  1.0
  H  H36  1  0.06706422  0.89013651  0.11228756  1.0
  H  H37  1  0.28934232  0.11254246  0.88984276  1.0
  H  H38  1  0.70699691  0.31865405  0.67859083  1.0
  H  H39  1  0.29276831  0.67869673  0.31856583  1.0
  H  H40  1  0.06743649  0.67795086  0.31962856  1.0
  H  H41  1  0.94130073  0.55267376  0.44844944  1.0
  H  H42  1  0.93210074  0.31950766  0.67806828  1.0
  H  H43  1  0.05841477  0.44835946  0.55276715  1.0
  H  H44  1  0.07995987  0.41507987  0.83738868  1.0
  H  H45  1  0.91987666  0.58481924  0.16251222  1.0
  H  H46  1  0.07984724  0.16243279  0.58507735  1.0
  H  H47  1  0.91978648  0.83731196  0.41532671  1.0
  H  H48  1  0.50050265  0.41551073  0.16329922  1.0
  H  H49  1  0.49962069  0.58474573  0.83656166  1.0
  H  H50  1  0.50038114  0.83660800  0.58460915  1.0
  H  H51  1  0.49951335  0.16335683  0.41534145  1.0
  H  H52  1  0.75130430  0.41607549  0.58401547  1.0
  H  H53  1  0.24853953  0.58408397  0.41601162  1.0
  C  C54  1  0.26488414  0.76388286  0.00310787  1.0
  C  C55  1  0.73471577  0.00306292  0.76392619  1.0
  C  C56  1  0.73476009  0.23156583  0.00145024  1.0
  C  C57  1  0.26485429  0.00148630  0.23156025  1.0
  C  C58  1  0.26338929  0.00197506  0.00201105  1.0
  C  C59  1  0.26689587  0.76379502  0.23183232  1.0
  C  C60  1  0.73592788  0.00201904  0.00197091  1.0
  C  C61  1  0.73265353  0.23183454  0.76379953  1.0
  C  C62  1  0.50319984  0.00133841  0.76438293  1.0
  C  C63  1  0.49412004  0.23116773  0.00329895  1.0
  C  C64  1  0.50543660  0.00321751  0.23118144  1.0
  C  C65  1  0.49647331  0.76442246  0.00130486  1.0
  C  C66  1  0.81188147  0.30958348  0.00119882  1.0
  C  C67  1  0.18789728  0.68690733  0.00217158  1.0
  C  C68  1  0.91156982  0.34737695  0.93829888  1.0
  C  C69  1  0.98549146  0.42100088  0.93603562  1.0
  C  C70  1  0.08818051  0.65027312  0.06384878  1.0
  C  C71  1  0.01427308  0.57867709  0.06405057  1.0
  C  C72  1  0.21316224  0.65031912  0.93909620  1.0
  C  C73  1  0.13980936  0.57906235  0.93926057  1.0
  C  C74  1  0.78667168  0.34759122  0.06286488  1.0
  C  C75  1  0.86002648  0.42081706  0.06068046  1.0
  C  C76  1  0.96251929  0.46146820  0.99843637  1.0
  C  C77  1  0.03729170  0.53890752  0.00095506  1.0
  C  C78  1  0.81177167  0.00209166  0.68705796  1.0
  C  C79  1  0.18780585  0.00119192  0.30968686  1.0
  C  C80  1  0.91147727  0.06375756  0.65049469  1.0
  C  C81  1  0.98542688  0.06394925  0.57894352  1.0
  C  C82  1  0.08811176  0.93827982  0.34754287  1.0
  C  C83  1  0.01422420  0.93595567  0.42124592  1.0
  C  C84  1  0.21307165  0.06280988  0.34773045  1.0
  C  C85  1  0.13974921  0.06058543  0.42102907  1.0
  C  C86  1  0.78657426  0.93899536  0.65048351  1.0
  C  C87  1  0.85996196  0.93915369  0.57927627  1.0
  C  C88  1  0.96246655  0.00086490  0.53914994  1.0
  C  C89  1  0.03724300  0.99835120  0.46170946  1.0
  C  C90  1  0.49587694  0.30947153  0.00223276  1.0
  C  C91  1  0.49715901  0.68732651  0.00114471  1.0
  C  C92  1  0.49762238  0.34714365  0.06382740  1.0
  C  C93  1  0.49995087  0.42093359  0.06404303  1.0
  C  C94  1  0.49801179  0.65093032  0.93825436  1.0
  C  C95  1  0.49995498  0.57924897  0.93593185  1.0
  C  C96  1  0.49867527  0.65035385  0.06277849  1.0
  C  C97  1  0.50046991  0.57903777  0.06060640  1.0
  C  C98  1  0.49727827  0.34789683  0.93915939  1.0
  C  C99  1  0.49975088  0.42131619  0.93921313  1.0
  C  C100  1  0.50056548  0.46170230  0.00087526  1.0
  C  C101  1  0.50073454  0.53917701  0.99841196  1.0
  C  C102  1  0.50268850  0.00119265  0.68720120  1.0
  C  C103  1  0.50390769  0.00222548  0.30937552  1.0
  C  C104  1  0.50191875  0.93831371  0.65081130  1.0
  C  C105  1  0.50008719  0.93600233  0.57907079  1.0
  C  C106  1  0.50225951  0.06384964  0.34702736  1.0
  C  C107  1  0.50009697  0.06411454  0.42073975  1.0
  C  C108  1  0.50263088  0.93919446  0.34772171  1.0
  C  C109  1  0.50033103  0.93930268  0.42106140  1.0
  C  C110  1  0.50127167  0.06284850  0.65013982  1.0
  C  C111  1  0.49959505  0.06068900  0.57877647  1.0
  C  C112  1  0.49934664  0.99848150  0.53894570  1.0
  C  C113  1  0.49952677  0.00095261  0.46146649  1.0
  C  C114  1  0.91372104  0.06383232  0.93805648  1.0
  C  C115  1  0.98859577  0.06453362  0.93587370  1.0
  C  C116  1  0.09200593  0.12824343  0.87146543  1.0
  C  C117  1  0.78780200  0.93787315  0.06400300  1.0
  C  C118  1  0.85992081  0.93579400  0.06460676  1.0
  C  C119  1  0.83514862  0.87131147  0.12840117  1.0
  C  C120  1  0.08555452  0.93808190  0.06377820  1.0
  C  C121  1  0.01065349  0.93589053  0.06449548  1.0
  C  C122  1  0.90726841  0.87149132  0.12823217  1.0
  C  C123  1  0.21142645  0.06397750  0.93784822  1.0
  C  C124  1  0.13929042  0.06458931  0.93578788  1.0
  C  C125  1  0.16411844  0.12840352  0.87128750  1.0
  C  C126  1  0.81449875  0.00135496  0.00151759  1.0
  C  C127  1  0.96231164  0.99996800  0.00003227  1.0
  C  C128  1  0.18480081  0.00152391  0.00131174  1.0
  C  C129  1  0.03689179  0.00004318  0.99995205  1.0
  C  C130  1  0.81047845  0.30976196  0.68689840  1.0
  C  C131  1  0.18917070  0.68690035  0.30976630  1.0
  C  C132  1  0.78515059  0.34763054  0.65018466  1.0
  C  C133  1  0.85658316  0.42120676  0.57869376  1.0
  C  C134  1  0.21459903  0.65025914  0.34759131  1.0
  C  C135  1  0.14324159  0.57875485  0.42116639  1.0
  C  C136  1  0.08895567  0.65014042  0.34791067  1.0
  C  C137  1  0.01797633  0.57907616  0.42099668  1.0
  C  C138  1  0.91067720  0.34784281  0.65019910  1.0
  C  C139  1  0.98175459  0.42094153  0.57912782  1.0
  C  C140  1  0.95992732  0.46163976  0.53896451  1.0
  C  C141  1  0.03987412  0.53896091  0.46164555  1.0
  Br  Br142  1  0.29975814  0.21302978  0.78612148  1.0
  Br  Br143  1  0.12624009  0.21307650  0.78608159  1.0
  Br  Br144  1  0.87308960  0.78615045  0.21306933  1.0
  Br  Br145  1  0.69952953  0.78613914  0.21310269  1.0
  O  O146  1  0.23563079  0.79469040  0.06191410  1.0
  O  O147  1  0.76391619  0.06189784  0.79472416  1.0
  O  O148  1  0.76384801  0.20157835  0.94175178  1.0
  O  O149  1  0.23570594  0.94185945  0.20151560  1.0
  O  O150  1  0.35285114  0.06070303  0.94246750  1.0
  O  O151  1  0.35704751  0.79480212  0.20186332  1.0
  O  O152  1  0.64649537  0.94244695  0.06069756  1.0
  O  O153  1  0.64252185  0.20190606  0.79477463  1.0
  O  O154  1  0.50227900  0.94153711  0.79556246  1.0
  O  O155  1  0.49560723  0.20123021  0.06191581  1.0
  O  O156  1  0.50391986  0.06183867  0.20128106  1.0
  O  O157  1  0.49734471  0.79554893  0.94150689  1.0
  O  O158  1  0.49290472  0.20018577  0.94467199  1.0
  O  O159  1  0.50652494  0.94454602  0.20023409  1.0
  O  O160  1  0.49679758  0.79494722  0.06037050  1.0
  O  O161  1  0.50275811  0.06037034  0.79492527  1.0
  O  O162  1  0.23453834  0.94291115  0.06123913  1.0
  O  O163  1  0.76172648  0.20120561  0.79420602  1.0
  O  O164  1  0.76479651  0.06125641  0.94291992  1.0
  O  O165  1  0.23777196  0.79418316  0.20125249  1.0
  O  O166  1  0.35476687  0.06062401  0.20086600  1.0
  O  O167  1  0.35485023  0.79459052  0.94406859  1.0
  O  O168  1  0.64476234  0.94405543  0.79455545  1.0
  O  O169  1  0.64485332  0.20090517  0.06060165  1.0
  O  O170  1  0.39643660  0.94812975  0.15531221  1.0
  O  O171  1  0.60303838  0.15530162  0.94814172  1.0
  O  O172  1  0.60461086  0.94871609  0.94809568  1.0
  O  O173  1  0.39484900  0.94811827  0.94872357  1.0
  O  O174  1  0.57596032  0.03841369  0.88548003  1.0
  O  O175  1  0.42349836  0.88547412  0.03841697  1.0
  O  O176  1  0.57719662  0.03832761  0.03791137  1.0
  O  O177  1  0.42230876  0.03787737  0.03833109  1.0
  O  O178  1  0.08172307  0.45307272  0.87104260  1.0
  O  O179  1  0.91802895  0.54791070  0.12772726  1.0
  O  O180  1  0.08166571  0.12760706  0.54821030  1.0
  O  O181  1  0.91800057  0.87091544  0.45336172  1.0
  O  O182  1  0.50153780  0.45296380  0.12781472  1.0
  O  O183  1  0.50111316  0.54856729  0.87080269  1.0
  O  O184  1  0.49897334  0.87088652  0.54838084  1.0
  O  O185  1  0.49859019  0.12792397  0.45273559  1.0
  O  O186  1  0.82320354  0.45340346  0.54784519  1.0
  O  O187  1  0.17663821  0.54791303  0.45334472  1.0
