# generated using pymatgen
data_ZnH18C30NO4
_symmetry_space_group_name_H-M   'P 1'
_cell_length_a   15.69183598
_cell_length_b   15.80113576
_cell_length_c   15.80112660
_cell_angle_alpha   118.40833705
_cell_angle_beta   92.28659680
_cell_angle_gamma   92.28665460
_symmetry_Int_Tables_number   1
_chemical_formula_structural   ZnH18C30NO4
_chemical_formula_sum   'Zn4 H72 C120 N4 O16'
_cell_volume   3435.59827188
_cell_formula_units_Z   4
loop_
 _symmetry_equiv_pos_site_id
 _symmetry_equiv_pos_as_xyz
  1  'x, y, z'
loop_
 _atom_site_type_symbol
 _atom_site_label
 _atom_site_symmetry_multiplicity
 _atom_site_fract_x
 _atom_site_fract_y
 _atom_site_fract_z
 _atom_site_occupancy
  Zn  Zn0  1  0.93330353  0.06124375  0.05134300  1.0
  Zn  Zn1  1  0.56669589  0.94865775  0.93875613  1.0
  Zn  Zn2  1  0.06669593  0.93875608  0.94865696  1.0
  Zn  Zn3  1  0.43330425  0.05134280  0.06124355  1.0
  H  H4  1  0.93464447  0.19487671  0.25839377  1.0
  H  H5  1  0.56535439  0.74160584  0.80512308  1.0
  H  H6  1  0.06535498  0.80512312  0.74160619  1.0
  H  H7  1  0.43464507  0.25839399  0.19487687  1.0
  H  H8  1  0.83752188  0.30879440  0.37589454  1.0
  H  H9  1  0.66247784  0.62410596  0.69120614  1.0
  H  H10  1  0.16247758  0.69120543  0.62410542  1.0
  H  H11  1  0.33752225  0.37589387  0.30879384  1.0
  H  H12  1  0.66061287  0.24520122  0.13299694  1.0
  H  H13  1  0.83938669  0.86700308  0.75480046  1.0
  H  H14  1  0.33938667  0.75480005  0.86700306  1.0
  H  H15  1  0.16061336  0.13299603  0.24519918  1.0
  H  H16  1  0.76360348  0.13219935  0.02634120  1.0
  H  H17  1  0.73639621  0.97365941  0.86780226  1.0
  H  H18  1  0.23639606  0.86780192  0.97365944  1.0
  H  H19  1  0.26360452  0.02634042  0.13219711  1.0
  H  H20  1  0.67630976  0.38124362  0.52492288  1.0
  H  H21  1  0.82368988  0.47507725  0.61875693  1.0
  H  H22  1  0.32368906  0.61875621  0.47507704  1.0
  H  H23  1  0.17631017  0.52492186  0.38124270  1.0
  H  H24  1  0.67730499  0.40988897  0.69374497  1.0
  H  H25  1  0.82269439  0.30625563  0.59011134  1.0
  H  H26  1  0.32269447  0.59011086  0.30625498  1.0
  H  H27  1  0.17730570  0.69374420  0.40988800  1.0
  H  H28  1  0.56645320  0.50508910  0.80100670  1.0
  H  H29  1  0.93354633  0.19899439  0.49491173  1.0
  H  H30  1  0.43354694  0.49491145  0.19899362  1.0
  H  H31  1  0.06645312  0.80100544  0.50508823  1.0
  H  H32  1  0.45306912  0.57107554  0.73964695  1.0
  H  H33  1  0.04692968  0.26035280  0.42892388  1.0
  H  H34  1  0.54693034  0.42892429  0.26035364  1.0
  H  H35  1  0.95306973  0.73964631  0.57107573  1.0
  H  H36  1  0.73379925  0.84100965  0.01989351  1.0
  H  H37  1  0.76620112  0.98010672  0.15898957  1.0
  H  H38  1  0.26620084  0.15899018  0.98010647  1.0
  H  H39  1  0.23379961  0.01989311  0.84100980  1.0
  H  H40  1  0.65876916  0.69409651  0.00657700  1.0
  H  H41  1  0.84123007  0.99342256  0.30590278  1.0
  H  H42  1  0.34123030  0.30590332  0.99342295  1.0
  H  H43  1  0.15876934  0.00657655  0.69409683  1.0
  H  H44  1  0.85251578  0.52231551  0.82707623  1.0
  H  H45  1  0.64748422  0.17292346  0.47768465  1.0
  H  H46  1  0.14748432  0.47768432  0.17292311  1.0
  H  H47  1  0.35251523  0.82707637  0.52231467  1.0
  H  H48  1  0.92921850  0.67207128  0.84554733  1.0
  H  H49  1  0.57078204  0.15445348  0.32792924  1.0
  H  H50  1  0.07078164  0.32792928  0.15445363  1.0
  H  H51  1  0.42921805  0.84554635  0.67207010  1.0
  H  H52  1  0.74664701  0.44407425  0.86480527  1.0
  H  H53  1  0.75335288  0.13519324  0.55592487  1.0
  H  H54  1  0.25335244  0.55592558  0.13519405  1.0
  H  H55  1  0.24664849  0.86480659  0.44407452  1.0
  H  H56  1  0.63153312  0.56592179  0.02668391  1.0
  H  H57  1  0.86846695  0.97331489  0.43407736  1.0
  H  H58  1  0.36846634  0.43407803  0.97331478  1.0
  H  H59  1  0.13153374  0.02668422  0.56592167  1.0
  H  H60  1  0.53459608  0.47790402  0.07180411  1.0
  H  H61  1  0.96540354  0.92819653  0.52209580  1.0
  H  H62  1  0.46540283  0.52209726  0.92819777  1.0
  H  H63  1  0.03459715  0.07180258  0.47790259  1.0
  H  H64  1  0.48610083  0.32676970  0.07475573  1.0
  H  H65  1  0.01389958  0.92524424  0.67323025  1.0
  H  H66  1  0.51389871  0.67323158  0.92524554  1.0
  H  H67  1  0.98610102  0.07475343  0.32676809  1.0
  H  H68  1  0.67998321  0.17573176  0.88634761  1.0
  H  H69  1  0.82001718  0.11365195  0.82426784  1.0
  H  H70  1  0.32001565  0.82426880  0.11365266  1.0
  H  H71  1  0.17998479  0.88634715  0.17573061  1.0
  H  H72  1  0.72958614  0.32428453  0.88222732  1.0
  H  H73  1  0.77041354  0.11777258  0.67571492  1.0
  H  H74  1  0.27041340  0.67571675  0.11777395  1.0
  H  H75  1  0.22958715  0.88222653  0.32428410  1.0
  C  C76  1  0.87341791  0.20902673  0.23433312  1.0
  C  C77  1  0.62658081  0.76566764  0.79097367  1.0
  C  C78  1  0.12658154  0.79097311  0.76566746  1.0
  C  C79  1  0.37341864  0.23433219  0.20902628  1.0
  C  C80  1  0.81964838  0.27213416  0.29897125  1.0
  C  C81  1  0.68035030  0.70102877  0.72786630  1.0
  C  C82  1  0.18035107  0.72786567  0.70102871  1.0
  C  C83  1  0.31964916  0.29897106  0.27213366  1.0
  C  C84  1  0.74066946  0.28620662  0.26352410  1.0
  C  C85  1  0.75933060  0.73647572  0.71379509  1.0
  C  C86  1  0.25932940  0.71379393  0.73647617  1.0
  C  C87  1  0.24066950  0.26352412  0.28620615  1.0
  C  C88  1  0.72095833  0.23655787  0.16322316  1.0
  C  C89  1  0.77904115  0.83677809  0.76344285  1.0
  C  C90  1  0.27904176  0.76344197  0.83677745  1.0
  C  C91  1  0.22095894  0.16322174  0.23655713  1.0
  C  C92  1  0.77812978  0.17388279  0.10389002  1.0
  C  C93  1  0.72186951  0.89611015  0.82611676  1.0
  C  C94  1  0.22186963  0.82611632  0.89610959  1.0
  C  C95  1  0.27813118  0.10388896  0.17388290  1.0
  C  C96  1  0.68133297  0.34546030  0.32619628  1.0
  C  C97  1  0.81866524  0.67380868  0.65454928  1.0
  C  C98  1  0.31866793  0.65454242  0.67380510  1.0
  C  C99  1  0.18133358  0.32619116  0.34545318  1.0
  C  C100  1  0.62705867  0.39295651  0.37871276  1.0
  C  C101  1  0.87294737  0.62128428  0.60704699  1.0
  C  C102  1  0.37294232  0.60704765  0.62128804  1.0
  C  C103  1  0.12705336  0.37871555  0.39295238  1.0
  C  C104  1  0.56402039  0.44630970  0.43896668  1.0
  C  C105  1  0.93597918  0.56103608  0.55369563  1.0
  C  C106  1  0.43597988  0.55369302  0.56103531  1.0
  C  C107  1  0.06401964  0.43896376  0.44630494  1.0
  C  C108  1  0.56470872  0.46122305  0.53533899  1.0
  C  C109  1  0.93529138  0.46466160  0.53877820  1.0
  C  C110  1  0.43529082  0.53877822  0.46466101  1.0
  C  C111  1  0.06470808  0.53533823  0.46122112  1.0
  C  C112  1  0.62795548  0.42306085  0.57239064  1.0
  C  C113  1  0.87204485  0.42760910  0.57694031  1.0
  C  C114  1  0.37204402  0.57693970  0.42760902  1.0
  C  C115  1  0.12795525  0.57239073  0.42305904  1.0
  C  C116  1  0.62811512  0.43869671  0.66581857  1.0
  C  C117  1  0.87188427  0.33418053  0.56130338  1.0
  C  C118  1  0.37188433  0.56130312  0.33418075  1.0
  C  C119  1  0.12811515  0.66581858  0.43869623  1.0
  C  C120  1  0.56472342  0.49281284  0.72696473  1.0
  C  C121  1  0.93527681  0.27303504  0.50718692  1.0
  C  C122  1  0.43527676  0.50718843  0.27303530  1.0
  C  C123  1  0.06472324  0.72696406  0.49281145  1.0
  C  C124  1  0.50221446  0.52982258  0.69313803  1.0
  C  C125  1  0.99778490  0.30686191  0.47017679  1.0
  C  C126  1  0.49778564  0.47017725  0.30686195  1.0
  C  C127  1  0.00221456  0.69313792  0.52982316  1.0
  C  C128  1  0.50020531  0.51554377  0.59701945  1.0
  C  C129  1  0.99979439  0.40298038  0.48445531  1.0
  C  C130  1  0.49979424  0.48445750  0.40298056  1.0
  C  C131  1  0.00020575  0.59702017  0.51554438  1.0
  C  C132  1  0.88984375  0.85500477  0.95485763  1.0
  C  C133  1  0.61015739  0.04514292  0.14499534  1.0
  C  C134  1  0.11015634  0.14499506  0.04514235  1.0
  C  C135  1  0.38984398  0.95485691  0.85500406  1.0
  C  C136  1  0.83801938  0.76568082  0.93656319  1.0
  C  C137  1  0.66198132  0.06343702  0.23431792  1.0
  C  C138  1  0.16198131  0.23431829  0.06343710  1.0
  C  C139  1  0.33801877  0.93656281  0.76568206  1.0
  C  C140  1  0.76026911  0.77103936  0.97941700  1.0
  C  C141  1  0.73973107  0.02058355  0.22896062  1.0
  C  C142  1  0.23973034  0.22896047  0.02058296  1.0
  C  C143  1  0.26026966  0.97941628  0.77103938  1.0
  C  C144  1  0.71815731  0.68812398  0.97109985  1.0
  C  C145  1  0.78184283  0.02890054  0.31187592  1.0
  C  C146  1  0.28184278  0.31187585  0.02890012  1.0
  C  C147  1  0.21815726  0.97109929  0.68812406  1.0
  C  C148  1  0.75208734  0.59732746  0.91866221  1.0
  C  C149  1  0.74791242  0.08133727  0.40267184  1.0
  C  C150  1  0.24791335  0.40267165  0.08133745  1.0
  C  C151  1  0.25208699  0.91866184  0.59732777  1.0
  C  C152  1  0.82662633  0.59240346  0.86987488  1.0
  C  C153  1  0.67337400  0.13012617  0.40759590  1.0
  C  C154  1  0.17337372  0.40759565  0.13012602  1.0
  C  C155  1  0.32662609  0.86987366  0.59240281  1.0
  C  C156  1  0.86969162  0.67534459  0.87976736  1.0
  C  C157  1  0.63030895  0.12023477  0.32465570  1.0
  C  C158  1  0.13030911  0.32465525  0.12023391  1.0
  C  C159  1  0.36969119  0.87976578  0.67534399  1.0
  C  C160  1  0.71788723  0.50936152  0.91631873  1.0
  C  C161  1  0.78211381  0.08368024  0.49063826  1.0
  C  C162  1  0.28211414  0.49063831  0.08368067  1.0
  C  C163  1  0.21788628  0.91631959  0.50936172  1.0
  C  C164  1  0.66038109  0.50132522  0.97413267  1.0
  C  C165  1  0.83961758  0.02586714  0.49867455  1.0
  C  C166  1  0.33961777  0.49867533  0.02586760  1.0
  C  C167  1  0.16038247  0.97413197  0.50132445  1.0
  C  C168  1  0.63410422  0.41218703  0.97476280  1.0
  C  C169  1  0.86589548  0.02523555  0.58781149  1.0
  C  C170  1  0.36589527  0.58781353  0.02523750  1.0
  C  C171  1  0.13410453  0.97476283  0.41218654  1.0
  C  C172  1  0.56612704  0.41129116  0.03022416  1.0
  C  C173  1  0.93387278  0.96977564  0.58870798  1.0
  C  C174  1  0.43387182  0.58870940  0.96977738  1.0
  C  C175  1  0.06612786  0.03022274  0.41129071  1.0
  C  C176  1  0.53897461  0.32753646  0.03241331  1.0
  C  C177  1  0.96102527  0.96758700  0.67246334  1.0
  C  C178  1  0.46102493  0.67246482  0.96758923  1.0
  C  C179  1  0.03897470  0.03241067  0.32753498  1.0
  C  C180  1  0.57949497  0.24190785  0.98001048  1.0
  C  C181  1  0.92050373  0.01999127  0.75809426  1.0
  C  C182  1  0.42050457  0.75809343  0.01999206  1.0
  C  C183  1  0.07949568  0.98000784  0.24190598  1.0
  C  C184  1  0.64810000  0.24227139  0.92584166  1.0
  C  C185  1  0.85190015  0.07415804  0.75772900  1.0
  C  C186  1  0.35189946  0.75772844  0.07415829  1.0
  C  C187  1  0.14810117  0.92584107  0.24227068  1.0
  C  C188  1  0.67494231  0.32562535  0.92326745  1.0
  C  C189  1  0.82505816  0.07673233  0.67437498  1.0
  C  C190  1  0.32505723  0.67437592  0.07673319  1.0
  C  C191  1  0.17494252  0.92326678  0.32562404  1.0
  C  C192  1  0.55130975  0.15219752  0.98401494  1.0
  C  C193  1  0.94869079  0.01598472  0.84780197  1.0
  C  C194  1  0.44869098  0.84780232  0.01598570  1.0
  C  C195  1  0.05130986  0.98401366  0.15219671  1.0
  N  N196  1  0.85299309  0.15992659  0.13855515  1.0
  N  N197  1  0.64700798  0.86144555  0.84007371  1.0
  N  N198  1  0.14700764  0.84007324  0.86144549  1.0
  N  N199  1  0.35299215  0.13855500  0.15992661  1.0
  O  O200  1  0.85837539  0.93581828  0.00538144  1.0
  O  O201  1  0.64162425  0.99461876  0.06418250  1.0
  O  O202  1  0.14162411  0.06418228  0.99461886  1.0
  O  O203  1  0.35837585  0.00538107  0.93581811  1.0
  O  O204  1  0.96293996  0.84306463  0.91993824  1.0
  O  O205  1  0.53706097  0.08006172  0.15693541  1.0
  O  O206  1  0.03706013  0.15693520  0.08006111  1.0
  O  O207  1  0.46293980  0.91993883  0.84306430  1.0
  O  O208  1  0.48691467  0.15735141  0.03221244  1.0
  O  O209  1  0.01308521  0.96778714  0.84264811  1.0
  O  O210  1  0.51308478  0.84264842  0.96778751  1.0
  O  O211  1  0.98691548  0.03221197  0.15735092  1.0
  O  O212  1  0.59467482  0.07860200  0.94018604  1.0
  O  O213  1  0.90532518  0.05981358  0.92139784  1.0
  O  O214  1  0.40532531  0.92139855  0.05981428  1.0
  O  O215  1  0.09467487  0.94018553  0.07860116  1.0
