# generated using pymatgen
data_Zn4H4C24S5(O4F)4
_symmetry_space_group_name_H-M   'P 1'
_cell_length_a   19.64135445
_cell_length_b   19.66921598
_cell_length_c   33.27218823
_cell_angle_alpha   79.35178547
_cell_angle_beta   79.45234880
_cell_angle_gamma   64.07524718
_symmetry_Int_Tables_number   1
_chemical_formula_structural   Zn4H4C24S5(O4F)4
_chemical_formula_sum   'Zn16 H16 C96 S20 O64 F16'
_cell_volume   11285.15201778
_cell_formula_units_Z   4
loop_
 _symmetry_equiv_pos_site_id
 _symmetry_equiv_pos_as_xyz
  1  'x, y, z'
loop_
 _atom_site_type_symbol
 _atom_site_label
 _atom_site_symmetry_multiplicity
 _atom_site_fract_x
 _atom_site_fract_y
 _atom_site_fract_z
 _atom_site_occupancy
  Zn  Zn0  1  0.05527971  0.39859838  0.47951547  1.0
  Zn  Zn1  1  0.98620846  0.48057865  0.56063075  1.0
  Zn  Zn2  1  0.05668659  0.56223194  0.48133444  1.0
  Zn  Zn3  1  0.90212422  0.55788777  0.47868924  1.0
  Zn  Zn4  1  0.69125459  0.35176767  0.27238153  1.0
  Zn  Zn5  1  0.68793575  0.19254897  0.26676862  1.0
  Zn  Zn6  1  0.76964302  0.26782943  0.19055335  1.0
  Zn  Zn7  1  0.84791292  0.19850370  0.27200728  1.0
  Zn  Zn8  1  0.26894381  0.76426310  0.68859800  1.0
  Zn  Zn9  1  0.35091014  0.69528806  0.77007314  1.0
  Zn  Zn10  1  0.19223026  0.84580900  0.77106853  1.0
  Zn  Zn11  1  0.18987561  0.68828462  0.76600071  1.0
  Zn  Zn12  1  0.55895173  0.06186487  0.98302296  1.0
  Zn  Zn13  1  0.40099690  0.05543537  0.97768470  1.0
  Zn  Zn14  1  0.55428572  0.90127307  0.97814631  1.0
  Zn  Zn15  1  0.48367899  0.98434231  0.06048363  1.0
  H  H16  1  0.95266771  0.25414812  0.35082811  1.0
  H  H17  1  0.74253270  0.45653752  0.35303310  1.0
  H  H18  1  0.99954262  0.30502012  0.39835104  1.0
  H  H19  1  0.09327480  0.59952660  0.69813928  1.0
  H  H20  1  0.20520557  0.69772094  0.59678993  1.0
  H  H21  1  0.04543763  0.55492012  0.64795602  1.0
  H  H22  1  0.55490202  0.04906287  0.15291838  1.0
  H  H23  1  0.64982286  0.15744820  0.04818640  1.0
  H  H24  1  0.60648890  0.09697016  0.19952143  1.0
  H  H25  1  0.49770537  0.79434416  0.89900358  1.0
  H  H26  1  0.29638609  0.00545550  0.89715034  1.0
  H  H27  1  0.44540717  0.74909678  0.85140861  1.0
  H  H28  1  0.84575032  0.57527996  0.39939473  1.0
  H  H29  1  0.06654264  0.68827238  0.51308889  1.0
  H  H30  1  0.79698421  0.17771121  0.12262109  1.0
  H  H31  1  0.17637343  0.90428379  0.84997762  1.0
  C  C32  1  0.06140964  0.31419221  0.56257786  1.0
  C  C33  1  0.06338312  0.57460452  0.56761576  1.0
  C  C34  1  0.18111717  0.43962979  0.43912570  1.0
  C  C35  1  0.93612975  0.68687433  0.43779648  1.0
  C  C36  1  0.93398108  0.43524444  0.42863940  1.0
  C  C37  1  0.81996741  0.56042200  0.56146160  1.0
  C  C38  1  0.56499148  0.31133847  0.31292667  1.0
  C  C39  1  0.68785770  0.17646678  0.18121493  1.0
  C  C40  1  0.68628718  0.43320985  0.18814535  1.0
  C  C41  1  0.93531207  0.19145260  0.18935887  1.0
  C  C42  1  0.81689113  0.32333037  0.31976104  1.0
  C  C43  1  0.81145951  0.06795790  0.30911534  1.0
  C  C44  1  0.43581219  0.68596990  0.68713788  1.0
  C  C45  1  0.31501452  0.81641547  0.82082620  1.0
  C  C46  1  0.19252494  0.93127335  0.68953064  1.0
  C  C47  1  0.06388726  0.80980814  0.81006275  1.0
  C  C48  1  0.18064562  0.67920625  0.67994347  1.0
  C  C49  1  0.31264397  0.56868282  0.81216295  1.0
  C  C50  1  0.43709864  0.18460374  0.93830435  1.0
  C  C51  1  0.43010628  0.93031275  0.93004462  1.0
  C  C52  1  0.68281514  0.93949476  0.93899464  1.0
  C  C53  1  0.56126940  0.81686758  0.06153825  1.0
  C  C54  1  0.56965198  0.07091060  0.06935484  1.0
  C  C55  1  0.31671572  0.06080209  0.06108643  1.0
  C  C56  1  0.89875339  0.40937263  0.40173287  1.0
  C  C57  1  0.84529059  0.35260781  0.34859099  1.0
  C  C58  1  0.82526743  0.45186533  0.38892906  1.0
  C  C59  1  0.91752404  0.30948415  0.36160525  1.0
  C  C60  1  0.79923365  0.42344236  0.36259285  1.0
  C  C61  1  0.94345701  0.33785604  0.38794813  1.0
  C  C62  1  0.09668769  0.60237799  0.59455172  1.0
  C  C63  1  0.15136276  0.65199871  0.65054136  1.0
  C  C64  1  0.14253949  0.64280807  0.58022115  1.0
  C  C65  1  0.10664278  0.61144753  0.66508177  1.0
  C  C66  1  0.16945537  0.66716178  0.60811131  1.0
  C  C67  1  0.08002332  0.58686269  0.63720069  1.0
  C  C68  1  0.30177747  0.45400849  0.40142406  1.0
  C  C69  1  0.44425149  0.29730444  0.35080922  1.0
  C  C70  1  0.25577851  0.41503764  0.41447481  1.0
  C  C71  1  0.49023133  0.33618204  0.33762118  1.0
  C  C72  1  0.37535506  0.33975234  0.37396714  1.0
  C  C73  1  0.37057157  0.41160989  0.37805990  1.0
  C  C74  1  0.72792005  0.57631202  0.62840430  1.0
  C  C75  1  0.52787447  0.67026182  0.61998074  1.0
  C  C76  1  0.74517278  0.58457376  0.58590607  1.0
  C  C77  1  0.51056179  0.66145583  0.66247094  1.0
  C  C78  1  0.60701777  0.63897704  0.60716698  1.0
  C  C79  1  0.64889528  0.60691273  0.64116149  1.0
  C  C80  1  0.07750493  0.22292703  0.63002918  1.0
  C  C81  1  0.17537253  0.02302286  0.62255182  1.0
  C  C82  1  0.08643165  0.23979493  0.58749801  1.0
  C  C83  1  0.16720348  0.00617732  0.66508481  1.0
  C  C84  1  0.14310900  0.10188228  0.60948889  1.0
  C  C85  1  0.10995290  0.14403144  0.64323345  1.0
  C  C86  1  0.84355052  0.80367258  0.39591942  1.0
  C  C87  1  0.90362420  0.95149651  0.35152017  1.0
  C  C88  1  0.91161256  0.76118998  0.41287164  1.0
  C  C89  1  0.83595207  0.99359209  0.33415101  1.0
  C  C90  1  0.90722605  0.88192264  0.37394183  1.0
  C  C91  1  0.84025334  0.87296997  0.37329143  1.0
  C  C92  1  0.65805994  0.15263892  0.15044616  1.0
  C  C93  1  0.59985451  0.09946770  0.09771463  1.0
  C  C94  1  0.66967269  0.16992675  0.10722064  1.0
  C  C95  1  0.58723013  0.08280306  0.14040462  1.0
  C  C96  1  0.64079978  0.14338236  0.08135796  1.0
  C  C97  1  0.61602956  0.10937667  0.16623656  1.0
  C  C98  1  0.67274062  0.52461197  0.12066277  1.0
  C  C99  1  0.57701599  0.72464510  0.12871460  1.0
  C  C100  1  0.66257846  0.50755659  0.16312939  1.0
  C  C101  1  0.58635632  0.74208943  0.08627185  1.0
  C  C102  1  0.60834160  0.64562945  0.14157769  1.0
  C  C103  1  0.64175453  0.60370136  0.10776680  1.0
  C  C104  1  0.08180308  0.12458441  0.17729497  1.0
  C  C105  1  0.17007702  0.12379829  0.07321455  1.0
  C  C106  1  0.00970338  0.16460205  0.16453976  1.0
  C  C107  1  0.24223104  0.08490828  0.08600876  1.0
  C  C108  1  0.11109370  0.13846537  0.10625685  1.0
  C  C109  1  0.14070882  0.10931155  0.14426698  1.0
  C  C110  1  0.34150583  0.85046112  0.84813139  1.0
  C  C111  1  0.40000626  0.90223909  0.90139339  1.0
  C  C112  1  0.29969238  0.92369804  0.86116121  1.0
  C  C113  1  0.44227579  0.83012102  0.88830579  1.0
  C  C114  1  0.32896400  0.94888220  0.88750393  1.0
  C  C115  1  0.41310270  0.80502424  0.86191667  1.0
  C  C116  1  0.40559434  0.45032794  0.85341978  1.0
  C  C117  1  0.34469488  0.30255186  0.89661262  1.0
  C  C118  1  0.33744965  0.49386844  0.83675805  1.0
  C  C119  1  0.41275496  0.25918459  0.91340482  1.0
  C  C120  1  0.34163775  0.37220633  0.87452520  1.0
  C  C121  1  0.40905721  0.38031465  0.87516577  1.0
  C  C122  1  0.94413365  0.79555355  0.84955008  1.0
  C  C123  1  0.80427972  0.95215284  0.90112043  1.0
  C  C124  1  0.99013785  0.83422883  0.83565960  1.0
  C  C125  1  0.75775909  0.91392277  0.91448300  1.0
  C  C126  1  0.87247508  0.90946792  0.87746589  1.0
  C  C127  1  0.87631590  0.83790958  0.87350316  1.0
  S  S128  1  0.29682957  0.32491613  0.39800290  1.0
  S  S129  1  0.44891044  0.42656756  0.35374882  1.0
  S  S130  1  0.66355256  0.63038409  0.56064478  1.0
  S  S131  1  0.59225671  0.61427619  0.68763120  1.0
  S  S132  1  0.13524816  0.15791213  0.56280198  1.0
  S  S133  1  0.11923746  0.08788166  0.68995966  1.0
  S  S134  1  0.97318840  0.80630529  0.40119473  1.0
  S  S135  1  0.77492067  0.94794273  0.34538590  1.0
  S  S136  1  0.61479241  0.58919327  0.18809264  1.0
  S  S137  1  0.63455999  0.66045722  0.06127964  1.0
  S  S138  1  0.01319965  0.18383137  0.11108733  1.0
  S  S139  1  0.23868685  0.06511747  0.13941195  1.0
  S  S140  1  0.27589704  0.44872300  0.84760980  1.0
  S  S141  1  0.47470036  0.30385219  0.90217084  1.0
  S  S142  1  0.95039423  0.92421659  0.85222051  1.0
  S  S143  1  0.79778964  0.82371730  0.89822858  1.0
  S  S144  1  0.75760072  0.54087780  0.40671310  1.0
  S  S145  1  0.17530462  0.66079616  0.52687478  1.0
  S  S146  1  0.71510429  0.23108774  0.08188296  1.0
  S  S147  1  0.21062294  0.99227292  0.84355129  1.0
  O  O148  1  0.00070684  0.49829900  0.50020649  1.0
  O  O149  1  0.08131262  0.31337618  0.52366656  1.0
  O  O150  1  0.04864768  0.51783629  0.58301790  1.0
  O  O151  1  0.15544381  0.50374307  0.45286730  1.0
  O  O152  1  0.02238660  0.37264102  0.58151710  1.0
  O  O153  1  0.14885061  0.39371559  0.44448441  1.0
  O  O154  1  0.04938251  0.60997319  0.53137029  1.0
  O  O155  1  0.00527902  0.65692061  0.44604774  1.0
  O  O156  1  0.91154329  0.50706052  0.42949220  1.0
  O  O157  1  0.88731751  0.65856573  0.44913861  1.0
  O  O158  1  0.98649369  0.38370942  0.44841103  1.0
  O  O159  1  0.87844087  0.53291766  0.58090863  1.0
  O  O160  1  0.81896721  0.56994399  0.52235540  1.0
  O  O161  1  0.74827089  0.25290196  0.25066127  1.0
  O  O162  1  0.59364012  0.36035249  0.30393263  1.0
  O  O163  1  0.65280078  0.18012398  0.21737910  1.0
  O  O164  1  0.71984620  0.37434559  0.16907846  1.0
  O  O165  1  0.59448403  0.24399265  0.30275873  1.0
  O  O166  1  0.67067136  0.43501981  0.22716447  1.0
  O  O167  1  0.74759720  0.18982280  0.17027798  1.0
  O  O168  1  0.87781218  0.22962009  0.16906571  1.0
  O  O169  1  0.86156331  0.25817637  0.30850641  1.0
  O  O170  1  0.93395989  0.17511818  0.22831303  1.0
  O  O171  1  0.75087643  0.36602354  0.30894438  1.0
  O  O172  1  0.74688995  0.09232908  0.29536076  1.0
  O  O173  1  0.85597633  0.10118929  0.30347406  1.0
  O  O174  1  0.25103205  0.74795626  0.74908863  1.0
  O  O175  1  0.37735809  0.72190233  0.66782106  1.0
  O  O176  1  0.36618200  0.76458878  0.80060561  1.0
  O  O177  1  0.17857187  0.93164348  0.72870496  1.0
  O  O178  1  0.43661240  0.66860906  0.72621854  1.0
  O  O179  1  0.22541801  0.87340905  0.66978542  1.0
  O  O180  1  0.24302981  0.83916171  0.81998653  1.0
  O  O181  1  0.09209848  0.85924713  0.80070132  1.0
  O  O182  1  0.16330790  0.66303838  0.71826317  1.0
  O  O183  1  0.09325018  0.74288317  0.79940384  1.0
  O  O184  1  0.22028610  0.71626941  0.66400425  1.0
  O  O185  1  0.35734827  0.60202447  0.80592679  1.0
  O  O186  1  0.24743571  0.59326963  0.79927104  1.0
  O  O187  1  0.49980902  0.00018946  0.99995168  1.0
  O  O188  1  0.50366824  0.15805520  0.94983949  1.0
  O  O189  1  0.38740351  0.99612045  0.94088427  1.0
  O  O190  1  0.65247664  0.89183978  0.94674055  1.0
  O  O191  1  0.39057337  0.15340228  0.94615692  1.0
  O  O192  1  0.65507404  0.00592882  0.95009751  1.0
  O  O193  1  0.49567985  0.88599712  0.94113458  1.0
  O  O194  1  0.57633660  0.81588379  0.02245076  1.0
  O  O195  1  0.53183249  0.03223857  0.08615381  1.0
  O  O196  1  0.52712990  0.87528434  0.08086754  1.0
  O  O197  1  0.58447019  0.08770106  0.03089886  1.0
  O  O198  1  0.31676015  0.07601127  0.02217523  1.0
  O  O199  1  0.37477603  0.02670170  0.08119793  1.0
  O  O200  1  0.79717123  0.59660435  0.38643929  1.0
  O  O201  1  0.68993691  0.56645148  0.38715321  1.0
  O  O202  1  0.75410183  0.53177117  0.45093169  1.0
  O  O203  1  0.09778122  0.71859867  0.50873902  1.0
  O  O204  1  0.21992523  0.70320032  0.52409970  1.0
  O  O205  1  0.20597254  0.58997739  0.50944978  1.0
  O  O206  1  0.80087335  0.18225857  0.09180626  1.0
  O  O207  1  0.71694945  0.23480892  0.03828957  1.0
  O  O208  1  0.68101711  0.29937856  0.10188327  1.0
  O  O209  1  0.15465781  0.95263254  0.86315713  1.0
  O  O210  1  0.18528108  0.05909718  0.86365646  1.0
  O  O211  1  0.21974190  0.99707834  0.79928028  1.0
  F  F212  1  0.28397526  0.52447845  0.40934159  1.0
  F  F213  1  0.46186824  0.22669464  0.34277482  1.0
  F  F214  1  0.77987055  0.54253727  0.65527369  1.0
  F  F215  1  0.47605383  0.70469362  0.59317548  1.0
  F  F216  1  0.04221325  0.27507694  0.65654834  1.0
  F  F217  1  0.21003464  0.97108016  0.59590674  1.0
  F  F218  1  0.78642551  0.78214790  0.39977852  1.0
  F  F219  1  0.96075187  0.97304947  0.34779149  1.0
  F  F220  1  0.70815459  0.47281055  0.09407977  1.0
  F  F221  1  0.54179952  0.77633001  0.15553364  1.0
  F  F222  1  0.09573177  0.10251286  0.21673823  1.0
  F  F223  1  0.15607044  0.14624258  0.03387024  1.0
  F  F224  1  0.46331461  0.47112131  0.84962346  1.0
  F  F225  1  0.28684439  0.28203675  0.90049751  1.0
  F  F226  1  0.96079385  0.72532592  0.84128512  1.0
  F  F227  1  0.78754686  0.02242923  0.90917935  1.0
