# generated using pymatgen
data_AlH6C10BrO5
_symmetry_space_group_name_H-M   'P 1'
_cell_length_a   6.68582388
_cell_length_b   17.30403226
_cell_length_c   19.56516266
_cell_angle_alpha   71.53417649
_cell_angle_beta   89.99871255
_cell_angle_gamma   89.99871347
_symmetry_Int_Tables_number   1
_chemical_formula_structural   AlH6C10BrO5
_chemical_formula_sum   'Al4 H24 C40 Br4 O20'
_cell_volume   2146.98439002
_cell_formula_units_Z   4
loop_
 _symmetry_equiv_pos_site_id
 _symmetry_equiv_pos_as_xyz
  1  'x, y, z'
loop_
 _atom_site_type_symbol
 _atom_site_label
 _atom_site_symmetry_multiplicity
 _atom_site_fract_x
 _atom_site_fract_y
 _atom_site_fract_z
 _atom_site_occupancy
  Al  Al0  1  0.99635986  0.50334259  0.50016147  1.0
  Al  Al1  1  0.00363882  0.00334094  0.00016346  1.0
  Al  Al2  1  0.49758068  0.50237007  0.50017678  1.0
  Al  Al3  1  0.50241657  0.00236442  0.00018213  1.0
  H  H4  1  0.14332380  0.37700535  0.19932594  1.0
  H  H5  1  0.85676587  0.87701133  0.69932963  1.0
  H  H6  1  0.12990958  0.46093291  0.28130595  1.0
  H  H7  1  0.87019800  0.96092445  0.78132256  1.0
  H  H8  1  0.35017410  0.17245260  0.37574451  1.0
  H  H9  1  0.64977488  0.67246213  0.87573280  1.0
  H  H10  1  0.55439588  0.09156848  0.17165606  1.0
  H  H11  1  0.44556232  0.59159930  0.67164600  1.0
  H  H12  1  0.95909341  0.17658594  0.10587104  1.0
  H  H13  1  0.04089364  0.67657552  0.60587082  1.0
  H  H14  1  0.96841235  0.25988584  0.18881676  1.0
  H  H15  1  0.03159856  0.75987891  0.68881174  1.0
  H  H16  1  0.94418225  0.30743104  0.69137892  1.0
  H  H17  1  0.05583600  0.80744814  0.19138189  1.0
  H  H18  1  0.40490529  0.30414608  0.69813972  1.0
  H  H19  1  0.59510076  0.80414097  0.19814433  1.0
  H  H20  1  0.94796170  0.19494157  0.80609388  1.0
  H  H21  1  0.05205019  0.69495890  0.30609795  1.0
  H  H22  1  0.40823610  0.20344853  0.79935563  1.0
  H  H23  1  0.59178617  0.70344295  0.29935006  1.0
  H  H24  1  0.74835195  0.40799648  0.48673986  1.0
  H  H25  1  0.25165147  0.90799013  0.98674635  1.0
  H  H26  1  0.24862816  0.60710075  0.45748487  1.0
  H  H27  1  0.75136300  0.10709424  0.95748409  1.0
  C  C28  1  0.74936267  0.61747557  0.38837371  1.0
  C  C29  1  0.25064277  0.11747217  0.88837550  1.0
  C  C30  1  0.74400593  0.58115967  0.58242950  1.0
  C  C31  1  0.25599157  0.08115463  0.08243048  1.0
  C  C32  1  0.24472473  0.39011576  0.61028580  1.0
  C  C33  1  0.75526965  0.89011572  0.11029045  1.0
  C  C34  1  0.24760018  0.41955626  0.42034167  1.0
  C  C35  1  0.75240230  0.91954673  0.92035741  1.0
  C  C36  1  0.18736227  0.35051125  0.25559917  1.0
  C  C37  1  0.81269552  0.85051381  0.75560208  1.0
  C  C38  1  0.18166518  0.39795689  0.30126698  1.0
  C  C39  1  0.81841064  0.89795445  0.80127581  1.0
  C  C40  1  0.24537029  0.36632632  0.37292906  1.0
  C  C41  1  0.75464007  0.86632421  0.87293345  1.0
  C  C42  1  0.30608854  0.28482566  0.39828413  1.0
  C  C43  1  0.69386544  0.78482904  0.89828079  1.0
  C  C44  1  0.30716840  0.23613801  0.35373483  1.0
  C  C45  1  0.69281243  0.73614330  0.85372934  1.0
  C  C46  1  0.25291462  0.26920852  0.28092522  1.0
  C  C47  1  0.74709725  0.76921621  0.78091991  1.0
  C  C48  1  0.42324403  0.17025963  0.22610381  1.0
  C  C49  1  0.57673417  0.67027926  0.72609301  1.0
  C  C50  1  0.42426105  0.12709616  0.17696587  1.0
  C  C51  1  0.57571105  0.62711716  0.67695614  1.0
  C  C52  1  0.25618287  0.12901621  0.13380612  1.0
  C  C53  1  0.74378740  0.62902929  0.63379701  1.0
  C  C54  1  0.09079548  0.17651488  0.13870899  1.0
  C  C55  1  0.90919395  0.67651489  0.63870541  1.0
  C  C56  1  0.09669607  0.22253072  0.18536085  1.0
  C  C57  1  0.90330542  0.72253131  0.68535407  1.0
  C  C58  1  0.26030503  0.21984161  0.23146918  1.0
  C  C59  1  0.73969367  0.71985451  0.73145904  1.0
  C  C60  1  0.08992695  0.28532282  0.71489885  1.0
  C  C61  1  0.91007321  0.78533420  0.21489868  1.0
  C  C62  1  0.25366894  0.32239376  0.67875165  1.0
  C  C63  1  0.74635667  0.82239380  0.17875958  1.0
  C  C64  1  0.09247104  0.21873668  0.78245286  1.0
  C  C65  1  0.90756183  0.71874750  0.28245271  1.0
  C  C66  1  0.25792401  0.18388003  0.81899976  1.0
  C  C67  1  0.74207428  0.68388040  0.31900019  1.0
  Br  Br68  1  0.38498813  0.23727038  0.49648708  1.0
  Br  Br69  1  0.61484582  0.73727724  0.99647722  1.0
  Br  Br70  1  0.65917298  0.16182092  0.28334911  1.0
  Br  Br71  1  0.34080355  0.66184988  0.78334348  1.0
  O  O72  1  0.57503473  0.55859316  0.56564162  1.0
  O  O73  1  0.42494133  0.05857722  0.06565507  1.0
  O  O74  1  0.92014494  0.59017143  0.41408321  1.0
  O  O75  1  0.07984859  0.09015406  0.91407758  1.0
  O  O76  1  0.07804620  0.43808901  0.43997599  1.0
  O  O77  1  0.92197032  0.93807024  0.93999612  1.0
  O  O78  1  0.91292423  0.56740084  0.55859623  1.0
  O  O79  1  0.08706071  0.06740689  0.05858582  1.0
  O  O80  1  0.07472616  0.41858014  0.58514189  1.0
  O  O81  1  0.92528751  0.91859422  0.08515020  1.0
  O  O82  1  0.57944925  0.59313695  0.41757393  1.0
  O  O83  1  0.42053639  0.09314342  0.91757834  1.0
  O  O84  1  0.74738819  0.45416290  0.50476093  1.0
  O  O85  1  0.25261049  0.95416166  0.00476228  1.0
  O  O86  1  0.41403238  0.41457821  0.58138334  1.0
  O  O87  1  0.58598926  0.91456788  0.08138161  1.0
  O  O88  1  0.41823466  0.44144406  0.43605660  1.0
  O  O89  1  0.58178190  0.94144770  0.93605343  1.0
  O  O90  1  0.24758181  0.55208083  0.49087143  1.0
  O  O91  1  0.75240914  0.05207800  0.99087169  1.0
