# generated using pymatgen
data_Al2H18C33(NO8)2
_symmetry_space_group_name_H-M   'P 1'
_cell_length_a   6.58045869
_cell_length_b   20.73255215
_cell_length_c   21.65842454
_cell_angle_alpha   89.97892891
_cell_angle_beta   88.00574674
_cell_angle_gamma   87.58590245
_symmetry_Int_Tables_number   1
_chemical_formula_structural   Al2H18C33(NO8)2
_chemical_formula_sum   'Al4 H36 C66 N4 O32'
_cell_volume   2950.44010090
_cell_formula_units_Z   2
loop_
 _symmetry_equiv_pos_site_id
 _symmetry_equiv_pos_as_xyz
  1  'x, y, z'
loop_
 _atom_site_type_symbol
 _atom_site_label
 _atom_site_symmetry_multiplicity
 _atom_site_fract_x
 _atom_site_fract_y
 _atom_site_fract_z
 _atom_site_occupancy
  Al  Al0  1  0.95236812  0.69110017  0.49779326  1.0
  Al  Al1  1  0.04886587  0.30553070  0.99937980  1.0
  Al  Al2  1  0.45192114  0.69155196  0.49760758  1.0
  Al  Al3  1  0.54745774  0.30398666  0.99862017  1.0
  H  H4  1  0.23965270  0.67207010  0.80311820  1.0
  H  H5  1  0.56641074  0.33651958  0.29439178  1.0
  H  H6  1  0.25786186  0.40351898  0.80655262  1.0
  H  H7  1  0.77584275  0.59224789  0.30706412  1.0
  H  H8  1  0.28944435  0.39814644  0.71892985  1.0
  H  H9  1  0.84459851  0.59553841  0.22180710  1.0
  H  H10  1  0.49399057  0.86738613  0.57455067  1.0
  H  H11  1  0.52269620  0.12285779  0.08675734  1.0
  H  H12  1  0.63745987  0.17569366  0.85751242  1.0
  H  H13  1  0.37701386  0.82762991  0.36791455  1.0
  H  H14  1  0.87531230  0.83599213  0.63457999  1.0
  H  H15  1  0.09944933  0.18632058  0.14390821  1.0
  H  H16  1  0.31021694  0.51823296  0.96895666  1.0
  H  H17  1  0.67058758  0.47488669  0.46665310  1.0
  H  H18  1  0.49953206  0.96249147  0.64428641  1.0
  H  H19  1  0.54608066  0.03197099  0.16292807  1.0
  H  H20  1  0.65360400  0.08807541  0.77703228  1.0
  H  H21  1  0.36131286  0.92613579  0.29948633  1.0
  H  H22  1  0.01590595  0.05755563  0.81089345  1.0
  H  H23  1  0.99985963  0.95071344  0.32277962  1.0
  H  H24  1  0.60933079  0.00140001  0.72184822  1.0
  H  H25  1  0.39161224  0.03635848  0.25674307  1.0
  H  H26  1  0.00151812  0.14547668  0.89147115  1.0
  H  H27  1  0.01345251  0.85321799  0.39255962  1.0
  H  H28  1  0.22726193  0.67210613  0.99646216  1.0
  H  H29  1  0.65469452  0.32077030  0.48838335  1.0
  H  H30  1  0.20048860  0.48961484  0.54395236  1.0
  H  H31  1  0.89705253  0.50462633  0.04471545  1.0
  H  H32  1  0.25743614  0.39007447  0.60675299  1.0
  H  H33  1  0.91518094  0.60299017  0.11006906  1.0
  H  H34  1  0.95819958  0.72373062  0.63931620  1.0
  H  H35  1  0.44972489  0.24849016  0.17999775  1.0
  H  H36  1  0.69210455  0.66775513  0.57574351  1.0
  H  H37  1  0.28868455  0.32451511  0.07944919  1.0
  H  H38  1  0.21205270  0.65494640  0.42484961  1.0
  H  H39  1  0.80478668  0.33600901  0.92389885  1.0
  C  C40  1  0.71189553  0.59843954  0.42966048  1.0
  C  C41  1  0.30293104  0.39521059  0.92837608  1.0
  C  C42  1  0.70845056  0.77633874  0.42347262  1.0
  C  C43  1  0.30557894  0.21919486  0.92452012  1.0
  C  C44  1  0.19470044  0.78606507  0.56231208  1.0
  C  C45  1  0.79451437  0.21626824  0.06881502  1.0
  C  C46  1  0.19342582  0.60910521  0.57680734  1.0
  C  C47  1  0.78602930  0.39065699  0.07401322  1.0
  C  C48  1  0.27875805  0.57197300  0.88462129  1.0
  C  C49  1  0.66859363  0.42472234  0.37981644  1.0
  C  C50  1  0.28916686  0.45523366  0.89022988  1.0
  C  C51  1  0.71880327  0.53945396  0.38969208  1.0
  C  C52  1  0.21370209  0.49314013  0.59386773  1.0
  C  C53  1  0.84535089  0.50379679  0.09303108  1.0
  C  C54  1  0.24496231  0.43720872  0.62922981  1.0
  C  C55  1  0.86033200  0.55843733  0.13009410  1.0
  C  C56  1  0.26194816  0.44207980  0.69244609  1.0
  C  C57  1  0.81743580  0.55412840  0.19282964  1.0
  C  C58  1  0.24737885  0.50251980  0.72280531  1.0
  C  C59  1  0.74655967  0.49694418  0.21995939  1.0
  C  C60  1  0.22031130  0.56006737  0.68679072  1.0
  C  C61  1  0.70663805  0.44329836  0.18089559  1.0
  C  C62  1  0.26064028  0.50687902  0.78967320  1.0
  C  C63  1  0.72230432  0.49162673  0.28687662  1.0
  C  C64  1  0.26381743  0.56865908  0.81886738  1.0
  C  C65  1  0.67583461  0.43090509  0.31383837  1.0
  C  C66  1  0.24051173  0.62478667  0.78137506  1.0
  C  C67  1  0.62282827  0.38032450  0.27360636  1.0
  C  C68  1  0.21198606  0.62091972  0.71916365  1.0
  C  C69  1  0.62235099  0.38730992  0.21052680  1.0
  C  C70  1  0.26822532  0.45116694  0.82698828  1.0
  C  C71  1  0.74478770  0.54493574  0.32615729  1.0
  C  C72  1  0.29527089  0.51559170  0.91914260  1.0
  C  C73  1  0.68489179  0.47912118  0.41661321  1.0
  C  C74  1  0.20539160  0.55370150  0.62150751  1.0
  C  C75  1  0.77006029  0.44711327  0.11735507  1.0
  C  C76  1  0.31818712  0.16578519  0.87829980  1.0
  C  C77  1  0.69677749  0.83452821  0.38312476  1.0
  C  C78  1  0.14248295  0.13233105  0.86571117  1.0
  C  C79  1  0.87272060  0.86943386  0.37127402  1.0
  C  C80  1  0.14972922  0.08407268  0.82143581  1.0
  C  C81  1  0.86594791  0.92301752  0.33316701  1.0
  C  C82  1  0.33458707  0.06876966  0.78890601  1.0
  C  C83  1  0.68100789  0.94273744  0.30679665  1.0
  C  C84  1  0.51149961  0.10101609  0.80231146  1.0
  C  C85  1  0.50301632  0.90960562  0.32019135  1.0
  C  C86  1  0.50286130  0.14949187  0.84682247  1.0
  C  C87  1  0.51184193  0.85511050  0.35780374  1.0
  C  C88  1  0.36477719  0.93413336  0.64283098  1.0
  C  C89  1  0.66387990  0.06723986  0.15922105  1.0
  C  C90  1  0.36105890  0.88190280  0.60334965  1.0
  C  C91  1  0.65213474  0.11686689  0.11656556  1.0
  C  C92  1  0.19428032  0.95038385  0.68169964  1.0
  C  C93  1  0.82966475  0.06069911  0.19845935  1.0
  C  C94  1  0.18654894  0.84528773  0.60106629  1.0
  C  C95  1  0.80792128  0.16074259  0.11220171  1.0
  C  C96  1  0.01257834  0.86344118  0.63678632  1.0
  C  C97  1  0.97781450  0.15256819  0.14874947  1.0
  C  C98  1  0.01361706  0.91642247  0.67642015  1.0
  C  C99  1  0.99545835  0.10216709  0.19123114  1.0
  C  C100  1  0.82002556  0.93372304  0.71259370  1.0
  C  C101  1  0.19323675  0.09763954  0.22401790  1.0
  C  C102  1  0.27843843  0.63474970  0.91799419  1.0
  C  C103  1  0.64022536  0.36156048  0.41103701  1.0
  C  C104  1  0.16265996  0.68393969  0.68854196  1.0
  C  C105  1  0.49101855  0.33931259  0.18103094  1.0
  N  N106  1  0.35436227  0.02148755  0.74179817  1.0
  N  N107  1  0.66534707  0.99561171  0.26542924  1.0
  N  N108  1  0.18757833  0.99746688  0.72799656  1.0
  N  N109  1  0.83635204  0.01195713  0.24310785  1.0
  O  O110  1  0.55087777  0.74305166  0.43004594  1.0
  O  O111  1  0.46638573  0.24972983  0.93299189  1.0
  O  O112  1  0.87182535  0.63028346  0.43410099  1.0
  O  O113  1  0.14316998  0.36282784  0.93380235  1.0
  O  O114  1  0.02803923  0.61797937  0.54857393  1.0
  O  O115  1  0.96037728  0.38052324  0.04768135  1.0
  O  O116  1  0.87764289  0.76346210  0.44851952  1.0
  O  O117  1  0.13311066  0.23131981  0.95126290  1.0
  O  O118  1  0.03403755  0.75331541  0.55891825  1.0
  O  O119  1  0.95195889  0.24925005  0.06188585  1.0
  O  O120  1  0.53872295  0.61227763  0.45560462  1.0
  O  O121  1  0.47343648  0.38154046  0.95198022  1.0
  O  O122  1  0.69783679  0.69217726  0.53743009  1.0
  O  O123  1  0.29419467  0.30593585  0.03761184  1.0
  O  O124  1  0.36384980  0.77066164  0.53531692  1.0
  O  O125  1  0.62636245  0.22730480  0.04261954  1.0
  O  O126  1  0.35345995  0.64092070  0.56790544  1.0
  O  O127  1  0.63022751  0.35806809  0.06561999  1.0
  O  O128  1  0.20703881  0.68647424  0.45805405  1.0
  O  O129  1  0.80252863  0.30740111  0.95934844  1.0
  O  O130  1  0.72477578  0.89377948  0.74181477  1.0
  O  O131  1  0.75558292  0.99561877  0.70469303  1.0
  O  O132  1  0.30442150  0.14358551  0.22703468  1.0
  O  O133  1  0.24513323  0.03827264  0.24514565  1.0
  O  O134  1  0.32537951  0.68687196  0.89670433  1.0
  O  O135  1  0.21730575  0.62880642  0.97902158  1.0
  O  O136  1  0.59171218  0.31107510  0.38747823  1.0
  O  O137  1  0.67720621  0.36438402  0.47295901  1.0
  O  O138  1  0.27479863  0.72932494  0.68578923  1.0
  O  O139  1  0.97289468  0.68508497  0.66596585  1.0
  O  O140  1  0.32740567  0.35456180  0.15851557  1.0
  O  O141  1  0.55793539  0.27767768  0.19005113  1.0
