# generated using pymatgen
data_Zn4H10C24S4N4Cl2O13
_symmetry_space_group_name_H-M   'P 1'
_cell_length_a   19.67967098
_cell_length_b   19.69294253
_cell_length_c   33.41102812
_cell_angle_alpha   79.11513047
_cell_angle_beta   79.14833257
_cell_angle_gamma   63.88451211
_symmetry_Int_Tables_number   1
_chemical_formula_structural   Zn4H10C24S4N4Cl2O13
_chemical_formula_sum   'Zn16 H40 C96 S16 N16 Cl8 O52'
_cell_volume   11335.89628082
_cell_formula_units_Z   4
loop_
 _symmetry_equiv_pos_site_id
 _symmetry_equiv_pos_as_xyz
  1  'x, y, z'
loop_
 _atom_site_type_symbol
 _atom_site_label
 _atom_site_symmetry_multiplicity
 _atom_site_fract_x
 _atom_site_fract_y
 _atom_site_fract_z
 _atom_site_occupancy
  Zn  Zn0  1  0.59939876  0.94489686  0.52182475  1.0
  Zn  Zn1  1  0.51667191  0.01607415  0.43965247  1.0
  Zn  Zn2  1  0.44009005  0.94068476  0.51815095  1.0
  Zn  Zn3  1  0.44314444  0.09873960  0.52037355  1.0
  Zn  Zn4  1  0.65068737  0.30595150  0.72767347  1.0
  Zn  Zn5  1  0.81029033  0.31070402  0.73333289  1.0
  Zn  Zn6  1  0.73214215  0.23177738  0.80943834  1.0
  Zn  Zn7  1  0.80663940  0.15205744  0.72920508  1.0
  Zn  Zn8  1  0.23384524  0.73355300  0.31000142  1.0
  Zn  Zn9  1  0.30441594  0.65108057  0.22820482  1.0
  Zn  Zn10  1  0.15058510  0.80790995  0.22911142  1.0
  Zn  Zn11  1  0.30984209  0.80942811  0.23140662  1.0
  Zn  Zn12  1  0.93925504  0.44030619  0.01627524  1.0
  Zn  Zn13  1  0.94546174  0.59823063  0.02211146  1.0
  Zn  Zn14  1  0.09939910  0.44238933  0.02060309  1.0
  Zn  Zn15  1  0.01813665  0.51867724  0.94029651  1.0
  H  H16  1  0.55198791  0.24952947  0.65114809  1.0
  H  H17  1  0.69760627  0.00057074  0.59884233  1.0
  H  H18  1  0.30033646  0.79930828  0.39820868  1.0
  H  H19  1  0.45052103  0.95022277  0.35126955  1.0
  H  H20  1  0.85103864  0.35262667  0.95003583  1.0
  H  H21  1  0.89923471  0.39813560  0.79943994  1.0
  H  H22  1  0.00017620  0.69779361  0.09915047  1.0
  H  H23  1  0.24940389  0.55184494  0.15123670  1.0
  H  H24  1  0.44537830  0.68479534  0.60442012  1.0
  H  H25  1  0.44793204  0.76636513  0.57387212  1.0
  H  H26  1  0.79703416  0.57478467  0.65501013  1.0
  H  H27  1  0.80045115  0.48623602  0.67827098  1.0
  H  H28  1  0.47540674  0.23501553  0.31423489  1.0
  H  H29  1  0.48272343  0.16525465  0.35619902  1.0
  H  H30  1  0.29648365  0.51547186  0.43554850  1.0
  H  H31  1  0.27276146  0.58466361  0.39319288  1.0
  H  H32  1  0.73442874  0.95332208  0.31432327  1.0
  H  H33  1  0.66531487  0.97711230  0.35665734  1.0
  H  H34  1  0.01506187  0.77469397  0.43566396  1.0
  H  H35  1  0.08494606  0.76713850  0.39372142  1.0
  H  H36  1  0.19594276  0.25647523  0.61500048  1.0
  H  H37  1  0.27465821  0.20422447  0.58210151  1.0
  H  H38  1  0.06408896  0.98592106  0.64420136  1.0
  H  H39  1  0.97725894  0.04495160  0.66943650  1.0
  H  H40  1  0.51516516  0.27678963  0.93498875  1.0
  H  H41  1  0.58538394  0.26714569  0.89288225  1.0
  H  H42  1  0.23368904  0.45562931  0.81405320  1.0
  H  H43  1  0.16462199  0.47878114  0.85660333  1.0
  H  H44  1  0.91279714  0.85472118  0.77440277  1.0
  H  H45  1  0.88157643  0.95267646  0.76116410  1.0
  H  H46  1  0.81478264  0.89614031  0.97542110  1.0
  H  H47  1  0.86281836  0.79817402  0.98943474  1.0
  H  H48  1  0.56488695  0.48377153  0.14422033  1.0
  H  H49  1  0.47843611  0.54233909  0.16992601  1.0
  H  H50  1  0.69594658  0.75475723  0.11603549  1.0
  H  H51  1  0.77426806  0.70329678  0.08289014  1.0
  H  H52  1  0.29607429  0.07573752  0.15503760  1.0
  H  H53  1  0.29995686  0.98699201  0.17807076  1.0
  H  H54  1  0.94408914  0.18439917  0.10482902  1.0
  H  H55  1  0.94639054  0.26595091  0.07418734  1.0
  C  C56  1  0.68419695  0.93984172  0.43755859  1.0
  C  C57  1  0.42995975  0.93064138  0.43156584  1.0
  C  C58  1  0.56145603  0.81511306  0.56149919  1.0
  C  C59  1  0.31467219  0.06280171  0.56178704  1.0
  C  C60  1  0.56674549  0.07093598  0.56902145  1.0
  C  C61  1  0.43771716  0.18402948  0.43695574  1.0
  C  C62  1  0.68966795  0.43490584  0.68790146  1.0
  C  C63  1  0.81938527  0.31735418  0.81958204  1.0
  C  C64  1  0.56537594  0.31145526  0.81163257  1.0
  C  C65  1  0.81256490  0.06402275  0.81120304  1.0
  C  C66  1  0.68235146  0.17854245  0.68153886  1.0
  C  C67  1  0.93503304  0.18819462  0.68828249  1.0
  C  C68  1  0.31068394  0.56582665  0.31224915  1.0
  C  C69  1  0.17902985  0.68246726  0.18125065  1.0
  C  C70  1  0.06605988  0.81279723  0.31286068  1.0
  C  C71  1  0.18935996  0.93548147  0.18781616  1.0
  C  C72  1  0.32012734  0.81964495  0.31791447  1.0
  C  C73  1  0.43476056  0.68629371  0.18792497  1.0
  C  C74  1  0.81488355  0.56294252  0.06141404  1.0
  C  C75  1  0.07037586  0.56726483  0.06917970  1.0
  C  C76  1  0.05999619  0.31456956  0.06079743  1.0
  C  C77  1  0.18507786  0.43918833  0.93749586  1.0
  C  C78  1  0.93178756  0.43252219  0.92989064  1.0
  C  C79  1  0.93870688  0.68632828  0.93953414  1.0
  C  C80  1  0.59356537  0.10165526  0.59782375  1.0
  C  C81  1  0.65565792  0.14807708  0.65253213  1.0
  C  C82  1  0.55235326  0.17300822  0.61290309  1.0
  C  C83  1  0.69702738  0.07693466  0.63725690  1.0
  C  C84  1  0.58382323  0.19448598  0.63963407  1.0
  C  C85  1  0.66555827  0.05538720  0.61057979  1.0
  C  C86  1  0.40041354  0.90050967  0.40384936  1.0
  C  C87  1  0.34999279  0.84946571  0.34563730  1.0
  C  C88  1  0.35739710  0.85709891  0.41702103  1.0
  C  C89  1  0.39317039  0.89270143  0.33245968  1.0
  C  C90  1  0.33333333  0.83278579  0.38798783  1.0
  C  C91  1  0.41718397  0.91701171  0.36148784  1.0
  C  C92  1  0.54593236  0.69591909  0.59829799  1.0
  C  C93  1  0.70569877  0.55355935  0.65047934  1.0
  C  C94  1  0.58675293  0.74125440  0.58557169  1.0
  C  C95  1  0.66501531  0.50814516  0.66310506  1.0
  C  C96  1  0.66121661  0.62244486  0.62698447  1.0
  C  C97  1  0.58997424  0.62754832  0.62230607  1.0
  C  C98  1  0.42319730  0.27354277  0.36984861  1.0
  C  C99  1  0.32479090  0.47630653  0.37937158  1.0
  C  C100  1  0.41276600  0.25790790  0.41282892  1.0
  C  C101  1  0.33487810  0.49192260  0.33637618  1.0
  C  C102  1  0.35798383  0.39608875  0.39128605  1.0
  C  C103  1  0.39131015  0.35378186  0.35800506  1.0
  C  C104  1  0.77371203  0.92539284  0.37046053  1.0
  C  C105  1  0.97658396  0.82683536  0.37998571  1.0
  C  C106  1  0.75816925  0.91541546  0.41346215  1.0
  C  C107  1  0.99218807  0.83745058  0.33700299  1.0
  C  C108  1  0.89630623  0.85877741  0.39183426  1.0
  C  C109  1  0.85393829  0.89217110  0.35854265  1.0
  C  C110  1  0.19928785  0.15712008  0.60209987  1.0
  C  C111  1  0.04971861  0.09483489  0.64697148  1.0
  C  C112  1  0.24090599  0.08729174  0.58586346  1.0
  C  C113  1  0.00800633  0.16458720  0.66332304  1.0
  C  C114  1  0.12008300  0.09249892  0.62504670  1.0
  C  C115  1  0.12967038  0.15879955  0.62484944  1.0
  C  C116  1  0.84667320  0.34556542  0.84939933  1.0
  C  C117  1  0.90414920  0.40462702  0.90008030  1.0
  C  C118  1  0.83303889  0.33292912  0.89261251  1.0
  C  C119  1  0.91751541  0.41751494  0.85686497  1.0
  C  C120  1  0.86171038  0.36236069  0.91675955  1.0
  C  C121  1  0.88888955  0.38805708  0.83271793  1.0
  C  C122  1  0.47673831  0.32662016  0.87897425  1.0
  C  C123  1  0.27353468  0.42566113  0.87019663  1.0
  C  C124  1  0.49173760  0.33704036  0.83589786  1.0
  C  C125  1  0.25869669  0.41518091  0.91324199  1.0
  C  C126  1  0.35369605  0.39240022  0.85800631  1.0
  C  C127  1  0.39652787  0.35879591  0.89109150  1.0
  C  C128  1  0.87694888  0.91880900  0.82223405  1.0
  C  C129  1  0.87491542  0.83164571  0.92836639  1.0
  C  C130  1  0.83745082  0.99096051  0.83604155  1.0
  C  C131  1  0.91467825  0.75940801  0.91467361  1.0
  C  C132  1  0.86073613  0.88949001  0.89416623  1.0
  C  C133  1  0.88969866  0.86077828  0.85635633  1.0
  C  C134  1  0.14825964  0.65579957  0.15242664  1.0
  C  C135  1  0.10131199  0.59387439  0.09793964  1.0
  C  C136  1  0.07686679  0.69729246  0.13730836  1.0
  C  C137  1  0.17276232  0.55243173  0.11299804  1.0
  C  C138  1  0.05518346  0.66577561  0.11072417  1.0
  C  C139  1  0.19442170  0.58390852  0.13963678  1.0
  C  C140  1  0.55026929  0.59282728  0.14696550  1.0
  C  C141  1  0.69886557  0.65650518  0.10202651  1.0
  C  C142  1  0.50814618  0.66249372  0.16332816  1.0
  C  C143  1  0.74095175  0.58700666  0.08556011  1.0
  C  C144  1  0.62940196  0.65770058  0.12470964  1.0
  C  C145  1  0.62035209  0.59110982  0.12484032  1.0
  C  C146  1  0.20496917  0.05423283  0.15040953  1.0
  C  C147  1  0.04453922  0.19580212  0.09844983  1.0
  C  C148  1  0.16443104  0.00869734  0.16318262  1.0
  C  C149  1  0.08510618  0.24121696  0.08537934  1.0
  C  C150  1  0.08885702  0.12777863  0.12255216  1.0
  C  C151  1  0.16012746  0.12301783  0.12697267  1.0
  S  S152  1  0.67707440  0.70021988  0.60231990  1.0
  S  S153  1  0.57492121  0.54888535  0.64609540  1.0
  S  S154  1  0.36425496  0.33976576  0.43786190  1.0
  S  S155  1  0.38309398  0.41005700  0.31135690  1.0
  S  S156  1  0.84010796  0.86709541  0.43849012  1.0
  S  S157  1  0.91021817  0.88609275  0.31195237  1.0
  S  S158  1  0.19522334  0.02605059  0.59780363  1.0
  S  S159  1  0.05374252  0.22583171  0.65136382  1.0
  S  S160  1  0.40937810  0.38603530  0.81121781  1.0
  S  S161  1  0.34098238  0.36652280  0.93793803  1.0
  S  S162  1  0.81726734  0.98749861  0.88945034  1.0
  S  S163  1  0.93491727  0.76277612  0.86122679  1.0
  S  S164  1  0.55320428  0.72435536  0.15131586  1.0
  S  S165  1  0.69572595  0.52533417  0.09730785  1.0
  S  S166  1  0.07409355  0.04911924  0.14655721  1.0
  S  S167  1  0.17555009  0.20081728  0.10194410  1.0
  N  N168  1  0.47581917  0.71320531  0.58828761  1.0
  N  N169  1  0.77782223  0.53391398  0.65829015  1.0
  N  N170  1  0.45649956  0.22001305  0.34331437  1.0
  N  N171  1  0.28654215  0.52973876  0.40582061  1.0
  N  N172  1  0.72018994  0.96368654  0.34398128  1.0
  N  N173  1  0.03014475  0.79335931  0.40654586  1.0
  N  N174  1  0.22091817  0.21539166  0.59607949  1.0
  N  N175  1  0.02584660  0.03864520  0.65035990  1.0
  N  N176  1  0.53034844  0.29291569  0.90540127  1.0
  N  N177  1  0.21972550  0.46378444  0.84401876  1.0
  N  N178  1  0.90165021  0.90610364  0.78223705  1.0
  N  N179  1  0.85503821  0.84472745  0.96837528  1.0
  N  N180  1  0.52669186  0.53638169  0.15058981  1.0
  N  N181  1  0.71987564  0.71539702  0.09606737  1.0
  N  N182  1  0.27713845  0.03469707  0.15812473  1.0
  N  N183  1  0.97442997  0.21277796  0.08853356  1.0
  Cl  Cl184  1  0.46343153  0.23840402  0.60028377  1.0
  Cl  Cl185  1  0.78695416  0.01233257  0.64891738  1.0
  Cl  Cl186  1  0.33172507  0.83029850  0.46777041  1.0
  Cl  Cl187  1  0.42030193  0.91809570  0.28168804  1.0
  Cl  Cl188  1  0.78162633  0.28287656  0.91889118  1.0
  Cl  Cl189  1  0.96748057  0.46909175  0.83053784  1.0
  Cl  Cl190  1  0.01213590  0.78655962  0.14948475  1.0
  Cl  Cl191  1  0.23725379  0.46308807  0.10089425  1.0
  O  O192  1  0.50076658  0.99982288  0.49951770  1.0
  O  O193  1  0.68259247  0.92437603  0.47667970  1.0
  O  O194  1  0.47167014  0.96501543  0.41395727  1.0
  O  O195  1  0.49447057  0.84243887  0.54957279  1.0
  O  O196  1  0.62519654  0.97545396  0.41766660  1.0
  O  O197  1  0.60676697  0.84824397  0.55379359  1.0
  O  O198  1  0.41119721  0.91999662  0.46988014  1.0
  O  O199  1  0.34459177  0.99514776  0.55139913  1.0
  O  O200  1  0.50063214  0.11149936  0.55830175  1.0
  O  O201  1  0.34518241  0.11090618  0.55256007  1.0
  O  O202  1  0.61303752  0.00605835  0.55778766  1.0
  O  O203  1  0.47268994  0.12474905  0.41734112  1.0
  O  O204  1  0.42331111  0.18284959  0.47611102  1.0
  O  O205  1  0.74974990  0.25099551  0.74953482  1.0
  O  O206  1  0.64339753  0.40289329  0.69625496  1.0
  O  O207  1  0.83362383  0.33820834  0.78153030  1.0
  O  O208  1  0.62445063  0.27612127  0.83146411  1.0
  O  O209  1  0.75665798  0.40733433  0.69982624  1.0
  O  O210  1  0.56694444  0.32527965  0.77241601  1.0
  O  O211  1  0.78480329  0.27525487  0.83434650  1.0
  O  O212  1  0.77375473  0.12329670  0.82987222  1.0
  O  O213  1  0.74549528  0.13502274  0.69514803  1.0
  O  O214  1  0.83122235  0.06414366  0.77193510  1.0
  O  O215  1  0.63885119  0.24592251  0.69018075  1.0
  O  O216  1  0.90716258  0.25366769  0.70120726  1.0
  O  O217  1  0.90334148  0.14100990  0.69583939  1.0
  O  O218  1  0.25005532  0.74941730  0.25011872  1.0
  O  O219  1  0.27455868  0.62483444  0.33199747  1.0
  O  O220  1  0.24442427  0.63633198  0.19212868  1.0
  O  O221  1  0.06717714  0.82778261  0.27374467  1.0
  O  O222  1  0.32694571  0.56731528  0.27314243  1.0
  O  O223  1  0.12542900  0.77747089  0.33249752  1.0
  O  O224  1  0.13821006  0.74802686  0.19243112  1.0
  O  O225  1  0.14250049  0.90416326  0.19707397  1.0
  O  O226  1  0.33105978  0.83813601  0.27958512  1.0
  O  O227  1  0.25718404  0.90690828  0.19874828  1.0
  O  O228  1  0.28568782  0.77800531  0.33552516  1.0
  O  O229  1  0.40283726  0.63935790  0.19583134  1.0
  O  O230  1  0.40680171  0.75243039  0.20013022  1.0
  O  O231  1  0.99937178  0.50043622  0.00017762  1.0
  O  O232  1  0.84415356  0.49614031  0.05002842  1.0
  O  O233  1  0.00304134  0.61153688  0.06027554  1.0
  O  O234  1  0.10616459  0.34669184  0.05269988  1.0
  O  O235  1  0.84592514  0.61067078  0.05323944  1.0
  O  O236  1  0.99299560  0.34232230  0.04884097  1.0
  O  O237  1  0.11293147  0.50376425  0.05600618  1.0
  O  O238  1  0.18373065  0.42188519  0.97655682  1.0
  O  O239  1  0.97279252  0.46827053  0.91505653  1.0
  O  O240  1  0.12586451  0.47633718  0.91793047  1.0
  O  O241  1  0.91168492  0.41750582  0.96795211  1.0
  O  O242  1  0.92338011  0.68607132  0.97898710  1.0
  O  O243  1  0.97342422  0.62706621  0.92051122  1.0
