# generated using pymatgen
data_ZnH12C22SNO7
_symmetry_space_group_name_H-M   'P 1'
_cell_length_a   13.33368427
_cell_length_b   16.55853052
_cell_length_c   17.71391943
_cell_angle_alpha   87.01094535
_cell_angle_beta   87.07501134
_cell_angle_gamma   68.03234515
_symmetry_Int_Tables_number   1
_chemical_formula_structural   ZnH12C22SNO7
_chemical_formula_sum   'Zn2 H24 C44 S2 N2 O14'
_cell_volume   3619.99947391
_cell_formula_units_Z   2
loop_
 _symmetry_equiv_pos_site_id
 _symmetry_equiv_pos_as_xyz
  1  'x, y, z'
loop_
 _atom_site_type_symbol
 _atom_site_label
 _atom_site_symmetry_multiplicity
 _atom_site_fract_x
 _atom_site_fract_y
 _atom_site_fract_z
 _atom_site_occupancy
  Zn  Zn0  1  0.49987277  0.58557726  0.49213334  1.0
  Zn  Zn1  1  0.51982848  0.40995417  0.50761694  1.0
  H  H2  1  0.86692086  0.29573778  0.42960218  1.0
  H  H3  1  0.36952334  0.62296629  0.27851591  1.0
  H  H4  1  0.55350859  0.37942621  0.10729574  1.0
  H  H5  1  0.39860669  0.65705480  0.87419682  1.0
  H  H6  1  0.43181170  0.65123099  0.73398158  1.0
  H  H7  1  0.48271565  0.37958105  0.74312427  1.0
  H  H8  1  0.44818049  0.38405683  0.88340743  1.0
  H  H9  1  0.38934363  0.87887195  0.60398158  1.0
  H  H10  1  0.41421373  0.72366889  0.58468572  1.0
  H  H11  1  0.21180197  0.32338946  0.39306943  1.0
  H  H12  1  0.58077138  0.86887986  0.39749520  1.0
  H  H13  1  0.33800344  0.19166640  0.58204450  1.0
  H  H14  1  0.36393276  0.33464702  0.58030078  1.0
  H  H15  1  0.63877134  0.24208065  0.44109248  1.0
  H  H16  1  0.62518921  0.09532225  0.43565252  1.0
  H  H17  1  0.06077338  0.27169187  0.39754495  1.0
  H  H18  1  0.81561651  0.54597384  0.51226530  1.0
  H  H19  1  0.14557518  0.71421109  0.53093342  1.0
  H  H20  1  0.87011985  0.63994977  0.52057541  1.0
  H  H21  1  0.94541388  0.75049635  0.54549876  1.0
  H  H22  1  0.28741361  0.43090846  0.42460598  1.0
  H  H23  1  0.32269816  0.63917691  0.14241897  1.0
  H  H24  1  0.68476187  0.23622465  0.16565468  1.0
  H  H25  1  0.77337241  0.71435803  0.34999243  1.0
  C  C26  1  0.48488375  0.50970495  0.64681157  1.0
  C  C27  1  0.02354584  0.54192570  0.48486835  1.0
  C  C28  1  0.13676175  0.52312887  0.47266684  1.0
  C  C29  1  0.98050028  0.47563448  0.47033428  1.0
  C  C30  1  0.04976670  0.39576129  0.43809845  1.0
  C  C31  1  0.16041813  0.38296822  0.42074221  1.0
  C  C32  1  0.20264022  0.44298445  0.43806855  1.0
  C  C33  1  0.87223511  0.48667285  0.48759449  1.0
  C  C34  1  0.90054596  0.34418552  0.44154373  1.0
  C  C35  1  0.17927901  0.58616766  0.49294935  1.0
  C  C36  1  0.38170136  0.57837523  0.16477903  1.0
  C  C37  1  0.29861150  0.56514797  0.49555401  1.0
  C  C38  1  0.40738395  0.56934657  0.24055801  1.0
  C  C39  1  0.48294983  0.49182615  0.27069276  1.0
  C  C40  1  0.53421468  0.42274818  0.22183410  1.0
  C  C41  1  0.51044026  0.43135871  0.14558918  1.0
  C  C42  1  0.43373681  0.50948062  0.11583042  1.0
  C  C43  1  0.41700998  0.51761681  0.03707024  1.0
  C  C44  1  0.41409064  0.52075827  0.96816909  1.0
  C  C45  1  0.41595530  0.59658632  0.84519341  1.0
  C  C46  1  0.43475861  0.59325617  0.76732562  1.0
  C  C47  1  0.46021806  0.51481066  0.73039444  1.0
  C  C48  1  0.50090429  0.48672826  0.35406353  1.0
  C  C49  1  0.46352304  0.43989412  0.77267471  1.0
  C  C50  1  0.44452659  0.44248262  0.85043228  1.0
  C  C51  1  0.42232708  0.52068802  0.88817076  1.0
  C  C52  1  0.43550215  0.84510291  0.55493217  1.0
  C  C53  1  0.44869332  0.75917010  0.54441510  1.0
  C  C54  1  0.55181406  0.75329765  0.43476243  1.0
  C  C55  1  0.54259146  0.83918151  0.44014323  1.0
  C  C56  1  0.48304734  0.88723159  0.50175388  1.0
  C  C57  1  0.47507650  0.97417750  0.50804884  1.0
  C  C58  1  0.47454549  0.04785738  0.50965042  1.0
  C  C59  1  0.71551208  0.44054319  0.49248335  1.0
  C  C60  1  0.40626491  0.19989011  0.55089586  1.0
  C  C61  1  0.42042260  0.27883171  0.55050812  1.0
  C  C62  1  0.57481141  0.22699328  0.47209855  1.0
  C  C63  1  0.56659685  0.14617873  0.46914703  1.0
  C  C64  1  0.48148613  0.13107627  0.51009667  1.0
  C  C65  1  0.00729323  0.33163471  0.42365565  1.0
  C  C66  1  0.83230107  0.42257213  0.47432869  1.0
  C  C67  1  0.11038662  0.66729513  0.51713335  1.0
  C  C68  1  0.99868358  0.68691635  0.52566474  1.0
  C  C69  1  0.95659159  0.62467279  0.51121375  1.0
  S  S70  1  0.63642116  0.32386479  0.25611253  1.0
  S  S71  1  0.62396195  0.69513262  0.35212441  1.0
  N  N72  1  0.50584871  0.71300242  0.48527623  1.0
  N  N73  1  0.50383187  0.29148016  0.51281813  1.0
  O  O74  1  0.46919855  0.58110882  0.60938304  1.0
  O  O75  1  0.51952176  0.43385095  0.61990901  1.0
  O  O76  1  0.33346032  0.62664636  0.48229672  1.0
  O  O77  1  0.35656115  0.48671375  0.51417838  1.0
  O  O78  1  0.50943476  0.55321525  0.38115164  1.0
  O  O79  1  0.50099137  0.41852225  0.39010971  1.0
  O  O80  1  0.65730534  0.51786879  0.51139265  1.0
  O  O81  1  0.68104621  0.37880632  0.48764371  1.0
  O  O82  1  0.70968334  0.34514184  0.30015764  1.0
  O  O83  1  0.58965431  0.26141992  0.28327409  1.0
  O  O84  1  0.70307032  0.28594329  0.17767748  1.0
  O  O85  1  0.69232079  0.60805682  0.37340612  1.0
  O  O86  1  0.54719107  0.71696494  0.29356406  1.0
  O  O87  1  0.70206023  0.74879188  0.33006897  1.0
