# generated using pymatgen
data_Al4H12C36N3ClO26
_symmetry_space_group_name_H-M   'P 1'
_cell_length_a   6.77842109
_cell_length_b   16.64575649
_cell_length_c   18.40765546
_cell_angle_alpha   106.56509311
_cell_angle_beta   89.77725357
_cell_angle_gamma   89.87444615
_symmetry_Int_Tables_number   1
_chemical_formula_structural   Al4H12C36N3ClO26
_chemical_formula_sum   'Al4 H12 C36 N3 Cl1 O26'
_cell_volume   1990.74306558
_cell_formula_units_Z   1
loop_
 _symmetry_equiv_pos_site_id
 _symmetry_equiv_pos_as_xyz
  1  'x, y, z'
loop_
 _atom_site_type_symbol
 _atom_site_label
 _atom_site_symmetry_multiplicity
 _atom_site_fract_x
 _atom_site_fract_y
 _atom_site_fract_z
 _atom_site_occupancy
  Al  Al0  1  0.12504278  0.49973115  0.49838966  1.0
  Al  Al1  1  0.62400156  0.49842117  0.49800981  1.0
  Al  Al2  1  0.65464015  0.99966772  0.99981480  1.0
  Al  Al3  1  0.15509836  0.99907430  0.00122592  1.0
  H  H4  1  0.99107154  0.79452951  0.63925288  1.0
  H  H5  1  0.66723809  0.86310736  0.73965858  1.0
  H  H6  1  0.22478793  0.80436980  0.76880123  1.0
  H  H7  1  0.58419440  0.21636948  0.34887530  1.0
  H  H8  1  0.73474802  0.22411724  0.20632849  1.0
  H  H9  1  0.52035808  0.37738286  0.22483808  1.0
  H  H10  1  0.19252361  0.28109385  0.14961537  1.0
  H  H11  1  0.04559597  0.27475829  0.29387108  1.0
  H  H12  1  0.37551654  0.60280893  0.55035128  1.0
  H  H13  1  0.87666695  0.39888031  0.50945098  1.0
  H  H14  1  0.40717052  0.89534127  0.00243425  1.0
  H  H15  1  0.90602048  0.10463359  0.99997827  1.0
  C  C16  1  0.37739430  0.38599320  0.38418586  1.0
  C  C17  1  0.37131458  0.41268337  0.58465916  1.0
  C  C18  1  0.86879361  0.61386744  0.61293493  1.0
  C  C19  1  0.87676930  0.58248968  0.41161800  1.0
  C  C20  1  0.87606935  0.63188748  0.35897810  1.0
  C  C21  1  0.88016880  0.67589509  0.31567718  1.0
  C  C22  1  0.88533498  0.72448435  0.26877961  1.0
  C  C23  1  0.89073469  0.76959850  0.22600782  1.0
  C  C24  1  0.89582733  0.81834198  0.17928492  1.0
  C  C25  1  0.89975879  0.86258960  0.13627439  1.0
  C  C26  1  0.77015106  0.81387324  0.74342288  1.0
  C  C27  1  0.94519291  0.77571256  0.68893412  1.0
  C  C28  1  0.87171908  0.68460143  0.68421257  1.0
  C  C29  1  0.70155458  0.72303148  0.74076346  1.0
  C  C30  1  0.83143147  0.72664081  0.81025537  1.0
  C  C31  1  0.00543801  0.68612442  0.75452287  1.0
  C  C32  1  0.07776110  0.77817394  0.75876022  1.0
  C  C33  1  0.90353935  0.81633517  0.81344826  1.0
  C  C34  1  0.50064449  0.23216480  0.30409405  1.0
  C  C35  1  0.31635542  0.18193110  0.26324769  1.0
  C  C36  1  0.40218937  0.18529377  0.18492294  1.0
  C  C37  1  0.58230656  0.23679473  0.22585133  1.0
  C  C38  1  0.46345895  0.32007891  0.23489134  1.0
  C  C39  1  0.28068033  0.26882246  0.19496193  1.0
  C  C40  1  0.19764956  0.26435835  0.27337673  1.0
  C  C41  1  0.37923551  0.31523548  0.31373635  1.0
  C  C42  1  0.37252977  0.36392902  0.63792582  1.0
  C  C43  1  0.37659996  0.32040811  0.68159381  1.0
  C  C44  1  0.38200701  0.27238599  0.72892544  1.0
  C  C45  1  0.38803164  0.22787525  0.77219452  1.0
  C  C46  1  0.39449311  0.17969937  0.81937528  1.0
  C  C47  1  0.40028640  0.13576965  0.86268753  1.0
  C  C48  1  0.40355022  0.08527732  0.91443603  1.0
  C  C49  1  0.40387718  0.11403220  0.11449597  1.0
  C  C50  1  0.90260614  0.91318654  0.08478152  1.0
  C  C51  1  0.90728224  0.88688036  0.88497975  1.0
  N  N52  1  0.49277384  0.70621035  0.74146340  1.0
  N  N53  1  0.78131656  0.69449956  0.87439655  1.0
  N  N54  1  0.24619791  0.10609276  0.28086243  1.0
  Cl  Cl55  1  0.11744427  0.59565351  0.76210603  1.0
  O  O56  1  0.54007871  0.42808880  0.56097283  1.0
  O  O57  1  0.21041443  0.41168854  0.41342908  1.0
  O  O58  1  0.04557229  0.56096218  0.42985841  1.0
  O  O59  1  0.20223193  0.43406182  0.56631295  1.0
  O  O60  1  0.03732411  0.59180311  0.58328882  1.0
  O  O61  1  0.54562828  0.41442524  0.40965988  1.0
  O  O62  1  0.37455999  0.55011093  0.51018814  1.0
  O  O63  1  0.70194105  0.58394628  0.58853152  1.0
  O  O64  1  0.70938244  0.56622173  0.43562285  1.0
  O  O65  1  0.87546231  0.44938589  0.49311152  1.0
  O  O66  1  0.23494052  0.08744490  0.08823371  1.0
  O  O67  1  0.57291790  0.06601782  0.93414633  1.0
  O  O68  1  0.73807819  0.91415918  0.91058566  1.0
  O  O69  1  0.57175834  0.08861916  0.08597681  1.0
  O  O70  1  0.73532025  0.93336025  0.06385835  1.0
  O  O71  1  0.23595307  0.06563756  0.93567232  1.0
  O  O72  1  0.40547938  0.94958103  0.99256371  1.0
  O  O73  1  0.07184990  0.93255023  0.06469660  1.0
  O  O74  1  0.07528434  0.91151740  0.91235686  1.0
  O  O75  1  0.90497215  0.04921501  0.00719479  1.0
  O  O76  1  0.42113001  0.71740245  0.80574483  1.0
  O  O77  1  0.40051432  0.68984492  0.68095517  1.0
  O  O78  1  0.71491135  0.62247358  0.85746535  1.0
  O  O79  1  0.81927256  0.73952114  0.93885306  1.0
  O  O80  1  0.11459733  0.11564429  0.32970338  1.0
  O  O81  1  0.32845467  0.03915892  0.24757889  1.0
