# generated using pymatgen
data_Al2H9C16S2NO12
_symmetry_space_group_name_H-M   'P 1'
_cell_length_a   6.70964308
_cell_length_b   11.09509955
_cell_length_c   12.70266127
_cell_angle_alpha   75.50994931
_cell_angle_beta   74.97027938
_cell_angle_gamma   73.56575854
_symmetry_Int_Tables_number   1
_chemical_formula_structural   Al2H9C16S2NO12
_chemical_formula_sum   'Al2 H9 C16 S2 N1 O12'
_cell_volume   859.86620259
_cell_formula_units_Z   1
loop_
 _symmetry_equiv_pos_site_id
 _symmetry_equiv_pos_as_xyz
  1  'x, y, z'
loop_
 _atom_site_type_symbol
 _atom_site_label
 _atom_site_symmetry_multiplicity
 _atom_site_fract_x
 _atom_site_fract_y
 _atom_site_fract_z
 _atom_site_occupancy
  Al  Al0  1  0.50078004  0.50030859  0.49895711  1.0
  Al  Al1  1  0.00273402  0.50265291  0.49598953  1.0
  H  H2  1  0.23525285  0.39315825  0.62545777  1.0
  H  H3  1  0.73169872  0.64413725  0.39350121  1.0
  H  H4  1  0.38589589  0.89291136  0.47906534  1.0
  H  H5  1  0.61982322  0.11034794  0.52184676  1.0
  H  H6  1  0.25698685  0.55874245  0.83904436  1.0
  H  H7  1  0.23941120  0.22606979  0.46882708  1.0
  H  H8  1  0.76818473  0.77686898  0.53346817  1.0
  H  H9  1  0.93657683  0.42959756  0.11533617  1.0
  H  H10  1  0.77449878  0.44643875  0.24410111  1.0
  C  C11  1  0.65589535  0.48686858  0.69578396  1.0
  C  C12  1  0.86650615  0.27334543  0.49603989  1.0
  C  C13  1  0.34797733  0.51803138  0.29929027  1.0
  C  C14  1  0.13893521  0.73039801  0.50144195  1.0
  C  C15  1  0.93841639  0.13436614  0.49753655  1.0
  C  C16  1  0.06742304  0.86887182  0.50273927  1.0
  C  C17  1  0.15812931  0.07178008  0.48437750  1.0
  C  C18  1  0.84754499  0.93142252  0.51699769  1.0
  C  C19  1  0.21828502  0.94011623  0.48743052  1.0
  C  C20  1  0.78739490  0.06306145  0.51354734  1.0
  C  C21  1  0.61431674  0.47820165  0.12146393  1.0
  C  C22  1  0.39744175  0.53121385  0.87513972  1.0
  C  C23  1  0.40672157  0.51633870  0.18227037  1.0
  C  C24  1  0.59997257  0.49372652  0.81406198  1.0
  C  C25  1  0.40236058  0.52813398  0.98608206  1.0
  C  C26  1  0.60818094  0.48654297  0.00827257  1.0
  S  S27  1  0.21172568  0.56099365  0.10232731  1.0
  S  S28  1  0.79666515  0.45436664  0.89136260  1.0
  N  N29  1  0.79098132  0.43425202  0.16525771  1.0
  O  O30  1  0.50153991  0.50026020  0.64934250  1.0
  O  O31  1  0.01339282  0.33493184  0.47873571  1.0
  O  O32  1  0.15027170  0.53925747  0.34584780  1.0
  O  O33  1  0.33572184  0.67684377  0.48561113  1.0
  O  O34  1  0.50062544  0.49784266  0.35039835  1.0
  O  O35  1  0.99104032  0.67033494  0.51533110  1.0
  O  O36  1  0.85265453  0.46801645  0.64922139  1.0
  O  O37  1  0.66963477  0.32624964  0.51229553  1.0
  O  O38  1  0.25582697  0.43662776  0.54845226  1.0
  O  O39  1  0.74477602  0.56595075  0.44885077  1.0
  O  O40  1  0.31314032  0.13445339  0.46857684  1.0
  O  O41  1  0.69242240  0.86820473  0.53420947  1.0
