# generated using pymatgen
data_Zn4H24C36N8O29
_symmetry_space_group_name_H-M   'P 1'
_cell_length_a   17.73114312
_cell_length_b   18.64875454
_cell_length_c   23.26334114
_cell_angle_alpha   113.60489199
_cell_angle_beta   110.13661917
_cell_angle_gamma   90.08523409
_symmetry_Int_Tables_number   1
_chemical_formula_structural   Zn4H24C36N8O29
_chemical_formula_sum   'Zn8 H48 C72 N16 O58'
_cell_volume   6530.48152623
_cell_formula_units_Z   2
loop_
 _symmetry_equiv_pos_site_id
 _symmetry_equiv_pos_as_xyz
  1  'x, y, z'
loop_
 _atom_site_type_symbol
 _atom_site_label
 _atom_site_symmetry_multiplicity
 _atom_site_fract_x
 _atom_site_fract_y
 _atom_site_fract_z
 _atom_site_occupancy
  Zn  Zn0  1  0.11907880  0.52795016  0.05471287  1.0
  Zn  Zn1  1  0.97044273  0.38811949  0.95036576  1.0
  Zn  Zn2  1  0.97981073  0.56167048  0.94987942  1.0
  Zn  Zn3  1  0.93483668  0.53084376  0.06153345  1.0
  Zn  Zn4  1  0.38334505  0.97814231  0.95136720  1.0
  Zn  Zn5  1  0.52780751  0.94316676  0.05913494  1.0
  Zn  Zn6  1  0.52121561  0.11684914  0.05980690  1.0
  Zn  Zn7  1  0.57139898  0.97427192  0.95136415  1.0
  H  H8  1  0.20015909  0.79069131  0.09091403  1.0
  H  H9  1  0.12670775  0.78533592  0.01439396  1.0
  H  H10  1  0.21411120  0.87998679  0.01560013  1.0
  H  H11  1  0.28764771  0.88450103  0.09186321  1.0
  H  H12  1  0.21372304  0.78208431  0.90268615  1.0
  H  H13  1  0.28639725  0.71807203  0.89892159  1.0
  H  H14  1  0.12632240  0.68715729  0.90173959  1.0
  H  H15  1  0.19994830  0.62362575  0.89846134  1.0
  H  H16  1  0.30542478  0.69762169  0.08648884  1.0
  H  H17  1  0.30526597  0.62974848  0.00793588  1.0
  H  H18  1  0.39313470  0.72437122  0.00938464  1.0
  H  H19  1  0.39236560  0.79265539  0.08764350  1.0
  H  H20  1  0.88994303  0.29418599  0.09726689  1.0
  H  H21  1  0.88844470  0.22735757  0.01711468  1.0
  H  H22  1  0.79978893  0.13271698  0.01493780  1.0
  H  H23  1  0.80141772  0.20019200  0.09496116  1.0
  H  H24  1  0.69526683  0.12983384  0.90784900  1.0
  H  H25  1  0.62295880  0.19451010  0.91166992  1.0
  H  H26  1  0.78382176  0.22469488  0.90999466  1.0
  H  H27  1  0.71113393  0.28925725  0.91429049  1.0
  H  H28  1  0.78668639  0.38912539  0.10395358  1.0
  H  H29  1  0.71357164  0.38665423  0.02929313  1.0
  H  H30  1  0.62520585  0.29265078  0.02807953  1.0
  H  H31  1  0.69894358  0.29407467  0.10208689  1.0
  H  H32  1  0.16097988  0.27051489  0.06389072  1.0
  H  H33  1  0.24474020  0.34822943  0.10431462  1.0
  H  H34  1  0.33302764  0.25588490  0.10666259  1.0
  H  H35  1  0.24880870  0.17810465  0.06408091  1.0
  H  H36  1  0.39179465  0.30025421  0.03943775  1.0
  H  H37  1  0.35184492  0.25235024  0.95020591  1.0
  H  H38  1  0.30143814  0.39079360  0.03523234  1.0
  H  H39  1  0.26013027  0.34092571  0.94588784  1.0
  H  H40  1  0.09978352  0.19954002  0.93476256  1.0
  H  H41  1  0.13944449  0.22907055  0.88675423  1.0
  H  H42  1  0.23053102  0.13893021  0.88863406  1.0
  H  H43  1  0.19004650  0.10869460  0.93592485  1.0
  H  H44  1  0.89928753  0.80220616  0.06989500  1.0
  H  H45  1  0.85490411  0.76960393  0.11453095  1.0
  H  H46  1  0.76738704  0.86282592  0.11302171  1.0
  H  H47  1  0.80905968  0.89194214  0.06507366  1.0
  H  H48  1  0.65066874  0.74935098  0.05368106  1.0
  H  H49  1  0.60611786  0.70160353  0.96456878  1.0
  H  H50  1  0.73886847  0.65631449  0.05217745  1.0
  H  H51  1  0.69620371  0.61085491  0.96275546  1.0
  H  H52  1  0.83998023  0.73681673  0.94078299  1.0
  H  H53  1  0.75893452  0.65738663  0.89658402  1.0
  H  H54  1  0.66578800  0.74538879  0.89499990  1.0
  H  H55  1  0.74700001  0.82480837  0.93717302  1.0
  C  C56  1  0.13867976  0.36228666  0.99628745  1.0
  C  C57  1  0.91269640  0.41264941  0.82716485  1.0
  C  C58  1  0.14640746  0.63763824  0.99947898  1.0
  C  C59  1  0.86185144  0.64076401  0.00699315  1.0
  C  C60  1  0.08872237  0.59157254  0.18140973  1.0
  C  C61  1  0.85946313  0.36627781  0.01149309  1.0
  C  C62  1  0.35924887  0.86573612  0.00330185  1.0
  C  C63  1  0.58503607  0.09210935  0.18219459  1.0
  C  C64  1  0.35540558  0.14220286  0.00158633  1.0
  C  C65  1  0.64520455  0.13978480  0.00876423  1.0
  C  C66  1  0.42182732  0.91645008  0.82782536  1.0
  C  C67  1  0.64391083  0.86101862  0.00487663  1.0
  C  C68  1  0.38306904  0.87622960  0.75128816  1.0
  C  C69  1  0.42948569  0.85808947  0.71061499  1.0
  C  C70  1  0.39340366  0.81934827  0.64036064  1.0
  C  C71  1  0.30799985  0.80231626  0.60646371  1.0
  C  C72  1  0.26144173  0.82319978  0.64751403  1.0
  C  C73  1  0.29814543  0.85612793  0.71772796  1.0
  C  C74  1  0.27098897  0.76660572  0.53533991  1.0
  C  C75  1  0.23861287  0.73614635  0.47387088  1.0
  C  C76  1  0.20194272  0.70097223  0.40274056  1.0
  C  C77  1  0.24887031  0.68076623  0.36197097  1.0
  C  C78  1  0.21256745  0.64310324  0.29173305  1.0
  C  C79  1  0.12773754  0.62924730  0.25787519  1.0
  C  C80  1  0.08093825  0.65217888  0.29823260  1.0
  C  C81  1  0.11659123  0.68417194  0.36851492  1.0
  C  C82  1  0.62524742  0.13028021  0.25833978  1.0
  C  C83  1  0.64731664  0.21276780  0.29511654  1.0
  C  C84  1  0.68145709  0.24812016  0.36544250  1.0
  C  C85  1  0.70091809  0.20216546  0.40262897  1.0
  C  C86  1  0.68191905  0.11902512  0.36519880  1.0
  C  C87  1  0.64246795  0.08443469  0.29520214  1.0
  C  C88  1  0.73726374  0.23746822  0.47364931  1.0
  C  C89  1  0.76809216  0.26779935  0.53514722  1.0
  C  C90  1  0.80335926  0.30297908  0.60621504  1.0
  C  C91  1  0.82238521  0.38609327  0.64382220  1.0
  C  C92  1  0.85424301  0.42065241  0.71417496  1.0
  C  C93  1  0.87467287  0.37465888  0.75080580  1.0
  C  C94  1  0.85862970  0.29201149  0.71351817  1.0
  C  C95  1  0.82122628  0.25690994  0.64332409  1.0
  C  C96  1  0.19060966  0.78122319  0.03892532  1.0
  C  C97  1  0.24875998  0.84392006  0.03965207  1.0
  C  C98  1  0.30337063  0.80188617  0.00081594  1.0
  C  C99  1  0.24815388  0.74666049  0.92738502  1.0
  C  C100  1  0.19032667  0.68385693  0.92677873  1.0
  C  C101  1  0.20587346  0.69677304  0.00010411  1.0
  C  C102  1  0.29470701  0.68998850  0.03483264  1.0
  C  C103  1  0.35272791  0.75274106  0.03565311  1.0
  C  C104  1  0.84956652  0.25581654  0.04482275  1.0
  C  C105  1  0.79058598  0.19302507  0.04334098  1.0
  C  C106  1  0.70135074  0.20215768  0.00954317  1.0
  C  C107  1  0.68673297  0.19010136  0.93675167  1.0
  C  C108  1  0.74539058  0.25288565  0.93823463  1.0
  C  C109  1  0.80069653  0.30769194  0.01229937  1.0
  C  C110  1  0.74754021  0.34900590  0.05172556  1.0
  C  C111  1  0.68901023  0.28636812  0.05059514  1.0
  C  C112  1  0.21731623  0.29052911  0.06084795  1.0
  C  C113  1  0.27618417  0.22941877  0.06186966  1.0
  C  C114  1  0.29621869  0.20026350  0.99707798  1.0
  C  C115  1  0.33511368  0.27266715  0.99489806  1.0
  C  C116  1  0.27495529  0.33241339  0.99247666  1.0
  C  C117  1  0.19560282  0.30146118  0.99474783  1.0
  C  C118  1  0.15670703  0.22106901  0.93363782  1.0
  C  C119  1  0.21666395  0.16097450  0.93476068  1.0
  C  C120  1  0.84117356  0.77970830  0.06883484  1.0
  C  C121  1  0.78162036  0.84050616  0.06707481  1.0
  C  C122  1  0.70167148  0.80076508  0.00393324  1.0
  C  C123  1  0.66444432  0.72875804  0.00768785  1.0
  C  C124  1  0.72381388  0.66798393  0.00716256  1.0
  C  C125  1  0.80313342  0.69990478  0.00551685  1.0
  C  C126  1  0.78331688  0.71422889  0.94160884  1.0
  C  C127  1  0.72220822  0.77301008  0.94007738  1.0
  N  N128  1  0.51979473  0.88059676  0.74213623  1.0
  N  N129  1  0.24405794  0.86893104  0.75666682  1.0
  N  N130  1  0.17149341  0.80864749  0.61415379  1.0
  N  N131  1  0.44463778  0.79589047  0.59924169  1.0
  N  N132  1  0.33876824  0.69991972  0.39566537  1.0
  N  N133  1  0.06478109  0.70228994  0.40919035  1.0
  N  N134  1  0.99061380  0.64312362  0.26645113  1.0
  N  N135  1  0.26682396  0.61701219  0.25294730  1.0
  N  N136  1  0.63560249  0.26493372  0.25916949  1.0
  N  N137  1  0.61805718  0.99658234  0.25980772  1.0
  N  N138  1  0.70409524  0.06857914  0.40216979  1.0
  N  N139  1  0.69924790  0.33570345  0.40292983  1.0
  N  N140  1  0.80667633  0.43647681  0.60659910  1.0
  N  N141  1  0.80021380  0.16940185  0.60572787  1.0
  N  N142  1  0.88249734  0.23929072  0.74866545  1.0
  N  N143  1  0.86555322  0.50869652  0.75024594  1.0
  O  O144  1  0.00081738  0.50268748  0.00534774  1.0
  O  O145  1  0.16652707  0.43179136  0.04468837  1.0
  O  O146  1  0.89975300  0.37185267  0.85618219  1.0
  O  O147  1  0.07083445  0.63650109  0.96875505  1.0
  O  O148  1  0.06749688  0.33987382  0.95005617  1.0
  O  O149  1  0.17501774  0.59401191  0.02970289  1.0
  O  O150  1  0.95368325  0.48137750  0.85412471  1.0
  O  O151  1  0.88889118  0.61632210  0.95937982  1.0
  O  O152  1  0.01542812  0.55796609  0.15594111  1.0
  O  O153  1  0.87946705  0.61948726  0.05541835  1.0
  O  O154  1  0.13375403  0.59771878  0.15099429  1.0
  O  O155  1  0.90573257  0.33617731  0.97931219  1.0
  O  O156  1  0.85863822  0.44026445  0.04179552  1.0
  O  O157  1  0.50084649  0.00235181  0.00372779  1.0
  O  O158  1  0.33316174  0.88900332  0.95621054  1.0
  O  O159  1  0.59697367  0.02203590  0.15298262  1.0
  O  O160  1  0.43072533  0.17154930  0.03588176  1.0
  O  O161  1  0.42760174  0.89297513  0.05324869  1.0
  O  O162  1  0.32603524  0.06846242  0.97243707  1.0
  O  O163  1  0.54374504  0.13386793  0.15548449  1.0
  O  O164  1  0.61658834  0.16211729  0.05544463  1.0
  O  O165  1  0.49497074  0.90877890  0.85444404  1.0
  O  O166  1  0.63175328  0.06937548  0.96215054  1.0
  O  O167  1  0.37622470  0.95389317  0.85706930  1.0
  O  O168  1  0.59766257  0.86506410  0.03740279  1.0
  O  O169  1  0.64608097  0.90400137  0.97418116  1.0
  O  O170  1  0.54621277  0.95175723  0.76722433  1.0
  O  O171  1  0.55876461  0.82542525  0.73851063  1.0
  O  O172  1  0.24535064  0.82448358  0.78418980  1.0
  O  O173  1  0.20169909  0.92099033  0.75562330  1.0
  O  O174  1  0.14300782  0.84104516  0.57624184  1.0
  O  O175  1  0.13398070  0.76533965  0.62718591  1.0
  O  O176  1  0.43208721  0.72515136  0.55986404  1.0
  O  O177  1  0.49438032  0.84921371  0.60799097  1.0
  O  O178  1  0.36709716  0.77027146  0.43375538  1.0
  O  O179  1  0.37641621  0.64379571  0.38267911  1.0
  O  O180  1  0.07633913  0.67112746  0.44862717  1.0
  O  O181  1  0.01554600  0.74702779  0.40001559  1.0
  O  O182  1  0.96449728  0.68907270  0.24119444  1.0
  O  O183  1  0.95133252  0.59187582  0.27029837  1.0
  O  O184  1  0.26611922  0.54511718  0.22609827  1.0
  O  O185  1  0.30850694  0.67015571  0.25329323  1.0
  O  O186  1  0.67999499  0.26055830  0.22766121  1.0
  O  O187  1  0.58415347  0.30848813  0.26593435  1.0
  O  O188  1  0.54460971  0.97182947  0.23576378  1.0
  O  O189  1  0.67407095  0.95766038  0.25962536  1.0
  O  O190  1  0.77658074  0.07887750  0.43815806  1.0
  O  O191  1  0.64802596  0.02154279  0.39366371  1.0
  O  O192  1  0.66706653  0.36519830  0.44450963  1.0
  O  O193  1  0.74486794  0.37053752  0.38920645  1.0
  O  O194  1  0.84081951  0.42465570  0.56631372  1.0
  O  O195  1  0.76066362  0.48485475  0.61914205  1.0
  O  O196  1  0.72810314  0.14283225  0.56880347  1.0
  O  O197  1  0.85680084  0.13168509  0.61463174  1.0
  O  O198  1  0.95599809  0.24008310  0.77430339  1.0
  O  O199  1  0.82620690  0.19891452  0.74713084  1.0
  O  O200  1  0.81964173  0.53541398  0.78027246  1.0
  O  O201  1  0.91831904  0.54586137  0.74498766  1.0
