# generated using pymatgen
data_Zn4H28C49N4O21
_symmetry_space_group_name_H-M   'P 1'
_cell_length_a   19.52348998
_cell_length_b   19.54857276
_cell_length_c   19.58220265
_cell_angle_alpha   90.18976195
_cell_angle_beta   95.24741899
_cell_angle_gamma   95.56160730
_symmetry_Int_Tables_number   1
_chemical_formula_structural   Zn4H28C49N4O21
_chemical_formula_sum   'Zn4 H28 C49 N4 O21'
_cell_volume   7406.75713874
_cell_formula_units_Z   1
loop_
 _symmetry_equiv_pos_site_id
 _symmetry_equiv_pos_as_xyz
  1  'x, y, z'
loop_
 _atom_site_type_symbol
 _atom_site_label
 _atom_site_symmetry_multiplicity
 _atom_site_fract_x
 _atom_site_fract_y
 _atom_site_fract_z
 _atom_site_occupancy
  Zn  Zn0  1  0.44273389  0.44006036  0.55714426  1.0
  Zn  Zn1  1  0.44024042  0.55196612  0.43623661  1.0
  Zn  Zn2  1  0.55139388  0.44242726  0.44709173  1.0
  Zn  Zn3  1  0.56262003  0.56625893  0.55752377  1.0
  H  H4  1  0.37575350  0.48990969  0.22840749  1.0
  H  H5  1  0.41788014  0.47543623  0.99445570  1.0
  H  H6  1  0.58646067  0.48539581  0.10643101  1.0
  H  H7  1  0.61906516  0.52673117  0.77173788  1.0
  H  H8  1  0.57369199  0.52273859  0.00838529  1.0
  H  H9  1  0.40652919  0.50867966  0.89323373  1.0
  H  H10  1  0.36519716  0.48656250  0.10065340  1.0
  H  H11  1  0.56787383  0.23462010  0.43759450  1.0
  H  H12  1  0.56157797  0.77659012  0.58576116  1.0
  H  H13  1  0.45902690  0.76210946  0.38180787  1.0
  H  H14  1  0.50969640  0.00278425  0.42709595  1.0
  H  H15  1  0.44162269  0.10346764  0.61227158  1.0
  H  H16  1  0.56286603  0.90395148  0.58339651  1.0
  H  H17  1  0.43693535  0.23009119  0.60265782  1.0
  H  H18  1  0.49874590  0.99929492  0.58274631  1.0
  H  H19  1  0.57257529  0.10822932  0.44614632  1.0
  H  H20  1  0.46233370  0.88985194  0.37769759  1.0
  H  H21  1  0.22637332  0.57992300  0.43879396  1.0
  H  H22  1  0.23149358  0.38180763  0.53282782  1.0
  H  H23  1  0.98858759  0.41479615  0.48171771  1.0
  H  H24  1  0.90351844  0.62685004  0.50275219  1.0
  H  H25  1  0.09827063  0.56855726  0.43681539  1.0
  H  H26  1  0.77688868  0.62223690  0.51123012  1.0
  H  H27  1  0.00848853  0.57155274  0.50515279  1.0
  H  H28  1  0.88891301  0.40472539  0.50966268  1.0
  H  H29  1  0.65695880  0.49391955  0.20367634  1.0
  H  H30  1  0.62870378  0.52416379  0.28139754  1.0
  H  H31  1  0.62435519  0.43534045  0.26531770  1.0
  C  C32  1  0.50785766  0.68548530  0.48731605  1.0
  C  C33  1  0.49842309  0.31519359  0.51260663  1.0
  C  C34  1  0.31450921  0.48897546  0.49053125  1.0
  C  C35  1  0.68474735  0.51087142  0.51032804  1.0
  C  C36  1  0.48771871  0.48898763  0.31499879  1.0
  C  C37  1  0.50494521  0.51313728  0.68346235  1.0
  C  C38  1  0.50793499  0.51767930  0.76014115  1.0
  C  C39  1  0.44940868  0.51296973  0.79725380  1.0
  C  C40  1  0.45405512  0.51009164  0.86801501  1.0
  C  C41  1  0.51848040  0.51109650  0.90736888  1.0
  C  C42  1  0.57706602  0.51776923  0.86931099  1.0
  C  C43  1  0.57209995  0.52179463  0.79802319  1.0
  C  C44  1  0.53981282  0.48685043  0.13293325  1.0
  C  C45  1  0.54678010  0.48606643  0.20443544  1.0
  C  C46  1  0.42149900  0.48843972  0.20067994  1.0
  C  C47  1  0.41578046  0.48686255  0.12950501  1.0
  C  C48  1  0.47553314  0.48771057  0.09422571  1.0
  C  C49  1  0.52283111  0.50898071  0.98176425  1.0
  C  C50  1  0.46959386  0.49013231  0.01964408  1.0
  C  C51  1  0.48599923  0.48777287  0.23865764  1.0
  C  C52  1  0.50116293  0.23974268  0.51875712  1.0
  C  C53  1  0.53938914  0.20509877  0.47472895  1.0
  C  C54  1  0.54144869  0.13454177  0.47943066  1.0
  C  C55  1  0.50563137  0.09652456  0.52843157  1.0
  C  C56  1  0.46912875  0.13215583  0.57369628  1.0
  C  C57  1  0.46621421  0.20272367  0.56852931  1.0
  C  C58  1  0.53908827  0.87296610  0.53952429  1.0
  C  C59  1  0.53890051  0.80200520  0.54098105  1.0
  C  C60  1  0.48164997  0.79372646  0.42559739  1.0
  C  C61  1  0.48356914  0.86490973  0.42362982  1.0
  C  C62  1  0.51098309  0.90586505  0.48095538  1.0
  C  C63  1  0.50572371  0.02203861  0.53254180  1.0
  C  C64  1  0.50998509  0.98027995  0.47821936  1.0
  C  C65  1  0.50945095  0.76161841  0.48436817  1.0
  C  C66  1  0.76177846  0.51222315  0.51380907  1.0
  C  C67  1  0.79570554  0.45208742  0.51357970  1.0
  C  C68  1  0.86592804  0.45331849  0.50792929  1.0
  C  C69  1  0.90630929  0.51655488  0.50283611  1.0
  C  C70  1  0.87310461  0.57719242  0.50543221  1.0
  C  C71  1  0.80222786  0.57499850  0.51058616  1.0
  C  C72  1  0.12770812  0.52836059  0.45956078  1.0
  C  C73  1  0.19916220  0.53462314  0.45976937  1.0
  C  C74  1  0.20275303  0.42315258  0.51197964  1.0
  C  C75  1  0.13119772  0.41750272  0.51123310  1.0
  C  C76  1  0.09108991  0.47032061  0.48652956  1.0
  C  C77  1  0.98058086  0.52041161  0.49743185  1.0
  C  C78  1  0.01616375  0.46593090  0.48709214  1.0
  C  C79  1  0.23742496  0.48234027  0.48717026  1.0
  C  C80  1  0.61805969  0.48494412  0.24055985  1.0
  N  N81  1  0.37965821  0.51694750  0.76188815  1.0
  N  N82  1  0.75801188  0.38432214  0.52480122  1.0
  N  N83  1  0.09931608  0.35404039  0.54076299  1.0
  N  N84  1  0.64811901  0.51985488  0.90289578  1.0
  O  O85  1  0.49930871  0.50104440  0.50049214  1.0
  O  O86  1  0.54340237  0.66079149  0.53792224  1.0
  O  O87  1  0.46355344  0.34444899  0.55452610  1.0
  O  O88  1  0.34328443  0.53898743  0.45842144  1.0
  O  O89  1  0.65134956  0.46711675  0.46854514  1.0
  O  O90  1  0.44104100  0.51964598  0.34095372  1.0
  O  O91  1  0.55117213  0.55093408  0.65585280  1.0
  O  O92  1  0.53525148  0.45912839  0.34854536  1.0
  O  O93  1  0.45861459  0.46969393  0.65446026  1.0
  O  O94  1  0.34476266  0.44379730  0.52543888  1.0
  O  O95  1  0.66053010  0.55548422  0.54649552  1.0
  O  O96  1  0.47103129  0.65056871  0.43945920  1.0
  O  O97  1  0.53082558  0.34513896  0.46534815  1.0
  O  O98  1  0.33169170  0.47870727  0.78237069  1.0
  O  O99  1  0.37432176  0.56003325  0.71606232  1.0
  O  O100  1  0.77340044  0.33474194  0.49187173  1.0
  O  O101  1  0.71531777  0.38176855  0.56799441  1.0
  O  O102  1  0.04365747  0.35655471  0.56642622  1.0
  O  O103  1  0.13068693  0.30201846  0.53884408  1.0
  O  O104  1  0.65808018  0.48529993  0.95534496  1.0
  O  O105  1  0.69376337  0.55551463  0.87554501  1.0
