# generated using pymatgen
data_ZnH25C24SN3O5
_symmetry_space_group_name_H-M   'P 1'
_cell_length_a   12.74649135
_cell_length_b   16.32023837
_cell_length_c   17.27484516
_cell_angle_alpha   95.90429231
_cell_angle_beta   93.33448225
_cell_angle_gamma   90.76992898
_symmetry_Int_Tables_number   1
_chemical_formula_structural   ZnH25C24SN3O5
_chemical_formula_sum   'Zn2 H50 C48 S2 N6 O10'
_cell_volume   3567.81512074
_cell_formula_units_Z   2
loop_
 _symmetry_equiv_pos_site_id
 _symmetry_equiv_pos_as_xyz
  1  'x, y, z'
loop_
 _atom_site_type_symbol
 _atom_site_label
 _atom_site_symmetry_multiplicity
 _atom_site_fract_x
 _atom_site_fract_y
 _atom_site_fract_z
 _atom_site_occupancy
  Zn  Zn0  1  0.50264623  0.40831461  0.49984980  1.0
  Zn  Zn1  1  0.49320868  0.59294557  0.50117338  1.0
  H  H2  1  0.72934558  0.73115907  0.57459835  1.0
  H  H3  1  0.63687443  0.65821585  0.59790250  1.0
  H  H4  1  0.66200545  0.74995753  0.66151654  1.0
  H  H5  1  0.65572401  0.87475584  0.67825090  1.0
  H  H6  1  0.62511247  0.96610491  0.63415282  1.0
  H  H7  1  0.72801990  0.90205150  0.60024615  1.0
  H  H8  1  0.27155039  0.71153384  0.43531264  1.0
  H  H9  1  0.37353628  0.65094368  0.39601488  1.0
  H  H10  1  0.33741725  0.74247916  0.35504102  1.0
  H  H11  1  0.35318535  0.89476898  0.36525877  1.0
  H  H12  1  0.32050059  0.95221131  0.45253804  1.0
  H  H13  1  0.26195708  0.85331846  0.42500941  1.0
  H  H14  1  0.27076531  0.09734458  0.40140771  1.0
  H  H15  1  0.37445229  0.03546592  0.36539314  1.0
  H  H16  1  0.34083536  0.12761786  0.32347953  1.0
  H  H17  1  0.34092921  0.25496582  0.33885638  1.0
  H  H18  1  0.35455609  0.34281853  0.40820610  1.0
  H  H19  1  0.26588054  0.26248690  0.42261701  1.0
  H  H20  1  0.73783784  0.14819020  0.57377575  1.0
  H  H21  1  0.67898614  0.04924094  0.54723858  1.0
  H  H22  1  0.64771563  0.10722583  0.63462741  1.0
  H  H23  1  0.66279737  0.25939472  0.64452139  1.0
  H  H24  1  0.62645879  0.35080269  0.60344373  1.0
  H  H25  1  0.72733663  0.28941021  0.56338271  1.0
  H  H26  1  0.43465932  0.29443042  0.22764318  1.0
  H  H27  1  0.52137131  0.32905916  0.30904982  1.0
  H  H28  1  0.57120362  0.28411330  0.22052516  1.0
  H  H29  1  0.57730671  0.28227645  0.10627333  1.0
  H  H30  1  0.54047922  0.33471629  0.02383422  1.0
  H  H31  1  0.44311632  0.29482786  0.08023605  1.0
  H  H32  1  0.62384165  0.67612374  0.24434561  1.0
  H  H33  1  0.60020064  0.63440446  0.33277716  1.0
  H  H34  1  0.49695974  0.67864870  0.28019913  1.0
  H  H35  1  0.49031030  0.67402975  0.10903962  1.0
  H  H36  1  0.57992281  0.62295744  0.04793472  1.0
  H  H37  1  0.62476486  0.67287260  0.13983898  1.0
  H  H38  1  0.55513374  0.70105949  0.93188101  1.0
  H  H39  1  0.44453038  0.66325245  0.97599987  1.0
  H  H40  1  0.42760324  0.71867034  0.89246390  1.0
  H  H41  1  0.43343618  0.71587254  0.76793872  1.0
  H  H42  1  0.51966940  0.67461901  0.69874567  1.0
  H  H43  1  0.56874767  0.71193626  0.79535464  1.0
  H  H44  1  0.38129742  0.32359618  0.84997196  1.0
  H  H45  1  0.41805281  0.37154917  0.94457906  1.0
  H  H46  1  0.51406871  0.32564172  0.88576774  1.0
  H  H47  1  0.50577753  0.32466793  0.71593790  1.0
  H  H48  1  0.41139725  0.37430153  0.65893283  1.0
  H  H49  1  0.37422764  0.32950619  0.74262177  1.0
  H  H50  1  0.07176421  0.31221062  0.50699048  1.0
  H  H51  1  0.92499453  0.67899113  0.49685409  1.0
  C  C52  1  0.49917394  0.49054979  0.34814932  1.0
  C  C53  1  0.29455874  0.49457750  0.50678758  1.0
  C  C54  1  0.49836632  0.51811428  0.65185538  1.0
  C  C55  1  0.70189678  0.49692668  0.49363642  1.0
  C  C56  1  0.42636675  0.76366187  0.46459229  1.0
  C  C57  1  0.42228190  0.85021017  0.46995759  1.0
  C  C58  1  0.49841251  0.89542556  0.51989905  1.0
  C  C59  1  0.57082159  0.85460896  0.56624240  1.0
  C  C60  1  0.57035648  0.76803340  0.55655563  1.0
  C  C61  1  0.42732836  0.14642491  0.43482662  1.0
  C  C62  1  0.50046580  0.10575589  0.48066197  1.0
  C  C63  1  0.57685827  0.15117366  0.53019067  1.0
  C  C64  1  0.57221082  0.23770363  0.53567328  1.0
  C  C65  1  0.42678957  0.23299464  0.44494471  1.0
  C  C66  1  0.52140655  0.48488058  0.26234128  1.0
  C  C67  1  0.54226577  0.55871602  0.22739438  1.0
  C  C68  1  0.54148556  0.55717626  0.14544713  1.0
  C  C69  1  0.52655107  0.48075244  0.09901649  1.0
  C  C70  1  0.52355543  0.40628410  0.13378525  1.0
  C  C71  1  0.51850475  0.40790029  0.21517127  1.0
  C  C72  1  0.47693795  0.59341699  0.86799847  1.0
  C  C73  1  0.47170938  0.51737642  0.89996119  1.0
  C  C74  1  0.45982060  0.44224976  0.85111250  1.0
  C  C75  1  0.46067494  0.44407179  0.76961655  1.0
  C  C76  1  0.48129549  0.51949426  0.73795614  1.0
  C  C77  1  0.48680523  0.59463668  0.78743483  1.0
  C  C78  1  0.10753373  0.42591058  0.50575007  1.0
  C  C79  1  0.88912317  0.56527955  0.49772507  1.0
  C  C80  1  0.17894263  0.49120475  0.50654601  1.0
  C  C81  1  0.81759093  0.49984086  0.49562030  1.0
  C  C82  1  0.99464491  0.53815755  0.50071880  1.0
  C  C83  1  0.00195584  0.45290958  0.50172966  1.0
  C  C84  1  0.65313243  0.72412360  0.60027190  1.0
  C  C85  1  0.64892134  0.90206750  0.62276908  1.0
  C  C86  1  0.34851828  0.71411723  0.40978875  1.0
  C  C87  1  0.33491348  0.88990204  0.42613105  1.0
  C  C88  1  0.34938843  0.09901132  0.37820351  1.0
  C  C89  1  0.34320655  0.27623711  0.40134441  1.0
  C  C90  1  0.66493148  0.11168580  0.57347497  1.0
  C  C91  1  0.65082323  0.28742455  0.58964396  1.0
  C  C92  1  0.51126780  0.32476361  0.24585018  1.0
  C  C93  1  0.52109752  0.32540470  0.08314369  1.0
  C  C94  1  0.56759525  0.64090912  0.27407593  1.0
  C  C95  1  0.56052469  0.63538375  0.10863492  1.0
  C  C96  1  0.47577553  0.67320380  0.92002944  1.0
  C  C97  1  0.50404733  0.67838177  0.76010551  1.0
  C  C98  1  0.44185282  0.36198308  0.88465810  1.0
  C  C99  1  0.43664667  0.36439877  0.71861678  1.0
  S  S100  1  0.11659245  0.58563082  0.50274368  1.0
  S  S101  1  0.87989837  0.40515281  0.49708902  1.0
  N  N102  1  0.49922345  0.72394884  0.50666519  1.0
  N  N103  1  0.50298429  0.98294647  0.53104492  1.0
  N  N104  1  0.49619547  0.01823337  0.46945677  1.0
  N  N105  1  0.49808855  0.27725279  0.49454074  1.0
  N  N106  1  0.52474397  0.47204992  0.01633125  1.0
  N  N107  1  0.47134962  0.52415565  0.98250057  1.0
  O  O108  1  0.48838218  0.42533763  0.38201552  1.0
  O  O109  1  0.48869568  0.56237538  0.38305274  1.0
  O  O110  1  0.33278849  0.56430083  0.49462356  1.0
  O  O111  1  0.34550011  0.42977946  0.51846971  1.0
  O  O112  1  0.47586373  0.58172061  0.61742157  1.0
  O  O113  1  0.53611267  0.45323108  0.61731755  1.0
  O  O114  1  0.66104778  0.42441001  0.48666177  1.0
  O  O115  1  0.65334627  0.56464429  0.49956662  1.0
  O  O116  1  0.13567070  0.34575035  0.50759796  1.0
  O  O117  1  0.86107075  0.64554206  0.49665096  1.0
