# generated using pymatgen
data_AlH2C9NO7
_symmetry_space_group_name_H-M   'P 1'
_cell_length_a   6.68862048
_cell_length_b   18.19291540
_cell_length_c   20.84934535
_cell_angle_alpha   71.89091621
_cell_angle_beta   89.44317980
_cell_angle_gamma   89.58769272
_symmetry_Int_Tables_number   1
_chemical_formula_structural   AlH2C9NO7
_chemical_formula_sum   'Al4 H8 C36 N4 O28'
_cell_volume   2411.25630031
_cell_formula_units_Z   4
loop_
 _symmetry_equiv_pos_site_id
 _symmetry_equiv_pos_as_xyz
  1  'x, y, z'
loop_
 _atom_site_type_symbol
 _atom_site_label
 _atom_site_symmetry_multiplicity
 _atom_site_fract_x
 _atom_site_fract_y
 _atom_site_fract_z
 _atom_site_occupancy
  Al  Al0  1  0.86634645  0.50026788  0.50108327  1.0
  Al  Al1  1  0.36699630  0.49968542  0.50167741  1.0
  Al  Al2  1  0.35284363  0.99930718  0.00100643  1.0
  Al  Al3  1  0.85235753  0.99926158  0.00069942  1.0
  H  H4  1  0.84607594  0.35310055  0.24402813  1.0
  H  H5  1  0.31227040  0.67649653  0.74312779  1.0
  H  H6  1  0.32197556  0.75674353  0.82089845  1.0
  H  H7  1  0.91635821  0.74700505  0.67839676  1.0
  H  H8  1  0.61895370  0.39986882  0.51190451  1.0
  H  H9  1  0.11696675  0.60044418  0.46749474  1.0
  H  H10  1  0.60106645  0.10014440  0.98694201  1.0
  H  H11  1  0.10513502  0.90695889  0.99358648  1.0
  C  C12  1  0.61736032  0.60618050  0.39661208  1.0
  C  C13  1  0.61245161  0.57738922  0.57645138  1.0
  C  C14  1  0.11461605  0.39441846  0.60531391  1.0
  C  C15  1  0.12115464  0.42192944  0.42567554  1.0
  C  C16  1  0.95414288  0.26831460  0.20057792  1.0
  C  C17  1  0.09280632  0.20869330  0.20147151  1.0
  C  C18  1  0.24572321  0.19655112  0.25027678  1.0
  C  C19  1  0.26252183  0.24201309  0.29245450  1.0
  C  C20  1  0.11896901  0.29937271  0.29205913  1.0
  C  C21  1  0.96258371  0.31068258  0.24536315  1.0
  C  C22  1  0.08632438  0.16329564  0.15776585  1.0
  C  C23  1  0.12540035  0.34245441  0.33778907  1.0
  C  C24  1  0.12347715  0.37918824  0.37757876  1.0
  C  C25  1  0.09482320  0.12148289  0.12220137  1.0
  C  C26  1  0.10582124  0.16799197  0.83343011  1.0
  C  C27  1  0.10771679  0.22088997  0.78016591  1.0
  C  C28  1  0.11012688  0.27939054  0.72142652  1.0
  C  C29  1  0.11264808  0.33250616  0.66830780  1.0
  C  C30  1  0.61573099  0.66772882  0.33344248  1.0
  C  C31  1  0.61171984  0.72087853  0.28036096  1.0
  C  C32  1  0.60715941  0.77944358  0.22171973  1.0
  C  C33  1  0.60245385  0.83243927  0.16857479  1.0
  C  C34  1  0.45196103  0.75243803  0.79039600  1.0
  C  C35  1  0.62489848  0.79374273  0.79650228  1.0
  C  C36  1  0.79058479  0.78954128  0.75504673  1.0
  C  C37  1  0.78603084  0.74736807  0.70999451  1.0
  C  C38  1  0.61380534  0.70516572  0.70586027  1.0
  C  C39  1  0.44641567  0.70859502  0.74669240  1.0
  C  C40  1  0.62244526  0.83850086  0.84097891  1.0
  C  C41  1  0.61063843  0.66037090  0.66129297  1.0
  C  C42  1  0.61091736  0.62183665  0.62288458  1.0
  C  C43  1  0.60936285  0.87677597  0.87944226  1.0
  C  C44  1  0.60692868  0.92165618  0.92544901  1.0
  C  C45  1  0.60013864  0.89377218  0.10503144  1.0
  C  C46  1  0.09713947  0.07580078  0.07669125  1.0
  C  C47  1  0.10541820  0.10667256  0.89699807  1.0
  N  N48  1  0.78992825  0.28748980  0.15086528  1.0
  N  N49  1  0.39313815  0.13373339  0.25594942  1.0
  N  N50  1  0.42952302  0.22858359  0.34087329  1.0
  N  N51  1  0.97845579  0.82962401  0.75892761  1.0
  O  O52  1  0.44278374  0.55949567  0.55869605  1.0
  O  O53  1  0.78823972  0.58216748  0.42108786  1.0
  O  O54  1  0.94940493  0.43815514  0.44435244  1.0
  O  O55  1  0.78358857  0.56128484  0.55698910  1.0
  O  O56  1  0.94506691  0.41907668  0.58025908  1.0
  O  O57  1  0.44711695  0.58229943  0.42233292  1.0
  O  O58  1  0.61761776  0.45438038  0.50781608  1.0
  O  O59  1  0.28553007  0.41798243  0.58028390  1.0
  O  O60  1  0.29102646  0.43790142  0.44460977  1.0
  O  O61  1  0.11626502  0.54570680  0.49245022  1.0
  O  O62  1  0.77013398  0.91574630  0.07835375  1.0
  O  O63  1  0.43628704  0.93694583  0.94599114  1.0
  O  O64  1  0.27622814  0.08180915  0.92081189  1.0
  O  O65  1  0.42918044  0.91868978  0.08166074  1.0
  O  O66  1  0.26814527  0.06078526  0.05665394  1.0
  O  O67  1  0.77675840  0.94108907  0.94195025  1.0
  O  O68  1  0.60201833  0.04495953  0.99395358  1.0
  O  O69  1  0.92783109  0.05636636  0.06036767  1.0
  O  O70  1  0.93471136  0.08452698  0.92316073  1.0
  O  O71  1  0.10329771  0.95390812  0.00632415  1.0
  O  O72  1  0.64645023  0.32459888  0.16316081  1.0
  O  O73  1  0.80791990  0.26581473  0.10051948  1.0
  O  O74  1  0.32570300  0.06809693  0.26831040  1.0
  O  O75  1  0.57108027  0.15285322  0.24767945  1.0
  O  O76  1  0.43800987  0.16424075  0.38379348  1.0
  O  O77  1  0.54359617  0.28337684  0.33455140  1.0
  O  O78  1  0.02579054  0.83459640  0.81479383  1.0
  O  O79  1  0.07947478  0.85379739  0.70643679  1.0
