# generated using pymatgen
data_Zn4H37C60N16Cl3O4
_symmetry_space_group_name_H-M   'P 1'
_cell_length_a   13.61230093
_cell_length_b   15.14373673
_cell_length_c   16.89331693
_cell_angle_alpha   109.74516061
_cell_angle_beta   102.78895974
_cell_angle_gamma   108.76858153
_symmetry_Int_Tables_number   1
_chemical_formula_structural   Zn4H37C60N16Cl3O4
_chemical_formula_sum   'Zn4 H37 C60 N16 Cl3 O4'
_cell_volume   2882.67112826
_cell_formula_units_Z   1
loop_
 _symmetry_equiv_pos_site_id
 _symmetry_equiv_pos_as_xyz
  1  'x, y, z'
loop_
 _atom_site_type_symbol
 _atom_site_label
 _atom_site_symmetry_multiplicity
 _atom_site_fract_x
 _atom_site_fract_y
 _atom_site_fract_z
 _atom_site_occupancy
  Zn  Zn0  1  0.39228893  0.02302131  0.90284936  1.0
  Zn  Zn1  1  0.62485973  0.99635659  0.11084099  1.0
  Zn  Zn2  1  0.35133019  0.89331339  0.01794151  1.0
  Zn  Zn3  1  0.66947709  0.13701435  0.99953024  1.0
  H  H4  1  0.25841158  0.15104377  0.95380513  1.0
  H  H5  1  0.78089580  0.71969102  0.02522973  1.0
  H  H6  1  0.58494632  0.13863549  0.27275858  1.0
  H  H7  1  0.99933022  0.72349884  0.58197259  1.0
  H  H8  1  0.98606095  0.54109581  0.73153030  1.0
  H  H9  1  0.87375547  0.63998732  0.42100277  1.0
  H  H10  1  0.84002911  0.38748342  0.59800191  1.0
  H  H11  1  0.74171835  0.48177070  0.28341694  1.0
  H  H12  1  0.63495370  0.88273207  0.39201226  1.0
  H  H13  1  0.29008493  0.81121859  0.16846208  1.0
  H  H14  1  0.73180767  0.90315941  0.54405943  1.0
  H  H15  1  0.67532592  0.82285973  0.98854652  1.0
  H  H16  1  0.26697984  0.72013437  0.41257334  1.0
  H  H17  1  0.72494872  0.92174475  0.69058618  1.0
  H  H18  1  0.36390598  0.78060394  0.57755317  1.0
  H  H19  1  0.02697647  0.96240457  0.07432677  1.0
  H  H20  1  0.81490168  0.83829234  0.97640260  1.0
  H  H21  1  0.98680913  0.84330968  0.74295843  1.0
  H  H22  1  0.13089523  0.02309547  0.82633362  1.0
  H  H23  1  0.71435091  0.36156202  0.97595655  1.0
  H  H24  1  0.03037821  0.06971985  0.79258247  1.0
  H  H25  1  0.64809904  0.91539058  0.27336226  1.0
  H  H26  1  0.10018449  0.68567741  0.86135424  1.0
  H  H27  1  0.35345810  0.20343626  0.85548266  1.0
  H  H28  1  0.71169648  0.34904508  0.15972411  1.0
  H  H29  1  0.18801575  0.96107117  0.09502163  1.0
  H  H30  1  0.36007674  0.83511498  0.72353270  1.0
  H  H31  1  0.77423736  0.96686092  0.82772289  1.0
  H  H32  1  0.65345699  0.73020065  0.13686620  1.0
  H  H33  1  0.19338282  0.69487669  0.27123707  1.0
  H  H34  1  0.82444406  0.82029583  0.63848197  1.0
  H  H35  1  0.91094558  0.13852463  0.99179828  1.0
  H  H36  1  0.84310025  0.95527684  0.13872489  1.0
  H  H37  1  0.17661023  0.85658788  0.70586169  1.0
  H  H38  1  0.31423511  0.66731863  0.88782395  1.0
  H  H39  1  0.36417322  0.33840296  0.80356470  1.0
  H  H40  1  0.34641844  0.49409995  0.80641585  1.0
  C  C41  1  0.25691388  0.10163056  0.98787394  1.0
  C  C42  1  0.17221831  0.82795778  0.75654630  1.0
  C  C43  1  0.63172549  0.97047599  0.82015316  1.0
  C  C44  1  0.61177144  0.17736305  0.23289358  1.0
  C  C45  1  0.40221352  0.72097657  0.91682096  1.0
  C  C46  1  0.54146765  0.89396769  0.73852022  1.0
  C  C47  1  0.49708217  0.70076495  0.92482445  1.0
  C  C48  1  0.09778893  0.73248209  0.74748064  1.0
  C  C49  1  0.91365540  0.03169471  0.05699890  1.0
  C  C50  1  0.61141445  0.51713017  0.96632398  1.0
  C  C51  1  0.52774013  0.41609836  0.90936004  1.0
  C  C52  1  0.66807324  0.28412822  0.25675412  1.0
  C  C53  1  0.43329478  0.41383453  0.85136662  1.0
  C  C54  1  0.42304736  0.50326148  0.85271072  1.0
  C  C55  1  0.50744825  0.60465616  0.91176988  1.0
  C  C56  1  0.37899545  0.84207245  0.18279336  1.0
  C  C57  1  0.60231549  0.60630005  0.96671237  1.0
  C  C58  1  0.71341191  0.68143693  0.04471404  1.0
  C  C59  1  0.71916395  0.57811281  0.04766863  1.0
  C  C60  1  0.00634025  0.64448557  0.66684973  1.0
  C  C61  1  0.72726681  0.37591351  0.34499695  1.0
  C  C62  1  0.84292146  0.56546758  0.42380293  1.0
  C  C63  1  0.46395647  0.84493264  0.25011190  1.0
  C  C64  1  0.76893059  0.47652247  0.34673040  1.0
  C  C65  1  0.75906331  0.37355403  0.42856068  1.0
  C  C66  1  0.83648587  0.46367874  0.51013340  1.0
  C  C67  1  0.88215520  0.56169355  0.50731487  1.0
  C  C68  1  0.62650145  0.30788943  0.94792569  1.0
  C  C69  1  0.96576149  0.65005045  0.58631854  1.0
  C  C70  1  0.95696904  0.54746764  0.66905907  1.0
  C  C71  1  0.87485441  0.46061983  0.59397673  1.0
  C  C72  1  0.45721231  0.81595896  0.32367461  1.0
  C  C73  1  0.54307227  0.85679738  0.64701106  1.0
  C  C74  1  0.53245654  0.32300849  0.91292305  1.0
  C  C75  1  0.65084177  0.87569740  0.55075006  1.0
  C  C76  1  0.64660114  0.88580999  0.63375295  1.0
  C  C77  1  0.44499782  0.80596830  0.57073775  1.0
  C  C78  1  0.44677226  0.79576212  0.48473928  1.0
  C  C79  1  0.55193804  0.83631988  0.47510564  1.0
  C  C80  1  0.56148143  0.89467183  0.23655604  1.0
  C  C81  1  0.55354942  0.84493880  0.39483446  1.0
  C  C82  1  0.35299674  0.76496529  0.33066881  1.0
  C  C83  1  0.34833641  0.75549316  0.40835951  1.0
  C  C84  1  0.00357133  0.00839306  0.89158978  1.0
  C  C85  1  0.44806609  0.88501545  0.76384272  1.0
  C  C86  1  0.05355403  0.02441261  0.97962403  1.0
  C  C87  1  0.97914966  0.97455163  0.02068319  1.0
  C  C88  1  0.87170520  0.87007547  0.94641567  1.0
  C  C89  1  0.84642508  0.84549093  0.85877545  1.0
  C  C90  1  0.90813276  0.90972035  0.83028289  1.0
  C  C91  1  0.95262683  0.90139099  0.75366833  1.0
  C  C92  1  0.44250116  0.22707939  0.88550580  1.0
  C  C93  1  0.04498260  0.01379798  0.81569632  1.0
  C  C94  1  0.67498807  0.28410804  0.17433400  1.0
  C  C95  1  0.22216054  0.00749644  0.06234043  1.0
  C  C96  1  0.58649749  0.80036500  0.96874346  1.0
  C  C97  1  0.17239877  0.05301289  0.01525520  1.0
  C  C98  1  0.13399883  0.74067729  0.83567526  1.0
  C  C99  1  0.88170322  0.10046730  0.03159562  1.0
  C  C100  1  0.84745604  0.00703581  0.10655839  1.0
  N  N101  1  0.34498326  0.08005719  0.01076077  1.0
  N  N102  1  0.42257036  0.88642103  0.13415504  1.0
  N  N103  1  0.59479089  0.21121549  0.94119685  1.0
  N  N104  1  0.53610454  0.91896725  0.16746791  1.0
  N  N105  1  0.47994516  0.16100687  0.90287892  1.0
  N  N106  1  0.63064986  0.18614812  0.10939365  1.0
  N  N107  1  0.32273645  0.02126998  0.05678085  1.0
  N  N108  1  0.48027570  0.95217506  0.85119458  1.0
  N  N109  1  0.54840049  0.87348199  0.98774756  1.0
  N  N110  1  0.22180719  0.83283224  0.89186377  1.0
  N  N111  1  0.80147589  0.11411104  0.06164648  1.0
  N  N112  1  0.77997982  0.05566007  0.10869560  1.0
  N  N113  1  0.24553022  0.88729685  0.84267015  1.0
  N  N114  1  0.59373824  0.00453153  0.88598296  1.0
  N  N115  1  0.43484602  0.82460055  0.95568472  1.0
  N  N116  1  0.59152755  0.11997583  0.14511807  1.0
  Cl  Cl117  1  0.84112278  0.56373950  0.03337310  1.0
  Cl  Cl118  1  0.70799206  0.56689575  0.14772803  1.0
  Cl  Cl119  1  0.71058063  0.25694808  0.43665996  1.0
  O  O120  1  0.74293491  0.01800808  0.83852692  1.0
  O  O121  1  0.71857189  0.75889231  0.12243375  1.0
  O  O122  1  0.25699608  0.72814057  0.25732236  1.0
  O  O123  1  0.88571357  0.89002584  0.67011089  1.0
