# generated using pymatgen
data_ZnH13C22O5
_symmetry_space_group_name_H-M   'P 1'
_cell_length_a   6.58351917
_cell_length_b   11.89172313
_cell_length_c   15.65790304
_cell_angle_alpha   88.94106487
_cell_angle_beta   89.18855106
_cell_angle_gamma   78.91954600
_symmetry_Int_Tables_number   1
_chemical_formula_structural   ZnH13C22O5
_chemical_formula_sum   'Zn2 H26 C44 O10'
_cell_volume   1202.71995075
_cell_formula_units_Z   2
loop_
 _symmetry_equiv_pos_site_id
 _symmetry_equiv_pos_as_xyz
  1  'x, y, z'
loop_
 _atom_site_type_symbol
 _atom_site_label
 _atom_site_symmetry_multiplicity
 _atom_site_fract_x
 _atom_site_fract_y
 _atom_site_fract_z
 _atom_site_occupancy
  Zn  Zn0  1  0.86644882  0.41819624  0.50196389  1.0
  Zn  Zn1  1  0.13644450  0.57526364  0.49805883  1.0
  H  H2  1  0.08465452  0.22647764  0.27263332  1.0
  H  H3  1  0.92625286  0.76722862  0.26509937  1.0
  H  H4  1  0.90487659  0.78258794  0.71637669  1.0
  H  H5  1  0.09789100  0.21215020  0.72634652  1.0
  H  H6  1  0.26742542  0.13911138  0.14238795  1.0
  H  H7  1  0.74431334  0.85711788  0.13509883  1.0
  H  H8  1  0.72895790  0.86790962  0.84869469  1.0
  H  H9  1  0.27785031  0.12660390  0.85807855  1.0
  H  H10  1  0.77868763  0.30534098  0.19332162  1.0
  H  H11  1  0.23909615  0.68357515  0.19059755  1.0
  H  H12  1  0.23285622  0.68573391  0.81017132  1.0
  H  H13  1  0.76078393  0.31885768  0.81099590  1.0
  H  H14  1  0.59477213  0.39413215  0.32153817  1.0
  H  H15  1  0.42222659  0.59232891  0.31850119  1.0
  H  H16  1  0.41675473  0.59252742  0.68317589  1.0
  H  H17  1  0.57279635  0.41188597  0.68444256  1.0
  H  H18  1  0.40123127  0.26911336  0.00243181  1.0
  H  H19  1  0.60802700  0.72778053  0.99559045  1.0
  H  H20  1  0.85129597  0.06940985  0.21814458  1.0
  H  H21  1  0.16905110  0.92240019  0.21632943  1.0
  H  H22  1  0.15675845  0.92638949  0.78098064  1.0
  H  H23  1  0.83859686  0.07364434  0.78280620  1.0
  H  H24  1  0.39864262  0.68796970  0.55227085  1.0
  H  H25  1  0.60055264  0.30569159  0.56031901  1.0
  H  H26  1  0.51282838  0.36600135  0.47332692  1.0
  H  H27  1  0.49296604  0.62549121  0.46772944  1.0
  C  C28  1  0.21089653  0.37307078  0.37999019  1.0
  C  C29  1  0.80056588  0.61666395  0.37526165  1.0
  C  C30  1  0.79118960  0.62080539  0.61819721  1.0
  C  C31  1  0.20398706  0.37767518  0.62327654  1.0
  C  C32  1  0.32659699  0.31626763  0.30506410  1.0
  C  C33  1  0.68722832  0.67370751  0.29971567  1.0
  C  C34  1  0.67359820  0.68185930  0.69171661  1.0
  C  C35  1  0.32217599  0.31778911  0.69739528  1.0
  C  C36  1  0.23606305  0.24377755  0.25427195  1.0
  C  C37  1  0.77657926  0.74872641  0.24769209  1.0
  C  C38  1  0.75872576  0.76100242  0.73793553  1.0
  C  C39  1  0.24178902  0.23602040  0.74597730  1.0
  C  C40  1  0.33861964  0.19511997  0.18175699  1.0
  C  C41  1  0.67444819  0.79884734  0.17532555  1.0
  C  C42  1  0.65978395  0.80870019  0.81159998  1.0
  C  C43  1  0.34302228  0.18817282  0.81929244  1.0
  C  C44  1  0.53534510  0.21598156  0.15920015  1.0
  C  C45  1  0.47948155  0.77672534  0.15425132  1.0
  C  C46  1  0.47006211  0.78215428  0.83849572  1.0
  C  C47  1  0.53041290  0.21729615  0.84351168  1.0
  C  C48  1  0.62730337  0.28696639  0.21101148  1.0
  C  C49  1  0.38914746  0.70275747  0.20710729  1.0
  C  C50  1  0.38053590  0.70683748  0.78982350  1.0
  C  C51  1  0.61489533  0.29573171  0.79276649  1.0
  C  C52  1  0.52367064  0.33722252  0.28297248  1.0
  C  C53  1  0.49224967  0.65120109  0.27890838  1.0
  C  C54  1  0.48311062  0.65529419  0.71799854  1.0
  C  C55  1  0.50999698  0.34726539  0.72121642  1.0
  C  C56  1  0.54432237  0.20513845  0.00172976  1.0
  C  C57  1  0.46473445  0.79162502  0.99653135  1.0
  C  C58  1  0.63719894  0.16714867  0.07950472  1.0
  C  C59  1  0.37572530  0.82782599  0.07535023  1.0
  C  C60  1  0.37120951  0.83005912  0.91907065  1.0
  C  C61  1  0.63318755  0.16798317  0.92321259  1.0
  C  C62  1  0.82279778  0.08402834  0.07988514  1.0
  C  C63  1  0.19015163  0.91085595  0.07784047  1.0
  C  C64  1  0.18528167  0.91256011  0.91918742  1.0
  C  C65  1  0.81841982  0.08501297  0.92124219  1.0
  C  C66  1  0.91244234  0.04142420  0.00008781  1.0
  C  C67  1  0.09587192  0.95482726  0.99906681  1.0
  C  C68  1  0.92068205  0.03788008  0.15743040  1.0
  C  C69  1  0.09645453  0.95524098  0.15644508  1.0
  C  C70  1  0.08724490  0.95812373  0.84162554  1.0
  C  C71  1  0.91161139  0.04068973  0.84262704  1.0
  O  O72  1  0.30440289  0.43468529  0.42700780  1.0
  O  O73  1  0.70475008  0.55545598  0.42448633  1.0
  O  O74  1  0.74945409  0.52313721  0.60125553  1.0
  O  O75  1  0.24407164  0.47551766  0.60255421  1.0
  O  O76  1  0.02605905  0.35998087  0.39337516  1.0
  O  O77  1  0.98510960  0.62954354  0.38730393  1.0
  O  O78  1  0.92318051  0.66878174  0.57871413  1.0
  O  O79  1  0.07370863  0.32837507  0.58673205  1.0
  O  O80  1  0.64161616  0.32292281  0.50219815  1.0
  O  O81  1  0.36216544  0.66991750  0.49468470  1.0
