# generated using pymatgen
data_ZnH12C22I4NO5
_symmetry_space_group_name_H-M   'P 1'
_cell_length_a   16.00085033
_cell_length_b   17.06422559
_cell_length_c   17.84429593
_cell_angle_alpha   89.94663620
_cell_angle_beta   88.34153291
_cell_angle_gamma   89.95393105
_symmetry_Int_Tables_number   1
_chemical_formula_structural   ZnH12C22I4NO5
_chemical_formula_sum   'Zn2 H24 C44 I8 N2 O10'
_cell_volume   4870.19982782
_cell_formula_units_Z   2
loop_
 _symmetry_equiv_pos_site_id
 _symmetry_equiv_pos_as_xyz
  1  'x, y, z'
loop_
 _atom_site_type_symbol
 _atom_site_label
 _atom_site_symmetry_multiplicity
 _atom_site_fract_x
 _atom_site_fract_y
 _atom_site_fract_z
 _atom_site_occupancy
  Zn  Zn0  1  0.49944508  0.58766303  0.49979038  1.0
  Zn  Zn1  1  0.49966797  0.41220456  0.49991749  1.0
  H  H2  1  0.07615558  0.57656853  0.41073311  1.0
  H  H3  1  0.07992183  0.42385486  0.40859721  1.0
  H  H4  1  0.93065355  0.57550292  0.41017477  1.0
  H  H5  1  0.93495019  0.43786384  0.40094957  1.0
  H  H6  1  0.06987877  0.37389374  0.49511897  1.0
  H  H7  1  0.07364228  0.62502539  0.49831860  1.0
  H  H8  1  0.92227413  0.54161218  0.62070193  1.0
  H  H9  1  0.92372536  0.43822029  0.61165284  1.0
  H  H10  1  0.52040459  0.62634658  0.87613131  1.0
  H  H11  1  0.52043175  0.37356376  0.87636950  1.0
  H  H12  1  0.51044905  0.62564356  0.73599643  1.0
  H  H13  1  0.51044541  0.37430120  0.73621575  1.0
  H  H14  1  0.50693905  0.62559048  0.26273484  1.0
  H  H15  1  0.50665767  0.37437890  0.26288531  1.0
  H  H16  1  0.59879210  0.86941224  0.41564920  1.0
  H  H17  1  0.59833780  0.13044176  0.41543634  1.0
  H  H18  1  0.40038509  0.86859280  0.58509771  1.0
  H  H19  1  0.40034601  0.13138536  0.58526637  1.0
  H  H20  1  0.10386172  0.52987862  0.72897456  1.0
  H  H21  1  0.99803558  0.56418298  0.72039894  1.0
  H  H22  1  0.08308037  0.63210276  0.71583206  1.0
  H  H23  1  0.99556656  0.34314747  0.65141589  1.0
  H  H24  1  0.00160280  0.42162026  0.71829939  1.0
  H  H25  1  0.08505367  0.35250367  0.70877137  1.0
  C  C26  1  0.50231031  0.49998107  0.35456998  1.0
  C  C27  1  0.66105626  0.49972631  0.50430660  1.0
  C  C28  1  0.50297164  0.49995065  0.64476117  1.0
  C  C29  1  0.33849102  0.49990662  0.49689052  1.0
  C  C30  1  0.95391532  0.57362239  0.46726041  1.0
  C  C31  1  0.95447115  0.43034933  0.45884829  1.0
  C  C32  1  0.04992464  0.42611670  0.46471188  1.0
  C  C33  1  0.04985552  0.57426063  0.46829326  1.0
  C  C34  1  0.24818450  0.49961510  0.50003694  1.0
  C  C35  1  0.91781579  0.49915140  0.50696557  1.0
  C  C36  1  0.08179046  0.49900284  0.50663349  1.0
  C  C37  1  0.04568331  0.49608196  0.58911373  1.0
  C  C38  1  0.94890266  0.49283804  0.58781535  1.0
  C  C39  1  0.17241984  0.49908346  0.50557221  1.0
  C  C40  1  0.82722265  0.49930986  0.50683380  1.0
  C  C41  1  0.75141231  0.49964965  0.50630578  1.0
  C  C42  1  0.51827884  0.57140449  0.84512774  1.0
  C  C43  1  0.51829246  0.42850719  0.84526657  1.0
  C  C44  1  0.51282121  0.57105555  0.76759006  1.0
  C  C45  1  0.51282570  0.42887613  0.76772825  1.0
  C  C46  1  0.50976634  0.49996463  0.72828592  1.0
  C  C47  1  0.52058928  0.49996078  0.88515344  1.0
  C  C48  1  0.52302423  0.49999804  0.96422068  1.0
  C  C49  1  0.52210089  0.50004469  0.03266373  1.0
  C  C50  1  0.51508005  0.57093373  0.15335616  1.0
  C  C51  1  0.51492361  0.42912240  0.15344021  1.0
  C  C52  1  0.50903227  0.57109582  0.23114703  1.0
  C  C53  1  0.50887416  0.42889478  0.23123298  1.0
  C  C54  1  0.50605220  0.49998914  0.27037865  1.0
  C  C55  1  0.51797932  0.50003815  0.11148758  1.0
  C  C56  1  0.55486640  0.83913986  0.45316084  1.0
  C  C57  1  0.55454503  0.16075043  0.45304278  1.0
  C  C58  1  0.55302885  0.75743878  0.45483029  1.0
  C  C59  1  0.55275682  0.24243860  0.45466173  1.0
  C  C60  1  0.44661124  0.75698809  0.54535223  1.0
  C  C61  1  0.44651392  0.24295471  0.54535452  1.0
  C  C62  1  0.44439956  0.83866502  0.54742184  1.0
  C  C63  1  0.44428729  0.16128398  0.54750118  1.0
  C  C64  1  0.49950823  0.88137610  0.50036809  1.0
  C  C65  1  0.49931319  0.11854791  0.50038597  1.0
  C  C66  1  0.49929734  0.96424070  0.50050411  1.0
  C  C67  1  0.49919299  0.03567798  0.50055301  1.0
  C  C68  1  0.06365139  0.57267041  0.70100606  1.0
  C  C69  1  0.03779089  0.38517692  0.67812156  1.0
  I  I70  1  0.64091342  0.70481229  0.38095640  1.0
  I  I71  1  0.64067230  0.29492269  0.38070847  1.0
  I  I72  1  0.35932337  0.70323342  0.61911611  1.0
  I  I73  1  0.35933325  0.29684627  0.61914515  1.0
  I  I74  1  0.89692000  0.31776374  0.48840592  1.0
  I  I75  1  0.90054902  0.68133295  0.51476221  1.0
  I  I76  1  0.52052630  0.67954383  0.09736197  1.0
  I  I77  1  0.52016413  0.32055354  0.09756463  1.0
  N  N78  1  0.49987995  0.71545536  0.49994279  1.0
  N  N79  1  0.49975091  0.28444367  0.49988852  1.0
  O  O80  1  0.50148514  0.56662406  0.38643901  1.0
  O  O81  1  0.50157176  0.43330471  0.38650995  1.0
  O  O82  1  0.62612406  0.56662842  0.50317414  1.0
  O  O83  1  0.62624721  0.43277345  0.50321744  1.0
  O  O84  1  0.50002297  0.56654256  0.61261435  1.0
  O  O85  1  0.50022151  0.43332102  0.61273886  1.0
  O  O86  1  0.37359134  0.56683697  0.49590906  1.0
  O  O87  1  0.37394453  0.43305401  0.49595179  1.0
  O  O88  1  0.07351191  0.56734636  0.62165240  1.0
  O  O89  1  0.08377173  0.43042696  0.62347896  1.0
