# generated using pymatgen
data_ZnH18C17NO4
_symmetry_space_group_name_H-M   'P 1'
_cell_length_a   9.66090222
_cell_length_b   11.03603988
_cell_length_c   16.02285363
_cell_angle_alpha   90.94227844
_cell_angle_beta   91.52471992
_cell_angle_gamma   91.48997970
_symmetry_Int_Tables_number   1
_chemical_formula_structural   ZnH18C17NO4
_chemical_formula_sum   'Zn2 H36 C34 N2 O8'
_cell_volume   1706.89295079
_cell_formula_units_Z   2
loop_
 _symmetry_equiv_pos_site_id
 _symmetry_equiv_pos_as_xyz
  1  'x, y, z'
loop_
 _atom_site_type_symbol
 _atom_site_label
 _atom_site_symmetry_multiplicity
 _atom_site_fract_x
 _atom_site_fract_y
 _atom_site_fract_z
 _atom_site_occupancy
  Zn  Zn0  1  0.36470727  0.50192490  0.49351591  1.0
  Zn  Zn1  1  0.64567633  0.48960170  0.50033009  1.0
  H  H2  1  0.29123127  0.45042274  0.08121936  1.0
  H  H3  1  0.90942885  0.40984719  0.49687347  1.0
  H  H4  1  0.72119874  0.54212528  0.05372321  1.0
  H  H5  1  0.61062439  0.33821607  0.94230096  1.0
  H  H6  1  0.36782779  0.65726530  0.05165355  1.0
  H  H7  1  0.30591755  0.31169136  0.84817114  1.0
  H  H8  1  0.41323257  0.24380807  0.92512270  1.0
  H  H9  1  0.23685274  0.26804348  0.94559043  1.0
  H  H10  1  0.71793851  0.93701968  0.34120372  1.0
  H  H11  1  0.82304373  0.90748787  0.43018234  1.0
  H  H12  1  0.70980480  0.79103290  0.38892485  1.0
  H  H13  1  0.27667434  0.49085333  0.93970544  1.0
  H  H14  1  0.28094022  0.12957128  0.38800919  1.0
  H  H15  1  0.33537917  0.98094053  0.41551298  1.0
  H  H16  1  0.26595358  0.08066213  0.49136628  1.0
  H  H17  1  0.59031142  0.21572414  0.03153685  1.0
  H  H18  1  0.68080074  0.05520459  0.12052183  1.0
  H  H19  1  0.84823058  0.10590159  0.23788974  1.0
  H  H20  1  0.92353020  0.32162584  0.26408203  1.0
  H  H21  1  0.83048376  0.48350810  0.17550598  1.0
  H  H22  1  0.78490564  0.56757124  0.90932736  1.0
  H  H23  1  0.84879462  0.42342330  0.93533074  1.0
  H  H24  1  0.60277190  0.66859422  0.93223928  1.0
  H  H25  1  0.75411694  0.44223646  0.83961022  1.0
  H  H26  1  0.53996343  0.83045725  0.04902029  1.0
  H  H27  1  0.54151356  0.75674216  0.14704125  1.0
  H  H28  1  0.67528402  0.73137751  0.07519100  1.0
  H  H29  1  0.41598003  0.71462162  0.83141706  1.0
  H  H30  1  0.28773772  0.67776188  0.90514732  1.0
  H  H31  1  0.40092426  0.80493133  0.92360402  1.0
  H  H32  1  0.44783964  0.90866590  0.54092285  1.0
  H  H33  1  0.68885471  0.12049778  0.46513225  1.0
  H  H34  1  0.14270774  0.61574394  0.59742902  1.0
  H  H35  1  0.09706249  0.48352713  0.43867734  1.0
  H  H36  1  0.88064416  0.65709318  0.56165672  1.0
  H  H37  1  0.41048585  0.33405766  0.06857569  1.0
  C  C38  1  0.48626555  0.26278551  0.47014581  1.0
  C  C39  1  0.52695773  0.86494538  0.50460213  1.0
  C  C40  1  0.59275130  0.06585300  0.45907792  1.0
  C  C41  1  0.51319301  0.52282309  0.33543958  1.0
  C  C42  1  0.47428132  0.12840596  0.45541665  1.0
  C  C43  1  0.08555370  0.57174537  0.54467876  1.0
  C  C44  1  0.93259346  0.57523534  0.54073135  1.0
  C  C45  1  0.52685861  0.73175881  0.51121043  1.0
  C  C46  1  0.49045339  0.47899751  0.65949607  1.0
  C  C47  1  0.38628297  0.42644882  0.04929144  1.0
  C  C48  1  0.64599224  0.46576167  0.04581957  1.0
  C  C49  1  0.36455010  0.43219337  0.95358434  1.0
  C  C50  1  0.62838668  0.43641846  0.95114118  1.0
  C  C51  1  0.48769515  0.48187443  0.74959154  1.0
  C  C52  1  0.50568390  0.51381138  0.07937480  1.0
  C  C53  1  0.32836555  0.30711562  0.91554627  1.0
  C  C54  1  0.72006908  0.88881697  0.40076208  1.0
  C  C55  1  0.33190856  0.07583461  0.43647626  1.0
  C  C56  1  0.70355334  0.36270703  0.09654260  1.0
  C  C57  1  0.66304159  0.24085687  0.08250927  1.0
  C  C58  1  0.71434200  0.14917303  0.13288959  1.0
  C  C59  1  0.80802229  0.17741095  0.19857239  1.0
  C  C60  1  0.49454316  0.49659089  0.91596687  1.0
  C  C61  1  0.85007055  0.29814100  0.21309824  1.0
  C  C62  1  0.79825751  0.38931929  0.16271460  1.0
  C  C63  1  0.76110110  0.46948427  0.90580761  1.0
  C  C64  1  0.56349206  0.74532671  0.08053296  1.0
  C  C65  1  0.39488719  0.71163433  0.89835310  1.0
  C  C66  1  0.49800210  0.63278758  0.94499859  1.0
  C  C67  1  0.47796734  0.64021984  0.04056141  1.0
  C  C68  1  0.48941011  0.48801895  0.82547572  1.0
  C  C69  1  0.50857991  0.52247212  0.16971420  1.0
  C  C70  1  0.51100385  0.52719921  0.24554601  1.0
  C  C71  1  0.60847417  0.93455640  0.45606416  1.0
  N  N72  1  0.15489059  0.51948757  0.48831372  1.0
  N  N73  1  0.85667325  0.48595926  0.51330480  1.0
  O  O74  1  0.37453768  0.32169211  0.46312524  1.0
  O  O75  1  0.60517511  0.30916977  0.49048623  1.0
  O  O76  1  0.39915573  0.54310350  0.37101046  1.0
  O  O77  1  0.62812783  0.49795616  0.37116014  1.0
  O  O78  1  0.40989786  0.68101506  0.52634448  1.0
  O  O79  1  0.63990198  0.67593100  0.50169512  1.0
  O  O80  1  0.37448395  0.46540016  0.61992579  1.0
  O  O81  1  0.60921623  0.49128533  0.62746395  1.0
