# generated using pymatgen
data_Ni5H22C16(N2O9)2
_symmetry_space_group_name_H-M   'P 1'
_cell_length_a   11.68653996
_cell_length_b   18.19681677
_cell_length_c   18.19681400
_cell_angle_alpha   89.99683814
_cell_angle_beta   90.00000252
_cell_angle_gamma   89.99999337
_symmetry_Int_Tables_number   1
_chemical_formula_structural   Ni5H22C16(N2O9)2
_chemical_formula_sum   'Ni20 H88 C64 N16 O72'
_cell_volume   3869.69490543
_cell_formula_units_Z   4
loop_
 _symmetry_equiv_pos_site_id
 _symmetry_equiv_pos_as_xyz
  1  'x, y, z'
loop_
 _atom_site_type_symbol
 _atom_site_label
 _atom_site_symmetry_multiplicity
 _atom_site_fract_x
 _atom_site_fract_y
 _atom_site_fract_z
 _atom_site_occupancy
  Ni  Ni0  1  0.83892829  0.54213838  0.05877192  1.0
  Ni  Ni1  1  0.06195324  0.59313836  0.12482657  1.0
  Ni  Ni2  1  0.33892918  0.45786140  0.94122872  1.0
  Ni  Ni3  1  0.56195328  0.40686143  0.87517351  1.0
  Ni  Ni4  1  0.08890907  0.55878794  0.95783598  1.0
  Ni  Ni5  1  0.31193230  0.62481188  0.90685821  1.0
  Ni  Ni6  1  0.58890905  0.44121185  0.04216465  1.0
  Ni  Ni7  1  0.81193229  0.37518845  0.09314189  1.0
  Ni  Ni8  1  0.41108992  0.95783577  0.55878809  1.0
  Ni  Ni9  1  0.18806754  0.90685800  0.62481149  1.0
  Ni  Ni10  1  0.91109086  0.04216455  0.44121256  1.0
  Ni  Ni11  1  0.68806761  0.09314178  0.37518860  1.0
  Ni  Ni12  1  0.16107152  0.94122851  0.45786208  1.0
  Ni  Ni13  1  0.93804658  0.87517383  0.40686158  1.0
  Ni  Ni14  1  0.66107075  0.05877182  0.54213855  1.0
  Ni  Ni15  1  0.43804665  0.12482648  0.59313851  1.0
  Ni  Ni16  1  0.99999991  0.74316147  0.25683841  1.0
  Ni  Ni17  1  0.49999997  0.25683884  0.74316113  1.0
  Ni  Ni18  1  0.25000035  0.75684955  0.75685028  1.0
  Ni  Ni19  1  0.75000038  0.24315023  0.24314981  1.0
  H  H20  1  0.07972839  0.56520228  0.25979438  1.0
  H  H21  1  0.21025377  0.55488633  0.23463586  1.0
  H  H22  1  0.89017526  0.83084587  0.16337842  1.0
  H  H23  1  0.83182010  0.83536250  0.24670168  1.0
  H  H24  1  0.10692208  0.43399582  0.25938694  1.0
  H  H25  1  0.18319359  0.36947369  0.15446706  1.0
  H  H26  1  0.28253009  0.43793991  0.17969541  1.0
  H  H27  1  0.72706625  0.76219274  0.14084615  1.0
  H  H28  1  0.64301572  0.76546033  0.26100006  1.0
  H  H29  1  0.65737583  0.67246232  0.23654560  1.0
  H  H30  1  0.69772825  0.49229587  0.14858297  1.0
  H  H31  1  0.57972842  0.43479807  0.74020626  1.0
  H  H32  1  0.71025380  0.44511401  0.76536422  1.0
  H  H33  1  0.39017363  0.16915390  0.83662057  1.0
  H  H34  1  0.33181932  0.16463837  0.75329732  1.0
  H  H35  1  0.60692295  0.56600452  0.74061315  1.0
  H  H36  1  0.68319359  0.63052664  0.84553358  1.0
  H  H37  1  0.78253010  0.56205986  0.82030523  1.0
  H  H38  1  0.22706376  0.23780650  0.85915284  1.0
  H  H39  1  0.14301578  0.23454111  0.73899893  1.0
  H  H40  1  0.15737588  0.32753912  0.76345394  1.0
  H  H41  1  0.19772827  0.50770392  0.85141766  1.0
  H  H42  1  0.32973567  0.75977757  0.93480168  1.0
  H  H43  1  0.46023795  0.73462233  0.94511407  1.0
  H  H44  1  0.14014577  0.66339662  0.66919191  1.0
  H  H45  1  0.08182910  0.74672286  0.66462452  1.0
  H  H46  1  0.35691221  0.75936960  0.06598697  1.0
  H  H47  1  0.43319314  0.65448738  0.13054787  1.0
  H  H48  1  0.53252450  0.67969862  0.06207694  1.0
  H  H49  1  0.97698200  0.64092153  0.73778697  1.0
  H  H50  1  0.89293915  0.76106462  0.73454242  1.0
  H  H51  1  0.90734119  0.73658854  0.82753960  1.0
  H  H52  1  0.94773636  0.64857873  0.00770345  1.0
  H  H53  1  0.82973655  0.24022276  0.06519896  1.0
  H  H54  1  0.96023796  0.26537853  0.05488602  1.0
  H  H55  1  0.64014493  0.33660262  0.33080818  1.0
  H  H56  1  0.58182913  0.25327639  0.33537501  1.0
  H  H57  1  0.85691143  0.24063073  0.93401368  1.0
  H  H58  1  0.93319148  0.34551294  0.86945223  1.0
  H  H59  1  0.03252371  0.32030063  0.93792259  1.0
  H  H60  1  0.47698201  0.35907768  0.26221258  1.0
  H  H61  1  0.39293832  0.23893570  0.26545712  1.0
  H  H62  1  0.40734121  0.26341068  0.17245940  1.0
  H  H63  1  0.44773642  0.35142159  0.99229719  1.0
  H  H64  1  0.17026501  0.93480148  0.75977775  1.0
  H  H65  1  0.03976189  0.94511387  0.73462251  1.0
  H  H66  1  0.35985408  0.66919174  0.66339623  1.0
  H  H67  1  0.41817075  0.66462435  0.74672303  1.0
  H  H68  1  0.14308853  0.06598689  0.75937033  1.0
  H  H69  1  0.06680674  0.13054778  0.65448755  1.0
  H  H70  1  0.96747624  0.06207684  0.67969936  1.0
  H  H71  1  0.52301700  0.73778677  0.64092173  1.0
  H  H72  1  0.60706155  0.73454167  0.76106373  1.0
  H  H73  1  0.59265865  0.82753993  0.73658820  1.0
  H  H74  1  0.55226353  0.00770337  0.64857837  1.0
  H  H75  1  0.67026422  0.06519886  0.24022234  1.0
  H  H76  1  0.53976195  0.05488593  0.26537812  1.0
  H  H77  1  0.85985496  0.33080803  0.33660276  1.0
  H  H78  1  0.91817162  0.33537487  0.25327651  1.0
  H  H79  1  0.64308758  0.93401345  0.24063031  1.0
  H  H80  1  0.56680752  0.86945256  0.34551254  1.0
  H  H81  1  0.46747615  0.93792293  0.32030129  1.0
  H  H82  1  0.02301788  0.26221248  0.35907781  1.0
  H  H83  1  0.10706157  0.26545702  0.23893526  1.0
  H  H84  1  0.09265869  0.17245931  0.26341134  1.0
  H  H85  1  0.05226429  0.99229698  0.35142171  1.0
  H  H86  1  0.92027144  0.74020605  0.43479822  1.0
  H  H87  1  0.78974692  0.76536402  0.44511361  1.0
  H  H88  1  0.10982453  0.83662093  0.16915399  1.0
  H  H89  1  0.16818056  0.75329824  0.16463792  1.0
  H  H90  1  0.89307691  0.74061294  0.56600414  1.0
  H  H91  1  0.81680625  0.84553336  0.63052628  1.0
  H  H92  1  0.71746975  0.82030502  0.56205949  1.0
  H  H93  1  0.27293354  0.85915374  0.23780715  1.0
  H  H94  1  0.35698409  0.73899985  0.23454011  1.0
  H  H95  1  0.34262398  0.76345485  0.32753758  1.0
  H  H96  1  0.30227243  0.85141747  0.50770406  1.0
  H  H97  1  0.42027063  0.25979427  0.56520243  1.0
  H  H98  1  0.28974611  0.23463576  0.55488593  1.0
  H  H99  1  0.60982633  0.16337941  0.83084610  1.0
  H  H100  1  0.66818063  0.24670210  0.83536162  1.0
  H  H101  1  0.39307780  0.25938738  0.43399540  1.0
  H  H102  1  0.31680716  0.15446696  0.36947326  1.0
  H  H103  1  0.21747066  0.17969532  0.43794005  1.0
  H  H104  1  0.77293448  0.14084604  0.76219294  1.0
  H  H105  1  0.85698501  0.26099993  0.76545998  1.0
  H  H106  1  0.84262405  0.23654602  0.67246196  1.0
  H  H107  1  0.80227250  0.14858341  0.49229603  1.0
  C  C108  1  0.98696699  0.45572231  0.17273986  1.0
  C  C109  1  0.10608864  0.46458888  0.20693955  1.0
  C  C110  1  0.19638312  0.42925717  0.15651906  1.0
  C  C111  1  0.20025338  0.45631409  0.07721103  1.0
  C  C112  1  0.84575751  0.67580853  0.15566267  1.0
  C  C113  1  0.78279361  0.74325466  0.18590291  1.0
  C  C114  1  0.70649901  0.72198377  0.25094456  1.0
  C  C115  1  0.76754959  0.70753690  0.32437979  1.0
  C  C116  1  0.48696700  0.54427745  0.82725968  1.0
  C  C117  1  0.60608866  0.53541146  0.79306054  1.0
  C  C118  1  0.69638313  0.57074262  0.84348158  1.0
  C  C119  1  0.70025340  0.54368624  0.92278961  1.0
  C  C120  1  0.34575671  0.32419179  0.84433687  1.0
  C  C121  1  0.28279282  0.25674567  0.81409663  1.0
  C  C122  1  0.20649906  0.27801767  0.74905498  1.0
  C  C123  1  0.26755135  0.29246452  0.67562030  1.0
  C  C124  1  0.23695883  0.67272043  0.04426138  1.0
  C  C125  1  0.35608391  0.70690797  0.03540834  1.0
  C  C126  1  0.44638267  0.65651411  0.07076427  1.0
  C  C127  1  0.45028374  0.57721142  0.04370677  1.0
  C  C128  1  0.09565613  0.65568165  0.82418958  1.0
  C  C129  1  0.03274016  0.68594595  0.75674287  1.0
  C  C130  1  0.95644811  0.75098748  0.77801130  1.0
  C  C131  1  0.01752264  0.82442083  0.79246619  1.0
  C  C132  1  0.73695804  0.32727880  0.95573761  1.0
  C  C133  1  0.85608398  0.29309181  0.96459231  1.0
  C  C134  1  0.94638187  0.34348621  0.92923528  1.0
  C  C135  1  0.95028379  0.42278834  0.95629332  1.0
  C  C136  1  0.59565699  0.34431704  0.17580995  1.0
  C  C137  1  0.53273932  0.31405385  0.24325666  1.0
  C  C138  1  0.45644728  0.24901229  0.22198880  1.0
  C  C139  1  0.51752268  0.17557896  0.20753390  1.0
  C  C140  1  0.26304105  0.04426240  0.67272115  1.0
  C  C141  1  0.14391512  0.03540772  0.70690869  1.0
  C  C142  1  0.05361722  0.07076420  0.65651483  1.0
  C  C143  1  0.04971529  0.04370726  0.57721158  1.0
  C  C144  1  0.40434286  0.82418939  0.65568236  1.0
  C  C145  1  0.46725969  0.75674269  0.68594557  1.0
  C  C146  1  0.54355259  0.77801055  0.75098714  1.0
  C  C147  1  0.48247805  0.79246490  0.82442047  1.0
  C  C148  1  0.76304096  0.95573793  0.32727949  1.0
  C  C149  1  0.64391588  0.96459207  0.29309139  1.0
  C  C150  1  0.55361799  0.92923560  0.34348581  1.0
  C  C151  1  0.54971606  0.95629364  0.42278850  1.0
  C  C152  1  0.90434462  0.17580983  0.34431773  1.0
  C  C153  1  0.96726058  0.24325708  0.31405398  1.0
  C  C154  1  0.04355262  0.22198870  0.24901240  1.0
  C  C155  1  0.98247809  0.20753377  0.17557908  1.0
  C  C156  1  0.01303285  0.82725950  0.54427761  1.0
  C  C157  1  0.89391120  0.79306087  0.53541163  1.0
  C  C158  1  0.80361672  0.84348136  0.57074224  1.0
  C  C159  1  0.79974645  0.92278938  0.54368642  1.0
  C  C160  1  0.15424230  0.84433723  0.32419081  1.0
  C  C161  1  0.21720619  0.81409699  0.25674577  1.0
  C  C162  1  0.29350080  0.74905535  0.27801667  1.0
  C  C163  1  0.23245024  0.67562013  0.29246354  1.0
  C  C164  1  0.51303291  0.17274085  0.45572303  1.0
  C  C165  1  0.39391125  0.20693945  0.46458847  1.0
  C  C166  1  0.30361763  0.15651897  0.42925675  1.0
  C  C167  1  0.29974652  0.07721095  0.45631367  1.0
  C  C168  1  0.65424409  0.15566311  0.67580818  1.0
  C  C169  1  0.71720712  0.18590334  0.74325432  1.0
  C  C170  1  0.79350172  0.25094443  0.72198287  1.0
  C  C171  1  0.73245028  0.32438020  0.70753655  1.0
  N  N172  1  0.12752869  0.54335676  0.21776180  1.0
  N  N173  1  0.86558629  0.80041680  0.20776011  1.0
  N  N174  1  0.62752871  0.45664358  0.78223884  1.0
  N  N175  1  0.36558551  0.19958352  0.79223943  1.0
  N  N176  1  0.37752228  0.71773335  0.95664788  1.0
  N  N177  1  0.11557220  0.70779091  0.69959875  1.0
  N  N178  1  0.87752314  0.28226642  0.04335277  1.0
  N  N179  1  0.61557222  0.29220833  0.30040078  1.0
  N  N180  1  0.12247756  0.95664712  0.71773352  1.0
  N  N181  1  0.38442765  0.69959858  0.70779053  1.0
  N  N182  1  0.62247762  0.04335267  0.28226656  1.0
  N  N183  1  0.88442767  0.30040064  0.29220847  1.0
  N  N184  1  0.87247115  0.78223862  0.45664319  1.0
  N  N185  1  0.13441351  0.79223980  0.19958307  1.0
  N  N186  1  0.37247034  0.21776115  0.54335635  1.0
  N  N187  1  0.63441358  0.20775999  0.80041702  1.0
  O  O188  1  0.94141115  0.51475363  0.14867468  1.0
  O  O189  1  0.94208545  0.39250643  0.16851944  1.0
  O  O190  1  0.25930080  0.41917585  0.03288341  1.0
  O  O191  1  0.14495471  0.51491164  0.05966458  1.0
  O  O192  1  0.95333939  0.67034066  0.17108255  1.0
  O  O193  1  0.78603239  0.63224701  0.11804794  1.0
  O  O194  1  0.87742214  0.69954756  0.32534007  1.0
  O  O195  1  0.70463533  0.70481401  0.38012039  1.0
  O  O196  1  0.72438542  0.47298719  0.10178520  1.0
  O  O197  1  0.44141118  0.48524614  0.85132541  1.0
  O  O198  1  0.44208545  0.60749389  0.83148066  1.0
  O  O199  1  0.75930167  0.58082393  0.96711723  1.0
  O  O200  1  0.64495475  0.48508870  0.94033606  1.0
  O  O201  1  0.45333945  0.32965910  0.82891919  1.0
  O  O202  1  0.28603158  0.36775222  0.88195325  1.0
  O  O203  1  0.37742305  0.30045221  0.67465948  1.0
  O  O204  1  0.20463538  0.29518742  0.61987970  1.0
  O  O205  1  0.22438458  0.52701260  0.89821434  1.0
  O  O206  1  0.19138935  0.64867268  0.98522896  1.0
  O  O207  1  0.19206360  0.66853004  0.10747421  1.0
  O  O208  1  0.50937138  0.53289715  0.08084857  1.0
  O  O209  1  0.39494918  0.55964557  0.98513195  1.0
  O  O210  1  0.20325513  0.67105287  0.82966594  1.0
  O  O211  1  0.03588994  0.61806618  0.86774825  1.0
  O  O212  1  0.12739348  0.82538616  0.80045163  1.0
  O  O213  1  0.95463063  0.88017938  0.79521295  1.0
  O  O214  1  0.97438070  0.60177056  0.02700593  1.0
  O  O215  1  0.69138934  0.35132765  0.01477168  1.0
  O  O216  1  0.69206366  0.33147029  0.89252643  1.0
  O  O217  1  0.00937142  0.46710210  0.91915207  1.0
  O  O218  1  0.89494916  0.44035420  0.01486814  1.0
  O  O219  1  0.70325514  0.32894747  0.17033415  1.0
  O  O220  1  0.53588994  0.38193361  0.13225129  1.0
  O  O221  1  0.62739267  0.17461363  0.19954846  1.0
  O  O222  1  0.45463067  0.11982039  0.20478770  1.0
  O  O223  1  0.47438074  0.39822976  0.97299472  1.0
  O  O224  1  0.30861049  0.98522929  0.64867285  1.0
  O  O225  1  0.30793629  0.10747412  0.66853021  1.0
  O  O226  1  0.99062851  0.08084846  0.53289842  1.0
  O  O227  1  0.10505066  0.98513229  0.55964572  1.0
  O  O228  1  0.29674471  0.82966575  0.67105248  1.0
  O  O229  1  0.46410904  0.86774804  0.61806634  1.0
  O  O230  1  0.37260635  0.80045144  0.82538635  1.0
  O  O231  1  0.54537007  0.79521164  0.88017906  1.0
  O  O232  1  0.52561834  0.02700584  0.60177074  1.0
  O  O233  1  0.80861057  0.01477104  0.35132725  1.0
  O  O234  1  0.80793706  0.89252620  0.33146933  1.0
  O  O235  1  0.49062843  0.91915186  0.46710278  1.0
  O  O236  1  0.60504989  0.01486860  0.44035381  1.0
  O  O237  1  0.79674476  0.17033403  0.32894706  1.0
  O  O238  1  0.96410996  0.13225227  0.38193321  1.0
  O  O239  1  0.87260639  0.19954834  0.17461374  1.0
  O  O240  1  0.04536924  0.20478651  0.11981993  1.0
  O  O241  1  0.02562082  0.97299451  0.39822934  1.0
  O  O242  1  0.05858867  0.85132522  0.48524683  1.0
  O  O243  1  0.05791440  0.83148047  0.60749460  1.0
  O  O244  1  0.74069988  0.96711644  0.58082411  1.0
  O  O245  1  0.85504510  0.94033582  0.48508831  1.0
  O  O246  1  0.04665956  0.82891790  0.32965977  1.0
  O  O247  1  0.21396742  0.88195195  0.36775234  1.0
  O  O248  1  0.12257768  0.67465986  0.30045232  1.0
  O  O249  1  0.29536450  0.61988009  0.29518643  1.0
  O  O250  1  0.27561441  0.89821468  0.52701274  1.0
  O  O251  1  0.55858874  0.14867567  0.51475435  1.0
  O  O252  1  0.55791531  0.16851988  0.39250603  1.0
  O  O253  1  0.24069996  0.03288334  0.41917598  1.0
  O  O254  1  0.35504604  0.05966450  0.51491123  1.0
  O  O255  1  0.54666049  0.17108189  0.67034031  1.0
  O  O256  1  0.71396835  0.11804839  0.63224775  1.0
  O  O257  1  0.62257773  0.32534048  0.69954831  1.0
  O  O258  1  0.79536539  0.38012024  0.70481366  1.0
  O  O259  1  0.77561534  0.10178620  0.47298735  1.0
