# generated using pymatgen
data_CdH22C29(NO)4
_symmetry_space_group_name_H-M   'P 1'
_cell_length_a   16.00818500
_cell_length_b   16.08559405
_cell_length_c   28.85185308
_cell_angle_alpha   89.99960830
_cell_angle_beta   89.99955666
_cell_angle_gamma   107.71524275
_symmetry_Int_Tables_number   1
_chemical_formula_structural   CdH22C29(NO)4
_chemical_formula_sum   'Cd8 H176 C232 N32 O32'
_cell_volume   7077.08850521
_cell_formula_units_Z   8
loop_
 _symmetry_equiv_pos_site_id
 _symmetry_equiv_pos_as_xyz
  1  'x, y, z'
loop_
 _atom_site_type_symbol
 _atom_site_label
 _atom_site_symmetry_multiplicity
 _atom_site_fract_x
 _atom_site_fract_y
 _atom_site_fract_z
 _atom_site_occupancy
  Cd  Cd0  1  0.61661956  0.13140972  0.96604902  1.0
  Cd  Cd1  1  0.66190255  0.35250318  0.03402205  1.0
  Cd  Cd2  1  0.61661191  0.63141393  0.53395276  1.0
  Cd  Cd3  1  0.66191196  0.85250975  0.46598260  1.0
  Cd  Cd4  1  0.38337901  0.36858044  0.46604825  1.0
  Cd  Cd5  1  0.33809009  0.14749714  0.53401668  1.0
  Cd  Cd6  1  0.38339113  0.86858173  0.03395027  1.0
  Cd  Cd7  1  0.33809039  0.64749382  0.96598139  1.0
  H  H8  1  0.68967005  0.51412852  0.88952306  1.0
  H  H9  1  0.67060495  0.24276342  0.87226892  1.0
  H  H10  1  0.65466951  0.25415183  0.78727994  1.0
  H  H11  1  0.63507166  0.29614682  0.70294598  1.0
  H  H12  1  0.62223891  0.36902489  0.62734587  1.0
  H  H13  1  0.65538140  0.61261989  0.69643656  1.0
  H  H14  1  0.53636683  0.53380088  0.80263535  1.0
  H  H15  1  0.60090618  0.63819894  0.78271913  1.0
  H  H16  1  0.61163265  0.60596971  0.84080244  1.0
  H  H17  1  0.81712482  0.58929481  0.78242207  1.0
  H  H18  1  0.77658408  0.63922104  0.82887488  1.0
  H  H19  1  0.76567332  0.67083094  0.77047444  1.0
  H  H20  1  0.61167012  0.98055037  0.11015957  1.0
  H  H21  1  0.58939827  0.23826859  0.12949845  1.0
  H  H22  1  0.59292508  0.22242114  0.21487461  1.0
  H  H23  1  0.60760279  0.17748147  0.30043347  1.0
  H  H24  1  0.63461566  0.10831509  0.37493275  1.0
  H  H25  1  0.65401655  0.88333084  0.30164372  1.0
  H  H26  1  0.48659479  0.88115482  0.21390414  1.0
  H  H27  1  0.55417172  0.81453419  0.22736253  1.0
  H  H28  1  0.54078976  0.84365493  0.16880786  1.0
  H  H29  1  0.76917509  0.98679755  0.20033921  1.0
  H  H30  1  0.70830943  0.90767185  0.15989010  1.0
  H  H31  1  0.72087937  0.87652582  0.21806283  1.0
  H  H32  1  0.85739882  0.43620802  0.99455458  1.0
  H  H33  1  0.01016625  0.42442351  0.00449142  1.0
  H  H34  1  0.90747086  0.23787872  0.11376498  1.0
  H  H35  1  0.75991701  0.25723781  0.09935578  1.0
  H  H36  1  0.06404119  0.27170980  0.09324500  1.0
  H  H37  1  0.24653869  0.41291920  0.99282641  1.0
  H  H38  1  0.32624394  0.29035461  0.09003490  1.0
  H  H39  1  0.47903437  0.27715165  0.08876708  1.0
  H  H40  1  0.53911981  0.41705378  0.96661359  1.0
  H  H41  1  0.38851322  0.43629860  0.96225264  1.0
  H  H42  1  0.43678151  0.08889244  0.01927460  1.0
  H  H43  1  0.28900826  0.10741269  0.01462076  1.0
  H  H44  1  0.36973781  0.24974972  0.88662774  1.0
  H  H45  1  0.51676612  0.22671480  0.89718068  1.0
  H  H46  1  0.22055002  0.23453462  0.91658180  1.0
  H  H47  1  0.03852474  0.08510321  0.01605141  1.0
  H  H48  1  0.88321346  0.03400792  0.03585084  1.0
  H  H49  1  0.73178673  0.04790697  0.02856738  1.0
  H  H50  1  0.81196954  0.24318281  0.93064095  1.0
  H  H51  1  0.96812553  0.23825954  0.93316178  1.0
  H  H52  1  0.68967743  0.01412542  0.61048267  1.0
  H  H53  1  0.67059252  0.74276004  0.62773705  1.0
  H  H54  1  0.65466322  0.75414575  0.71272675  1.0
  H  H55  1  0.63506097  0.79614047  0.79705856  1.0
  H  H56  1  0.62222668  0.86901263  0.87265914  1.0
  H  H57  1  0.65539446  0.11261995  0.80356963  1.0
  H  H58  1  0.53637279  0.03380141  0.69737166  1.0
  H  H59  1  0.60091099  0.13819649  0.71728755  1.0
  H  H60  1  0.61163915  0.10597027  0.65920466  1.0
  H  H61  1  0.81712937  0.08929365  0.71758456  1.0
  H  H62  1  0.77659324  0.13922273  0.67113207  1.0
  H  H63  1  0.76567707  0.17082761  0.72953140  1.0
  H  H64  1  0.61166519  0.48055510  0.38983962  1.0
  H  H65  1  0.58939704  0.73827473  0.37049864  1.0
  H  H66  1  0.59291766  0.72242545  0.28512322  1.0
  H  H67  1  0.60758716  0.67748131  0.19956377  1.0
  H  H68  1  0.63460819  0.60831574  0.12506603  1.0
  H  H69  1  0.65400918  0.38333503  0.19835669  1.0
  H  H70  1  0.48658201  0.38115541  0.28609423  1.0
  H  H71  1  0.55415996  0.31453764  0.27263476  1.0
  H  H72  1  0.54077352  0.34365012  0.33119077  1.0
  H  H73  1  0.76916054  0.48679917  0.29966135  1.0
  H  H74  1  0.70829266  0.40767206  0.34011068  1.0
  H  H75  1  0.72086661  0.37652844  0.28193837  1.0
  H  H76  1  0.85741830  0.93622032  0.50544223  1.0
  H  H77  1  0.01018132  0.92443160  0.49550052  1.0
  H  H78  1  0.90747561  0.73788468  0.38623386  1.0
  H  H79  1  0.75992664  0.75725269  0.40064362  1.0
  H  H80  1  0.06404992  0.77170897  0.40675284  1.0
  H  H81  1  0.24653833  0.91291491  0.50717207  1.0
  H  H82  1  0.32625315  0.79034269  0.40997075  1.0
  H  H83  1  0.47904060  0.77713382  0.41124593  1.0
  H  H84  1  0.53911775  0.91704706  0.53339297  1.0
  H  H85  1  0.38851214  0.93629116  0.53775173  1.0
  H  H86  1  0.43677066  0.58888802  0.48073065  1.0
  H  H87  1  0.28899833  0.60741600  0.48538367  1.0
  H  H88  1  0.36972445  0.74973814  0.61337951  1.0
  H  H89  1  0.51675164  0.72669884  0.60282602  1.0
  H  H90  1  0.22054053  0.73453273  0.58342130  1.0
  H  H91  1  0.03851709  0.58510139  0.48395315  1.0
  H  H92  1  0.88320815  0.53401103  0.46415097  1.0
  H  H93  1  0.73178053  0.54790734  0.47143503  1.0
  H  H94  1  0.81195144  0.74316349  0.56936926  1.0
  H  H95  1  0.96811032  0.73825005  0.56684639  1.0
  H  H96  1  0.31031914  0.98586904  0.38951696  1.0
  H  H97  1  0.32939739  0.25723301  0.37226189  1.0
  H  H98  1  0.34533209  0.24584870  0.28727253  1.0
  H  H99  1  0.36493184  0.20385393  0.20294073  1.0
  H  H100  1  0.37776146  0.13097650  0.12734015  1.0
  H  H101  1  0.34460669  0.88737524  0.19643208  1.0
  H  H102  1  0.46362403  0.96619176  0.30263247  1.0
  H  H103  1  0.39908564  0.86179602  0.28271589  1.0
  H  H104  1  0.38835384  0.89402478  0.34079878  1.0
  H  H105  1  0.18286827  0.91070667  0.28241785  1.0
  H  H106  1  0.22340353  0.86077887  0.32887068  1.0
  H  H107  1  0.23431341  0.82916740  0.27047204  1.0
  H  H108  1  0.38832788  0.51945100  0.61016001  1.0
  H  H109  1  0.41060721  0.26173544  0.62950064  1.0
  H  H110  1  0.40709301  0.27758743  0.71487676  1.0
  H  H111  1  0.39242137  0.32252634  0.80043482  1.0
  H  H112  1  0.36540064  0.39168866  0.87493360  1.0
  H  H113  1  0.34599501  0.61667060  0.80164606  1.0
  H  H114  1  0.51341684  0.61885338  0.71390506  1.0
  H  H115  1  0.44583802  0.68547243  0.72736452  1.0
  H  H116  1  0.45922169  0.65635471  0.66880852  1.0
  H  H117  1  0.23083537  0.51321022  0.70034106  1.0
  H  H118  1  0.29170300  0.59233862  0.65989138  1.0
  H  H119  1  0.27913325  0.62348167  0.71806508  1.0
  H  H120  1  0.14259337  0.06379387  0.49455117  1.0
  H  H121  1  0.98982853  0.07558061  0.50448663  1.0
  H  H122  1  0.09252087  0.26212667  0.61375676  1.0
  H  H123  1  0.24007369  0.24276976  0.59934631  1.0
  H  H124  1  0.93594268  0.22827829  0.59324505  1.0
  H  H125  1  0.75345536  0.08708470  0.49281889  1.0
  H  H126  1  0.67374926  0.20965251  0.59002437  1.0
  H  H127  1  0.52096187  0.22285944  0.58875578  1.0
  H  H128  1  0.46087047  0.08294662  0.46661012  1.0
  H  H129  1  0.61147502  0.06370314  0.46224582  1.0
  H  H130  1  0.56322718  0.41111296  0.51926482  1.0
  H  H131  1  0.71099995  0.39259083  0.51460764  1.0
  H  H132  1  0.63025746  0.25024244  0.38661977  1.0
  H  H133  1  0.48323159  0.27327981  0.39717673  1.0
  H  H134  1  0.77944893  0.26545447  0.41657452  1.0
  H  H135  1  0.96147862  0.41490085  0.51603504  1.0
  H  H136  1  0.11678253  0.46599112  0.53584104  1.0
  H  H137  1  0.26820965  0.45209092  0.52856252  1.0
  H  H138  1  0.18804872  0.25683688  0.43062655  1.0
  H  H139  1  0.03188803  0.26175483  0.43314284  1.0
  H  H140  1  0.31033754  0.48588236  0.11047969  1.0
  H  H141  1  0.32941048  0.75724434  0.12773729  1.0
  H  H142  1  0.34534057  0.74585260  0.21272662  1.0
  H  H143  1  0.36493290  0.70385362  0.29705712  1.0
  H  H144  1  0.37776131  0.63097353  0.37265792  1.0
  H  H145  1  0.34460845  0.38737511  0.30356584  1.0
  H  H146  1  0.46363276  0.46619753  0.19736567  1.0
  H  H147  1  0.39909360  0.36180013  0.21728085  1.0
  H  H148  1  0.38836538  0.39403192  0.15919858  1.0
  H  H149  1  0.18287421  0.41070814  0.21758034  1.0
  H  H150  1  0.22341313  0.36077993  0.17112718  1.0
  H  H151  1  0.23432615  0.32917137  0.22952727  1.0
  H  H152  1  0.38833531  0.01944878  0.88983833  1.0
  H  H153  1  0.41060672  0.76173121  0.87049980  1.0
  H  H154  1  0.40707808  0.77757667  0.78512328  1.0
  H  H155  1  0.39240496  0.82251707  0.69956685  1.0
  H  H156  1  0.36538926  0.89168016  0.62506688  1.0
  H  H157  1  0.34598894  0.11666636  0.69835417  1.0
  H  H158  1  0.51341346  0.11884114  0.78609341  1.0
  H  H159  1  0.44583961  0.18546376  0.77263328  1.0
  H  H160  1  0.45921963  0.15634494  0.83118934  1.0
  H  H161  1  0.23083249  0.01320684  0.79965903  1.0
  H  H162  1  0.29170065  0.09233258  0.84010849  1.0
  H  H163  1  0.27913053  0.12347795  0.78193472  1.0
  H  H164  1  0.14259122  0.56378764  0.00544783  1.0
  H  H165  1  0.98982435  0.57556760  0.99550959  1.0
  H  H166  1  0.09251880  0.76211563  0.88623708  1.0
  H  H167  1  0.24007286  0.74276368  0.90064870  1.0
  H  H168  1  0.93594608  0.72828061  0.90675567  1.0
  H  H169  1  0.75345713  0.58707915  0.00717738  1.0
  H  H170  1  0.67374999  0.70963721  0.90996889  1.0
  H  H171  1  0.52096252  0.72284606  0.91123601  1.0
  H  H172  1  0.46087395  0.58295037  0.03339020  1.0
  H  H173  1  0.61147909  0.56370488  0.03775393  1.0
  H  H174  1  0.56324068  0.91110635  0.98073058  1.0
  H  H175  1  0.71101614  0.89258938  0.98539135  1.0
  H  H176  1  0.63026937  0.75024686  0.11338091  1.0
  H  H177  1  0.48324351  0.77328378  0.10282276  1.0
  H  H178  1  0.77946703  0.76546797  0.08342893  1.0
  H  H179  1  0.96148805  0.91490191  0.98395862  1.0
  H  H180  1  0.11679316  0.96598671  0.96415122  1.0
  H  H181  1  0.26822190  0.95209029  0.97143225  1.0
  H  H182  1  0.18804990  0.75682372  0.06936388  1.0
  H  H183  1  0.03189196  0.76174241  0.06684617  1.0
  C  C184  1  0.68206424  0.45854018  0.86650109  1.0
  C  C185  1  0.68045609  0.37763199  0.88584074  1.0
  C  C186  1  0.67194810  0.30502813  0.85702819  1.0
  C  C187  1  0.66265985  0.31119925  0.80929920  1.0
  C  C188  1  0.63997111  0.36530717  0.70181592  1.0
  C  C189  1  0.63267904  0.40526837  0.65985357  1.0
  C  C190  1  0.63770935  0.49389014  0.65821017  1.0
  C  C191  1  0.65103920  0.54382722  0.69913289  1.0
  C  C192  1  0.65872586  0.50471028  0.74113510  1.0
  C  C193  1  0.65298672  0.41531308  0.74238235  1.0
  C  C194  1  0.66275806  0.39105834  0.79028397  1.0
  C  C195  1  0.67364683  0.46498418  0.81886568  1.0
  C  C196  1  0.67417744  0.54439594  0.78976376  1.0
  C  C197  1  0.60120462  0.58260665  0.80482735  1.0
  C  C198  1  0.76407097  0.61527861  0.79305161  1.0
  C  C199  1  0.68340113  0.36730809  0.93721180  1.0
  C  C200  1  0.62859267  0.53474915  0.61262725  1.0
  C  C201  1  0.60858681  0.03247342  0.13374983  1.0
  C  C202  1  0.59968044  0.11012416  0.11499735  1.0
  C  C203  1  0.59421524  0.17784044  0.14443451  1.0
  C  C204  1  0.59786140  0.16960301  0.19235761  1.0
  C  C205  1  0.61901819  0.11393584  0.30036217  1.0
  C  C206  1  0.63364936  0.07572746  0.34171761  1.0
  C  C207  1  0.64664908  0.99325051  0.34194423  1.0
  C  C208  1  0.64478487  0.94773089  0.30018063  1.0
  C  C209  1  0.63163067  0.98582540  0.25885152  1.0
  C  C210  1  0.61904382  0.06905470  0.25877151  1.0
  C  C211  1  0.60871179  0.09332353  0.21085671  1.0
  C  C212  1  0.61405230  0.02476941  0.18145318  1.0
  C  C213  1  0.62686056  0.94947724  0.20978439  1.0
  C  C214  1  0.54731113  0.86705656  0.20471468  1.0
  C  C215  1  0.71156574  0.92905172  0.19622151  1.0
  C  C216  1  0.59889652  0.12163328  0.06366094  1.0
  C  C217  1  0.66035632  0.95219088  0.38669947  1.0
  C  C218  1  0.87227643  0.39361239  0.02070557  1.0
  C  C219  1  0.95622020  0.38755374  0.02639515  1.0
  C  C220  1  0.97106546  0.33095928  0.06041765  1.0
  C  C221  1  0.89940874  0.28298326  0.08715275  1.0
  C  C222  1  0.81733163  0.29317056  0.07929587  1.0
  C  C223  1  0.05733095  0.32035387  0.06784447  1.0
  C  C224  1  0.25995741  0.37792138  0.02317262  1.0
  C  C225  1  0.34619390  0.36541256  0.02619375  1.0
  C  C226  1  0.37192250  0.31979262  0.06233981  1.0
  C  C227  1  0.45591930  0.31197438  0.06163432  1.0
  C  C228  1  0.48940736  0.38957123  0.99291328  1.0
  C  C229  1  0.40660695  0.40034848  0.99073645  1.0
  C  C230  1  0.41999600  0.12430336  0.99037892  1.0
  C  C231  1  0.33698641  0.13417774  0.98753940  1.0
  C  C232  1  0.31652002  0.17920362  0.94962186  1.0
  C  C233  1  0.38221941  0.21356769  0.91642205  1.0
  C  C234  1  0.46380019  0.20094930  0.92200178  1.0
  C  C235  1  0.23029583  0.19106651  0.94413884  1.0
  C  C236  1  0.02622871  0.12788187  0.98879095  1.0
  C  C237  1  0.93821329  0.13574118  0.98493099  1.0
  C  C238  1  0.87075598  0.08198728  0.01233062  1.0
  C  C239  1  0.78651149  0.08877216  0.00836155  1.0
  C  C240  1  0.83146969  0.19785208  0.95318444  1.0
  C  C241  1  0.91729999  0.19506131  0.95468572  1.0
  C  C242  1  0.68206583  0.95854018  0.63350609  1.0
  C  C243  1  0.68045247  0.87763029  0.61416537  1.0
  C  C244  1  0.67194040  0.80502456  0.64297789  1.0
  C  C245  1  0.66265524  0.81119359  0.69070690  1.0
  C  C246  1  0.63996297  0.86529889  0.79818902  1.0
  C  C247  1  0.63267693  0.90526140  0.84015229  1.0
  C  C248  1  0.63771078  0.99388255  0.84179568  1.0
  C  C249  1  0.65104747  0.04382141  0.80087359  1.0
  C  C250  1  0.65873156  0.00470646  0.75887114  1.0
  C  C251  1  0.65299186  0.91530769  0.75762304  1.0
  C  C252  1  0.66275823  0.89105501  0.70972043  1.0
  C  C253  1  0.67365309  0.96498536  0.68114081  1.0
  C  C254  1  0.67418151  0.04439491  0.71024158  1.0
  C  C255  1  0.60120980  0.08260656  0.69517920  1.0
  C  C256  1  0.76407516  0.11527569  0.70695411  1.0
  C  C257  1  0.68339856  0.86730538  0.56279503  1.0
  C  C258  1  0.62859418  0.03474364  0.88737832  1.0
  C  C259  1  0.60857857  0.53247887  0.36625005  1.0
  C  C260  1  0.59967786  0.61013067  0.38500296  1.0
  C  C261  1  0.59421116  0.67784679  0.35556418  1.0
  C  C262  1  0.59785172  0.66960493  0.30764075  1.0
  C  C263  1  0.61900426  0.61393506  0.19963562  1.0
  C  C264  1  0.63363904  0.57572423  0.15828130  1.0
  C  C265  1  0.64664286  0.49325024  0.15805406  1.0
  C  C266  1  0.64477565  0.44773307  0.19981784  1.0
  C  C267  1  0.63161713  0.48582548  0.24114721  1.0
  C  C268  1  0.61902926  0.56905382  0.24122818  1.0
  C  C269  1  0.60869694  0.59332180  0.28914327  1.0
  C  C270  1  0.61403951  0.52476979  0.31854740  1.0
  C  C271  1  0.62684751  0.44947711  0.29021485  1.0
  C  C272  1  0.54729710  0.36705761  0.29528313  1.0
  C  C273  1  0.71155030  0.42905260  0.30377917  1.0
  C  C274  1  0.59889678  0.62163697  0.43634037  1.0
  C  C275  1  0.66035410  0.45219146  0.11330066  1.0
  C  C276  1  0.87229452  0.89362796  0.47928971  1.0
  C  C277  1  0.95623362  0.88756154  0.47359978  1.0
  C  C278  1  0.97107225  0.83096627  0.43957640  1.0
  C  C279  1  0.89941454  0.78299202  0.41284387  1.0
  C  C280  1  0.81734181  0.79318184  0.42070176  1.0
  C  C281  1  0.05734032  0.82035649  0.43215148  1.0
  C  C282  1  0.25996585  0.87791865  0.47682744  1.0
  C  C283  1  0.34620131  0.86540403  0.47380979  1.0
  C  C284  1  0.37193256  0.81978282  0.43766622  1.0
  C  C285  1  0.45592690  0.81196257  0.43837554  1.0
  C  C286  1  0.48940875  0.88956437  0.50709430  1.0
  C  C287  1  0.40660786  0.90034223  0.50926902  1.0
  C  C288  1  0.41998517  0.62429756  0.50962686  1.0
  C  C289  1  0.33697609  0.63417385  0.51246601  1.0
  C  C290  1  0.31651098  0.67920167  0.55038242  1.0
  C  C291  1  0.38220682  0.71355730  0.58358493  1.0
  C  C292  1  0.46378676  0.70093574  0.57800386  1.0
  C  C293  1  0.23028869  0.69106709  0.55586507  1.0
  C  C294  1  0.02622137  0.62788389  0.51121270  1.0
  C  C295  1  0.93820330  0.63573854  0.51507320  1.0
  C  C296  1  0.87074638  0.58198536  0.48767383  1.0
  C  C297  1  0.78650389  0.58877086  0.49164185  1.0
  C  C298  1  0.83145511  0.69784166  0.54682275  1.0
  C  C299  1  0.91728707  0.69505225  0.54532180  1.0
  C  C300  1  0.31792860  0.04145555  0.36649459  1.0
  C  C301  1  0.31954046  0.12236670  0.38583391  1.0
  C  C302  1  0.32805090  0.19497111  0.35702035  1.0
  C  C303  1  0.33733970  0.18879955  0.30929204  1.0
  C  C304  1  0.36002970  0.13469291  0.20181027  1.0
  C  C305  1  0.36731242  0.09472970  0.15984734  1.0
  C  C306  1  0.36228233  0.00610861  0.15820430  1.0
  C  C307  1  0.34894897  0.95617046  0.19912674  1.0
  C  C308  1  0.34126526  0.99528670  0.24112918  1.0
  C  C309  1  0.34700558  0.08468549  0.24237659  1.0
  C  C310  1  0.33723790  0.10894009  0.29027886  1.0
  C  C311  1  0.32634405  0.03501106  0.31885951  1.0
  C  C312  1  0.32581607  0.95560087  0.28975909  1.0
  C  C313  1  0.39878615  0.91738790  0.30482355  1.0
  C  C314  1  0.23592129  0.88472267  0.29304760  1.0
  C  C315  1  0.31659645  0.13269230  0.43720460  1.0
  C  C316  1  0.37139737  0.96525074  0.11262096  1.0
  C  C317  1  0.39141783  0.46752792  0.63374958  1.0
  C  C318  1  0.40032331  0.38987751  0.61499701  1.0
  C  C319  1  0.40578996  0.32216333  0.64443510  1.0
  C  C320  1  0.40215298  0.33040460  0.69235853  1.0
  C  C321  1  0.38099874  0.38606860  0.80036436  1.0
  C  C322  1  0.36636941  0.42427887  0.84171903  1.0
  C  C323  1  0.35336107  0.50675019  0.84194661  1.0
  C  C324  1  0.35522734  0.55227059  0.80018421  1.0
  C  C325  1  0.36838146  0.51417811  0.75885450  1.0
  C  C326  1  0.38097141  0.43095045  0.75877318  1.0
  C  C327  1  0.39130455  0.40668314  0.71085705  1.0
  C  C328  1  0.38595633  0.47523505  0.68145327  1.0
  C  C329  1  0.37315102  0.55052843  0.70978617  1.0
  C  C330  1  0.45269987  0.63295114  0.70471615  1.0
  C  C331  1  0.28844586  0.57095549  0.69622358  1.0
  C  C332  1  0.40109988  0.37836853  0.56365995  1.0
  C  C333  1  0.33964850  0.54780440  0.88670140  1.0
  C  C334  1  0.12771553  0.10639140  0.52069883  1.0
  C  C335  1  0.04377315  0.11244868  0.52639084  1.0
  C  C336  1  0.02893081  0.16904193  0.56041388  1.0
  C  C337  1  0.10058545  0.21702069  0.58714640  1.0
  C  C338  1  0.18266134  0.20683741  0.57928956  1.0
  C  C339  1  0.94265928  0.17964841  0.56783775  1.0
  C  C340  1  0.74003275  0.12208494  0.52316318  1.0
  C  C341  1  0.65379086  0.13459036  0.52618568  1.0
  C  C342  1  0.62806715  0.18021170  0.56233064  1.0
  C  C343  1  0.54407382  0.18803325  0.56162548  1.0
  C  C344  1  0.51058222  0.11042805  0.49290671  1.0
  C  C345  1  0.59338180  0.09965211  0.49072888  1.0
  C  C346  1  0.58001223  0.37570406  0.49036896  1.0
  C  C347  1  0.66302012  0.36582581  0.48752739  1.0
  C  C348  1  0.68348127  0.32079726  0.44961063  1.0
  C  C349  1  0.61778045  0.28643311  0.41641366  1.0
  C  C350  1  0.53619918  0.29905010  0.42199681  1.0
  C  C351  1  0.76970612  0.30892994  0.44412832  1.0
  C  C352  1  0.97377509  0.37212096  0.48877550  1.0
  C  C353  1  0.06179254  0.36426630  0.48491603  1.0
  C  C354  1  0.12924575  0.41801747  0.51231887  1.0
  C  C355  1  0.21348956  0.41123005  0.50835397  1.0
  C  C356  1  0.16854272  0.30215931  0.45317203  1.0
  C  C357  1  0.08271190  0.30495264  0.45466917  1.0
  C  C358  1  0.31794685  0.54146556  0.13350374  1.0
  C  C359  1  0.31955576  0.62237637  0.11416479  1.0
  C  C360  1  0.32806683  0.69498222  0.14297734  1.0
  C  C361  1  0.33735282  0.68880976  0.19070598  1.0
  C  C362  1  0.36003011  0.63469257  0.29818786  1.0
  C  C363  1  0.36731207  0.59472665  0.34015057  1.0
  C  C364  1  0.36227900  0.50610613  0.34179258  1.0
  C  C365  1  0.34895059  0.45616973  0.30086986  1.0
  C  C366  1  0.34126890  0.49528870  0.25886730  1.0
  C  C367  1  0.34701068  0.58468854  0.25762075  1.0
  C  C368  1  0.33724644  0.60894405  0.20971878  1.0
  C  C369  1  0.32635892  0.53501822  0.18113845  1.0
  C  C370  1  0.32582353  0.45560509  0.21023830  1.0
  C  C371  1  0.39879535  0.41739306  0.19517402  1.0
  C  C372  1  0.23592850  0.38472370  0.20694976  1.0
  C  C373  1  0.31660338  0.63270079  0.06279407  1.0
  C  C374  1  0.37139549  0.46524647  0.38737585  1.0
  C  C375  1  0.39141969  0.96752510  0.86624980  1.0
  C  C376  1  0.40032524  0.88987370  0.88500228  1.0
  C  C377  1  0.40578956  0.82215871  0.85556408  1.0
  C  C378  1  0.40214422  0.83039680  0.80764133  1.0
  C  C379  1  0.38098830  0.88606268  0.69963677  1.0
  C  C380  1  0.36635732  0.92427171  0.65828132  1.0
  C  C381  1  0.35335622  0.00674604  0.65805332  1.0
  C  C382  1  0.35521999  0.05226631  0.69981554  1.0
  C  C383  1  0.36837708  0.01417314  0.74114533  1.0
  C  C384  1  0.38096469  0.93094646  0.74122743  1.0
  C  C385  1  0.39129301  0.90667561  0.78914222  1.0
  C  C386  1  0.38595540  0.97523108  0.81854576  1.0
  C  C387  1  0.37314631  0.05052258  0.79021281  1.0
  C  C388  1  0.45269769  0.13294136  0.79528183  1.0
  C  C389  1  0.28844252  0.07095073  0.80377638  1.0
  C  C390  1  0.40111048  0.87836915  0.93633973  1.0
  C  C391  1  0.33964547  0.04780432  0.61329912  1.0
  C  C392  1  0.12771217  0.60638259  0.97929718  1.0
  C  C393  1  0.04376895  0.61243671  0.97360483  1.0
  C  C394  1  0.02892332  0.66902986  0.93958094  1.0
  C  C395  1  0.10058243  0.71700981  0.91284896  1.0
  C  C396  1  0.18265836  0.70682704  0.92070584  1.0
  C  C397  1  0.94265594  0.67963524  0.93215620  1.0
  C  C398  1  0.74003345  0.62207494  0.97682979  1.0
  C  C399  1  0.65379615  0.63458309  0.97381143  1.0
  C  C400  1  0.62806924  0.68020242  0.93766328  1.0
  C  C401  1  0.54407508  0.68802330  0.93836843  1.0
  C  C402  1  0.51058589  0.61042902  0.00709155  1.0
  C  C403  1  0.59338417  0.59965303  0.00926907  1.0
  C  C404  1  0.58002173  0.87569730  0.00962765  1.0
  C  C405  1  0.66303209  0.86582553  0.01247028  1.0
  C  C406  1  0.68349289  0.82079760  0.05038748  1.0
  C  C407  1  0.61779142  0.78643285  0.08358624  1.0
  C  C408  1  0.53621089  0.79904995  0.07800235  1.0
  C  C409  1  0.76971833  0.80893474  0.05587154  1.0
  C  C410  1  0.97378425  0.87211741  0.01121596  1.0
  C  C411  1  0.06179879  0.86425938  0.01507523  1.0
  C  C412  1  0.12925390  0.91801000  0.98767317  1.0
  C  C413  1  0.21349607  0.91122573  0.99163982  1.0
  C  C414  1  0.16854736  0.80215051  0.04681970  1.0
  C  C415  1  0.08271336  0.80493927  0.04532084  1.0
  N  N416  1  0.80400585  0.34708996  0.04658871  1.0
  N  N417  1  0.12422443  0.36654046  0.04449877  1.0
  N  N418  1  0.20092939  0.34796227  0.05478082  1.0
  N  N419  1  0.51391973  0.34633825  0.02758606  1.0
  N  N420  1  0.48209469  0.15695703  0.95818945  1.0
  N  N421  1  0.16624177  0.15055070  0.97113628  1.0
  N  N422  1  0.08897066  0.16890911  0.96116201  1.0
  N  N423  1  0.76710636  0.14575107  0.97947380  1.0
  N  N424  1  0.80402143  0.84710205  0.45341084  1.0
  N  N425  1  0.12423096  0.86653872  0.45549568  1.0
  N  N426  1  0.20094120  0.84795886  0.44521683  1.0
  N  N427  1  0.51392491  0.84632840  0.47242412  1.0
  N  N428  1  0.48208248  0.65694803  0.54181628  1.0
  N  N429  1  0.16623411  0.65055890  0.52886460  1.0
  N  N430  1  0.08896242  0.66891582  0.53883878  1.0
  N  N431  1  0.76709518  0.64574247  0.52053282  1.0
  N  N432  1  0.19598479  0.15291270  0.54658359  1.0
  N  N433  1  0.87577166  0.13347012  0.54448836  1.0
  N  N434  1  0.79906129  0.15204739  0.55477067  1.0
  N  N435  1  0.48607336  0.15366544  0.52757794  1.0
  N  N436  1  0.51790844  0.34304633  0.45818266  1.0
  N  N437  1  0.83376469  0.34945184  0.47112117  1.0
  N  N438  1  0.91103480  0.33109164  0.46114664  1.0
  N  N439  1  0.23290203  0.35425849  0.47946473  1.0
  N  N440  1  0.19598337  0.65290503  0.95341438  1.0
  N  N441  1  0.87576497  0.63344869  0.95549947  1.0
  N  N442  1  0.79905687  0.65202683  0.94522019  1.0
  N  N443  1  0.48607541  0.65366203  0.97241773  1.0
  N  N444  1  0.51792078  0.84304229  0.04181468  1.0
  N  N445  1  0.83377370  0.84944862  0.02887340  1.0
  N  N446  1  0.91104425  0.83108825  0.03884594  1.0
  N  N447  1  0.23290693  0.85425146  0.02052826  1.0
  O  O448  1  0.68880149  0.43317819  0.96315904  1.0
  O  O449  1  0.67794315  0.29251585  0.95463406  1.0
  O  O450  1  0.62257473  0.61265470  0.61331996  1.0
  O  O451  1  0.62746062  0.49278214  0.57532054  1.0
  O  O452  1  0.59130837  0.05553992  0.03759308  1.0
  O  O453  1  0.60762716  0.19723041  0.04660606  1.0
  O  O454  1  0.67701560  0.99763993  0.42353753  1.0
  O  O455  1  0.65304620  0.87063775  0.38584112  1.0
  O  O456  1  0.68879999  0.93317791  0.53684612  1.0
  O  O457  1  0.67794381  0.79251480  0.54537169  1.0
  O  O458  1  0.62257983  0.11264861  0.88668430  1.0
  O  O459  1  0.62746761  0.99277836  0.92468432  1.0
  O  O460  1  0.59131044  0.55554254  0.46240713  1.0
  O  O461  1  0.60763079  0.69723581  0.45339527  1.0
  O  O462  1  0.67703710  0.49764935  0.07646546  1.0
  O  O463  1  0.65302814  0.37063546  0.11416108  1.0
  O  O464  1  0.31119823  0.06682437  0.46315524  1.0
  O  O465  1  0.32205158  0.20748419  0.45462621  1.0
  O  O466  1  0.37742334  0.88734921  0.11331430  1.0
  O  O467  1  0.37252199  0.00721793  0.07531566  1.0
  O  O468  1  0.40869268  0.44446372  0.53759250  1.0
  O  O469  1  0.39235896  0.30276958  0.54660644  1.0
  O  O470  1  0.32296619  0.50234457  0.92353555  1.0
  O  O471  1  0.34697094  0.62935904  0.88584340  1.0
  O  O472  1  0.31119863  0.56683061  0.03684475  1.0
  O  O473  1  0.32205383  0.70749291  0.04537181  1.0
  O  O474  1  0.37739767  0.38733611  0.38668210  1.0
  O  O475  1  0.37253684  0.50721753  0.42468152  1.0
  O  O476  1  0.40870335  0.94446583  0.96240585  1.0
  O  O477  1  0.39237488  0.80276999  0.95339391  1.0
  O  O478  1  0.32296193  0.00234708  0.57646418  1.0
  O  O479  1  0.34697248  0.12935967  0.61415644  1.0
