# generated using pymatgen
data_ZnH10C24N5O8
_symmetry_space_group_name_H-M   'P 1'
_cell_length_a   13.89936930
_cell_length_b   15.25176331
_cell_length_c   19.46449075
_cell_angle_alpha   89.53774572
_cell_angle_beta   89.98534789
_cell_angle_gamma   89.94796208
_symmetry_Int_Tables_number   1
_chemical_formula_structural   ZnH10C24N5O8
_chemical_formula_sum   'Zn2 H20 C48 N10 O16'
_cell_volume   4126.13914832
_cell_formula_units_Z   2
loop_
 _symmetry_equiv_pos_site_id
 _symmetry_equiv_pos_as_xyz
  1  'x, y, z'
loop_
 _atom_site_type_symbol
 _atom_site_label
 _atom_site_symmetry_multiplicity
 _atom_site_fract_x
 _atom_site_fract_y
 _atom_site_fract_z
 _atom_site_occupancy
  Zn  Zn0  1  0.39796105  0.50001167  0.50017683  1.0
  Zn  Zn1  1  0.60203882  0.49998552  0.49982619  1.0
  H  H2  1  0.34515136  0.49845409  0.27864196  1.0
  H  H3  1  0.65485139  0.50154834  0.72136105  1.0
  H  H4  1  0.34518224  0.49773323  0.72148366  1.0
  H  H5  1  0.65481907  0.50226593  0.27851730  1.0
  H  H6  1  0.34667292  0.77759834  0.51252632  1.0
  H  H7  1  0.65332767  0.22240017  0.48747362  1.0
  H  H8  1  0.25692411  0.91876843  0.52124620  1.0
  H  H9  1  0.74307432  0.08123205  0.47875477  1.0
  H  H10  1  0.25688266  0.08102510  0.52125315  1.0
  H  H11  1  0.74311578  0.91897405  0.47875039  1.0
  H  H12  1  0.24681285  0.59630988  0.42438294  1.0
  H  H13  1  0.75318774  0.40369191  0.57561750  1.0
  H  H14  1  0.24701866  0.40377722  0.57559373  1.0
  H  H15  1  0.75298265  0.59622064  0.42440518  1.0
  H  H16  1  0.08914149  0.34237519  0.62497799  1.0
  H  H17  1  0.91085838  0.65762660  0.37502194  1.0
  H  H18  1  0.08888514  0.65756898  0.37495722  1.0
  H  H19  1  0.91111545  0.34243281  0.62504322  1.0
  H  H20  1  0.65338581  0.77773796  0.48716023  1.0
  H  H21  1  0.34661550  0.22226382  0.51284124  1.0
  C  C22  1  0.49997731  0.32926626  0.50100939  1.0
  C  C23  1  0.50002472  0.67073356  0.49899158  1.0
  C  C24  1  0.50014047  0.50118681  0.36474411  1.0
  C  C25  1  0.49985797  0.49880842  0.63525585  1.0
  C  C26  1  0.41330175  0.49961453  0.25117977  1.0
  C  C27  1  0.58669956  0.50038464  0.74882120  1.0
  C  C28  1  0.41334837  0.49837856  0.74890879  1.0
  C  C29  1  0.58665366  0.50161668  0.25109065  1.0
  C  C30  1  0.41452913  0.49798212  0.17980538  1.0
  C  C31  1  0.58547291  0.50201705  0.82019559  1.0
  C  C32  1  0.41467652  0.49671483  0.82029061  1.0
  C  C33  1  0.58532551  0.50328107  0.17970883  1.0
  C  C34  1  0.49990590  0.50056411  0.14141144  1.0
  C  C35  1  0.50009613  0.49943375  0.85858902  1.0
  C  C36  1  0.49998517  0.50074348  0.28730796  1.0
  C  C37  1  0.50001902  0.49925240  0.71269250  1.0
  C  C38  1  0.50004556  0.49967183  0.93476826  1.0
  C  C39  1  0.49995287  0.50032604  0.06523066  1.0
  C  C40  1  0.58666787  0.81469257  0.49240648  1.0
  C  C41  1  0.41333128  0.18530791  0.50759397  1.0
  C  C42  1  0.49996409  0.76894295  0.49933802  1.0
  C  C43  1  0.50003506  0.23105753  0.50066140  1.0
  C  C44  1  0.41328755  0.81460910  0.50682782  1.0
  C  C45  1  0.58671160  0.18539007  0.49317263  1.0
  C  C46  1  0.41158486  0.90648721  0.50748088  1.0
  C  C47  1  0.58841357  0.09351196  0.49252112  1.0
  C  C48  1  0.49998673  0.95345329  0.49990562  1.0
  C  C49  1  0.50001170  0.04654784  0.50009688  1.0
  C  C50  1  0.58840163  0.90656389  0.49224223  1.0
  C  C51  1  0.41159824  0.09343592  0.50776079  1.0
  C  C52  1  0.32399464  0.95519005  0.51528073  1.0
  C  C53  1  0.67600451  0.04480976  0.48472332  1.0
  C  C54  1  0.32400119  0.04468157  0.51534389  1.0
  C  C55  1  0.67599868  0.95532021  0.48466015  1.0
  C  C56  1  0.20264448  0.55432855  0.45728881  1.0
  C  C57  1  0.79735899  0.44567061  0.54271267  1.0
  C  C58  1  0.20272332  0.44571771  0.54269330  1.0
  C  C59  1  0.79727799  0.55428278  0.45730561  1.0
  C  C60  1  0.10199316  0.44273036  0.54511361  1.0
  C  C61  1  0.89800815  0.55726882  0.45488428  1.0
  C  C62  1  0.10190078  0.55726413  0.45485573  1.0
  C  C63  1  0.89809981  0.44273570  0.54514369  1.0
  C  C64  1  0.05091228  0.49999872  0.49998745  1.0
  C  C65  1  0.94908688  0.50000111  0.50001095  1.0
  C  C66  1  0.04928498  0.38566113  0.59033292  1.0
  C  C67  1  0.95071633  0.61433870  0.40966650  1.0
  C  C68  1  0.04909051  0.61432292  0.40962810  1.0
  C  C69  1  0.95091152  0.38567691  0.59037183  1.0
  N  N70  1  0.54613184  0.43351241  0.03450469  1.0
  N  N71  1  0.45386731  0.56648676  0.96549473  1.0
  N  N72  1  0.54621082  0.43315370  0.96670946  1.0
  N  N73  1  0.45378978  0.56684416  0.03329048  1.0
  N  N74  1  0.25036879  0.50003728  0.50000280  1.0
  N  N75  1  0.74963108  0.49996320  0.49999765  1.0
  N  N76  1  0.32055371  0.48903190  0.14475898  1.0
  N  N77  1  0.67944760  0.51096988  0.85524300  1.0
  N  N78  1  0.32075714  0.48693863  0.85548279  1.0
  N  N79  1  0.67924776  0.51306120  0.14451663  1.0
  O  O80  1  0.41835668  0.36753501  0.50179869  1.0
  O  O81  1  0.58164895  0.63246677  0.49820535  1.0
  O  O82  1  0.41845251  0.63246674  0.49959094  1.0
  O  O83  1  0.58155384  0.36753046  0.50040850  1.0
  O  O84  1  0.41836159  0.50094265  0.39385896  1.0
  O  O85  1  0.58163756  0.49905457  0.60613688  1.0
  O  O86  1  0.41790534  0.49825118  0.60647950  1.0
  O  O87  1  0.58209597  0.50174208  0.39352200  1.0
  O  O88  1  0.31801064  0.44296699  0.09274284  1.0
  O  O89  1  0.25120393  0.52656016  0.17144473  1.0
  O  O90  1  0.68199211  0.55703152  0.90725710  1.0
  O  O91  1  0.74880169  0.47344296  0.82855263  1.0
  O  O92  1  0.31895239  0.44117500  0.90828103  1.0
  O  O93  1  0.25075077  0.52311586  0.82814782  1.0
  O  O94  1  0.68105539  0.55882811  0.09171838  1.0
  O  O95  1  0.74925486  0.47688397  0.17185006  1.0
