# generated using pymatgen
data_AlH9C21(NO3)4
_symmetry_space_group_name_H-M   'P 1'
_cell_length_a   4.18376957
_cell_length_b   23.40303628
_cell_length_c   23.40335045
_cell_angle_alpha   120.00000502
_cell_angle_beta   90.00174488
_cell_angle_gamma   89.99904424
_symmetry_Int_Tables_number   1
_chemical_formula_structural   AlH9C21(NO3)4
_chemical_formula_sum   'Al3 H27 C63 N12 O36'
_cell_volume   1984.48859890
_cell_formula_units_Z   3
loop_
 _symmetry_equiv_pos_site_id
 _symmetry_equiv_pos_as_xyz
  1  'x, y, z'
loop_
 _atom_site_type_symbol
 _atom_site_label
 _atom_site_symmetry_multiplicity
 _atom_site_fract_x
 _atom_site_fract_y
 _atom_site_fract_z
 _atom_site_occupancy
  Al  Al0  1  0.00603086  0.50027959  0.49949489  1.0
  Al  Al1  1  0.00603290  0.16589045  0.83306861  1.0
  Al  Al2  1  0.00602648  0.83382455  0.16744692  1.0
  H  H3  1  0.76782701  0.94627772  0.07861834  1.0
  H  H4  1  0.78051394  0.04946448  0.07533690  1.0
  H  H5  1  0.21744132  0.14347407  0.25415270  1.0
  H  H6  1  0.21739932  0.07918191  0.05600319  1.0
  H  H7  1  0.76785962  0.25471008  0.03434491  1.0
  H  H8  1  0.78052910  0.25799262  0.14081135  1.0
  H  H9  1  0.21738462  0.27732254  0.18985316  1.0
  H  H10  1  0.76786273  0.29900676  0.38705059  1.0
  H  H11  1  0.78053422  0.19253104  0.28387487  1.0
  H  H12  1  0.23730330  0.05442944  0.63296142  1.0
  H  H13  1  0.21969307  0.95121015  0.52648716  1.0
  H  H14  1  0.78005786  0.85594034  0.61041124  1.0
  H  H15  1  0.78001044  0.92114883  0.47740844  1.0
  H  H16  1  0.23729290  0.74519492  0.27892725  1.0
  H  H17  1  0.21963569  0.74195573  0.38215287  1.0
  H  H18  1  0.78006905  0.72294501  0.41221576  1.0
  H  H19  1  0.23728703  0.70039626  0.58814440  1.0
  H  H20  1  0.21967393  0.80687103  0.59140018  1.0
  H  H21  1  0.23866798  0.36580928  0.91882730  1.0
  H  H22  1  0.22906924  0.47281297  0.92314787  1.0
  H  H23  1  0.79330066  0.38905321  0.74461745  1.0
  H  H24  1  0.79335890  0.52221827  0.94425615  1.0
  H  H25  1  0.23868935  0.71968505  0.96752915  1.0
  H  H26  1  0.22911726  0.61701492  0.86051508  1.0
  H  H27  1  0.79338789  0.58870121  0.81110008  1.0
  H  H28  1  0.23864771  0.41450676  0.61363915  1.0
  H  H29  1  0.22905740  0.41017914  0.71631845  1.0
  C  C30  1  0.51312134  0.50323890  0.58852178  1.0
  C  C31  1  0.49786636  0.41347999  0.41223364  1.0
  C  C32  1  0.50965157  0.58581199  0.49738761  1.0
  C  C33  1  0.49788601  0.16542802  0.91986606  1.0
  C  C34  1  0.51310972  0.25195326  0.83009978  1.0
  C  C35  1  0.50968089  0.07824863  0.74754069  1.0
  C  C36  1  0.49786847  0.92108731  0.16790667  1.0
  C  C37  1  0.51311636  0.74479628  0.08138260  1.0
  C  C38  1  0.50969664  0.83594259  0.25509152  1.0
  C  C39  1  0.64693724  0.98975989  0.11726750  1.0
  C  C40  1  0.65712383  0.04844068  0.11579145  1.0
  C  C41  1  0.50677766  0.10561514  0.16548940  1.0
  C  C42  1  0.34134501  0.10134035  0.21497580  1.0
  C  C43  1  0.34073591  0.04286383  0.21643010  1.0
  C  C44  1  0.49280075  0.98575351  0.16837382  1.0
  C  C45  1  0.34131664  0.11835520  0.05304786  1.0
  C  C46  1  0.34072501  0.11690136  0.99311556  1.0
  C  C47  1  0.49282414  0.16495336  0.98406351  1.0
  C  C48  1  0.64696363  0.21606372  0.03917843  1.0
  C  C49  1  0.65713879  0.21753896  0.09933406  1.0
  C  C50  1  0.50678444  0.16784592  0.10681101  1.0
  C  C51  1  0.34130015  0.28028487  0.23198695  1.0
  C  C52  1  0.34071904  0.34021838  0.29045907  1.0
  C  C53  1  0.49282064  0.34927860  0.34756920  1.0
  C  C54  1  0.64696120  0.29416951  0.34356916  1.0
  C  C55  1  0.65712935  0.23400756  0.28489226  1.0
  C  C56  1  0.50677491  0.22652671  0.22771638  1.0
  C  C57  1  0.35487829  0.01058707  0.62805764  1.0
  C  C58  1  0.34271948  0.95188509  0.56784346  1.0
  C  C59  1  0.49093707  0.89434599  0.56001144  1.0
  C  C60  1  0.65690888  0.89824428  0.61357500  1.0
  C  C61  1  0.65910059  0.95665171  0.67357180  1.0
  C  C62  1  0.50878215  0.01403638  0.68294902  1.0
  C  C63  1  0.65686380  0.88200712  0.43510570  1.0
  C  C64  1  0.65907699  0.88358503  0.37669159  1.0
  C  C65  1  0.50878174  0.83557153  0.31930788  1.0
  C  C66  1  0.35485620  0.78413779  0.32276664  1.0
  C  C67  1  0.34267355  0.78263489  0.38147546  1.0
  C  C68  1  0.49090122  0.83234221  0.43901001  1.0
  C  C69  1  0.65689643  0.71978085  0.45135103  1.0
  C  C70  1  0.65908844  0.65978466  0.44976421  1.0
  C  C71  1  0.50876907  0.65040468  0.49776845  1.0
  C  C72  1  0.35485699  0.70529372  0.54920448  1.0
  C  C73  1  0.34269548  0.76551244  0.55071752  1.0
  C  C74  1  0.49091859  0.77334562  0.50101437  1.0
  C  C75  1  0.36039929  0.37097564  0.88045127  1.0
  C  C76  1  0.35216968  0.43141983  0.88251801  1.0
  C  C77  1  0.50432707  0.43944544  0.83331018  1.0
  C  C78  1  0.66853377  0.38565865  0.78344652  1.0
  C  C79  1  0.66857699  0.32537579  0.78150186  1.0
  C  C80  1  0.51532961  0.31601801  0.82927834  1.0
  C  C81  1  0.66858700  0.56444475  0.94765891  1.0
  C  C82  1  0.66861676  0.62277652  0.00794452  1.0
  C  C83  1  0.51533212  0.67991349  0.01731197  1.0
  C  C84  1  0.36042323  0.67614021  0.96235711  1.0
  C  C85  1  0.35221060  0.61776831  0.90190761  1.0
  C  C86  1  0.50435524  0.56054359  0.89387692  1.0
  C  C87  1  0.66859679  0.54987428  0.76887311  1.0
  C  C88  1  0.66863730  0.55182520  0.71054209  1.0
  C  C89  1  0.51536149  0.50405447  0.65340239  1.0
  C  C90  1  0.36041057  0.45288173  0.65718478  1.0
  C  C91  1  0.35217890  0.45080747  0.71555538  1.0
  C  C92  1  0.50435755  0.50001251  0.77279052  1.0
  N  N93  1  0.52185468  0.16666029  0.16667181  1.0
  N  N94  1  0.47413665  0.83334562  0.50001229  1.0
  N  N95  1  0.49227298  0.49998935  0.83332268  1.0
  N  N96  1  0.18063373  0.04390737  0.27301005  1.0
  N  N97  1  0.18061141  0.06032101  0.93757877  1.0
  N  N98  1  0.18060723  0.39575527  0.28940862  1.0
  N  N99  1  0.82020873  0.95548873  0.72891182  1.0
  N  N100  1  0.82021389  0.94008151  0.37784850  1.0
  N  N101  1  0.82021371  0.60444318  0.39326379  1.0
  N  N102  1  0.83601717  0.27039004  0.72557926  1.0
  N  N103  1  0.83611145  0.62182866  0.06292167  1.0
  N  N104  1  0.83609864  0.60774787  0.71148049  1.0
  O  O105  1  0.26706137  0.54917528  0.47296071  1.0
  O  O106  1  0.27055570  0.52795571  0.57679605  1.0
  O  O107  1  0.26715368  0.42316841  0.45173953  1.0
  O  O108  1  0.74354872  0.57603724  0.52614656  1.0
  O  O109  1  0.74241786  0.44925130  0.42371084  1.0
  O  O110  1  0.74533594  0.47317121  0.54986994  1.0
  O  O111  1  0.74355276  0.11678197  0.75731596  1.0
  O  O112  1  0.74243396  0.14113506  0.88409859  1.0
  O  O113  1  0.74532424  0.24337204  0.86017248  1.0
  O  O114  1  0.26706961  0.09045878  0.78417653  1.0
  O  O115  1  0.27054101  0.21551095  0.80538680  1.0
  O  O116  1  0.26715891  0.19524756  0.91017766  1.0
  O  O117  1  0.74358193  0.80717944  0.21656125  1.0
  O  O118  1  0.74242079  0.90960885  0.19219851  1.0
  O  O119  1  0.74532695  0.78344952  0.08996672  1.0
  O  O120  1  0.26709273  0.86036534  0.24287479  1.0
  O  O121  1  0.27054812  0.75651944  0.11782281  1.0
  O  O122  1  0.26715481  0.88157803  0.13808641  1.0
  O  O123  1  0.24882876  0.99908907  0.28393421  1.0
  O  O124  1  0.99343725  0.09019189  0.30620115  1.0
  O  O125  1  0.24883524  0.04939323  0.88183388  1.0
  O  O126  1  0.99339299  0.02713345  0.95066699  1.0
  O  O127  1  0.24881005  0.45149884  0.33422268  1.0
  O  O128  1  0.99339255  0.38265889  0.24312532  1.0
  O  O129  1  0.75244945  0.00026507  0.78481737  1.0
  O  O130  1  0.00812630  0.90936061  0.71575376  1.0
  O  O131  1  0.75246455  0.95120371  0.33306783  1.0
  O  O132  1  0.00816383  0.97304900  0.42397252  1.0
  O  O133  1  0.75242958  0.54854023  0.38212759  1.0
  O  O134  1  0.00819148  0.61760668  0.36030482  1.0
  O  O135  1  0.77584579  0.21400553  0.71420402  1.0
  O  O136  1  0.02522352  0.28432769  0.69338082  1.0
  O  O137  1  0.77593867  0.66682752  0.11930853  1.0
  O  O138  1  0.02534595  0.57569067  0.04897033  1.0
  O  O139  1  0.77590706  0.61913354  0.66648034  1.0
  O  O140  1  0.02532976  0.63994171  0.75761764  1.0
