# generated using pymatgen
data_Al2H12C18O11
_symmetry_space_group_name_H-M   'P 1'
_cell_length_a   6.91874559
_cell_length_b   11.04854230
_cell_length_c   11.13237520
_cell_angle_alpha   72.74910254
_cell_angle_beta   72.07843325
_cell_angle_gamma   73.86936399
_symmetry_Int_Tables_number   1
_chemical_formula_structural   Al2H12C18O11
_chemical_formula_sum   'Al2 H12 C18 O11'
_cell_volume   756.79188179
_cell_formula_units_Z   1
loop_
 _symmetry_equiv_pos_site_id
 _symmetry_equiv_pos_as_xyz
  1  'x, y, z'
loop_
 _atom_site_type_symbol
 _atom_site_label
 _atom_site_symmetry_multiplicity
 _atom_site_fract_x
 _atom_site_fract_y
 _atom_site_fract_z
 _atom_site_occupancy
  Al  Al0  1  0.49835736  0.50097329  0.50060253  1.0
  Al  Al1  1  0.99654448  0.50154321  0.50387733  1.0
  H  H2  1  0.72939237  0.65586613  0.39893799  1.0
  H  H3  1  0.22193386  0.39324251  0.65558234  1.0
  H  H4  1  0.86463728  0.50523179  0.88600524  1.0
  H  H5  1  0.24887986  0.49328515  0.88243016  1.0
  H  H6  1  0.74058383  0.50706488  0.12045639  1.0
  H  H7  1  0.22013475  0.13430925  0.51261612  1.0
  H  H8  1  0.36018265  0.90153662  0.50321702  1.0
  H  H9  1  0.66782382  0.88646655  0.39989659  1.0
  H  H10  1  0.60570216  0.83750675  0.57319787  1.0
  H  H11  1  0.46409153  0.07132708  0.58537512  1.0
  H  H12  1  0.52640064  0.11974185  0.41195768  1.0
  H  H13  1  0.06304187  0.49598337  0.21603391  1.0
  C  C14  1  0.15502139  0.73022438  0.48728785  1.0
  C  C15  1  0.35815978  0.50418484  0.27312221  1.0
  C  C16  1  0.84190210  0.27516130  0.51103811  1.0
  C  C17  1  0.63793049  0.49559467  0.72983530  1.0
  C  C18  1  0.42602682  0.50139812  0.13443647  1.0
  C  C19  1  0.56421297  0.49804577  0.87037613  1.0
  C  C20  1  0.28545240  0.49709961  0.06639226  1.0
  C  C21  1  0.70374876  0.50251062  0.93732141  1.0
  C  C22  1  0.35715415  0.49562986  0.93447895  1.0
  C  C23  1  0.63408446  0.50403939  0.06760394  1.0
  C  C24  1  0.07813071  0.86871925  0.49187384  1.0
  C  C25  1  0.91663348  0.13699568  0.50492645  1.0
  C  C26  1  0.87470852  0.93035821  0.49047568  1.0
  C  C27  1  0.12328630  0.07558614  0.50641921  1.0
  C  C28  1  0.79609849  0.05962442  0.49697520  1.0
  C  C29  1  0.20123248  0.94629609  0.50049577  1.0
  C  C30  1  0.67072363  0.90914149  0.48891076  1.0
  C  C31  1  0.58159927  0.05582841  0.49621198  1.0
  O  O32  1  0.34346164  0.67820848  0.49051490  1.0
  O  O33  1  0.16556822  0.49978203  0.33009280  1.0
  O  O34  1  0.97361412  0.33069417  0.52064645  1.0
  O  O35  1  0.50546390  0.48790900  0.67527033  1.0
  O  O36  1  0.65432587  0.32711896  0.50626579  1.0
  O  O37  1  0.82839661  0.50064918  0.67614754  1.0
  O  O38  1  0.02058647  0.67485384  0.47993941  1.0
  O  O39  1  0.48883892  0.51209743  0.32784117  1.0
  O  O40  1  0.75220354  0.56351607  0.43726514  1.0
  O  O41  1  0.24287350  0.44171084  0.56599343  1.0
  O  O42  1  0.08340965  0.49462001  0.12328659  1.0
