# generated using pymatgen
data_Sm2Cu3H30C24(NO4)6
_symmetry_space_group_name_H-M   'P 1'
_cell_length_a   13.39288478
_cell_length_b   13.39290532
_cell_length_c   14.59971575
_cell_angle_alpha   90.00000019
_cell_angle_beta   89.99999033
_cell_angle_gamma   119.99993722
_symmetry_Int_Tables_number   1
_chemical_formula_structural   Sm2Cu3H30C24(NO4)6
_chemical_formula_sum   'Sm4 Cu6 H60 C48 N12 O48'
_cell_volume   2267.90176019
_cell_formula_units_Z   2
loop_
 _symmetry_equiv_pos_site_id
 _symmetry_equiv_pos_as_xyz
  1  'x, y, z'
loop_
 _atom_site_type_symbol
 _atom_site_label
 _atom_site_symmetry_multiplicity
 _atom_site_fract_x
 _atom_site_fract_y
 _atom_site_fract_z
 _atom_site_occupancy
  Sm  Sm0  1  0.33333333  0.66666667  0.66829839  1.0
  Sm  Sm1  1  0.66666667  0.33333333  0.83170155  1.0
  Sm  Sm2  1  0.66666667  0.33333333  0.33170140  1.0
  Sm  Sm3  1  0.33333333  0.66666667  0.16829756  1.0
  Cu  Cu4  1  0.50000070  0.00000095  0.49999852  1.0
  Cu  Cu5  1  0.49999879  0.50000021  0.50000126  1.0
  Cu  Cu6  1  0.00000050  0.50000028  0.49999993  1.0
  Cu  Cu7  1  0.00000055  0.50000030  0.00000116  1.0
  Cu  Cu8  1  0.50000051  0.49999908  0.99999799  1.0
  Cu  Cu9  1  0.49999915  0.99999926  0.00000112  1.0
  H  H10  1  0.36093017  0.03838318  0.41762844  1.0
  H  H11  1  0.67745062  0.63906671  0.41762842  1.0
  H  H12  1  0.96161788  0.32254924  0.41762839  1.0
  H  H13  1  0.03838097  0.36093010  0.08237467  1.0
  H  H14  1  0.63906849  0.67745177  0.08237052  1.0
  H  H15  1  0.32254790  0.96161707  0.08237397  1.0
  H  H16  1  0.63906919  0.96161614  0.58236861  1.0
  H  H17  1  0.32254757  0.36093176  0.58237343  1.0
  H  H18  1  0.03838266  0.67745095  0.58237208  1.0
  H  H19  1  0.96161871  0.63906836  0.91762717  1.0
  H  H20  1  0.36092969  0.32254669  0.91762585  1.0
  H  H21  1  0.67745072  0.03838226  0.91762719  1.0
  H  H22  1  0.16885187  0.86313451  0.47353776  1.0
  H  H23  1  0.69428366  0.83114697  0.47353566  1.0
  H  H24  1  0.13686294  0.30571393  0.47353365  1.0
  H  H25  1  0.86313453  0.16885317  0.02646393  1.0
  H  H26  1  0.83114774  0.69428370  0.02646188  1.0
  H  H27  1  0.30571579  0.13686231  0.02646398  1.0
  H  H28  1  0.83115015  0.13686567  0.52646203  1.0
  H  H29  1  0.30571602  0.16885149  0.52646618  1.0
  H  H30  1  0.86313748  0.69428453  0.52646614  1.0
  H  H31  1  0.13686515  0.83114529  0.97353722  1.0
  H  H32  1  0.16885076  0.30571390  0.97353654  1.0
  H  H33  1  0.69428431  0.86313700  0.97353513  1.0
  H  H34  1  0.25961929  0.97284168  0.55247833  1.0
  H  H35  1  0.71322420  0.74037914  0.55247693  1.0
  H  H36  1  0.02715818  0.28677804  0.55247698  1.0
  H  H37  1  0.97284469  0.25962179  0.94752295  1.0
  H  H38  1  0.74038050  0.71322300  0.94752023  1.0
  H  H39  1  0.28677894  0.02715509  0.94752369  1.0
  H  H40  1  0.74038125  0.02715851  0.44752077  1.0
  H  H41  1  0.28677430  0.25961846  0.44752492  1.0
  H  H42  1  0.97284192  0.71322128  0.44752281  1.0
  H  H43  1  0.02715498  0.74037667  0.05247752  1.0
  H  H44  1  0.25962184  0.28677631  0.05247613  1.0
  H  H45  1  0.71322074  0.97284338  0.05247678  1.0
  H  H46  1  0.31285041  0.91838857  0.29669390  1.0
  H  H47  1  0.60553991  0.68715034  0.29669387  1.0
  H  H48  1  0.08161048  0.39446256  0.29669323  1.0
  H  H49  1  0.91838555  0.31285067  0.20330847  1.0
  H  H50  1  0.68715190  0.60554112  0.20330438  1.0
  H  H51  1  0.39446419  0.08161167  0.20330920  1.0
  H  H52  1  0.68714990  0.08160817  0.70330452  1.0
  H  H53  1  0.39446223  0.31285156  0.70330729  1.0
  H  H54  1  0.91839005  0.60553761  0.70330793  1.0
  H  H55  1  0.08161306  0.68714865  0.79669337  1.0
  H  H56  1  0.31284832  0.39445992  0.79669130  1.0
  H  H57  1  0.60553634  0.91838850  0.79669196  1.0
  H  H58  1  0.25996301  0.79796718  0.36883914  1.0
  H  H59  1  0.53800127  0.74003258  0.36883912  1.0
  H  H60  1  0.20203372  0.46199913  0.36883846  1.0
  H  H61  1  0.79796714  0.25996587  0.13116392  1.0
  H  H62  1  0.74003517  0.53800368  0.13115982  1.0
  H  H63  1  0.46199689  0.20203049  0.13116258  1.0
  H  H64  1  0.74003549  0.20203042  0.63115996  1.0
  H  H65  1  0.46199884  0.25996674  0.63116136  1.0
  H  H66  1  0.79796776  0.53799846  0.63116202  1.0
  H  H67  1  0.20203296  0.74003344  0.86883792  1.0
  H  H68  1  0.25996140  0.46199306  0.86883723  1.0
  H  H69  1  0.53800173  0.79796884  0.86883789  1.0
  C  C70  1  0.26416507  0.81734881  0.56689094  1.0
  C  C71  1  0.55319040  0.73584327  0.56689434  1.0
  C  C72  1  0.18266124  0.44680850  0.56689437  1.0
  C  C73  1  0.81734915  0.26415943  0.93311173  1.0
  C  C74  1  0.73584672  0.55319167  0.93310831  1.0
  C  C75  1  0.44680501  0.18265570  0.93310628  1.0
  C  C76  1  0.73583696  0.18265137  0.43310748  1.0
  C  C77  1  0.44680971  0.26415606  0.43310750  1.0
  C  C78  1  0.81733941  0.55319341  0.43310610  1.0
  C  C79  1  0.18265151  0.73584248  0.06689012  1.0
  C  C80  1  0.26415402  0.44680593  0.06689011  1.0
  C  C81  1  0.55319616  0.81734276  0.06689420  1.0
  C  C82  1  0.25441201  0.90544908  0.50649388  1.0
  C  C83  1  0.65103877  0.74558753  0.50649316  1.0
  C  C84  1  0.09455122  0.34896138  0.50649252  1.0
  C  C85  1  0.90545044  0.25441255  0.99350810  1.0
  C  C86  1  0.74558783  0.65103792  0.99350538  1.0
  C  C87  1  0.34896403  0.09455026  0.99350815  1.0
  C  C88  1  0.74558885  0.09455025  0.49350523  1.0
  C  C89  1  0.34896016  0.25441093  0.49350869  1.0
  C  C90  1  0.90544920  0.65103707  0.49350796  1.0
  C  C91  1  0.09455041  0.74558677  0.00649443  1.0
  C  C92  1  0.25441152  0.34896139  0.00649236  1.0
  C  C93  1  0.65103682  0.90544906  0.00649233  1.0
  C  C94  1  0.33321590  0.88555961  0.35880469  1.0
  C  C95  1  0.55234385  0.66678151  0.35880467  1.0
  C  C96  1  0.11443899  0.44765776  0.35880402  1.0
  C  C97  1  0.88555927  0.33321692  0.14119630  1.0
  C  C98  1  0.66678449  0.55234593  0.14119427  1.0
  C  C99  1  0.44765704  0.11443890  0.14119771  1.0
  C  C100  1  0.66678216  0.11443712  0.64119441  1.0
  C  C101  1  0.44765743  0.33321867  0.64119648  1.0
  C  C102  1  0.88556304  0.55234242  0.64119714  1.0
  C  C103  1  0.11443934  0.66678240  0.85880486  1.0
  C  C104  1  0.33321381  0.44765425  0.85880278  1.0
  C  C105  1  0.55234275  0.88556128  0.85880414  1.0
  C  C106  1  0.43918920  0.87461173  0.34007829  1.0
  C  C107  1  0.43542219  0.56080756  0.34007761  1.0
  C  C108  1  0.12538704  0.56458046  0.34007626  1.0
  C  C109  1  0.87460590  0.43919004  0.15992681  1.0
  C  C110  1  0.56081391  0.43542237  0.15992615  1.0
  C  C111  1  0.56458475  0.12539538  0.15992683  1.0
  C  C112  1  0.56080961  0.12538500  0.65992150  1.0
  C  C113  1  0.56457984  0.43919262  0.65992287  1.0
  C  C114  1  0.87461499  0.43541972  0.65992558  1.0
  C  C115  1  0.12539229  0.56080843  0.84007367  1.0
  C  C116  1  0.43918568  0.56458039  0.84007296  1.0
  C  C117  1  0.43541590  0.87460653  0.84007364  1.0
  N  N118  1  0.34794650  0.95880378  0.43899803  1.0
  N  N119  1  0.61085624  0.65205127  0.43899801  1.0
  N  N120  1  0.04119555  0.38914296  0.43899806  1.0
  N  N121  1  0.95880415  0.34794715  0.06100364  1.0
  N  N122  1  0.65205381  0.61085815  0.06100093  1.0
  N  N123  1  0.38914158  0.04119389  0.06100506  1.0
  N  N124  1  0.65205361  0.04119555  0.56099970  1.0
  N  N125  1  0.38914225  0.34794632  0.56100315  1.0
  N  N126  1  0.95880531  0.61085637  0.56100242  1.0
  N  N127  1  0.04119596  0.65205218  0.93899820  1.0
  N  N128  1  0.34794511  0.38914030  0.93899544  1.0
  N  N129  1  0.61085853  0.95880544  0.93899679  1.0
  O  O130  1  0.35608362  0.81105062  0.55924215  1.0
  O  O131  1  0.45496685  0.64391583  0.55924557  1.0
  O  O132  1  0.18895633  0.54503671  0.55923874  1.0
  O  O133  1  0.81105055  0.35608343  0.94075914  1.0
  O  O134  1  0.64391649  0.45496174  0.94075847  1.0
  O  O135  1  0.54504146  0.18895299  0.94076053  1.0
  O  O136  1  0.64391755  0.18894784  0.44075352  1.0
  O  O137  1  0.54503102  0.35608350  0.44075901  1.0
  O  O138  1  0.81104633  0.45496175  0.44075968  1.0
  O  O139  1  0.18895073  0.64391675  0.05924339  1.0
  O  O140  1  0.35608574  0.54503586  0.05923927  1.0
  O  O141  1  0.45495940  0.81104634  0.05923995  1.0
  O  O142  1  0.18415611  0.75654925  0.62239819  1.0
  O  O143  1  0.57239497  0.81584168  0.62239474  1.0
  O  O144  1  0.24344957  0.42760445  0.62239134  1.0
  O  O145  1  0.75654901  0.18415584  0.87760449  1.0
  O  O146  1  0.81584122  0.57239397  0.87760311  1.0
  O  O147  1  0.42760793  0.24344406  0.87760657  1.0
  O  O148  1  0.81584635  0.24345180  0.37760297  1.0
  O  O149  1  0.42760525  0.18415936  0.37760574  1.0
  O  O150  1  0.75655085  0.57239401  0.37760845  1.0
  O  O151  1  0.24344886  0.81584348  0.12239804  1.0
  O  O152  1  0.18415963  0.42760535  0.12239599  1.0
  O  O153  1  0.57239206  0.75655354  0.12239391  1.0
  O  O154  1  0.52470347  0.92223297  0.39499168  1.0
  O  O155  1  0.39752984  0.47529381  0.39499512  1.0
  O  O156  1  0.07775835  0.60246692  0.39499377  1.0
  O  O157  1  0.92223797  0.52470722  0.10500724  1.0
  O  O158  1  0.47529045  0.39753420  0.10500591  1.0
  O  O159  1  0.60246693  0.07775688  0.10500521  1.0
  O  O160  1  0.47529577  0.07776463  0.60500605  1.0
  O  O161  1  0.60246708  0.52470810  0.60500741  1.0
  O  O162  1  0.92224325  0.39753240  0.60500670  1.0
  O  O163  1  0.07776213  0.47529209  0.89499323  1.0
  O  O164  1  0.52470624  0.60246426  0.89499046  1.0
  O  O165  1  0.39753317  0.92224244  0.89499595  1.0
  O  O166  1  0.43830967  0.81724103  0.27116531  1.0
  O  O167  1  0.37893966  0.56168353  0.27116326  1.0
  O  O168  1  0.18274832  0.62106313  0.27116601  1.0
  O  O169  1  0.81725166  0.43831665  0.22883363  1.0
  O  O170  1  0.56168752  0.37894315  0.22883297  1.0
  O  O171  1  0.62106676  0.18275228  0.22882680  1.0
  O  O172  1  0.56168718  0.18274880  0.72883722  1.0
  O  O173  1  0.62106481  0.43831406  0.72883311  1.0
  O  O174  1  0.81725638  0.37893792  0.72883652  1.0
  O  O175  1  0.18274502  0.56168180  0.77116479  1.0
  O  O176  1  0.43830920  0.62106134  0.77116819  1.0
  O  O177  1  0.37893432  0.81725049  0.77117299  1.0
