# generated using pymatgen
data_Zn4H5C24S4ClO13F2
_symmetry_space_group_name_H-M   'P 1'
_cell_length_a   19.67947554
_cell_length_b   19.70825672
_cell_length_c   33.39800020
_cell_angle_alpha   79.05033505
_cell_angle_beta   79.13287939
_cell_angle_gamma   63.90884640
_symmetry_Int_Tables_number   1
_chemical_formula_structural   Zn4H5C24S4ClO13F2
_chemical_formula_sum   'Zn16 H20 C96 S16 Cl4 O52 F8'
_cell_volume   11340.29541946
_cell_formula_units_Z   4
loop_
 _symmetry_equiv_pos_site_id
 _symmetry_equiv_pos_as_xyz
  1  'x, y, z'
loop_
 _atom_site_type_symbol
 _atom_site_label
 _atom_site_symmetry_multiplicity
 _atom_site_fract_x
 _atom_site_fract_y
 _atom_site_fract_z
 _atom_site_occupancy
  Zn  Zn0  1  0.05487994  0.40016188  0.47801055  1.0
  Zn  Zn1  1  0.98484973  0.48375648  0.56101979  1.0
  Zn  Zn2  1  0.05883003  0.56018811  0.48255009  1.0
  Zn  Zn3  1  0.90125143  0.55510313  0.47964879  1.0
  Zn  Zn4  1  0.69465628  0.34900568  0.27174730  1.0
  Zn  Zn5  1  0.68871099  0.18952534  0.26623843  1.0
  Zn  Zn6  1  0.76853799  0.26642581  0.19062124  1.0
  Zn  Zn7  1  0.84822472  0.19464399  0.27269232  1.0
  Zn  Zn8  1  0.26700632  0.76649716  0.68962472  1.0
  Zn  Zn9  1  0.34945176  0.69605498  0.77227084  1.0
  Zn  Zn10  1  0.19355926  0.84754712  0.77124175  1.0
  Zn  Zn11  1  0.19087743  0.68831593  0.76657748  1.0
  Zn  Zn12  1  0.56060909  0.05988405  0.98329939  1.0
  Zn  Zn13  1  0.40131848  0.05508542  0.97821012  1.0
  Zn  Zn14  1  0.55493879  0.90128541  0.97814844  1.0
  Zn  Zn15  1  0.48384378  0.98294412  0.06037030  1.0
  H  H16  1  0.95485450  0.24862354  0.35168401  1.0
  H  H17  1  0.74730453  0.45363405  0.35030885  1.0
  H  H18  1  0.99972714  0.29943509  0.39959442  1.0
  H  H19  1  0.09689390  0.59678627  0.69988307  1.0
  H  H20  1  0.20156892  0.70141489  0.59799686  1.0
  H  H21  1  0.05057148  0.55080537  0.65029077  1.0
  H  H22  1  0.46329241  0.24026886  0.34105305  1.0
  H  H23  1  0.47935595  0.70257932  0.60141717  1.0
  H  H24  1  0.20272037  0.97916648  0.60163665  1.0
  H  H25  1  0.94832032  0.97020181  0.34793867  1.0
  H  H26  1  0.54996087  0.05001378  0.15345701  1.0
  H  H27  1  0.65175783  0.15194463  0.04880428  1.0
  H  H28  1  0.59950572  0.09945682  0.19968202  1.0
  H  H29  1  0.54755497  0.77036117  0.14828979  1.0
  H  H30  1  0.16292499  0.14127750  0.04062192  1.0
  H  H31  1  0.50148314  0.79503037  0.89837345  1.0
  H  H32  1  0.29664196  0.00277971  0.89964776  1.0
  H  H33  1  0.45014570  0.75081696  0.85044498  1.0
  H  H34  1  0.30126572  0.27972567  0.90210701  1.0
  H  H35  1  0.78689096  0.00953545  0.90897734  1.0
  C  C36  1  0.06146463  0.31637113  0.56170437  1.0
  C  C37  1  0.06878286  0.56973656  0.56946538  1.0
  C  C38  1  0.18324845  0.43974359  0.43857278  1.0
  C  C39  1  0.93712130  0.68376006  0.43878442  1.0
  C  C40  1  0.93174225  0.42965598  0.43087575  1.0
  C  C41  1  0.81684659  0.56119657  0.56214387  1.0
  C  C42  1  0.56570829  0.31146613  0.31127494  1.0
  C  C43  1  0.68057250  0.18006092  0.18123448  1.0
  C  C44  1  0.68966534  0.43322232  0.18836873  1.0
  C  C45  1  0.93491015  0.18791488  0.18977850  1.0
  C  C46  1  0.81949970  0.31928958  0.31953577  1.0
  C  C47  1  0.81097982  0.06595186  0.31152674  1.0
  C  C48  1  0.43372700  0.68947468  0.68832247  1.0
  C  C49  1  0.31962322  0.81909172  0.81917696  1.0
  C  C50  1  0.18872046  0.93349603  0.68842572  1.0
  C  C51  1  0.06603921  0.80977772  0.81103944  1.0
  C  C52  1  0.18088980  0.68037946  0.68058601  1.0
  C  C53  1  0.31264800  0.56609725  0.81129692  1.0
  C  C54  1  0.43852193  0.18385001  0.93869320  1.0
  C  C55  1  0.43088516  0.93028253  0.93061823  1.0
  C  C56  1  0.68403703  0.93870382  0.93868297  1.0
  C  C57  1  0.56144151  0.81593756  0.06143975  1.0
  C  C58  1  0.56932055  0.06905886  0.06963800  1.0
  C  C59  1  0.31610199  0.06138438  0.06125650  1.0
  C  C60  1  0.89977840  0.40454162  0.40205505  1.0
  C  C61  1  0.84816267  0.34820165  0.34803623  1.0
  C  C62  1  0.82777181  0.44815453  0.38772748  1.0
  C  C63  1  0.91968641  0.30431708  0.36189613  1.0
  C  C64  1  0.80284527  0.41963609  0.36102133  1.0
  C  C65  1  0.94438405  0.33265060  0.38845148  1.0
  C  C66  1  0.09934856  0.59976281  0.59648102  1.0
  C  C67  1  0.15215040  0.65204346  0.65185914  1.0
  C  C68  1  0.14260655  0.64278176  0.58185388  1.0
  C  C69  1  0.10944316  0.60940020  0.66687115  1.0
  C  C70  1  0.16837351  0.66838129  0.60956867  1.0
  C  C71  1  0.08383049  0.58401940  0.63930139  1.0
  C  C72  1  0.30425612  0.45361722  0.40094539  1.0
  C  C73  1  0.44620978  0.29700347  0.34899704  1.0
  C  C74  1  0.25809205  0.41494819  0.41392155  1.0
  C  C75  1  0.49102811  0.33683173  0.33640914  1.0
  C  C76  1  0.37808793  0.33992142  0.37260510  1.0
  C  C77  1  0.37283276  0.41172013  0.37737959  1.0
  C  C78  1  0.72536081  0.57626318  0.62939464  1.0
  C  C79  1  0.52410977  0.67361387  0.62140805  1.0
  C  C80  1  0.74229669  0.58555458  0.58699776  1.0
  C  C81  1  0.50887545  0.66378761  0.66374917  1.0
  C  C82  1  0.60334288  0.64150322  0.60904134  1.0
  C  C83  1  0.64646294  0.60785798  0.64250343  1.0
  C  C84  1  0.07673642  0.22500490  0.62910218  1.0
  C  C85  1  0.17381994  0.02391505  0.62153038  1.0
  C  C86  1  0.08600402  0.24184393  0.58667782  1.0
  C  C87  1  0.16372863  0.00868947  0.66387028  1.0
  C  C88  1  0.14190834  0.10303243  0.60904450  1.0
  C  C89  1  0.10823505  0.14620051  0.64239493  1.0
  C  C90  1  0.84394352  0.80085922  0.39726488  1.0
  C  C91  1  0.90398810  0.94976713  0.35249702  1.0
  C  C92  1  0.91221673  0.75819314  0.41379861  1.0
  C  C93  1  0.83537702  0.99106853  0.33640186  1.0
  C  C94  1  0.90687877  0.88019705  0.37463911  1.0
  C  C95  1  0.83995207  0.87047458  0.37483675  1.0
  C  C96  1  0.65338281  0.15325288  0.15086088  1.0
  C  C97  1  0.59796463  0.09793718  0.09817683  1.0
  C  C98  1  0.66790858  0.16793852  0.10767796  1.0
  C  C99  1  0.58296736  0.08298648  0.14089341  1.0
  C  C100  1  0.64019596  0.14025689  0.08193762  1.0
  C  C101  1  0.61050818  0.11049638  0.16643879  1.0
  C  C102  1  0.67363552  0.52443466  0.12088138  1.0
  C  C103  1  0.57647753  0.72558652  0.12840359  1.0
  C  C104  1  0.66445764  0.50766123  0.16332597  1.0
  C  C105  1  0.58652111  0.74078563  0.08605889  1.0
  C  C106  1  0.60835262  0.64645008  0.14091708  1.0
  C  C107  1  0.64202712  0.60323964  0.10757054  1.0
  C  C108  1  0.08164086  0.12403589  0.17762879  1.0
  C  C109  1  0.17047837  0.12473594  0.07300494  1.0
  C  C110  1  0.00954671  0.16291061  0.16492288  1.0
  C  C111  1  0.24162240  0.08598261  0.08656252  1.0
  C  C112  1  0.11220371  0.13850918  0.10642204  1.0
  C  C113  1  0.14077788  0.10965400  0.14473479  1.0
  C  C114  1  0.34510139  0.85090662  0.84789673  1.0
  C  C115  1  0.40202773  0.90188780  0.90196358  1.0
  C  C116  1  0.30171870  0.92278807  0.86218928  1.0
  C  C117  1  0.44572102  0.83044704  0.88814017  1.0
  C  C118  1  0.33050902  0.94739104  0.88890268  1.0
  C  C119  1  0.41710554  0.80608279  0.86155092  1.0
  C  C120  1  0.40581207  0.44891768  0.85286384  1.0
  C  C121  1  0.34566229  0.30004995  0.89759143  1.0
  C  C122  1  0.33762130  0.49154700  0.83624223  1.0
  C  C123  1  0.41419513  0.25868651  0.91377282  1.0
  C  C124  1  0.34297690  0.36946217  0.87531312  1.0
  C  C125  1  0.40987700  0.37918719  0.87520732  1.0
  C  C126  1  0.94528666  0.79593452  0.84914327  1.0
  C  C127  1  0.80383161  0.95277290  0.90111778  1.0
  C  C128  1  0.99151778  0.83447065  0.83600216  1.0
  C  C129  1  0.75883412  0.91311380  0.91372524  1.0
  C  C130  1  0.87190140  0.90964257  0.87753794  1.0
  C  C131  1  0.87691316  0.83789910  0.87281888  1.0
  S  S132  1  0.29930145  0.32542630  0.39706797  1.0
  S  S133  1  0.45121305  0.42645795  0.35301071  1.0
  S  S134  1  0.66021940  0.63371871  0.56251075  1.0
  S  S135  1  0.59004226  0.61559375  0.68894971  1.0
  S  S136  1  0.13418401  0.15973279  0.56241597  1.0
  S  S137  1  0.11561930  0.08984862  0.68892297  1.0
  S  S138  1  0.97296613  0.80396466  0.40174530  1.0
  S  S139  1  0.77383462  0.94626874  0.34791129  1.0
  S  S140  1  0.61605401  0.58980669  0.18755925  1.0
  S  S141  1  0.63457463  0.65957622  0.06103482  1.0
  S  S142  1  0.01393961  0.18240647  0.11161861  1.0
  S  S143  1  0.23866684  0.06582207  0.13976674  1.0
  S  S144  1  0.27699818  0.44563440  0.84812685  1.0
  S  S145  1  0.47585627  0.30339105  0.90222765  1.0
  S  S146  1  0.95071460  0.92395241  0.85291512  1.0
  S  S147  1  0.79842917  0.82342168  0.89722092  1.0
  Cl  Cl148  1  0.76513164  0.53735003  0.40088701  1.0
  Cl  Cl149  1  0.16769166  0.66727323  0.53057192  1.0
  Cl  Cl150  1  0.71891533  0.21940541  0.08289323  1.0
  Cl  Cl151  1  0.21244190  0.98567103  0.84894703  1.0
  O  O152  1  0.00066381  0.49817162  0.50054770  1.0
  O  O153  1  0.07786222  0.31518260  0.52275841  1.0
  O  O154  1  0.03158376  0.53092058  0.58753395  1.0
  O  O155  1  0.15505278  0.50627107  0.44948331  1.0
  O  O156  1  0.02652035  0.37470850  0.58088174  1.0
  O  O157  1  0.15339041  0.39182117  0.44667214  1.0
  O  O158  1  0.08182486  0.58501127  0.53089044  1.0
  O  O159  1  0.00422462  0.65684438  0.44946871  1.0
  O  O160  1  0.89081177  0.49409126  0.44336739  1.0
  O  O161  1  0.89040965  0.65287632  0.44760586  1.0
  O  O162  1  0.99807585  0.38388767  0.44071423  1.0
  O  O163  1  0.87557637  0.52621919  0.58114360  1.0
  O  O164  1  0.81533497  0.57791586  0.52321610  1.0
  O  O165  1  0.74944853  0.24955204  0.25085282  1.0
  O  O166  1  0.59646552  0.35859349  0.30319222  1.0
  O  O167  1  0.66176339  0.16279242  0.21931591  1.0
  O  O168  1  0.72609416  0.37468678  0.16939431  1.0
  O  O169  1  0.59273227  0.24531586  0.29987500  1.0
  O  O170  1  0.67250977  0.43436009  0.22729564  1.0
  O  O171  1  0.72006563  0.21765164  0.16708370  1.0
  O  O172  1  0.87719003  0.22375882  0.16965537  1.0
  O  O173  1  0.86297891  0.25327016  0.30905650  1.0
  O  O174  1  0.93402962  0.17205873  0.22864551  1.0
  O  O175  1  0.75409911  0.36296503  0.30811337  1.0
  O  O176  1  0.74461495  0.09343657  0.29989929  1.0
  O  O177  1  0.85815954  0.09640094  0.30386575  1.0
  O  O178  1  0.25091927  0.74885899  0.74985529  1.0
  O  O179  1  0.37575712  0.72492892  0.66859953  1.0
  O  O180  1  0.36602223  0.75352182  0.80879183  1.0
  O  O181  1  0.17176378  0.93336719  0.72736889  1.0
  O  O182  1  0.43373641  0.67378160  0.72730650  1.0
  O  O183  1  0.22472557  0.87559373  0.66883778  1.0
  O  O184  1  0.25430222  0.85923743  0.80736114  1.0
  O  O185  1  0.09558974  0.85800761  0.80295970  1.0
  O  O186  1  0.16509485  0.66328270  0.71891666  1.0
  O  O187  1  0.09443861  0.74354330  0.79975564  1.0
  O  O188  1  0.21879258  0.71926725  0.66433753  1.0
  O  O189  1  0.35871447  0.59774895  0.80332111  1.0
  O  O190  1  0.24616418  0.59220397  0.79991355  1.0
  O  O191  1  0.50009045  0.99982350  0.00005366  1.0
  O  O192  1  0.50520584  0.15617632  0.94996618  1.0
  O  O193  1  0.38745463  0.99587688  0.94172844  1.0
  O  O194  1  0.65307005  0.89177484  0.94673629  1.0
  O  O195  1  0.39128331  0.15342119  0.94678267  1.0
  O  O196  1  0.65694148  0.00497507  0.94997469  1.0
  O  O197  1  0.49660355  0.88646929  0.94156274  1.0
  O  O198  1  0.57755150  0.81598409  0.02247054  1.0
  O  O199  1  0.53103932  0.03069353  0.08613617  1.0
  O  O200  1  0.52609424  0.87391401  0.08103082  1.0
  O  O201  1  0.58556765  0.08513470  0.03122050  1.0
  O  O202  1  0.31567297  0.07792891  0.02241198  1.0
  O  O203  1  0.37456105  0.02549656  0.08074395  1.0
  F  F204  1  0.28688090  0.52370851  0.40951251  1.0
  F  F205  1  0.77766308  0.54117514  0.65587675  1.0
  F  F206  1  0.04163929  0.27729224  0.65548744  1.0
  F  F207  1  0.78667501  0.77937477  0.40167047  1.0
  F  F208  1  0.70879406  0.47209811  0.09453224  1.0
  F  F209  1  0.09530328  0.10183628  0.21702578  1.0
  F  F210  1  0.46301850  0.47048865  0.84855466  1.0
  F  F211  1  0.96256169  0.72586139  0.84057038  1.0
