# generated using pymatgen
data_ZnH5C6(N2O)2
_symmetry_space_group_name_H-M   'P 1'
_cell_length_a   11.86444052
_cell_length_b   11.86448337
_cell_length_c   25.82814394
_cell_angle_alpha   89.99997880
_cell_angle_beta   90.00007565
_cell_angle_gamma   59.99997461
_symmetry_Int_Tables_number   1
_chemical_formula_structural   ZnH5C6(N2O)2
_chemical_formula_sum   'Zn12 H60 C72 N48 O24'
_cell_volume   3148.61683981
_cell_formula_units_Z   12
loop_
 _symmetry_equiv_pos_site_id
 _symmetry_equiv_pos_as_xyz
  1  'x, y, z'
loop_
 _atom_site_type_symbol
 _atom_site_label
 _atom_site_symmetry_multiplicity
 _atom_site_fract_x
 _atom_site_fract_y
 _atom_site_fract_z
 _atom_site_occupancy
  Zn  Zn0  1  0.98866848  0.42807644  0.06157644  1.0
  Zn  Zn1  1  0.58325504  0.98866863  0.06157627  1.0
  Zn  Zn2  1  0.42807645  0.58325759  0.06157626  1.0
  Zn  Zn3  1  0.98866761  0.58325523  0.43842348  1.0
  Zn  Zn4  1  0.42807622  0.98866634  0.43842328  1.0
  Zn  Zn5  1  0.58325504  0.42807646  0.43842376  1.0
  Zn  Zn6  1  0.01133262  0.57192361  0.93842380  1.0
  Zn  Zn7  1  0.41674473  0.01133239  0.93842358  1.0
  Zn  Zn8  1  0.57192332  0.41674343  0.93842398  1.0
  Zn  Zn9  1  0.01133278  0.41674286  0.56157714  1.0
  Zn  Zn10  1  0.57192538  0.01133272  0.56157657  1.0
  Zn  Zn11  1  0.41674354  0.57192358  0.56157648  1.0
  H  H12  1  0.99183741  0.40673977  0.26351701  1.0
  H  H13  1  0.60142142  0.99184106  0.26351761  1.0
  H  H14  1  0.40674258  0.60142578  0.26351643  1.0
  H  H15  1  0.99184201  0.60142108  0.23648369  1.0
  H  H16  1  0.40673658  0.99184042  0.23648348  1.0
  H  H17  1  0.60142351  0.40673843  0.23648320  1.0
  H  H18  1  0.00816321  0.59326124  0.73648439  1.0
  H  H19  1  0.39857885  0.00815898  0.73648185  1.0
  H  H20  1  0.59325853  0.39857426  0.73648304  1.0
  H  H21  1  0.00815825  0.39857897  0.76351694  1.0
  H  H22  1  0.59326200  0.00815962  0.76351676  1.0
  H  H23  1  0.39857760  0.59326161  0.76351743  1.0
  H  H24  1  0.84495847  0.38777533  0.96707894  1.0
  H  H25  1  0.76726279  0.84495826  0.96707772  1.0
  H  H26  1  0.38777674  0.76726402  0.96707800  1.0
  H  H27  1  0.84495775  0.76726498  0.53292189  1.0
  H  H28  1  0.38777814  0.84495752  0.53292174  1.0
  H  H29  1  0.76726599  0.38777707  0.53292151  1.0
  H  H30  1  0.15504179  0.61222471  0.03292130  1.0
  H  H31  1  0.23273747  0.15504179  0.03292213  1.0
  H  H32  1  0.61222401  0.23273505  0.03292147  1.0
  H  H33  1  0.15504300  0.23273409  0.46707796  1.0
  H  H34  1  0.61222212  0.15504253  0.46707811  1.0
  H  H35  1  0.23273294  0.61222395  0.46707795  1.0
  H  H36  1  0.27742470  0.12334600  0.16037498  1.0
  H  H37  1  0.59923178  0.27742610  0.16037468  1.0
  H  H38  1  0.12334617  0.59923180  0.16037489  1.0
  H  H39  1  0.27743294  0.59922839  0.33962553  1.0
  H  H40  1  0.12334193  0.27742945  0.33962590  1.0
  H  H41  1  0.59922546  0.12334720  0.33962566  1.0
  H  H42  1  0.72257290  0.87665599  0.83962565  1.0
  H  H43  1  0.40077004  0.72257589  0.83962556  1.0
  H  H44  1  0.87665276  0.40076922  0.83962496  1.0
  H  H45  1  0.72256998  0.40076971  0.66037394  1.0
  H  H46  1  0.87665882  0.72256962  0.66037512  1.0
  H  H47  1  0.40077578  0.87665089  0.66037380  1.0
  H  H48  1  0.79478796  0.45907917  0.15013713  1.0
  H  H49  1  0.74613441  0.79478700  0.15013748  1.0
  H  H50  1  0.45907686  0.74613706  0.15013701  1.0
  H  H51  1  0.79478757  0.74613431  0.34986265  1.0
  H  H52  1  0.45907805  0.79478810  0.34986293  1.0
  H  H53  1  0.74613506  0.45907797  0.34986305  1.0
  H  H54  1  0.20521182  0.54092184  0.84986272  1.0
  H  H55  1  0.25386585  0.20521304  0.84986237  1.0
  H  H56  1  0.54092207  0.25386396  0.84986284  1.0
  H  H57  1  0.20521270  0.25386572  0.65013720  1.0
  H  H58  1  0.54092137  0.20521194  0.65013692  1.0
  H  H59  1  0.25386485  0.54092109  0.65013719  1.0
  H  H60  1  0.62847278  0.50197306  0.15040230  1.0
  H  H61  1  0.86955580  0.62847261  0.15040197  1.0
  H  H62  1  0.50197065  0.86955756  0.15040223  1.0
  H  H63  1  0.62847370  0.86955512  0.34959738  1.0
  H  H64  1  0.50197220  0.62847382  0.34959775  1.0
  H  H65  1  0.86955611  0.50197046  0.34959864  1.0
  H  H66  1  0.37152700  0.49802795  0.84959756  1.0
  H  H67  1  0.13044362  0.37152743  0.84959788  1.0
  H  H68  1  0.49802912  0.13044346  0.84959840  1.0
  H  H69  1  0.37152621  0.13044394  0.65040209  1.0
  H  H70  1  0.49802806  0.37152622  0.65040211  1.0
  H  H71  1  0.13044380  0.49802860  0.65040237  1.0
  C  C72  1  0.05180365  0.35620393  0.16280673  1.0
  C  C73  1  0.59199141  0.05180162  0.16280808  1.0
  C  C74  1  0.35620401  0.59199541  0.16280603  1.0
  C  C75  1  0.05180864  0.59199267  0.33719439  1.0
  C  C76  1  0.35620274  0.05180560  0.33719337  1.0
  C  C77  1  0.59199195  0.35620580  0.33719302  1.0
  C  C78  1  0.94819479  0.64379806  0.83719467  1.0
  C  C79  1  0.40800837  0.94819939  0.83719215  1.0
  C  C80  1  0.64379577  0.40800560  0.83719304  1.0
  C  C81  1  0.94819282  0.40800834  0.66280662  1.0
  C  C82  1  0.64379969  0.94819347  0.66280648  1.0
  C  C83  1  0.40800831  0.64379425  0.66280683  1.0
  C  C84  1  0.12787444  0.27387633  0.20752930  1.0
  C  C85  1  0.59825146  0.12787394  0.20752984  1.0
  C  C86  1  0.27387587  0.59825243  0.20752931  1.0
  C  C87  1  0.12788077  0.59824765  0.29247111  1.0
  C  C88  1  0.27387344  0.12787819  0.29247119  1.0
  C  C89  1  0.59824944  0.27387552  0.29247011  1.0
  C  C90  1  0.87212414  0.72612371  0.79247133  1.0
  C  C91  1  0.40174880  0.87212610  0.79247001  1.0
  C  C92  1  0.72612391  0.40174858  0.79247054  1.0
  C  C93  1  0.87211949  0.40175240  0.70752913  1.0
  C  C94  1  0.72612562  0.87212089  0.70752944  1.0
  C  C95  1  0.40175131  0.72612355  0.70752974  1.0
  C  C96  1  0.08304362  0.31603809  0.25801839  1.0
  C  C97  1  0.60092029  0.08304542  0.25801895  1.0
  C  C98  1  0.31604023  0.60091994  0.25801805  1.0
  C  C99  1  0.08304778  0.60091738  0.24198237  1.0
  C  C100  1  0.31603669  0.08304781  0.24198171  1.0
  C  C101  1  0.60091970  0.31603638  0.24198061  1.0
  C  C102  1  0.91695580  0.68396195  0.74198224  1.0
  C  C103  1  0.39908131  0.91695365  0.74198090  1.0
  C  C104  1  0.68396136  0.39907913  0.74198180  1.0
  C  C105  1  0.91695200  0.39908363  0.75801864  1.0
  C  C106  1  0.68396357  0.91695223  0.75801853  1.0
  C  C107  1  0.39908141  0.68396366  0.75801924  1.0
  C  C108  1  0.71991839  0.44668322  0.08080886  1.0
  C  C109  1  0.83339654  0.71991848  0.08080888  1.0
  C  C110  1  0.44668277  0.83339893  0.08080836  1.0
  C  C111  1  0.71991713  0.83339607  0.41919126  1.0
  C  C112  1  0.44668429  0.71991853  0.41919080  1.0
  C  C113  1  0.83339950  0.44668254  0.41919094  1.0
  C  C114  1  0.28008187  0.55331682  0.91919099  1.0
  C  C115  1  0.16660337  0.28008059  0.91919175  1.0
  C  C116  1  0.55331798  0.16660014  0.91919110  1.0
  C  C117  1  0.28008278  0.16660300  0.58080859  1.0
  C  C118  1  0.55331549  0.28008248  0.58080828  1.0
  C  C119  1  0.16660090  0.55331555  0.58080891  1.0
  C  C120  1  0.78526448  0.41029960  0.00161040  1.0
  C  C121  1  0.80443554  0.78526397  0.00161037  1.0
  C  C122  1  0.41029934  0.80443643  0.00161064  1.0
  C  C123  1  0.78526536  0.80443415  0.49838899  1.0
  C  C124  1  0.41029927  0.78526478  0.49838966  1.0
  C  C125  1  0.80443498  0.41029981  0.49838942  1.0
  C  C126  1  0.21473663  0.58970043  0.99838945  1.0
  C  C127  1  0.19556437  0.21473509  0.99838948  1.0
  C  C128  1  0.58969995  0.19556556  0.99838960  1.0
  C  C129  1  0.21473539  0.19556491  0.50161047  1.0
  C  C130  1  0.58970050  0.21473624  0.50161058  1.0
  C  C131  1  0.19556191  0.58970023  0.50161004  1.0
  C  C132  1  0.24420396  0.15613739  0.19972623  1.0
  C  C133  1  0.59966435  0.24420057  0.19972633  1.0
  C  C134  1  0.15613739  0.59966186  0.19972694  1.0
  C  C135  1  0.24420938  0.59965964  0.30027387  1.0
  C  C136  1  0.15613431  0.24420690  0.30027387  1.0
  C  C137  1  0.59966025  0.15613769  0.30027363  1.0
  C  C138  1  0.75579413  0.84386362  0.80027363  1.0
  C  C139  1  0.40033640  0.75579850  0.80027391  1.0
  C  C140  1  0.84386203  0.40033818  0.80027330  1.0
  C  C141  1  0.75579221  0.40033943  0.69972598  1.0
  C  C142  1  0.84386560  0.75579216  0.69972714  1.0
  C  C143  1  0.40034170  0.84386235  0.69972584  1.0
  N  N144  1  0.61914410  0.45918274  0.05172815  1.0
  N  N145  1  0.92167177  0.61914417  0.05172784  1.0
  N  N146  1  0.45918031  0.92167482  0.05172729  1.0
  N  N147  1  0.61914515  0.92167204  0.44827151  1.0
  N  N148  1  0.45918322  0.61914327  0.44827226  1.0
  N  N149  1  0.92167477  0.45918268  0.44827203  1.0
  N  N150  1  0.38085567  0.54081828  0.94827170  1.0
  N  N151  1  0.07832814  0.38085490  0.94827240  1.0
  N  N152  1  0.54081911  0.07832522  0.94827256  1.0
  N  N153  1  0.38085512  0.07832800  0.55172795  1.0
  N  N154  1  0.54081718  0.38085481  0.55172797  1.0
  N  N155  1  0.07832682  0.54081639  0.55172782  1.0
  N  N156  1  0.82595897  0.41555790  0.05014777  1.0
  N  N157  1  0.75848174  0.82595808  0.05014656  1.0
  N  N158  1  0.41555764  0.75848477  0.05014723  1.0
  N  N159  1  0.82595841  0.75848163  0.44985242  1.0
  N  N160  1  0.41556017  0.82595799  0.44985229  1.0
  N  N161  1  0.75848338  0.41555739  0.44985204  1.0
  N  N162  1  0.17404298  0.58444214  0.94985208  1.0
  N  N163  1  0.24151768  0.17404196  0.94985291  1.0
  N  N164  1  0.58444214  0.24151624  0.94985301  1.0
  N  N165  1  0.17404150  0.24151744  0.55014743  1.0
  N  N166  1  0.58444045  0.17404303  0.55014717  1.0
  N  N167  1  0.24151484  0.58444168  0.55014742  1.0
  N  N168  1  0.71739187  0.45919902  0.13238438  1.0
  N  N169  1  0.82340865  0.71739188  0.13238439  1.0
  N  N170  1  0.45919607  0.82341240  0.13238466  1.0
  N  N171  1  0.71739210  0.82340778  0.36761535  1.0
  N  N172  1  0.45919872  0.71739206  0.36761528  1.0
  N  N173  1  0.82341059  0.45919754  0.36761580  1.0
  N  N174  1  0.28260706  0.54080199  0.86761547  1.0
  N  N175  1  0.17659042  0.28260718  0.86761546  1.0
  N  N176  1  0.54080384  0.17658666  0.86761480  1.0
  N  N177  1  0.28260865  0.17659129  0.63238412  1.0
  N  N178  1  0.54080021  0.28260896  0.63238457  1.0
  N  N179  1  0.17658932  0.54080152  0.63238405  1.0
  N  N180  1  0.66335225  0.43621233  0.00067843  1.0
  N  N181  1  0.90042981  0.66335569  0.00067809  1.0
  N  N182  1  0.43621174  0.90043297  0.00067793  1.0
  N  N183  1  0.66335561  0.90043189  0.49932165  1.0
  N  N184  1  0.43621328  0.66335367  0.49932199  1.0
  N  N185  1  0.90043291  0.43621220  0.49932215  1.0
  N  N186  1  0.33664801  0.56378771  0.99932104  1.0
  N  N187  1  0.09956876  0.33664436  0.99932176  1.0
  N  N188  1  0.56378733  0.09956609  0.99932192  1.0
  N  N189  1  0.33664514  0.09956718  0.50067858  1.0
  N  N190  1  0.56378663  0.33664540  0.50067825  1.0
  N  N191  1  0.09956532  0.56378686  0.50067847  1.0
  O  O192  1  0.10246773  0.31883829  0.11728509  1.0
  O  O193  1  0.57868532  0.10246863  0.11728680  1.0
  O  O194  1  0.31883801  0.57869619  0.11728475  1.0
  O  O195  1  0.10247101  0.57869416  0.38271607  1.0
  O  O196  1  0.31883817  0.10246958  0.38271424  1.0
  O  O197  1  0.57869326  0.31883914  0.38271468  1.0
  O  O198  1  0.89753205  0.68116272  0.88271553  1.0
  O  O199  1  0.42131264  0.89753433  0.88271344  1.0
  O  O200  1  0.68116261  0.42130482  0.88271472  1.0
  O  O201  1  0.89752913  0.42130782  0.61728533  1.0
  O  O202  1  0.68116463  0.89753045  0.61728445  1.0
  O  O203  1  0.42130664  0.68115993  0.61728555  1.0
  O  O204  1  0.94288459  0.45784973  0.17035582  1.0
  O  O205  1  0.59926986  0.94288233  0.17035839  1.0
  O  O206  1  0.45785142  0.59926817  0.17035450  1.0
  O  O207  1  0.94288939  0.59926625  0.32964484  1.0
  O  O208  1  0.45784641  0.94288618  0.32964428  1.0
  O  O209  1  0.59926763  0.45784901  0.32964436  1.0
  O  O210  1  0.05711518  0.54215129  0.82964519  1.0
  O  O211  1  0.40072991  0.05711869  0.82964146  1.0
  O  O212  1  0.54214884  0.40073187  0.82964457  1.0
  O  O213  1  0.05711220  0.40073282  0.67035501  1.0
  O  O214  1  0.54215301  0.05711386  0.67035557  1.0
  O  O215  1  0.40073228  0.54215005  0.67035588  1.0
