# generated using pymatgen
data_Zn4H72C94N16O3
_symmetry_space_group_name_H-M   'P 1'
_cell_length_a   18.86716322
_cell_length_b   18.87706799
_cell_length_c   20.41008764
_cell_angle_alpha   105.44113911
_cell_angle_beta   107.49381047
_cell_angle_gamma   112.02531448
_symmetry_Int_Tables_number   1
_chemical_formula_structural   Zn4H72C94N16O3
_chemical_formula_sum   'Zn4 H72 C94 N16 O3'
_cell_volume   5806.63987894
_cell_formula_units_Z   1
loop_
 _symmetry_equiv_pos_site_id
 _symmetry_equiv_pos_as_xyz
  1  'x, y, z'
loop_
 _atom_site_type_symbol
 _atom_site_label
 _atom_site_symmetry_multiplicity
 _atom_site_fract_x
 _atom_site_fract_y
 _atom_site_fract_z
 _atom_site_occupancy
  Zn  Zn0  1  0.89059320  0.89559850  0.50150241  1.0
  Zn  Zn1  1  0.10886606  0.12055373  0.50003944  1.0
  Zn  Zn2  1  0.09988683  0.00518986  0.59263366  1.0
  Zn  Zn3  1  0.90143249  0.00364507  0.39994039  1.0
  H  H4  1  0.85634087  0.79119117  0.61104946  1.0
  H  H5  1  0.45097111  0.21613066  0.55352543  1.0
  H  H6  1  0.57516851  0.26971002  0.52741809  1.0
  H  H7  1  0.13735924  0.29317844  0.46978638  1.0
  H  H8  1  0.79875816  0.20175416  0.54494988  1.0
  H  H9  1  0.78291775  0.05637117  0.67574071  1.0
  H  H10  1  0.68467667  0.03944845  0.73410991  1.0
  H  H11  1  0.55664314  0.04405033  0.73755513  1.0
  H  H12  1  0.13965675  0.75005461  0.43112395  1.0
  H  H13  1  0.86371123  0.61819005  0.32767353  1.0
  H  H14  1  0.78259453  0.46334298  0.28116192  1.0
  H  H15  1  0.31769829  0.19839212  0.53671436  1.0
  H  H16  1  0.78127437  0.33260157  0.28320958  1.0
  H  H17  1  0.86047836  0.26231395  0.32771261  1.0
  H  H18  1  0.09915440  0.12583424  0.74214062  1.0
  H  H19  1  0.13615558  0.39180311  0.42577786  1.0
  H  H20  1  0.21621019  0.53878232  0.44321684  1.0
  H  H21  1  0.21752228  0.67004494  0.44310812  1.0
  H  H22  1  0.56092554  0.80411371  0.17978289  1.0
  H  H23  1  0.12738098  0.23985634  0.84728414  1.0
  H  H24  1  0.14538433  0.39068209  0.72106278  1.0
  H  H25  1  0.30482755  0.59103205  0.97843368  1.0
  H  H26  1  0.14018441  0.87622241  0.49046601  1.0
  H  H27  1  0.40295820  0.52728818  0.18004217  1.0
  H  H28  1  0.20093508  0.36819610  0.96506864  1.0
  H  H29  1  0.54416830  0.63395744  0.28694184  1.0
  H  H30  1  0.86658104  0.14313100  0.49240333  1.0
  H  H31  1  0.30476232  0.47223829  0.05594726  1.0
  H  H32  1  0.42119992  0.69797859  0.07343454  1.0
  H  H33  1  0.13470907  0.86850453  0.80349173  1.0
  H  H34  1  0.96561807  0.77296859  0.18606200  1.0
  H  H35  1  0.12823623  0.87963588  0.01701060  1.0
  H  H36  1  0.86656735  0.70849850  0.81662613  1.0
  H  H37  1  0.89449399  0.87272561  0.25001216  1.0
  H  H38  1  0.97889835  0.72666449  0.06683702  1.0
  H  H39  1  0.85960957  0.74404139  0.70811257  1.0
  H  H40  1  0.10459308  0.27508621  0.61282046  1.0
  H  H41  1  0.94541517  0.72982683  0.94377368  1.0
  H  H42  1  0.14151425  0.83437543  0.91225629  1.0
  H  H43  1  0.85921545  0.00399919  0.63083230  1.0
  H  H44  1  0.86303697  0.13906582  0.33312232  1.0
  H  H45  1  0.13243237  0.94036844  0.72917047  1.0
  H  H46  1  0.69982532  0.16378987  0.42926803  1.0
  H  H47  1  0.61481311  0.18385625  0.39481694  1.0
  H  H48  1  0.16872517  0.02906837  0.38860951  1.0
  H  H49  1  0.71574457  0.24677438  0.39961936  1.0
  H  H50  1  0.69551789  0.32590584  0.50612728  1.0
  H  H51  1  0.78301865  0.31019714  0.54155088  1.0
  H  H52  1  0.36515445  0.59329531  0.89193932  1.0
  H  H53  1  0.31768484  0.53776071  0.79176122  1.0
  H  H54  1  0.33312745  0.64137818  0.83334273  1.0
  H  H55  1  0.17933188  0.53233376  0.78154273  1.0
  H  H56  1  0.22480472  0.58840506  0.88068994  1.0
  H  H57  1  0.05941580  0.07225968  0.28138203  1.0
  H  H58  1  0.05770587  0.07351725  0.19395456  1.0
  H  H59  1  0.86323768  0.74152100  0.36708539  1.0
  H  H60  1  0.19975644  0.20759427  0.26558617  1.0
  H  H61  1  0.12465171  0.22065763  0.29681875  1.0
  H  H62  1  0.20441980  0.20445743  0.35316803  1.0
  H  H63  1  0.12028301  0.07737409  0.11861272  1.0
  H  H64  1  0.07170767  0.98228519  0.03429539  1.0
  H  H65  1  0.20572387  0.03452246  0.01834526  1.0
  H  H66  1  0.16899808  0.10914081  0.02386765  1.0
  H  H67  1  0.25690750  0.12805487  0.10426249  1.0
  H  H68  1  0.74856988  0.80385353  0.50980760  1.0
  H  H69  1  0.77845428  0.73323699  0.46247657  1.0
  H  H70  1  0.70746432  0.88084793  0.25484251  1.0
  H  H71  1  0.64500752  0.60917509  0.44072466  1.0
  H  H72  1  0.71200857  0.67641414  0.53920821  1.0
  H  H73  1  0.61873464  0.68055773  0.49089068  1.0
  H  H74  1  0.29941477  0.03802698  0.65508710  1.0
  H  H75  1  0.43960104  0.07424836  0.68828730  1.0
  C  C76  1  0.92393963  0.83359520  0.63150245  1.0
  C  C77  1  0.93095043  0.78563415  0.40347395  1.0
  C  C78  1  0.71443802  0.85651635  0.29763134  1.0
  C  C79  1  0.07045952  0.24439598  0.43850612  1.0
  C  C80  1  0.29055995  0.07477988  0.62367550  1.0
  C  C81  1  0.65318271  0.78628485  0.29874431  1.0
  C  C82  1  0.34797119  0.12749157  0.60437386  1.0
  C  C83  1  0.00231435  0.77465452  0.41129909  1.0
  C  C84  1  0.03758326  0.93468386  0.29153238  1.0
  C  C85  1  0.47216959  0.10801918  0.66107658  1.0
  C  C86  1  0.43421299  0.14264334  0.61848661  1.0
  C  C87  1  0.99935867  0.24690941  0.39340859  1.0
  C  C88  1  0.47883657  0.18791430  0.58609974  1.0
  C  C89  1  0.55698348  0.19453012  0.59111536  1.0
  C  C90  1  0.59216291  0.15429242  0.63017580  1.0
  C  C91  1  0.09838899  0.15197888  0.70072317  1.0
  C  C92  1  0.55000958  0.11266706  0.66742073  1.0
  C  C93  1  0.60122205  0.23685382  0.55522217  1.0
  C  C94  1  0.67246800  0.23553857  0.55246310  1.0
  C  C95  1  0.70514115  0.18963497  0.58723537  1.0
  C  C96  1  0.66575660  0.15199253  0.62816775  1.0
  C  C97  1  0.69787647  0.10728648  0.66350880  1.0
  C  C98  1  0.10891657  0.23180468  0.70666946  1.0
  C  C99  1  0.65817706  0.07123477  0.70528244  1.0
  C  C100  1  0.58734124  0.07366932  0.70713071  1.0
  C  C101  1  0.77034519  0.17582564  0.57818061  1.0
  C  C102  1  0.79595709  0.12437370  0.60580167  1.0
  C  C103  1  0.87013663  0.10244292  0.52067277  1.0
  C  C104  1  0.76241738  0.09456832  0.65180195  1.0
  C  C105  1  0.07850362  0.69157154  0.40387801  1.0
  C  C106  1  0.00191354  0.69450494  0.38355175  1.0
  C  C107  1  0.92411855  0.61776392  0.34568793  1.0
  C  C108  1  0.92138889  0.54035130  0.33593417  1.0
  C  C109  1  0.84629480  0.09278051  0.57823124  1.0
  C  C110  1  0.99986375  0.53917562  0.36373729  1.0
  C  C111  1  0.07915855  0.61559050  0.39504458  1.0
  C  C112  1  0.84251507  0.46277441  0.30440408  1.0
  C  C113  1  0.84180178  0.39049347  0.30555799  1.0
  C  C114  1  0.91989195  0.38893186  0.33743164  1.0
  C  C115  1  0.10143166  0.22822544  0.63492046  1.0
  C  C116  1  0.99908998  0.46391584  0.36429504  1.0
  C  C117  1  0.07775569  0.46377275  0.39526447  1.0
  C  C118  1  0.15631195  0.53971407  0.42142767  1.0
  C  C119  1  0.15702771  0.61232743  0.42132693  1.0
  C  C120  1  0.70037662  0.78610928  0.36727579  1.0
  C  C121  1  0.92124905  0.31802023  0.34574391  1.0
  C  C122  1  0.99839901  0.31847946  0.37904542  1.0
  C  C123  1  0.07562897  0.39091900  0.40139824  1.0
  C  C124  1  0.56543963  0.72658122  0.24090708  1.0
  C  C125  1  0.52680192  0.74320024  0.18024062  1.0
  C  C126  1  0.44717959  0.68316022  0.12011224  1.0
  C  C127  1  0.86630614  0.03154904  0.59121012  1.0
  C  C128  1  0.40123892  0.60266493  0.11713062  1.0
  C  C129  1  0.43761778  0.58848095  0.18012530  1.0
  C  C130  1  0.51734473  0.64844700  0.24049197  1.0
  C  C131  1  0.29977958  0.15629489  0.56331482  1.0
  C  C132  1  0.18985590  0.37388637  0.91157986  1.0
  C  C133  1  0.14800181  0.30093799  0.84480700  1.0
  C  C134  1  0.15789360  0.38519681  0.77482466  1.0
  C  C135  1  0.20000094  0.45959405  0.84155726  1.0
  C  C136  1  0.22206899  0.45517556  0.91276889  1.0
  C  C137  1  0.32492406  0.53212475  0.05089884  1.0
  C  C138  1  0.28391586  0.53110551  0.98318179  1.0
  C  C139  1  0.93072101  0.16617609  0.36941499  1.0
  C  C140  1  0.13545173  0.30523982  0.77461131  1.0
  C  C141  1  0.99691098  0.81367415  0.74944589  1.0
  C  C142  1  0.07207320  0.85454384  0.46622372  1.0
  C  C143  1  0.07546438  0.83451524  0.80655054  1.0
  C  C144  1  0.07939867  0.81510844  0.86801366  1.0
  C  C145  1  0.00462895  0.77364364  0.87547492  1.0
  C  C146  1  0.92566863  0.74365007  0.81374284  1.0
  C  C147  1  0.92187927  0.76396015  0.75255888  1.0
  C  C148  1  0.01413669  0.79365268  0.10592857  1.0
  C  C149  1  0.00629313  0.81962669  0.17257109  1.0
  C  C150  1  0.10564637  0.96512640  0.20766035  1.0
  C  C151  1  0.06454836  0.90920909  0.69152116  1.0
  C  C152  1  0.11549569  0.93859260  0.14144708  1.0
  C  C153  1  0.95942459  0.91674022  0.29439221  1.0
  C  C154  1  0.06781636  0.85249660  0.08823414  1.0
  C  C155  1  0.00591173  0.77286186  0.94703025  1.0
  C  C156  1  0.07122016  0.83293872  0.01564946  1.0
  C  C157  1  0.05065550  0.90541076  0.22429357  1.0
  C  C158  1  0.99478935  0.84757575  0.69290897  1.0
  C  C159  1  0.71282761  0.27701692  0.50956729  1.0
  C  C160  1  0.68436940  0.21431736  0.42866533  1.0
  C  C161  1  0.22673018  0.54287944  0.83556364  1.0
  C  C162  1  0.31587247  0.58130606  0.83843650  1.0
  C  C163  1  0.10009135  0.09246385  0.25360750  1.0
  C  C164  1  0.09951406  0.99699791  0.36501715  1.0
  C  C165  1  0.16096252  0.18690186  0.29456631  1.0
  C  C166  1  0.13323207  0.03337832  0.08285676  1.0
  C  C167  1  0.19506337  0.07893941  0.05583192  1.0
  C  C168  1  0.72383452  0.73984946  0.46626279  1.0
  C  C169  1  0.67158611  0.67246882  0.48530530  1.0
  N  N170  1  0.94962285  0.88260085  0.59670341  1.0
  N  N171  1  0.08696867  0.10621136  0.63158843  1.0
  N  N172  1  0.90019417  0.04998360  0.50071791  1.0
  N  N173  1  0.08888204  0.15308200  0.59124773  1.0
  N  N174  1  0.89782023  0.00649389  0.54415959  1.0
  N  N175  1  0.95898634  0.11988915  0.39774704  1.0
  N  N176  1  0.03728374  0.92972226  0.63433587  1.0
  N  N177  1  0.78161519  0.84997455  0.40310237  1.0
  N  N178  1  0.22073568  0.12356388  0.55886576  1.0
  N  N179  1  0.04349897  0.90715551  0.48993858  1.0
  N  N180  1  0.97452507  0.96635142  0.36387064  1.0
  N  N181  1  0.06054157  0.01512534  0.40721542  1.0
  N  N182  1  0.95680411  0.86476564  0.45129888  1.0
  N  N183  1  0.79022407  0.89419267  0.35893330  1.0
  N  N184  1  0.21507239  0.07267783  0.59642469  1.0
  N  N185  1  0.04607885  0.16879184  0.44081402  1.0
  O  O186  1  0.15086166  0.05074297  0.25480487  1.0
  O  O187  1  0.17111045  0.99742677  0.12702182  1.0
  O  O188  1  0.66847209  0.72925532  0.39407900  1.0
