# generated using pymatgen
data_TiH11C22O5
_symmetry_space_group_name_H-M   'P 1'
_cell_length_a   6.77699925
_cell_length_b   16.19006004
_cell_length_c   29.82378988
_cell_angle_alpha   89.97552779
_cell_angle_beta   89.45581951
_cell_angle_gamma   87.70089965
_symmetry_Int_Tables_number   1
_chemical_formula_structural   TiH11C22O5
_chemical_formula_sum   'Ti4 H44 C88 O20'
_cell_volume   3269.48539666
_cell_formula_units_Z   4
loop_
 _symmetry_equiv_pos_site_id
 _symmetry_equiv_pos_as_xyz
  1  'x, y, z'
loop_
 _atom_site_type_symbol
 _atom_site_label
 _atom_site_symmetry_multiplicity
 _atom_site_fract_x
 _atom_site_fract_y
 _atom_site_fract_z
 _atom_site_occupancy
  Ti  Ti0  1  0.28372349  0.00020120  0.25519579  1.0
  Ti  Ti1  1  0.71995271  0.99979777  0.74583179  1.0
  Ti  Ti2  1  0.21965718  0.99960278  0.75508634  1.0
  Ti  Ti3  1  0.78403005  0.00008892  0.24587721  1.0
  H  H4  1  0.46494224  0.29108338  0.04217501  1.0
  H  H5  1  0.49327337  0.50172912  0.15515703  1.0
  H  H6  1  0.47011807  0.29007283  0.96012487  1.0
  H  H7  1  0.50946664  0.49806584  0.84583175  1.0
  H  H8  1  0.53723273  0.70875115  0.95884640  1.0
  H  H9  1  0.53202164  0.70973438  0.04089395  1.0
  H  H10  1  0.97439426  0.29039803  0.54164911  1.0
  H  H11  1  0.01912899  0.49911134  0.65499198  1.0
  H  H12  1  0.96299059  0.29080409  0.45966591  1.0
  H  H13  1  0.98528116  0.50064956  0.34583457  1.0
  H  H14  1  0.03177939  0.70936306  0.45918195  1.0
  H  H15  1  0.04175630  0.70902035  0.54118055  1.0
  H  H16  1  0.26811057  0.29983794  0.40523051  1.0
  H  H17  1  0.27272317  0.17008049  0.35972927  1.0
  H  H18  1  0.71401536  0.37723122  0.34586872  1.0
  H  H19  1  0.71329096  0.24473754  0.30279482  1.0
  H  H20  1  0.21849458  0.24542101  0.19968498  1.0
  H  H21  1  0.77853729  0.17105753  0.14056316  1.0
  H  H22  1  0.77351781  0.30080026  0.09498834  1.0
  H  H23  1  0.21924784  0.37800245  0.15665222  1.0
  H  H24  1  0.23254011  0.83318773  0.14416866  1.0
  H  H25  1  0.22027906  0.70359779  0.09881346  1.0
  H  H26  1  0.78697818  0.62257541  0.15056803  1.0
  H  H27  1  0.80557846  0.75556501  0.19268915  1.0
  H  H28  1  0.72661663  0.83228302  0.35737524  1.0
  H  H29  1  0.28183127  0.62196345  0.34899955  1.0
  H  H30  1  0.30079600  0.75506395  0.30687810  1.0
  H  H31  1  0.71406809  0.70253626  0.40276128  1.0
  H  H32  1  0.70278540  0.24480196  0.69368333  1.0
  H  H33  1  0.27766157  0.16748602  0.64367262  1.0
  H  H34  1  0.72243967  0.37783176  0.65152021  1.0
  H  H35  1  0.29081060  0.29707030  0.59816166  1.0
  H  H36  1  0.29048712  0.62292388  0.65498100  1.0
  H  H37  1  0.29033249  0.75548707  0.69800418  1.0
  H  H38  1  0.73028101  0.82939754  0.64115627  1.0
  H  H39  1  0.73588326  0.69966868  0.59562700  1.0
  H  H40  1  0.22487464  0.82867297  0.86011877  1.0
  H  H41  1  0.22929749  0.69906925  0.90578128  1.0
  H  H42  1  0.78555673  0.75424031  0.80134403  1.0
  H  H43  1  0.78436724  0.62177859  0.84450095  1.0
  H  H44  1  0.77070043  0.16648751  0.85716589  1.0
  H  H45  1  0.19835573  0.24403788  0.80817654  1.0
  H  H46  1  0.21636994  0.37711402  0.85022002  1.0
  H  H47  1  0.78235753  0.29625607  0.90244717  1.0
  C  C48  1  0.49768713  0.12181305  0.19818890  1.0
  C  C49  1  0.48016237  0.34874626  0.02385652  1.0
  C  C50  1  0.49960896  0.50018143  0.02447825  1.0
  C  C51  1  0.49433037  0.42536373  0.09622071  1.0
  C  C52  1  0.49378204  0.42390822  0.04867531  1.0
  C  C53  1  0.49416660  0.50125542  0.11856147  1.0
  C  C54  1  0.34057986  0.25884841  0.17713251  1.0
  C  C55  1  0.34151608  0.33248558  0.15302623  1.0
  C  C56  1  0.65274315  0.28886463  0.11823296  1.0
  C  C57  1  0.65585543  0.21645531  0.14336405  1.0
  C  C58  1  0.47373792  0.11966662  0.80426581  1.0
  C  C59  1  0.48297041  0.34818928  0.97807614  1.0
  C  C60  1  0.50303188  0.49961630  0.97651380  1.0
  C  C61  1  0.50512625  0.42322264  0.90530304  1.0
  C  C62  1  0.49983319  0.42278483  0.95282319  1.0
  C  C63  1  0.50848030  0.49854109  0.88243124  1.0
  C  C64  1  0.50609290  0.87787466  0.80269830  1.0
  C  C65  1  0.52235728  0.65106653  0.97714288  1.0
  C  C66  1  0.50852572  0.57446190  0.90477480  1.0
  C  C67  1  0.50895960  0.57589850  0.95231647  1.0
  C  C68  1  0.50561867  0.79921402  0.82836733  1.0
  C  C69  1  0.50745162  0.65187988  0.87827404  1.0
  C  C70  1  0.48338111  0.19768062  0.83027771  1.0
  C  C71  1  0.32677188  0.25681024  0.82838855  1.0
  C  C72  1  0.33716323  0.33061664  0.85197926  1.0
  C  C73  1  0.49994122  0.34528625  0.87929574  1.0
  C  C74  1  0.65524511  0.28517155  0.88138121  1.0
  C  C75  1  0.64909529  0.21266023  0.85644588  1.0
  C  C76  1  0.52993525  0.87995507  0.19688857  1.0
  C  C77  1  0.51947154  0.65161893  0.02292111  1.0
  C  C78  1  0.49746260  0.57657801  0.09568780  1.0
  C  C79  1  0.50275439  0.57700159  0.04817503  1.0
  C  C80  1  0.52013894  0.80197521  0.17085594  1.0
  C  C81  1  0.67685093  0.74285095  0.17257249  1.0
  C  C82  1  0.66621928  0.66911614  0.14892974  1.0
  C  C83  1  0.50301670  0.65448839  0.12170924  1.0
  C  C84  1  0.34768856  0.71461964  0.11977840  1.0
  C  C85  1  0.35415276  0.78704415  0.14476994  1.0
  C  C86  1  0.49812323  0.20047049  0.17250287  1.0
  C  C87  1  0.49583493  0.34793603  0.12271199  1.0
  C  C88  1  0.66323439  0.74085730  0.82386055  1.0
  C  C89  1  0.66209588  0.66730353  0.84803709  1.0
  C  C90  1  0.35048703  0.71095795  0.88262848  1.0
  C  C91  1  0.34762958  0.78328961  0.85743438  1.0
  C  C92  1  0.97817214  0.12057894  0.69718110  1.0
  C  C93  1  0.98595407  0.34835441  0.52340238  1.0
  C  C94  1  0.00612860  0.49978298  0.52437207  1.0
  C  C95  1  0.01258909  0.42389684  0.59574646  1.0
  C  C96  1  0.00457384  0.42314229  0.54829128  1.0
  C  C97  1  0.01673013  0.49934484  0.61839574  1.0
  C  C98  1  0.98913272  0.19859559  0.67114516  1.0
  C  C99  1  0.83219971  0.25761354  0.67326071  1.0
  C  C100  1  0.84342419  0.33137560  0.64958861  1.0
  C  C101  1  0.00736893  0.34608560  0.62193490  1.0
  C  C102  1  0.16299161  0.28604317  0.61957107  1.0
  C  C103  1  0.15597773  0.21361322  0.64462028  1.0
  C  C104  1  0.99304373  0.12109097  0.30323872  1.0
  C  C105  1  0.97972409  0.34858813  0.47766155  1.0
  C  C106  1  0.99945584  0.49999351  0.47644442  1.0
  C  C107  1  0.98964556  0.42466555  0.40498083  1.0
  C  C108  1  0.99186804  0.42356090  0.45251727  1.0
  C  C109  1  0.98810454  0.50043291  0.38242535  1.0
  C  C110  1  0.99040047  0.34709310  0.37867015  1.0
  C  C111  1  0.02580194  0.87940679  0.30381520  1.0
  C  C112  1  0.01989731  0.65142356  0.47741509  1.0
  C  C113  1  0.99273933  0.57588561  0.40506598  1.0
  C  C114  1  0.00119966  0.57664331  0.45251879  1.0
  C  C115  1  0.99262150  0.19967149  0.32892908  1.0
  C  C116  1  0.83519843  0.25806353  0.32490792  1.0
  C  C117  1  0.83610896  0.33165574  0.34901833  1.0
  C  C118  1  0.14718751  0.28792777  0.38254263  1.0
  C  C119  1  0.15016517  0.21553225  0.35744026  1.0
  C  C120  1  0.00988624  0.87880298  0.69763991  1.0
  C  C121  1  0.02547555  0.65121183  0.52316631  1.0
  C  C122  1  0.01510213  0.57513850  0.59585892  1.0
  C  C123  1  0.01325025  0.57624126  0.54831885  1.0
  C  C124  1  0.01061465  0.80019007  0.67194407  1.0
  C  C125  1  0.16846679  0.74196579  0.67592118  1.0
  C  C126  1  0.16806924  0.66835360  0.65182353  1.0
  C  C127  1  0.01383231  0.65271050  0.62217797  1.0
  C  C128  1  0.85666804  0.71167919  0.61832762  1.0
  C  C129  1  0.85315497  0.78407296  0.64344009  1.0
  C  C130  1  0.01486859  0.80124560  0.32971328  1.0
  C  C131  1  0.17170547  0.74220330  0.32741021  1.0
  C  C132  1  0.16088069  0.66841596  0.35106318  1.0
  C  C133  1  0.99743315  0.65369144  0.37886046  1.0
  C  C134  1  0.84172333  0.71366428  0.38132646  1.0
  C  C135  1  0.84833284  0.78614916  0.35632086  1.0
  O  O136  1  0.51935712  0.99956668  0.27705459  1.0
  O  O137  1  0.33485972  0.10132485  0.21584866  1.0
  O  O138  1  0.48434038  0.00037608  0.72398802  1.0
  O  O139  1  0.63590233  0.07890893  0.79663978  1.0
  O  O140  1  0.34277171  0.92028214  0.80047350  1.0
  O  O141  1  0.30371853  0.09853523  0.79154459  1.0
  O  O142  1  0.69998158  0.90093378  0.20968654  1.0
  O  O143  1  0.66094533  0.07936269  0.20041051  1.0
  O  O144  1  0.36798720  0.92090520  0.20443019  1.0
  O  O145  1  0.66894486  0.89847484  0.78509546  1.0
  O  O146  1  0.98223373  0.99979098  0.77695936  1.0
  O  O147  1  0.80726524  0.09933377  0.70997675  1.0
  O  O148  1  0.02145745  0.99997184  0.22403904  1.0
  O  O149  1  0.15625900  0.07844815  0.30092091  1.0
  O  O150  1  0.86421787  0.92027586  0.29642538  1.0
  O  O151  1  0.83140517  0.10075027  0.28567177  1.0
  O  O152  1  0.17157410  0.89922548  0.71516178  1.0
  O  O153  1  0.13990690  0.07992610  0.70473110  1.0
  O  O154  1  0.84659612  0.92136763  0.69999715  1.0
  O  O155  1  0.19673381  0.90056054  0.29098932  1.0
