# generated using pymatgen
data_CoH18C22(NO)4
_symmetry_space_group_name_H-M   'P 1'
_cell_length_a   7.73814431
_cell_length_b   18.54443729
_cell_length_c   18.54430572
_cell_angle_alpha   89.99826574
_cell_angle_beta   90.00020789
_cell_angle_gamma   89.99994653
_symmetry_Int_Tables_number   1
_chemical_formula_structural   CoH18C22(NO)4
_chemical_formula_sum   'Co4 H72 C88 N16 O16'
_cell_volume   2661.09918895
_cell_formula_units_Z   4
loop_
 _symmetry_equiv_pos_site_id
 _symmetry_equiv_pos_as_xyz
  1  'x, y, z'
loop_
 _atom_site_type_symbol
 _atom_site_label
 _atom_site_symmetry_multiplicity
 _atom_site_fract_x
 _atom_site_fract_y
 _atom_site_fract_z
 _atom_site_occupancy
  Co  Co0  1  0.50004108  0.77636244  0.77634564  1.0
  Co  Co1  1  0.50000829  0.22364225  0.22364687  1.0
  Co  Co2  1  0.50001428  0.27635346  0.72364268  1.0
  Co  Co3  1  0.49999762  0.72364099  0.27635414  1.0
  H  H4  1  0.93317192  0.84742914  0.76384132  1.0
  H  H5  1  0.93319497  0.15256622  0.23615562  1.0
  H  H6  1  0.93322379  0.26385151  0.65257448  1.0
  H  H7  1  0.93322193  0.73615032  0.34742299  1.0
  H  H8  1  0.06678267  0.65257035  0.26385563  1.0
  H  H9  1  0.06677989  0.34743073  0.73614269  1.0
  H  H10  1  0.06679816  0.23615174  0.15256362  1.0
  H  H11  1  0.06674889  0.76385851  0.84744171  1.0
  H  H12  1  0.30802934  0.01760664  0.74081776  1.0
  H  H13  1  0.30801324  0.98237601  0.25919279  1.0
  H  H14  1  0.30801504  0.24081927  0.48237225  1.0
  H  H15  1  0.30800427  0.75917903  0.51762860  1.0
  H  H16  1  0.69199079  0.48237021  0.24082034  1.0
  H  H17  1  0.69198396  0.51762685  0.75918001  1.0
  H  H18  1  0.69198909  0.25919827  0.98237049  1.0
  H  H19  1  0.69199858  0.74079987  0.01765520  1.0
  H  H20  1  0.69475798  0.93476622  0.74183630  1.0
  H  H21  1  0.69476073  0.06524055  0.25816028  1.0
  H  H22  1  0.69477996  0.24184520  0.56525187  1.0
  H  H23  1  0.69477364  0.75815564  0.43474470  1.0
  H  H24  1  0.30522743  0.56524903  0.24184552  1.0
  H  H25  1  0.30522207  0.43475249  0.75814938  1.0
  H  H26  1  0.30523735  0.25815962  0.06523962  1.0
  H  H27  1  0.30522120  0.74184461  0.93475151  1.0
  H  H28  1  0.06968256  0.10445150  0.71140131  1.0
  H  H29  1  0.06964107  0.89554149  0.28860564  1.0
  H  H30  1  0.06963196  0.21140318  0.39554532  1.0
  H  H31  1  0.06961930  0.78859844  0.60445462  1.0
  H  H32  1  0.93037608  0.39554458  0.21140094  1.0
  H  H33  1  0.93036672  0.60445779  0.78859491  1.0
  H  H34  1  0.93036366  0.28861267  0.89553764  1.0
  H  H35  1  0.93041015  0.71138161  0.10447331  1.0
  H  H36  1  0.62737538  0.01889080  0.61558817  1.0
  H  H37  1  0.62734486  0.98111007  0.38440884  1.0
  H  H38  1  0.62729973  0.11561402  0.48114382  1.0
  H  H39  1  0.62728094  0.88438253  0.51884726  1.0
  H  H40  1  0.37269794  0.48113999  0.11561079  1.0
  H  H41  1  0.37266892  0.51886960  0.88439177  1.0
  H  H42  1  0.37266433  0.38441164  0.98110974  1.0
  H  H43  1  0.37268444  0.61558771  0.01888311  1.0
  H  H44  1  0.86376363  0.11888026  0.83235904  1.0
  H  H45  1  0.86374438  0.88112213  0.16764480  1.0
  H  H46  1  0.86377306  0.33235757  0.38110893  1.0
  H  H47  1  0.86381249  0.66765452  0.61890677  1.0
  H  H48  1  0.13623920  0.38111593  0.33235737  1.0
  H  H49  1  0.13627915  0.61886895  0.66762596  1.0
  H  H50  1  0.13626637  0.16764954  0.88112528  1.0
  H  H51  1  0.13627395  0.83234935  0.11887315  1.0
  H  H52  1  0.67450640  0.16983219  0.85278056  1.0
  H  H53  1  0.67449355  0.83016919  0.14722029  1.0
  H  H54  1  0.67451685  0.35277097  0.33015052  1.0
  H  H55  1  0.67453867  0.64722610  0.66984387  1.0
  H  H56  1  0.32548239  0.33014936  0.35276832  1.0
  H  H57  1  0.32550138  0.66985540  0.64723093  1.0
  H  H58  1  0.32551051  0.14722475  0.83016669  1.0
  H  H59  1  0.32552107  0.85277516  0.16982825  1.0
  H  H60  1  0.84297547  0.21070015  0.80328995  1.0
  H  H61  1  0.84296185  0.78930171  0.19671117  1.0
  H  H62  1  0.84298606  0.30327262  0.28929465  1.0
  H  H63  1  0.84296031  0.69674272  0.71071563  1.0
  H  H64  1  0.15699867  0.28930015  0.30327545  1.0
  H  H65  1  0.15697019  0.71068903  0.69670629  1.0
  H  H66  1  0.15703578  0.19671571  0.78930368  1.0
  H  H67  1  0.15705714  0.80327779  0.21069208  1.0
  H  H68  1  0.41219446  0.13965374  0.61557377  1.0
  H  H69  1  0.41219135  0.86034128  0.38443208  1.0
  H  H70  1  0.41217657  0.11558030  0.36036264  1.0
  H  H71  1  0.41211102  0.88440124  0.63961517  1.0
  H  H72  1  0.58780003  0.36035225  0.11556856  1.0
  H  H73  1  0.58774361  0.63966481  0.88444618  1.0
  H  H74  1  0.58782133  0.38443284  0.86034291  1.0
  H  H75  1  0.58784508  0.61556912  0.13964918  1.0
  C  C76  1  0.27646407  0.87423780  0.76709856  1.0
  C  C77  1  0.27648715  0.12573894  0.23289576  1.0
  C  C78  1  0.27650420  0.26711286  0.62574090  1.0
  C  C79  1  0.27650905  0.73288221  0.37426798  1.0
  C  C80  1  0.72350734  0.62573841  0.26711845  1.0
  C  C81  1  0.72349156  0.37426943  0.73288086  1.0
  C  C82  1  0.72350200  0.23289121  0.12572627  1.0
  C  C83  1  0.72345942  0.76712095  0.87430108  1.0
  C  C84  1  0.13533968  0.92737687  0.75399713  1.0
  C  C85  1  0.13533197  0.07261071  0.24600237  1.0
  C  C86  1  0.13534999  0.25400841  0.57261202  1.0
  C  C87  1  0.13534364  0.74599211  0.42738803  1.0
  C  C88  1  0.86465747  0.57260944  0.25401345  1.0
  C  C89  1  0.86465331  0.42739187  0.74598823  1.0
  C  C90  1  0.86466480  0.24600157  0.07260422  1.0
  C  C91  1  0.86464339  0.75400837  0.92741149  1.0
  C  C92  1  0.96310276  0.90376479  0.75293472  1.0
  C  C93  1  0.96310535  0.09623109  0.24706388  1.0
  C  C94  1  0.96312349  0.25294396  0.59623716  1.0
  C  C95  1  0.96311951  0.74705839  0.40376090  1.0
  C  C96  1  0.03688662  0.59623341  0.25294799  1.0
  C  C97  1  0.03687994  0.40376768  0.74705082  1.0
  C  C98  1  0.03689151  0.24706369  0.09622754  1.0
  C  C99  1  0.03685697  0.75294603  0.90377829  1.0
  C  C100  1  0.17357205  0.00005801  0.74048844  1.0
  C  C101  1  0.17355333  0.99992955  0.25951813  1.0
  C  C102  1  0.17356428  0.24049278  0.49993064  1.0
  C  C103  1  0.17355465  0.75950772  0.50007000  1.0
  C  C104  1  0.82644161  0.49992910  0.24049501  1.0
  C  C105  1  0.82643740  0.50007277  0.75950608  1.0
  C  C106  1  0.82644647  0.25951937  0.99992314  1.0
  C  C107  1  0.82644676  0.74048304  0.00009412  1.0
  C  C108  1  0.82939876  0.95215365  0.73968507  1.0
  C  C109  1  0.82939123  0.04784768  0.26031494  1.0
  C  C110  1  0.82940519  0.23969115  0.54785853  1.0
  C  C111  1  0.82939902  0.76031287  0.45213825  1.0
  C  C112  1  0.17060344  0.54785574  0.23969246  1.0
  C  C113  1  0.17059934  0.45214746  0.76030440  1.0
  C  C114  1  0.17060551  0.26031635  0.04784547  1.0
  C  C115  1  0.17059339  0.73968739  0.95215139  1.0
  C  C116  1  0.04110735  0.04845716  0.72475556  1.0
  C  C117  1  0.04108371  0.95153585  0.27524973  1.0
  C  C118  1  0.04108271  0.22475782  0.45154234  1.0
  C  C119  1  0.04107347  0.77524489  0.54845756  1.0
  C  C120  1  0.95892297  0.45154067  0.22475786  1.0
  C  C121  1  0.95891621  0.54846114  0.77523912  1.0
  C  C122  1  0.95892116  0.27525202  0.95153133  1.0
  C  C123  1  0.95893611  0.72474656  0.04847751  1.0
  C  C124  1  0.86984096  0.02409389  0.72507040  1.0
  C  C125  1  0.86982372  0.97590634  0.27492968  1.0
  C  C126  1  0.86982673  0.22507653  0.47591918  1.0
  C  C127  1  0.86981986  0.77492856  0.52407766  1.0
  C  C128  1  0.13017903  0.47591687  0.22507610  1.0
  C  C129  1  0.13017490  0.52408580  0.77491855  1.0
  C  C130  1  0.13017993  0.27493150  0.97590423  1.0
  C  C131  1  0.13019080  0.72506902  0.02409473  1.0
  C  C132  1  0.61969664  0.06529502  0.65088724  1.0
  C  C133  1  0.61966980  0.93470477  0.34911191  1.0
  C  C134  1  0.61965296  0.15090240  0.43473011  1.0
  C  C135  1  0.61963206  0.84909470  0.56526312  1.0
  C  C136  1  0.38034080  0.43472392  0.15089673  1.0
  C  C137  1  0.38032818  0.56528243  0.84910207  1.0
  C  C138  1  0.38033655  0.34911712  0.93470412  1.0
  C  C139  1  0.38036086  0.65088492  0.06528820  1.0
  C  C140  1  0.69228413  0.13550603  0.74383067  1.0
  C  C141  1  0.69226569  0.86449050  0.25617075  1.0
  C  C142  1  0.69228366  0.24382727  0.36449803  1.0
  C  C143  1  0.69227133  0.75617088  0.63549692  1.0
  C  C144  1  0.30771147  0.36449285  0.24382383  1.0
  C  C145  1  0.30769917  0.63551300  0.75617269  1.0
  C  C146  1  0.30774142  0.25617388  0.86449093  1.0
  C  C147  1  0.30776614  0.74382764  0.13550074  1.0
  C  C148  1  0.77423170  0.15971655  0.81191003  1.0
  C  C149  1  0.77421659  0.84028426  0.18809044  1.0
  C  C150  1  0.77424628  0.31190194  0.34027723  1.0
  C  C151  1  0.77425112  0.68810480  0.65972701  1.0
  C  C152  1  0.22575416  0.34027810  0.31190218  1.0
  C  C153  1  0.22576060  0.65971753  0.68808722  1.0
  C  C154  1  0.22579022  0.18809401  0.84028501  1.0
  C  C155  1  0.22580595  0.81190485  0.15970978  1.0
  C  C156  1  0.51487946  0.12471229  0.65232498  1.0
  C  C157  1  0.51486695  0.87528376  0.34767887  1.0
  C  C158  1  0.51486272  0.15233070  0.37530098  1.0
  C  C159  1  0.51482037  0.84765889  0.62468454  1.0
  C  C160  1  0.48511922  0.37529366  0.15232186  1.0
  C  C161  1  0.48509224  0.62471697  0.84768302  1.0
  C  C162  1  0.48514178  0.34768253  0.87528437  1.0
  C  C163  1  0.48516661  0.65232001  0.12470811  1.0
  N  N164  1  0.73295142  0.07303553  0.70847470  1.0
  N  N165  1  0.73292151  0.92696584  0.29152301  1.0
  N  N166  1  0.73291903  0.20848472  0.42698301  1.0
  N  N167  1  0.73290997  0.79151718  0.57301470  1.0
  N  N168  1  0.26708135  0.42697951  0.20848209  1.0
  N  N169  1  0.26707467  0.57302527  0.79151222  1.0
  N  N170  1  0.26708462  0.29152694  0.92696507  1.0
  N  N171  1  0.26710887  0.70847406  0.07302762  1.0
  N  N172  1  0.56099924  0.16818051  0.70988111  1.0
  N  N173  1  0.56099280  0.83181391  0.29012389  1.0
  N  N174  1  0.56101048  0.20987637  0.33181672  1.0
  N  N175  1  0.56097510  0.79011374  0.66816833  1.0
  N  N176  1  0.43897280  0.33180914  0.20986899  1.0
  N  N177  1  0.43894780  0.66819665  0.79013421  1.0
  N  N178  1  0.43901561  0.29012685  0.83181418  1.0
  N  N179  1  0.43903939  0.70987570  0.16817823  1.0
  O  O180  1  0.43053593  0.89402948  0.78062921  1.0
  O  O181  1  0.43054859  0.10593371  0.21938476  1.0
  O  O182  1  0.43056946  0.28062122  0.60593581  1.0
  O  O183  1  0.43057580  0.71939050  0.39408139  1.0
  O  O184  1  0.56944077  0.60593553  0.28062305  1.0
  O  O185  1  0.56942353  0.39408153  0.71938951  1.0
  O  O186  1  0.56943916  0.21939207  0.10591543  1.0
  O  O187  1  0.56939543  0.78058833  0.89412248  1.0
  O  O188  1  0.24052140  0.80675026  0.76168280  1.0
  O  O189  1  0.24056117  0.19323296  0.23828074  1.0
  O  O190  1  0.24056177  0.26172694  0.69323499  1.0
  O  O191  1  0.24057895  0.73824765  0.30676845  1.0
  O  O192  1  0.75945256  0.69323258  0.26173737  1.0
  O  O193  1  0.75943180  0.30677201  0.73824744  1.0
  O  O194  1  0.75942046  0.23825890  0.19322619  1.0
  O  O195  1  0.75937602  0.76178613  0.80679421  1.0
