# generated using pymatgen
data_Zr3H8C20(N3O8)2
_symmetry_space_group_name_H-M   'P 1'
_cell_length_a   16.48843291
_cell_length_b   17.17883790
_cell_length_c   17.20279842
_cell_angle_alpha   71.25034747
_cell_angle_beta   89.95234816
_cell_angle_gamma   89.80801861
_symmetry_Int_Tables_number   1
_chemical_formula_structural   Zr3H8C20(N3O8)2
_chemical_formula_sum   'Zr6 H16 C40 N12 O32'
_cell_volume   4614.11739849
_cell_formula_units_Z   2
loop_
 _symmetry_equiv_pos_site_id
 _symmetry_equiv_pos_as_xyz
  1  'x, y, z'
loop_
 _atom_site_type_symbol
 _atom_site_label
 _atom_site_symmetry_multiplicity
 _atom_site_fract_x
 _atom_site_fract_y
 _atom_site_fract_z
 _atom_site_occupancy
  Zr  Zr0  1  0.10323171  0.89929974  0.10660550  1.0
  Zr  Zr1  1  0.88697328  0.90817929  0.09867278  1.0
  Zr  Zr2  1  0.11325576  0.07734006  0.92948245  1.0
  Zr  Zr3  1  0.89760688  0.08503751  0.92040641  1.0
  Zr  Zr4  1  0.00069709  0.90226700  0.92506855  1.0
  Zr  Zr5  1  0.99982739  0.08184181  0.10334106  1.0
  H  H6  1  0.99891129  0.92050039  0.22471129  1.0
  H  H7  1  0.82838546  0.92804249  0.94002101  1.0
  H  H8  1  0.00245334  0.20433926  0.94022191  1.0
  H  H9  1  0.17385785  0.91866744  0.94902026  1.0
  H  H10  1  0.72362089  0.89311021  0.07506233  1.0
  H  H11  1  0.75582279  0.00938199  0.00066874  1.0
  H  H12  1  0.90208014  0.19351931  0.76928195  1.0
  H  H13  1  0.01814931  0.19224311  0.81172108  1.0
  H  H14  1  0.27109199  0.09493696  0.95425074  1.0
  H  H15  1  0.24464797  0.97837897  0.02978949  1.0
  H  H16  1  0.09613577  0.74772721  0.21363921  1.0
  H  H17  1  0.98254140  0.79060793  0.21400262  1.0
  H  H18  1  0.10184333  0.17412590  0.76865224  1.0
  H  H19  1  0.26141842  0.93863485  0.12879221  1.0
  H  H20  1  0.89520568  0.79412531  0.25994056  1.0
  H  H21  1  0.73933032  0.10841154  0.95945165  1.0
  C  C22  1  0.12804728  0.75852358  0.01877647  1.0
  C  C23  1  0.86031364  0.99855024  0.23745027  1.0
  C  C24  1  0.86513748  0.76631794  0.01006834  1.0
  C  C25  1  0.13817642  0.00021864  0.23803520  1.0
  C  C26  1  0.14252097  0.21256029  0.02337430  1.0
  C  C27  1  0.87366884  0.99503339  0.78088478  1.0
  C  C28  1  0.86224552  0.21688639  0.02157828  1.0
  C  C29  1  0.13296507  0.98817673  0.78552564  1.0
  C  C30  1  0.26025206  0.99722247  0.44566386  1.0
  C  C31  1  0.37749165  0.99217705  0.51522604  1.0
  C  C32  1  0.25724253  0.98919204  0.57942586  1.0
  C  C33  1  0.74137490  0.99653814  0.44648160  1.0
  C  C34  1  0.74458133  0.99276424  0.57898614  1.0
  C  C35  1  0.62425667  0.99306057  0.51598151  1.0
  C  C36  1  0.26024203  0.42104814  0.02439882  1.0
  C  C37  1  0.25562704  0.55361130  0.02088992  1.0
  C  C38  1  0.37661666  0.49066813  0.02311029  1.0
  C  C39  1  0.74094955  0.42354488  0.02506785  1.0
  C  C40  1  0.74299120  0.55739777  0.01746496  1.0
  C  C41  1  0.62323035  0.49209401  0.02286045  1.0
  C  C42  1  0.46308442  0.49258716  0.02342703  1.0
  C  C43  1  0.53673236  0.49296043  0.02349491  1.0
  C  C44  1  0.53771225  0.99217305  0.51752391  1.0
  C  C45  1  0.46404820  0.99187852  0.51686992  1.0
  C  C46  1  0.82948381  0.99354702  0.70884391  1.0
  C  C47  1  0.79000549  0.99252800  0.64955700  1.0
  C  C48  1  0.78279766  0.99852669  0.37311351  1.0
  C  C49  1  0.81790450  0.99961927  0.31065107  1.0
  C  C50  1  0.17514247  0.98725447  0.71202359  1.0
  C  C51  1  0.21253698  0.98712985  0.65112035  1.0
  C  C52  1  0.21843024  0.00070293  0.37203550  1.0
  C  C53  1  0.18236074  0.00210970  0.31000033  1.0
  C  C54  1  0.81811532  0.28851707  0.02514792  1.0
  C  C55  1  0.78286979  0.35036444  0.02638808  1.0
  C  C56  1  0.82358697  0.69195010  0.01117251  1.0
  C  C57  1  0.78700839  0.62991483  0.01349043  1.0
  C  C58  1  0.21967481  0.34760988  0.02531472  1.0
  C  C59  1  0.18535850  0.28516763  0.02520372  1.0
  C  C60  1  0.17114598  0.68504549  0.01910520  1.0
  C  C61  1  0.20991314  0.62462548  0.01951592  1.0
  N  N62  1  0.34196266  0.99726265  0.44315278  1.0
  N  N63  1  0.33881288  0.98767862  0.58557334  1.0
  N  N64  1  0.21425640  0.99354745  0.51157279  1.0
  N  N65  1  0.78745952  0.99517034  0.51153735  1.0
  N  N66  1  0.66303488  0.99134305  0.58549265  1.0
  N  N67  1  0.65966466  0.99574660  0.44451176  1.0
  N  N68  1  0.21344698  0.48606934  0.02253486  1.0
  N  N69  1  0.33712635  0.56014817  0.02095658  1.0
  N  N70  1  0.34197787  0.41912963  0.02490105  1.0
  N  N71  1  0.78646469  0.48980540  0.02085832  1.0
  N  N72  1  0.66134935  0.56281953  0.01785111  1.0
  N  N73  1  0.65926728  0.42034483  0.02687650  1.0
  O  O74  1  0.14367328  0.78523528  0.07819559  1.0
  O  O75  1  0.07999151  0.78976669  0.95901874  1.0
  O  O76  1  0.84356146  0.93893745  0.21139981  1.0
  O  O77  1  0.91083562  0.05622900  0.20732071  1.0
  O  O78  1  0.84503963  0.79622631  0.06603151  1.0
  O  O79  1  0.91668022  0.79499602  0.95280630  1.0
  O  O80  1  0.15882810  0.94416758  0.20817167  1.0
  O  O81  1  0.08231854  0.05370550  0.21250097  1.0
  O  O82  1  0.07085121  0.79954674  0.21176509  1.0
  O  O83  1  0.23800958  0.92579884  0.08234581  1.0
  O  O84  1  0.91825979  0.79495088  0.20763245  1.0
  O  O85  1  0.76289632  0.93562599  0.07317359  1.0
  O  O86  1  0.99656553  0.88063343  0.05002852  1.0
  O  O87  1  0.99827728  0.94218409  0.16520450  1.0
  O  O88  1  0.16283681  0.18327611  0.96685448  1.0
  O  O89  1  0.08809613  0.18583968  0.07782147  1.0
  O  O90  1  0.85828962  0.05545214  0.80635647  1.0
  O  O91  1  0.92244294  0.93562285  0.81206346  1.0
  O  O92  1  0.84197739  0.18773100  0.96515593  1.0
  O  O93  1  0.91820326  0.19086079  0.07472183  1.0
  O  O94  1  0.14809284  0.04863717  0.81073188  1.0
  O  O95  1  0.08568708  0.92808681  0.81822883  1.0
  O  O96  1  0.08203552  0.18643478  0.81685019  1.0
  O  O97  1  0.23733636  0.04908862  0.95286256  1.0
  O  O98  1  0.92860589  0.19002176  0.82076893  1.0
  O  O99  1  0.76288464  0.06146527  0.94731300  1.0
  O  O100  1  0.00363773  0.14465670  0.96176623  1.0
  O  O101  1  0.00392618  0.02694300  0.90390152  1.0
  O  O102  1  0.08835532  0.02792998  0.05350908  1.0
  O  O103  1  0.87784791  0.94709572  0.95845661  1.0
  O  O104  1  0.12463584  0.93819721  0.96789164  1.0
  O  O105  1  0.91038460  0.03226234  0.04976334  1.0
