# generated using pymatgen
data_AlH7C11SO6
_symmetry_space_group_name_H-M   'P 1'
_cell_length_a   6.61434380
_cell_length_b   10.95457004
_cell_length_c   12.37644737
_cell_angle_alpha   69.96501214
_cell_angle_beta   78.77562825
_cell_angle_gamma   75.09541613
_symmetry_Int_Tables_number   1
_chemical_formula_structural   AlH7C11SO6
_chemical_formula_sum   'Al2 H14 C22 S2 O12'
_cell_volume   808.52500274
_cell_formula_units_Z   2
loop_
 _symmetry_equiv_pos_site_id
 _symmetry_equiv_pos_as_xyz
  1  'x, y, z'
loop_
 _atom_site_type_symbol
 _atom_site_label
 _atom_site_symmetry_multiplicity
 _atom_site_fract_x
 _atom_site_fract_y
 _atom_site_fract_z
 _atom_site_occupancy
  Al  Al0  1  0.49755673  0.51236317  0.48303388  1.0
  Al  Al1  1  0.99576725  0.51227255  0.48664323  1.0
  H  H2  1  0.24767086  0.61285712  0.34114858  1.0
  H  H3  1  0.78212709  0.34429397  0.57646324  1.0
  H  H4  1  0.88672633  0.73715822  0.64821220  1.0
  H  H5  1  0.03160990  0.82281784  0.76903239  1.0
  H  H6  1  0.58559728  0.19136324  0.67170180  1.0
  H  H7  1  0.87942600  0.05260575  0.78140952  1.0
  H  H8  1  0.63703282  0.32583264  0.23868199  1.0
  H  H9  1  0.62879687  0.32830554  0.09460517  1.0
  H  H10  1  0.47167827  0.45835217  0.14793161  1.0
  H  H11  1  0.53554794  0.56071281  0.82775896  1.0
  H  H12  1  0.37423543  0.69749281  0.87013556  1.0
  H  H13  1  0.38112415  0.68820023  0.72814313  1.0
  H  H14  1  0.08348820  0.22745699  0.43138077  1.0
  H  H15  1  0.32808963  0.80269400  0.42487461  1.0
  C  C16  1  0.65252702  0.73677071  0.49439900  1.0
  C  C17  1  0.80734796  0.53563718  0.28138872  1.0
  C  C18  1  0.33501651  0.27451495  0.50570154  1.0
  C  C19  1  0.19257419  0.48997685  0.68561146  1.0
  C  C20  1  0.80110982  0.46390600  0.10504716  1.0
  C  C21  1  0.20506462  0.55818342  0.86314181  1.0
  C  C22  1  0.87579960  0.52859592  0.16369664  1.0
  C  C23  1  0.12826980  0.49488150  0.80403889  1.0
  C  C24  1  0.08410359  0.54619907  0.97275070  1.0
  C  C25  1  0.92266128  0.47543998  0.99562599  1.0
  C  C26  1  0.56063872  0.86450625  0.51742694  1.0
  C  C27  1  0.65700373  0.91641427  0.58372105  1.0
  C  C28  1  0.37103175  0.93835595  0.47216364  1.0
  C  C29  1  0.82350421  0.83807351  0.65024230  1.0
  C  C30  1  0.90466083  0.88638893  0.71855890  1.0
  C  C31  1  0.39848398  0.13032445  0.52490764  1.0
  C  C32  1  0.29124454  0.07294455  0.47473462  1.0
  C  C33  1  0.57325935  0.04907182  0.58882186  1.0
  C  C34  1  0.65650073  0.09397685  0.66223548  1.0
  C  C35  1  0.81999292  0.01515019  0.72528110  1.0
  C  C36  1  0.62587020  0.38983178  0.14894865  1.0
  C  C37  1  0.38232476  0.63047221  0.81994319  1.0
  S  S38  1  0.08903300  0.60031281  0.08714065  1.0
  S  S39  1  0.91554604  0.42285471  0.88069588  1.0
  O  O40  1  0.53260870  0.68907299  0.45407792  1.0
  O  O41  1  0.93763029  0.56422540  0.32895816  1.0
  O  O42  1  0.14929292  0.33531732  0.47457386  1.0
  O  O43  1  0.36832798  0.51924634  0.63430024  1.0
  O  O44  1  0.46569019  0.33508454  0.51712007  1.0
  O  O45  1  0.06462635  0.45620319  0.64072905  1.0
  O  O46  1  0.84165335  0.67759791  0.50959719  1.0
  O  O47  1  0.62548729  0.51281370  0.32884105  1.0
  O  O48  1  0.23695946  0.58320903  0.42515076  1.0
  O  O49  1  0.75757070  0.43965638  0.53980390  1.0
  O  O50  1  0.11907096  0.13718634  0.42097902  1.0
  O  O51  1  0.25603092  0.89705015  0.41941596  1.0
