# generated using pymatgen
data_ZnH10C24S3N4O19
_symmetry_space_group_name_H-M   'P 1'
_cell_length_a   11.82313957
_cell_length_b   13.03066869
_cell_length_c   23.55639469
_cell_angle_alpha   88.47224799
_cell_angle_beta   85.46569575
_cell_angle_gamma   86.37622694
_symmetry_Int_Tables_number   1
_chemical_formula_structural   ZnH10C24S3N4O19
_chemical_formula_sum   'Zn2 H20 C48 S6 N8 O38'
_cell_volume   3609.73025779
_cell_formula_units_Z   2
loop_
 _symmetry_equiv_pos_site_id
 _symmetry_equiv_pos_as_xyz
  1  'x, y, z'
loop_
 _atom_site_type_symbol
 _atom_site_label
 _atom_site_symmetry_multiplicity
 _atom_site_fract_x
 _atom_site_fract_y
 _atom_site_fract_z
 _atom_site_occupancy
  Zn  Zn0  1  0.61648653  0.50486620  0.49353086  1.0
  Zn  Zn1  1  0.37069809  0.49327866  0.50648075  1.0
  H  H2  1  0.51917755  0.76737363  0.94568164  1.0
  H  H3  1  0.60379997  0.24895884  0.04942612  1.0
  H  H4  1  0.69271164  0.41467614  0.21899485  1.0
  H  H5  1  0.67113180  0.61490987  0.76557304  1.0
  H  H6  1  0.35368041  0.18147843  0.50123822  1.0
  H  H7  1  0.62773810  0.81730312  0.49972681  1.0
  H  H8  1  0.25396082  0.01727164  0.49785884  1.0
  H  H9  1  0.72664466  0.98028984  0.50407258  1.0
  H  H10  1  0.80670428  0.39057142  0.54089900  1.0
  H  H11  1  0.17686604  0.61175052  0.46212172  1.0
  H  H12  1  0.77409982  0.64693309  0.43335711  1.0
  H  H13  1  0.21184917  0.34889955  0.56473586  1.0
  H  H14  1  0.00303814  0.32361282  0.57031917  1.0
  H  H15  1  0.98389099  0.67431670  0.42924283  1.0
  H  H16  1  0.56456600  0.93836313  0.00250286  1.0
  H  H17  1  0.73926177  0.11769295  0.99008056  1.0
  H  H18  1  0.36703251  0.66171608  0.41224150  1.0
  H  H19  1  0.42559221  0.32649579  0.59573624  1.0
  H  H20  1  0.27874498  0.70497592  0.21530005  1.0
  H  H21  1  0.35322543  0.27335377  0.79819751  1.0
  C  C22  1  0.46193348  0.69642341  0.49519432  1.0
  C  C23  1  0.52319738  0.30148894  0.50661621  1.0
  C  C24  1  0.49487949  0.49244932  0.39147722  1.0
  C  C25  1  0.50109857  0.50751295  0.60797454  1.0
  C  C26  1  0.58417331  0.42168752  0.87325235  1.0
  C  C27  1  0.55333380  0.59489963  0.12141662  1.0
  C  C28  1  0.53829111  0.61257611  0.87664263  1.0
  C  C29  1  0.56475353  0.40167296  0.11876154  1.0
  C  C30  1  0.54788374  0.60535915  0.93891478  1.0
  C  C31  1  0.57693057  0.41099601  0.05590105  1.0
  C  C32  1  0.56658302  0.50914325  0.96706506  1.0
  C  C33  1  0.56525106  0.50786209  0.02764812  1.0
  C  C34  1  0.58638123  0.41664238  0.93604372  1.0
  C  C35  1  0.55219488  0.60097226  0.05850628  1.0
  C  C36  1  0.53435329  0.69553820  0.96922666  1.0
  C  C37  1  0.59633820  0.32125069  0.02546335  1.0
  C  C38  1  0.53854559  0.69511101  0.02878755  1.0
  C  C39  1  0.60474733  0.32298582  0.96559491  1.0
  C  C40  1  0.61320995  0.44671320  0.23964370  1.0
  C  C41  1  0.60339780  0.57201393  0.75093065  1.0
  C  C42  1  0.59342195  0.44123934  0.29816363  1.0
  C  C43  1  0.58417994  0.57232050  0.69377692  1.0
  C  C44  1  0.49745815  0.48981313  0.32722744  1.0
  C  C45  1  0.50506629  0.51123583  0.67197631  1.0
  C  C46  1  0.41506279  0.53886660  0.29442401  1.0
  C  C47  1  0.43821786  0.45298170  0.71111735  1.0
  C  C48  1  0.42471563  0.53081498  0.23443778  1.0
  C  C49  1  0.44406118  0.46388154  0.77037503  1.0
  C  C50  1  0.52807539  0.49123954  0.20771884  1.0
  C  C51  1  0.53249238  0.51816271  0.78936138  1.0
  C  C52  1  0.53212279  0.18693910  0.50713787  1.0
  C  C53  1  0.44889153  0.81062853  0.49794757  1.0
  C  C54  1  0.33629731  0.97458160  0.49791062  1.0
  C  C55  1  0.64461091  0.02323606  0.50328004  1.0
  C  C56  1  0.34336677  0.86889795  0.49778762  1.0
  C  C57  1  0.63756041  0.12823783  0.50753810  1.0
  C  C58  1  0.54713294  0.86254592  0.49909158  1.0
  C  C59  1  0.43412223  0.13616538  0.50279145  1.0
  C  C60  1  0.54410791  0.97059285  0.50033045  1.0
  C  C61  1  0.43668003  0.02785685  0.49989636  1.0
  C  C62  1  0.03881036  0.38752661  0.54575619  1.0
  C  C63  1  0.94730923  0.61134498  0.45430390  1.0
  C  C64  1  0.15344358  0.40055665  0.54263812  1.0
  C  C65  1  0.83291829  0.59711170  0.45650417  1.0
  C  C66  1  0.13601131  0.54903733  0.48524184  1.0
  C  C67  1  0.84910953  0.45185110  0.51677969  1.0
  C  C68  1  0.01742926  0.54144626  0.48489187  1.0
  C  C69  1  0.96793661  0.45863390  0.51642115  1.0
  S  S70  1  0.52343859  0.81916370  0.06375775  1.0
  S  S71  1  0.64002825  0.20134379  0.92998740  1.0
  S  S72  1  0.30695663  0.62823165  0.32885840  1.0
  S  S73  1  0.35806477  0.35100061  0.68450656  1.0
  S  S74  1  0.29953566  0.55003548  0.19379078  1.0
  S  S75  1  0.32703617  0.42742293  0.82068421  1.0
  N  N76  1  0.55378143  0.51850393  0.84829231  1.0
  N  N77  1  0.54952300  0.49532199  0.14718373  1.0
  N  N78  1  0.78542269  0.51872150  0.48786636  1.0
  N  N79  1  0.20080381  0.48073062  0.51267323  1.0
  N  N80  1  0.67887523  0.38080789  0.32988400  1.0
  N  N81  1  0.65186853  0.64093542  0.65552478  1.0
  N  N82  1  0.74319964  0.17657316  0.51809810  1.0
  N  N83  1  0.23504143  0.81702158  0.50089959  1.0
  O  O84  1  0.55681156  0.65475873  0.50592304  1.0
  O  O85  1  0.42792582  0.34367861  0.52832314  1.0
  O  O86  1  0.37675722  0.64816301  0.48072016  1.0
  O  O87  1  0.60533892  0.34894829  0.48469025  1.0
  O  O88  1  0.58335673  0.52556769  0.41000314  1.0
  O  O89  1  0.40580597  0.52846911  0.58791619  1.0
  O  O90  1  0.40829444  0.46173600  0.42054699  1.0
  O  O91  1  0.59527461  0.48365135  0.58057940  1.0
  O  O92  1  0.60500057  0.34673282  0.84312239  1.0
  O  O93  1  0.55632682  0.66988779  0.15120047  1.0
  O  O94  1  0.51721044  0.69351211  0.85074272  1.0
  O  O95  1  0.56704409  0.31902575  0.14496273  1.0
  O  O96  1  0.41963817  0.82398923  0.09926127  1.0
  O  O97  1  0.63182482  0.84270561  0.08225963  1.0
  O  O98  1  0.50011850  0.89462355  0.00962810  1.0
  O  O99  1  0.54155179  0.16695901  0.90661920  1.0
  O  O100  1  0.75044721  0.20553165  0.90010916  1.0
  O  O101  1  0.65762218  0.12368165  0.98493026  1.0
  O  O102  1  0.64208101  0.31391187  0.36342743  1.0
  O  O103  1  0.77958731  0.39921125  0.31906398  1.0
  O  O104  1  0.59858781  0.69837684  0.62297370  1.0
  O  O105  1  0.75544455  0.63796146  0.66020215  1.0
  O  O106  1  0.28063942  0.70781422  0.28723869  1.0
  O  O107  1  0.21757435  0.57636727  0.36012396  1.0
  O  O108  1  0.38150471  0.68203397  0.37053271  1.0
  O  O109  1  0.35584987  0.26951608  0.72739050  1.0
  O  O110  1  0.25502906  0.39028939  0.66134729  1.0
  O  O111  1  0.44574422  0.30724084  0.63614876  1.0
  O  O112  1  0.32244474  0.49887109  0.14058807  1.0
  O  O113  1  0.20726549  0.52148760  0.23320710  1.0
  O  O114  1  0.29064452  0.66822987  0.17826681  1.0
  O  O115  1  0.33389297  0.48010519  0.87288025  1.0
  O  O116  1  0.22827872  0.44320517  0.78898212  1.0
  O  O117  1  0.35376901  0.31031878  0.83505650  1.0
  O  O118  1  0.73894436  0.23264718  0.56005350  1.0
  O  O119  1  0.82897209  0.15442191  0.48627735  1.0
  O  O120  1  0.18243964  0.81981541  0.45738649  1.0
  O  O121  1  0.20425338  0.77732142  0.54723241  1.0
