# generated using pymatgen
data_Zn2H12C36N8ClF7
_symmetry_space_group_name_H-M   'P 1'
_cell_length_a   19.56924150
_cell_length_b   19.79225239
_cell_length_c   19.83243831
_cell_angle_alpha   106.05085757
_cell_angle_beta   110.90974312
_cell_angle_gamma   110.89400605
_symmetry_Int_Tables_number   1
_chemical_formula_structural   Zn2H12C36N8ClF7
_chemical_formula_sum   'Zn4 H24 C72 N16 Cl2 F14'
_cell_volume   5943.10804550
_cell_formula_units_Z   2
loop_
 _symmetry_equiv_pos_site_id
 _symmetry_equiv_pos_as_xyz
  1  'x, y, z'
loop_
 _atom_site_type_symbol
 _atom_site_label
 _atom_site_symmetry_multiplicity
 _atom_site_fract_x
 _atom_site_fract_y
 _atom_site_fract_z
 _atom_site_occupancy
  Zn  Zn0  1  0.88662544  0.99936345  0.39450258  1.0
  Zn  Zn1  1  0.10236352  0.99471531  0.59934656  1.0
  Zn  Zn2  1  0.10077200  0.10269208  0.50022409  1.0
  Zn  Zn3  1  0.89069074  0.89242136  0.49633629  1.0
  H  H4  1  0.40977333  0.39047607  0.98242980  1.0
  H  H5  1  0.59959781  0.01347219  0.58319707  1.0
  H  H6  1  0.06575182  0.79886869  0.03548155  1.0
  H  H7  1  0.92822608  0.95181956  0.95777778  1.0
  H  H8  1  0.91724898  0.73596654  0.88520955  1.0
  H  H9  1  0.07670980  0.01485760  0.10845230  1.0
  H  H10  1  0.30442470  0.18087218  0.53966540  1.0
  H  H11  1  0.87548465  0.99792407  0.64096032  1.0
  H  H12  1  0.70141681  0.72721196  0.36282548  1.0
  H  H13  1  0.12806186  0.26357045  0.63368995  1.0
  H  H14  1  0.69124183  0.87147635  0.23445229  1.0
  H  H15  1  0.34227407  0.60966051  0.03185655  1.0
  H  H16  1  0.12739625  0.11789010  0.76172811  1.0
  H  H17  1  0.13610175  0.99598131  0.38006460  1.0
  H  H18  1  0.85658492  0.83498995  0.63238352  1.0
  H  H19  1  0.49572850  0.54073989  0.98267522  1.0
  H  H20  1  0.25670437  0.45972810  0.03216016  1.0
  H  H21  1  0.09151802  0.46328289  0.29500604  1.0
  H  H22  1  0.89816354  0.49352496  0.38925889  1.0
  H  H23  1  0.85159229  0.35908557  0.24789372  1.0
  H  H24  1  0.13854132  0.59768910  0.43648722  1.0
  H  H25  1  0.75590501  0.21252067  0.80144044  1.0
  H  H26  1  0.52944916  0.10098953  0.52021333  1.0
  H  H27  1  0.68652121  0.29971809  0.73828324  1.0
  C  C28  1  0.92945720  0.90526108  0.28525422  1.0
  C  C29  1  0.35682200  0.56066234  0.02095042  1.0
  C  C30  1  0.44250154  0.52214478  0.99335343  1.0
  C  C31  1  0.30950280  0.47781844  0.02084208  1.0
  C  C32  1  0.58387722  0.70262669  0.20252071  1.0
  C  C33  1  0.18895189  0.29312125  0.80464600  1.0
  C  C34  1  0.39672843  0.48649762  0.07158997  1.0
  C  C35  1  0.35551799  0.51376039  0.94287016  1.0
  C  C36  1  0.44636669  0.57135202  0.07441070  1.0
  C  C37  1  0.30581652  0.42879980  0.93997020  1.0
  C  C38  1  0.51900299  0.64267045  0.14342663  1.0
  C  C39  1  0.06249083  0.93719485  0.71961542  1.0
  C  C40  1  0.23810656  0.35602257  0.86877566  1.0
  C  C41  1  0.04905008  0.47027875  0.31648701  1.0
  C  C42  1  0.94075446  0.48606979  0.36821067  1.0
  C  C43  1  0.06700497  0.83931085  0.46953958  1.0
  C  C44  1  0.92549527  0.14499948  0.35480454  1.0
  C  C45  1  0.96808521  0.47281873  0.26812812  1.0
  C  C46  1  0.02198861  0.48459243  0.41682646  1.0
  C  C47  1  0.99454278  0.68721284  0.37793639  1.0
  C  C48  1  0.99644845  0.28088459  0.35516954  1.0
  C  C49  1  0.07504203  0.54434528  0.39450951  1.0
  C  C50  1  0.99626963  0.76067318  0.41071904  1.0
  C  C51  1  0.91506210  0.41240527  0.29021915  1.0
  C  C52  1  0.99380279  0.54906041  0.34597691  1.0
  C  C53  1  0.99625315  0.40807087  0.33932668  1.0
  C  C54  1  0.99370862  0.62272240  0.35661937  1.0
  C  C55  1  0.99670753  0.33764797  0.34207706  1.0
  C  C56  1  0.66722696  0.23609212  0.70411446  1.0
  C  C57  1  0.61798786  0.07683829  0.61705377  1.0
  C  C58  1  0.70603993  0.18795668  0.73884319  1.0
  C  C59  1  0.58008533  0.12505384  0.58228012  1.0
  C  C60  1  0.82002577  0.11963566  0.63021477  1.0
  C  C61  1  0.99549143  0.21766795  0.37424218  1.0
  C  C62  1  0.42800295  0.14525984  0.64123071  1.0
  C  C63  1  0.67092276  0.19978490  0.62594635  1.0
  C  C64  1  0.61488012  0.11331073  0.69531286  1.0
  C  C65  1  0.71180369  0.15164223  0.66013223  1.0
  C  C66  1  0.57370746  0.16096327  0.66067088  1.0
  C  C67  1  0.28996274  0.14334272  0.56905596  1.0
  C  C68  1  0.87843399  0.02550682  0.60101291  1.0
  C  C69  1  0.77660200  0.14091682  0.65152767  1.0
  C  C70  1  0.49881245  0.15847505  0.65556316  1.0
  C  C71  1  0.95300903  0.79779858  0.93514193  1.0
  C  C72  1  0.34424318  0.12502507  0.62005492  1.0
  C  C73  1  0.04105393  0.95315686  0.05831969  1.0
  C  C74  1  0.03488759  0.83254437  0.01818730  1.0
  C  C75  1  0.95910880  0.91834497  0.97567615  1.0
  C  C76  1  0.00098529  0.88915950  0.20351248  1.0
  C  C77  1  0.99478084  0.88910933  0.79762884  1.0
  C  C78  1  0.91768329  0.83859885  0.98160609  1.0
  C  C79  1  0.07633702  0.91226425  0.01204535  1.0
  C  C80  1  0.99900892  0.87309124  0.06680494  1.0
  C  C81  1  0.99512010  0.87793217  0.92694042  1.0
  C  C82  1  0.99998856  0.87568493  0.13919589  1.0
  C  C83  1  0.85934099  0.08688357  0.59534916  1.0
  C  C84  1  0.99470562  0.88253099  0.85695662  1.0
  C  C85  1  0.71221028  0.77436879  0.34349078  1.0
  C  C86  1  0.12181430  0.21601573  0.65227320  1.0
  C  C87  1  0.29050696  0.07535516  0.63935781  1.0
  C  C88  1  0.87546361  0.09695763  0.53404955  1.0
  C  C89  1  0.70680036  0.84802757  0.27768478  1.0
  C  C90  1  0.12145322  0.14142024  0.71784343  1.0
  C  C91  1  0.92853999  0.77357101  0.40425050  1.0
  C  C92  1  0.06375702  0.21229971  0.42350146  1.0
  C  C93  1  0.06844809  0.97037623  0.35692320  1.0
  C  C94  1  0.66081439  0.77021018  0.26974587  1.0
  C  C95  1  0.92366373  0.86955916  0.65301617  1.0
  C  C96  1  0.00021301  0.91513456  0.27662313  1.0
  C  C97  1  0.99379276  0.89747351  0.72932664  1.0
  C  C98  1  0.14315649  0.22158451  0.73020534  1.0
  C  C99  1  0.39557218  0.43969381  0.99367167  1.0
  N  N100  1  0.95209732  0.95067606  0.36169426  1.0
  N  N101  1  0.90000186  0.04649810  0.50496417  1.0
  N  N102  1  0.77924434  0.89415077  0.34997516  1.0
  N  N103  1  0.09146662  0.09323162  0.63921414  1.0
  N  N104  1  0.95484049  0.85013458  0.45331008  1.0
  N  N105  1  0.03870559  0.14529805  0.43285029  1.0
  N  N106  1  0.03898797  0.99130505  0.40635481  1.0
  N  N107  1  0.94972686  0.89111283  0.60419886  1.0
  N  N108  1  0.03748475  0.93385959  0.64631305  1.0
  N  N109  1  0.04217176  0.89166348  0.49477284  1.0
  N  N110  1  0.95082944  0.10246913  0.38921907  1.0
  N  N111  1  0.21234339  0.10717630  0.55968926  1.0
  N  N112  1  0.90185220  0.00198456  0.54682522  1.0
  N  N113  1  0.78274998  0.84832937  0.39096614  1.0
  N  N114  1  0.09178892  0.13903070  0.59905905  1.0
  N  N115  1  0.21260039  0.06397846  0.60383757  1.0
  Cl  Cl116  1  0.17091822  0.86729899  0.50749381  1.0
  Cl  Cl117  1  0.82052700  0.11032558  0.29703545  1.0
  F  F118  1  0.84757658  0.85954993  0.22671997  1.0
  F  F119  1  0.83604329  0.80055026  0.96584115  1.0
  F  F120  1  0.30905642  0.03995063  0.68631531  1.0
  F  F121  1  0.86712613  0.14784639  0.50348693  1.0
  F  F122  1  0.84558842  0.71807219  0.35750677  1.0
  F  F123  1  0.14689439  0.26562411  0.46003349  1.0
  F  F124  1  0.14563916  0.97631912  0.77408277  1.0
  F  F125  1  0.33395271  0.52749007  0.87636725  1.0
  F  F126  1  0.41831681  0.47277847  0.13816796  1.0
  F  F127  1  0.94028916  0.46633722  0.19148898  1.0
  F  F128  1  0.04979211  0.48993746  0.49288619  1.0
  F  F129  1  0.58586245  0.06900954  0.73111676  1.0
  F  F130  1  0.69977572  0.24440428  0.59032108  1.0
  F  F131  1  0.15788108  0.95026825  0.02757246  1.0
