# generated using pymatgen
data_AlH9C17O5F4
_symmetry_space_group_name_H-M   'P 1'
_cell_length_a   6.66058347
_cell_length_b   23.12964619
_cell_length_c   26.54203492
_cell_angle_alpha   78.02540340
_cell_angle_beta   89.99949450
_cell_angle_gamma   89.99946462
_symmetry_Int_Tables_number   1
_chemical_formula_structural   AlH9C17O5F4
_chemical_formula_sum   'Al4 H36 C68 O20 F16'
_cell_volume   4000.00707053
_cell_formula_units_Z   4
loop_
 _symmetry_equiv_pos_site_id
 _symmetry_equiv_pos_as_xyz
  1  'x, y, z'
loop_
 _atom_site_type_symbol
 _atom_site_label
 _atom_site_symmetry_multiplicity
 _atom_site_fract_x
 _atom_site_fract_y
 _atom_site_fract_z
 _atom_site_occupancy
  Al  Al0  1  0.86763408  0.50068174  0.50027779  1.0
  Al  Al1  1  0.36764497  0.49931438  0.49972124  1.0
  Al  Al2  1  0.31956509  0.99920852  0.99969547  1.0
  Al  Al3  1  0.81956623  0.00078871  0.00030480  1.0
  H  H4  1  0.76109563  0.11952497  0.09533141  1.0
  H  H5  1  0.26107897  0.88048085  0.90466544  1.0
  H  H6  1  0.79417311  0.18621305  0.25034701  1.0
  H  H7  1  0.29416687  0.81378708  0.74966059  1.0
  H  H8  1  0.81807267  0.25128595  0.31256962  1.0
  H  H9  1  0.31808144  0.74872122  0.68743250  1.0
  H  H10  1  0.37260223  0.24804744  0.18818261  1.0
  H  H11  1  0.87259187  0.75195467  0.81182252  1.0
  H  H12  1  0.87863265  0.16159339  0.75241743  1.0
  H  H13  1  0.37869252  0.83841312  0.24757996  1.0
  H  H14  1  0.13322470  0.15155794  0.73706887  1.0
  H  H15  1  0.63326810  0.84843705  0.26292984  1.0
  H  H16  1  0.08042281  0.22515167  0.66287121  1.0
  H  H17  1  0.58041709  0.77484355  0.33712298  1.0
  H  H18  1  0.84719423  0.24579903  0.68592326  1.0
  H  H19  1  0.34721003  0.75420787  0.31407151  1.0
  H  H20  1  0.05501788  0.34724808  0.76595395  1.0
  H  H21  1  0.55502015  0.65275643  0.23405175  1.0
  H  H22  1  0.33856877  0.25815128  0.81416055  1.0
  H  H23  1  0.83861027  0.74185310  0.18584117  1.0
  H  H24  1  0.39947140  0.31786823  0.73249254  1.0
  H  H25  1  0.89949727  0.68212266  0.26750763  1.0
  H  H26  1  0.42723259  0.38028586  0.40548266  1.0
  H  H27  1  0.92720570  0.61971991  0.59451004  1.0
  H  H28  1  0.79998872  0.35097836  0.31337433  1.0
  H  H29  1  0.30002291  0.64903174  0.68662011  1.0
  H  H30  1  0.39022526  0.14865228  0.18664366  1.0
  H  H31  1  0.89023452  0.85134206  0.81336572  1.0
  H  H32  1  0.79256819  0.24277377  0.79757268  1.0
  H  H33  1  0.29261440  0.75722592  0.20243300  1.0
  H  H34  1  0.39646276  0.31302579  0.25046513  1.0
  H  H35  1  0.89648392  0.68697667  0.74954111  1.0
  H  H36  1  0.62041300  0.42383596  0.52377439  1.0
  H  H37  1  0.12039436  0.57615053  0.47622517  1.0
  H  H38  1  0.56605420  0.07733250  0.98114976  1.0
  H  H39  1  0.06606598  0.92266417  0.01884522  1.0
  C  C40  1  0.57039839  0.92275084  0.07697718  1.0
  C  C41  1  0.07038770  0.07724879  0.92302199  1.0
  C  C42  1  0.61699208  0.57692032  0.42263702  1.0
  C  C43  1  0.11704411  0.42307568  0.57736056  1.0
  C  C44  1  0.61558056  0.56292602  0.56241734  1.0
  C  C45  1  0.11560002  0.43707733  0.43757826  1.0
  C  C46  1  0.24983691  0.10780179  0.13077579  1.0
  C  C47  1  0.74982916  0.89220011  0.86922649  1.0
  C  C48  1  0.25054629  0.14358931  0.16671791  1.0
  C  C49  1  0.75053557  0.85641416  0.83328321  1.0
  C  C50  1  0.07549157  0.17243859  0.17773726  1.0
  C  C51  1  0.57547681  0.82756567  0.82226264  1.0
  C  C52  1  0.90192829  0.16175185  0.15102841  1.0
  C  C53  1  0.40190932  0.83825006  0.84897283  1.0
  C  C54  1  0.89959441  0.12617915  0.11512623  1.0
  C  C55  1  0.39957845  0.87382891  0.88487074  1.0
  C  C56  1  0.07621401  0.09849069  0.10348715  1.0
  C  C57  1  0.57619119  0.90152140  0.89650500  1.0
  C  C58  1  0.92563699  0.21434080  0.24977400  1.0
  C  C59  1  0.42564542  0.78566215  0.75022718  1.0
  C  C60  1  0.93912748  0.25118674  0.28488282  1.0
  C  C61  1  0.43914355  0.74881423  0.71511797  1.0
  C  C62  1  0.10847531  0.28727502  0.28607206  1.0
  C  C63  1  0.60850381  0.71272870  0.71392932  1.0
  C  C64  1  0.26499287  0.28494030  0.25099515  1.0
  C  C65  1  0.76501588  0.71506580  0.74900439  1.0
  C  C66  1  0.25152490  0.24807224  0.21589418  1.0
  C  C67  1  0.75150723  0.75192594  0.78411120  1.0
  C  C68  1  0.08201394  0.21207925  0.21463788  1.0
  C  C69  1  0.58200285  0.78792469  0.78536547  1.0
  C  C70  1  0.28761605  0.33790489  0.34965415  1.0
  C  C71  1  0.78760946  0.66209359  0.65034155  1.0
  C  C72  1  0.28923979  0.37357935  0.38546869  1.0
  C  C73  1  0.78922268  0.62642375  0.61452390  1.0
  C  C74  1  0.11224687  0.40138470  0.39674219  1.0
  C  C75  1  0.61223460  0.59862385  0.60324953  1.0
  C  C76  1  0.93925253  0.39212262  0.36922619  1.0
  C  C77  1  0.43926323  0.60788895  0.63076798  1.0
  C  C78  1  0.93916022  0.35608541  0.33347969  1.0
  C  C79  1  0.43919039  0.64392147  0.66651606  1.0
  C  C80  1  0.11440012  0.32710786  0.32282055  1.0
  C  C81  1  0.61442781  0.67289615  0.67718158  1.0
  C  C82  1  0.30433724  0.23452725  0.78322108  1.0
  C  C83  1  0.80434179  0.76546093  0.21678428  1.0
  C  C84  1  0.02296444  0.18437014  0.74369931  1.0
  C  C85  1  0.52299363  0.81562889  0.25629727  1.0
  C  C86  1  0.00473692  0.23583391  0.69643579  1.0
  C  C87  1  0.50475287  0.76416213  0.30355815  1.0
  C  C88  1  0.11461232  0.37799339  0.62400642  1.0
  C  C89  1  0.61458195  0.62200299  0.37599885  1.0
  C  C90  1  0.09173900  0.20744294  0.79193778  1.0
  C  C91  1  0.59176857  0.79255373  0.20805984  1.0
  C  C92  1  0.31605536  0.27760344  0.72990741  1.0
  C  C93  1  0.81609009  0.72238673  0.27009907  1.0
  C  C94  1  0.10109176  0.29255795  0.70840217  1.0
  C  C95  1  0.60111238  0.70743757  0.29160082  1.0
  C  C96  1  0.97876288  0.31131992  0.75201031  1.0
  C  C97  1  0.47880000  0.68868534  0.24798999  1.0
  C  C98  1  0.94854286  0.25858363  0.79693179  1.0
  C  C99  1  0.44855235  0.74141838  0.20306667  1.0
  C  C100  1  0.10786684  0.33954991  0.66277723  1.0
  C  C101  1  0.60787215  0.66044194  0.33722309  1.0
  C  C102  1  0.08302859  0.16116111  0.83797388  1.0
  C  C103  1  0.58303457  0.83883662  0.16202644  1.0
  C  C104  1  0.07355366  0.12237992  0.87644805  1.0
  C  C105  1  0.57358774  0.87761937  0.12355458  1.0
  C  C106  1  0.57195041  0.93727073  0.93734450  1.0
  C  C107  1  0.07196905  0.06273447  0.06265117  1.0
  O  O108  1  0.44721545  0.54933223  0.54560350  1.0
  O  O109  1  0.94723735  0.45065890  0.45440465  1.0
  O  O110  1  0.78798226  0.56027907  0.44156413  1.0
  O  O111  1  0.28802546  0.43970750  0.55842128  1.0
  O  O112  1  0.78788669  0.55047761  0.54665550  1.0
  O  O113  1  0.28791384  0.44953198  0.45333512  1.0
  O  O114  1  0.94666581  0.44144921  0.55915639  1.0
  O  O115  1  0.44661592  0.55854869  0.44084864  1.0
  O  O116  1  0.23988981  0.04904028  0.04569358  1.0
  O  O117  1  0.73987410  0.95095566  0.95430800  1.0
  O  O118  1  0.61846180  0.46429943  0.50449633  1.0
  O  O119  1  0.11843900  0.53569119  0.49550590  1.0
  O  O120  1  0.39919653  0.93916576  0.05804712  1.0
  O  O121  1  0.89917760  0.06083164  0.94194915  1.0
  O  O122  1  0.56863623  0.03540189  0.99600601  1.0
  O  O123  1  0.06862766  0.96459471  0.00398935  1.0
  O  O124  1  0.74084810  0.94123640  0.05891197  1.0
  O  O125  1  0.24083155  0.05876180  0.94108920  1.0
  O  O126  1  0.39937253  0.94970742  0.95295725  1.0
  O  O127  1  0.89938895  0.05029378  0.04704323  1.0
  F  F128  1  0.42564055  0.08079376  0.12386407  1.0
  F  F129  1  0.92561634  0.91921804  0.87613435  1.0
  F  F130  1  0.76349092  0.41942829  0.37568356  1.0
  F  F131  1  0.26351359  0.58058569  0.62431361  1.0
  F  F132  1  0.42116333  0.25084664  0.69503659  1.0
  F  F133  1  0.92117392  0.74915827  0.30496536  1.0
  F  F134  1  0.45003339  0.19032013  0.78600524  1.0
  F  F135  1  0.95004053  0.80967045  0.21399406  1.0
  F  F136  1  0.98280582  0.27713634  0.84355848  1.0
  F  F137  1  0.48279541  0.72286099  0.15643879  1.0
  F  F138  1  0.79009215  0.33340292  0.73323758  1.0
  F  F139  1  0.29012842  0.66659429  0.26675621  1.0
  F  F140  1  0.72610505  0.18930088  0.15937408  1.0
  F  F141  1  0.22608619  0.81069851  0.84062904  1.0
  F  F142  1  0.46350385  0.31025198  0.34162836  1.0
  F  F143  1  0.96351066  0.68973053  0.65837828  1.0
