# generated using pymatgen
data_ZnH8C23Br2NO6
_symmetry_space_group_name_H-M   'P 1'
_cell_length_a   14.47173088
_cell_length_b   14.52625265
_cell_length_c   15.70495414
_cell_angle_alpha   89.75082176
_cell_angle_beta   80.31204328
_cell_angle_gamma   74.40978609
_symmetry_Int_Tables_number   1
_chemical_formula_structural   ZnH8C23Br2NO6
_chemical_formula_sum   'Zn2 H16 C46 Br4 N2 O12'
_cell_volume   3131.77137317
_cell_formula_units_Z   2
loop_
 _symmetry_equiv_pos_site_id
 _symmetry_equiv_pos_as_xyz
  1  'x, y, z'
loop_
 _atom_site_type_symbol
 _atom_site_label
 _atom_site_symmetry_multiplicity
 _atom_site_fract_x
 _atom_site_fract_y
 _atom_site_fract_z
 _atom_site_occupancy
  Zn  Zn0  1  0.39862310  0.53034726  0.48237092  1.0
  Zn  Zn1  1  0.59307778  0.46971311  0.51384472  1.0
  H  H2  1  0.23430278  0.57892911  0.05802819  1.0
  H  H3  1  0.74010470  0.31349948  0.94357220  1.0
  H  H4  1  0.45856347  0.50487455  0.21844428  1.0
  H  H5  1  0.53099118  0.43902442  0.77693526  1.0
  H  H6  1  0.75235890  0.36214092  0.24382663  1.0
  H  H7  1  0.23844922  0.58185276  0.75011200  1.0
  H  H8  1  0.35678021  0.52843615  0.14934198  1.0
  H  H9  1  0.61790437  0.36730200  0.85181437  1.0
  H  H10  1  0.04630015  0.27336630  0.61755946  1.0
  H  H11  1  0.99215313  0.61951489  0.28774330  1.0
  H  H12  1  0.21836223  0.48543727  0.53873826  1.0
  H  H13  1  0.76064982  0.54030637  0.48230572  1.0
  H  H14  1  0.30884188  0.64359046  0.33845347  1.0
  H  H15  1  0.69715769  0.32205296  0.62944924  1.0
  H  H16  1  0.32107052  0.32104588  0.48268845  1.0
  H  H17  1  0.75901978  0.47397040  0.33479459  1.0
  C  C18  1  0.42192595  0.50403672  0.65984800  1.0
  C  C19  1  0.57490646  0.46860197  0.33288620  1.0
  C  C20  1  0.43108595  0.48023274  0.89908150  1.0
  C  C21  1  0.55074707  0.43721999  0.09901030  1.0
  C  C22  1  0.33292317  0.52915480  0.93726165  1.0
  C  C23  1  0.64721344  0.38251035  0.06153964  1.0
  C  C24  1  0.50243415  0.44453924  0.95445815  1.0
  C  C25  1  0.47709694  0.46554841  0.04469359  1.0
  C  C26  1  0.37862124  0.51428241  0.07982543  1.0
  C  C27  1  0.59856658  0.38814444  0.92037375  1.0
  C  C28  1  0.30909173  0.54312564  0.02876549  1.0
  C  C29  1  0.66769202  0.35735375  0.97157368  1.0
  C  C30  1  0.84885681  0.32283288  0.61361719  1.0
  C  C31  1  0.16865837  0.61828333  0.33399339  1.0
  C  C32  1  0.75375941  0.35477103  0.60040050  1.0
  C  C33  1  0.25288514  0.60989590  0.36715563  1.0
  C  C34  1  0.79093133  0.47402006  0.51258424  1.0
  C  C35  1  0.20414958  0.51667127  0.47752129  1.0
  C  C36  1  0.89136627  0.43871316  0.51283338  1.0
  C  C37  1  0.12123440  0.51298262  0.44340897  1.0
  C  C38  1  0.92159955  0.36363105  0.56953955  1.0
  C  C39  1  0.09856504  0.57101375  0.37214789  1.0
  C  C40  1  0.49814155  0.31390583  0.48910147  1.0
  C  C41  1  0.50144236  0.67680961  0.49631401  1.0
  C  C42  1  0.96236728  0.47811605  0.46065247  1.0
  C  C43  1  0.05739297  0.45685254  0.48091049  1.0
  C  C44  1  0.08711522  0.37881330  0.53624149  1.0
  C  C45  1  0.94161967  0.53555325  0.38739110  1.0
  C  C46  1  0.02127787  0.33345839  0.57769784  1.0
  C  C47  1  0.00881210  0.57826013  0.34398615  1.0
  C  C48  1  0.50302702  0.21362911  0.48838674  1.0
  C  C49  1  0.50687445  0.77440476  0.49501453  1.0
  C  C50  1  0.50493383  0.12866465  0.48925251  1.0
  C  C51  1  0.50781406  0.85858131  0.49373333  1.0
  C  C52  1  0.50676137  0.03598748  0.49053983  1.0
  C  C53  1  0.50786831  0.95078302  0.49204394  1.0
  C  C54  1  0.38877289  0.50890810  0.75557105  1.0
  C  C55  1  0.60182875  0.43877298  0.23918539  1.0
  C  C56  1  0.26488444  0.56326251  0.88097115  1.0
  C  C57  1  0.71761348  0.35651993  0.11683654  1.0
  C  C58  1  0.29104879  0.55389622  0.79223808  1.0
  C  C59  1  0.69677119  0.38405669  0.20342515  1.0
  C  C60  1  0.45650201  0.47199236  0.80835962  1.0
  C  C61  1  0.53067098  0.46342077  0.18771664  1.0
  C  C62  1  0.19153765  0.33815181  0.54803700  1.0
  C  C63  1  0.84891638  0.54828972  0.35104321  1.0
  Br  Br64  1  0.13245609  0.62694376  0.92795018  1.0
  Br  Br65  1  0.84646632  0.28106083  0.07197363  1.0
  Br  Br66  1  0.87917755  0.22378646  0.69156731  1.0
  Br  Br67  1  0.14907606  0.69431098  0.23682619  1.0
  N  N68  1  0.72589910  0.43132117  0.55174601  1.0
  N  N69  1  0.26819142  0.56133780  0.43985483  1.0
  O  O70  1  0.35845997  0.53657280  0.61174437  1.0
  O  O71  1  0.64255447  0.46818319  0.37640091  1.0
  O  O72  1  0.51270199  0.46870134  0.63289744  1.0
  O  O73  1  0.48454863  0.49147361  0.36449182  1.0
  O  O74  1  0.41404532  0.37222218  0.48973196  1.0
  O  O75  1  0.57343118  0.61444463  0.51765492  1.0
  O  O76  1  0.57752433  0.33560155  0.48888027  1.0
  O  O77  1  0.42456162  0.66259032  0.47640824  1.0
  O  O78  1  0.21414376  0.32320422  0.61940654  1.0
  O  O79  1  0.25384793  0.32122174  0.47245840  1.0
  O  O80  1  0.79796003  0.62700657  0.33776548  1.0
  O  O81  1  0.83064004  0.46436036  0.33587529  1.0
