# generated using pymatgen
data_Zn4H34C46O13
_symmetry_space_group_name_H-M   'P 1'
_cell_length_a   15.11980850
_cell_length_b   15.17658678
_cell_length_c   19.63524183
_cell_angle_alpha   88.97519662
_cell_angle_beta   88.38474945
_cell_angle_gamma   88.90119012
_symmetry_Int_Tables_number   1
_chemical_formula_structural   Zn4H34C46O13
_chemical_formula_sum   'Zn4 H34 C46 O13'
_cell_volume   4502.34500401
_cell_formula_units_Z   1
loop_
 _symmetry_equiv_pos_site_id
 _symmetry_equiv_pos_as_xyz
  1  'x, y, z'
loop_
 _atom_site_type_symbol
 _atom_site_label
 _atom_site_symmetry_multiplicity
 _atom_site_fract_x
 _atom_site_fract_y
 _atom_site_fract_z
 _atom_site_occupancy
  Zn  Zn0  1  0.57222610  0.56736938  0.43358300  1.0
  Zn  Zn1  1  0.43367613  0.58282847  0.55820724  1.0
  Zn  Zn2  1  0.57122828  0.42376808  0.55849536  1.0
  Zn  Zn3  1  0.41917232  0.42700930  0.44753877  1.0
  H  H4  1  0.59129761  0.57998049  0.22440236  1.0
  H  H5  1  0.56440013  0.00062477  0.36740204  1.0
  H  H6  1  0.52669715  0.14752803  0.41713167  1.0
  H  H7  1  0.45879696  0.64715184  0.76378240  1.0
  H  H8  1  0.52101114  0.59455608  0.99855515  1.0
  H  H9  1  0.57353297  0.39140445  0.89893361  1.0
  H  H10  1  0.39555605  0.37859756  0.23806037  1.0
  H  H11  1  0.48442577  0.39599444  0.00117814  1.0
  H  H12  1  0.59780953  0.56795503  0.09808802  1.0
  H  H13  1  0.46444354  0.65578583  0.89031398  1.0
  H  H14  1  0.74295562  0.68746822  0.68791407  1.0
  H  H15  1  0.14461875  0.42416227  0.44306103  1.0
  H  H16  1  0.75205728  0.76653427  0.62033260  1.0
  H  H17  1  0.64862772  0.71698193  0.63989910  1.0
  H  H18  1  0.71882872  0.64968751  0.53605721  1.0
  H  H19  1  0.70906545  0.57088672  0.60349918  1.0
  H  H20  1  0.86583747  0.59550309  0.63340881  1.0
  H  H21  1  0.87507966  0.67646162  0.56919600  1.0
  H  H22  1  0.45837136  0.85402808  0.58322543  1.0
  H  H23  1  0.41414680  0.24065069  0.77609653  1.0
  H  H24  1  0.30556741  0.24334079  0.74418535  1.0
  H  H25  1  0.33451103  0.16475138  0.80822088  1.0
  H  H26  1  0.16483514  0.62286960  0.59462716  1.0
  H  H27  1  0.33188026  0.09244281  0.69430141  1.0
  H  H28  1  0.43977920  0.08912129  0.72646778  1.0
  H  H29  1  0.47840418  0.22317524  0.65552632  1.0
  H  H30  1  0.37123254  0.22793145  0.62432476  1.0
  H  H31  1  0.40218278  0.36492949  0.11158513  1.0
  H  H32  1  0.99956684  0.37675707  0.40721860  1.0
  H  H33  1  0.00290029  0.63664305  0.60448252  1.0
  H  H34  1  0.83552398  0.38921527  0.41610227  1.0
  H  H35  1  0.56965630  0.83686957  0.37979052  1.0
  H  H36  1  0.43016060  0.99976359  0.63444177  1.0
  H  H37  1  0.57251887  0.38572062  0.77218268  1.0
  C  C38  1  0.26300198  0.51554955  0.51216093  1.0
  C  C39  1  0.50022206  0.46027364  0.02163241  1.0
  C  C40  1  0.51464134  0.52855923  0.97782921  1.0
  C  C41  1  0.73505210  0.48919912  0.49163326  1.0
  C  C42  1  0.51420423  0.51546512  0.76048389  1.0
  C  C43  1  0.16470405  0.52259504  0.51773944  1.0
  C  C44  1  0.83432578  0.49088508  0.49229634  1.0
  C  C45  1  0.96704457  0.42321163  0.44202379  1.0
  C  C46  1  0.87659918  0.43020513  0.44699043  1.0
  C  C47  1  0.88222677  0.54554682  0.53303131  1.0
  C  C48  1  0.97721683  0.53807253  0.52850648  1.0
  C  C49  1  0.49876659  0.46704174  0.09571453  1.0
  C  C50  1  0.01957373  0.47682511  0.48260193  1.0
  C  C51  1  0.11294134  0.47061714  0.47823430  1.0
  C  C52  1  0.12334554  0.58268314  0.56358422  1.0
  C  C53  1  0.51262162  0.73843441  0.48830944  1.0
  C  C54  1  0.03253105  0.59002202  0.56866022  1.0
  C  C55  1  0.51332801  0.83644788  0.48247017  1.0
  C  C56  1  0.48025627  0.16432027  0.52029036  1.0
  C  C57  1  0.45245116  0.03304633  0.58751484  1.0
  C  C58  1  0.45256471  0.12399630  0.58367595  1.0
  C  C59  1  0.50675052  0.11463957  0.46487799  1.0
  C  C60  1  0.44341634  0.41247926  0.13629174  1.0
  C  C61  1  0.51035954  0.02149733  0.46942183  1.0
  C  C62  1  0.48139615  0.97991940  0.53202894  1.0
  C  C63  1  0.48219358  0.88684607  0.53654196  1.0
  C  C64  1  0.54464212  0.87795250  0.42124995  1.0
  C  C65  1  0.48494774  0.26260450  0.51314196  1.0
  C  C66  1  0.54183091  0.96839585  0.41473748  1.0
  C  C67  1  0.51112513  0.51087139  0.68488474  1.0
  C  C68  1  0.49077394  0.48788360  0.31432196  1.0
  C  C69  1  0.49234611  0.48085161  0.23873473  1.0
  C  C70  1  0.54907859  0.53429223  0.19889120  1.0
  C  C71  1  0.43934499  0.41989028  0.20678869  1.0
  C  C72  1  0.55198559  0.52769674  0.12847491  1.0
  C  C73  1  0.84316305  0.61318500  0.58184274  1.0
  C  C74  1  0.74337650  0.63090640  0.58654777  1.0
  C  C75  1  0.72045193  0.70457761  0.63646106  1.0
  C  C76  1  0.42282268  0.18129518  0.64245160  1.0
  C  C77  1  0.38798892  0.13402599  0.70671808  1.0
  C  C78  1  0.35897041  0.19911412  0.76189792  1.0
  C  C79  1  0.54724197  0.44712397  0.86950217  1.0
  C  C80  1  0.54708350  0.44369517  0.79883191  1.0
  C  C81  1  0.48405890  0.59173182  0.79396617  1.0
  C  C82  1  0.48709578  0.59607468  0.86443646  1.0
  C  C83  1  0.51662294  0.52321031  0.90369285  1.0
  O  O84  1  0.49920469  0.49959085  0.49920017  1.0
  O  O85  1  0.46270223  0.56852821  0.65481597  1.0
  O  O86  1  0.43647339  0.43944839  0.34831358  1.0
  O  O87  1  0.55678776  0.44952614  0.65606029  1.0
  O  O88  1  0.54445579  0.54196058  0.33925625  1.0
  O  O89  1  0.55834730  0.69540655  0.44380234  1.0
  O  O90  1  0.43775779  0.29995243  0.46790374  1.0
  O  O91  1  0.30633281  0.56739093  0.54894729  1.0
  O  O92  1  0.69755654  0.43718762  0.53464347  1.0
  O  O93  1  0.29608681  0.45844270  0.47119475  1.0
  O  O94  1  0.69806398  0.53604332  0.44575816  1.0
  O  O95  1  0.46604874  0.70504306  0.53719262  1.0
  O  O96  1  0.53770682  0.29985935  0.55266309  1.0
