# generated using pymatgen
data_FeH68C66S6(N3O2)2
_symmetry_space_group_name_H-M   'P 1'
_cell_length_a   15.37581609
_cell_length_b   15.37567646
_cell_length_c   20.37884599
_cell_angle_alpha   90.59624772
_cell_angle_beta   90.59642622
_cell_angle_gamma   118.04424526
_symmetry_Int_Tables_number   1
_chemical_formula_structural   FeH68C66S6(N3O2)2
_chemical_formula_sum   'Fe2 H136 C132 S12 N12 O8'
_cell_volume   4251.27919917
_cell_formula_units_Z   2
loop_
 _symmetry_equiv_pos_site_id
 _symmetry_equiv_pos_as_xyz
  1  'x, y, z'
loop_
 _atom_site_type_symbol
 _atom_site_label
 _atom_site_symmetry_multiplicity
 _atom_site_fract_x
 _atom_site_fract_y
 _atom_site_fract_z
 _atom_site_occupancy
  Fe  Fe0  1  0.50000454  0.00000393  0.50000055  1.0
  Fe  Fe1  1  0.00000531  0.49999886  0.00000154  1.0
  H  H2  1  0.86095659  0.06166521  0.55535331  1.0
  H  H3  1  0.08775065  0.31903989  0.65413129  1.0
  H  H4  1  0.25041080  0.14205201  0.60355426  1.0
  H  H5  1  0.16205611  0.05166500  0.54881859  1.0
  H  H6  1  0.35834038  0.08652524  0.53685802  1.0
  H  H7  1  0.38165119  0.84557976  0.60391966  1.0
  H  H8  1  0.24143650  0.80133727  0.68001376  1.0
  H  H9  1  0.14948863  0.90156274  0.67874877  1.0
  H  H10  1  0.06167913  0.39783643  0.56923698  1.0
  H  H11  1  0.96175695  0.39639231  0.52353214  1.0
  H  H12  1  0.01946483  0.32618062  0.49587437  1.0
  H  H13  1  0.84232932  0.23711300  0.67003316  1.0
  H  H14  1  0.84585949  0.33584866  0.62388940  1.0
  H  H15  1  0.95295845  0.35121602  0.66814249  1.0
  H  H16  1  0.84959115  0.17619807  0.48862073  1.0
  H  H17  1  0.79805402  0.25069472  0.51891585  1.0
  H  H18  1  0.77262436  0.13965915  0.55835190  1.0
  H  H19  1  0.83274051  0.65597763  0.77743819  1.0
  H  H20  1  0.98273690  0.77296501  0.59614588  1.0
  H  H21  1  0.66456865  0.81019403  0.68505490  1.0
  H  H22  1  0.72173432  0.84615224  0.60686511  1.0
  H  H23  1  0.59878446  0.88548776  0.56153233  1.0
  H  H24  1  0.57684841  0.12917813  0.62796287  1.0
  H  H25  1  0.68209237  0.14773933  0.72636625  1.0
  H  H26  1  0.75485341  0.03157998  0.73969513  1.0
  H  H27  1  0.93041605  0.49515534  0.73333583  1.0
  H  H28  1  0.83062325  0.51788077  0.75203156  1.0
  H  H29  1  0.95136062  0.59831451  0.78341565  1.0
  H  H30  1  0.08811866  0.69775784  0.70391440  1.0
  H  H31  1  0.06417807  0.69596304  0.61816048  1.0
  H  H32  1  0.05625664  0.58932661  0.65588956  1.0
  H  H33  1  0.87879053  0.58950199  0.57589706  1.0
  H  H34  1  0.78868860  0.51684676  0.63341030  1.0
  H  H35  1  0.88395946  0.48755932  0.61224626  1.0
  H  H36  1  0.93833901  0.13904377  0.94464248  1.0
  H  H37  1  0.68096593  0.91225042  0.84586525  1.0
  H  H38  1  0.85794640  0.74958712  0.89644211  1.0
  H  H39  1  0.94833286  0.83794356  0.95117878  1.0
  H  H40  1  0.91347389  0.64165594  0.96314198  1.0
  H  H41  1  0.15441104  0.61834121  0.89607839  1.0
  H  H42  1  0.19865762  0.75855526  0.81998371  1.0
  H  H43  1  0.09843547  0.85050850  0.82124952  1.0
  H  H44  1  0.60216662  0.93831821  0.93076086  1.0
  H  H45  1  0.60361307  0.03824046  0.97646434  1.0
  H  H46  1  0.67382263  0.98053328  0.00412283  1.0
  H  H47  1  0.76288894  0.15767093  0.82996434  1.0
  H  H48  1  0.66415500  0.15413995  0.87610849  1.0
  H  H49  1  0.64878685  0.04704122  0.83185550  1.0
  H  H50  1  0.82380195  0.15040879  0.01137714  1.0
  H  H51  1  0.74930466  0.20194380  0.98108302  1.0
  H  H52  1  0.86034085  0.22737787  0.94164759  1.0
  H  H53  1  0.34401742  0.16725631  0.72255774  1.0
  H  H54  1  0.22703250  0.01725811  0.90384912  1.0
  H  H55  1  0.18981211  0.33543313  0.81494175  1.0
  H  H56  1  0.15385201  0.27826883  0.89313303  1.0
  H  H57  1  0.11451928  0.40122078  0.93846418  1.0
  H  H58  1  0.87083501  0.42316366  0.87203707  1.0
  H  H59  1  0.85227249  0.31792072  0.77363133  1.0
  H  H60  1  0.96842946  0.24515747  0.76030167  1.0
  H  H61  1  0.50484195  0.06958109  0.76666240  1.0
  H  H62  1  0.48211749  0.16937428  0.74796653  1.0
  H  H63  1  0.40168471  0.04863818  0.71658202  1.0
  H  H64  1  0.30223900  0.91187659  0.79608305  1.0
  H  H65  1  0.30403452  0.93581902  0.88183648  1.0
  H  H66  1  0.41067010  0.94373929  0.84410897  1.0
  H  H67  1  0.41049318  0.12120545  0.92409998  1.0
  H  H68  1  0.48314941  0.21130872  0.86658723  1.0
  H  H69  1  0.51243678  0.11603745  0.88775191  1.0
  H  H70  1  0.13904374  0.93833540  0.44464361  1.0
  H  H71  1  0.91224842  0.68096219  0.34586613  1.0
  H  H72  1  0.74958494  0.85794712  0.39644311  1.0
  H  H73  1  0.83794143  0.94832824  0.45118072  1.0
  H  H74  1  0.64166074  0.91347980  0.46314728  1.0
  H  H75  1  0.61835621  0.15442898  0.39608375  1.0
  H  H76  1  0.75856917  0.19866778  0.31998912  1.0
  H  H77  1  0.85051367  0.09843789  0.32125406  1.0
  H  H78  1  0.93831949  0.60216050  0.43076334  1.0
  H  H79  1  0.03824503  0.60360904  0.47646529  1.0
  H  H80  1  0.98053643  0.67381779  0.50412549  1.0
  H  H81  1  0.15766864  0.76288393  0.32996470  1.0
  H  H82  1  0.15413821  0.66415047  0.37611044  1.0
  H  H83  1  0.04703787  0.64878017  0.33185633  1.0
  H  H84  1  0.15040785  0.82380106  0.51137716  1.0
  H  H85  1  0.20194532  0.74930516  0.48108155  1.0
  H  H86  1  0.22737368  0.86034072  0.44164647  1.0
  H  H87  1  0.16726217  0.34402520  0.22256269  1.0
  H  H88  1  0.01726344  0.22703561  0.40385448  1.0
  H  H89  1  0.33543180  0.18981100  0.31494451  1.0
  H  H90  1  0.27826867  0.15384985  0.39313528  1.0
  H  H91  1  0.40122158  0.11451949  0.43846272  1.0
  H  H92  1  0.42315829  0.87082913  0.37203710  1.0
  H  H93  1  0.31791330  0.85226572  0.27363369  1.0
  H  H94  1  0.24515126  0.96842432  0.26030284  1.0
  H  H95  1  0.06958200  0.50484453  0.26666500  1.0
  H  H96  1  0.16937579  0.48211985  0.24796830  1.0
  H  H97  1  0.04863773  0.40168463  0.21658567  1.0
  H  H98  1  0.91188364  0.30224278  0.29608695  1.0
  H  H99  1  0.93582358  0.30403758  0.38184038  1.0
  H  H100  1  0.94374336  0.41067327  0.34411177  1.0
  H  H101  1  0.12121146  0.41049937  0.42410331  1.0
  H  H102  1  0.21131174  0.48315385  0.36658956  1.0
  H  H103  1  0.11604253  0.51244204  0.38775460  1.0
  H  H104  1  0.06166130  0.86095537  0.05535934  1.0
  H  H105  1  0.31903537  0.08774947  0.15413658  1.0
  H  H106  1  0.14205264  0.25041349  0.10355823  1.0
  H  H107  1  0.05166641  0.16205337  0.04882399  1.0
  H  H108  1  0.08652104  0.35833730  0.03685534  1.0
  H  H109  1  0.84558137  0.38165496  0.10392040  1.0
  H  H110  1  0.80134100  0.24144167  0.18001759  1.0
  H  H111  1  0.90156484  0.14949064  0.17875082  1.0
  H  H112  1  0.39783365  0.06167946  0.06923948  1.0
  H  H113  1  0.39638482  0.96175353  0.02353693  1.0
  H  H114  1  0.32617530  0.01946217  0.99587747  1.0
  H  H115  1  0.23711030  0.84232453  0.17003744  1.0
  H  H116  1  0.33584623  0.84585699  0.12389136  1.0
  H  H117  1  0.35121438  0.95295572  0.16814680  1.0
  H  H118  1  0.17619767  0.84958889  0.98862466  1.0
  H  H119  1  0.25069531  0.79805461  0.01892075  1.0
  H  H120  1  0.13965747  0.77261980  0.05835567  1.0
  H  H121  1  0.65597821  0.83273840  0.27744008  1.0
  H  H122  1  0.77296516  0.98273955  0.09614875  1.0
  H  H123  1  0.81018295  0.66456452  0.18505806  1.0
  H  H124  1  0.84614423  0.72172441  0.10686675  1.0
  H  H125  1  0.88547180  0.59877392  0.06153754  1.0
  H  H126  1  0.12915119  0.57681925  0.12796207  1.0
  H  H127  1  0.14772237  0.68206957  0.22636597  1.0
  H  H128  1  0.03156670  0.75483282  0.23969809  1.0
  H  H129  1  0.49515701  0.93041657  0.23333597  1.0
  H  H130  1  0.51788082  0.83062338  0.25203330  1.0
  H  H131  1  0.59831494  0.95136095  0.28341636  1.0
  H  H132  1  0.69775858  0.08811812  0.20391577  1.0
  H  H133  1  0.69596410  0.06417790  0.11816237  1.0
  H  H134  1  0.58932917  0.05625764  0.15588988  1.0
  H  H135  1  0.58950110  0.87878778  0.07589832  1.0
  H  H136  1  0.51684622  0.78868599  0.13341256  1.0
  H  H137  1  0.48755885  0.88395726  0.11224739  1.0
  C  C138  1  0.10596562  0.18952294  0.65588900  1.0
  C  C139  1  0.06822308  0.09038776  0.63535881  1.0
  C  C140  1  0.97802942  0.04466915  0.60077845  1.0
  C  C141  1  0.92996347  0.09926457  0.58309546  1.0
  C  C142  1  0.96938560  0.19933280  0.59955227  1.0
  C  C143  1  0.05624371  0.24220387  0.63792033  1.0
  C  C144  1  0.19589271  0.06326332  0.59843524  1.0
  C  C145  1  0.24548661  0.00021560  0.60613279  1.0
  C  C146  1  0.32785700  0.02174395  0.56782339  1.0
  C  C147  1  0.34235270  0.88881737  0.60646622  1.0
  C  C148  1  0.26361909  0.86445750  0.64820663  1.0
  C  C149  1  0.21296789  0.91981824  0.64781015  1.0
  C  C150  1  0.92075419  0.26168342  0.57790395  1.0
  C  C151  1  0.99556835  0.35091331  0.53960189  1.0
  C  C152  1  0.88894435  0.29890486  0.63879535  1.0
  C  C153  1  0.83019429  0.20319362  0.53340846  1.0
  C  C154  1  0.90812823  0.84690174  0.63818599  1.0
  C  C155  1  0.84885014  0.84957431  0.68950966  1.0
  C  C156  1  0.82464685  0.78152234  0.74027492  1.0
  C  C157  1  0.85426142  0.70824629  0.73760041  1.0
  C  C158  1  0.90905884  0.70133964  0.68537981  1.0
  C  C159  1  0.93784127  0.77364121  0.63702369  1.0
  C  C160  1  0.71672033  0.87347022  0.65622136  1.0
  C  C161  1  0.68220817  0.94942986  0.65135766  1.0
  C  C162  1  0.62131179  0.94412146  0.59860566  1.0
  C  C163  1  0.60737385  0.07894433  0.63606170  1.0
  C  C164  1  0.66695438  0.08913669  0.69050622  1.0
  C  C165  1  0.70633395  0.02453003  0.69832477  1.0
  C  C166  1  0.93218571  0.61511937  0.67826123  1.0
  C  C167  1  0.90946204  0.55362661  0.74062419  1.0
  C  C168  1  0.04155429  0.65219688  0.66286470  1.0
  C  C169  1  0.86711288  0.54848661  0.62149538  1.0
  C  C170  1  0.40725072  0.76986400  0.47723351  1.0
  C  C171  1  0.81047716  0.89403361  0.84410717  1.0
  C  C172  1  0.90961410  0.93177851  0.86463501  1.0
  C  C173  1  0.95533026  0.02196893  0.89921892  1.0
  C  C174  1  0.90073534  0.07003632  0.91690376  1.0
  C  C175  1  0.80066904  0.03061280  0.90044639  1.0
  C  C176  1  0.75780109  0.94375867  0.86207578  1.0
  C  C177  1  0.93673527  0.80410368  0.90156312  1.0
  C  C178  1  0.99978456  0.75450749  0.89386717  1.0
  C  C179  1  0.97825239  0.67213482  0.93217856  1.0
  C  C180  1  0.11117408  0.65763909  0.89353714  1.0
  C  C181  1  0.13553646  0.73637144  0.85179275  1.0
  C  C182  1  0.08017802  0.78702722  0.85218865  1.0
  C  C183  1  0.73831840  0.07924539  0.92209459  1.0
  C  C184  1  0.64908938  0.00442832  0.96039515  1.0
  C  C185  1  0.70109754  0.11105510  0.86120213  1.0
  C  C186  1  0.79680672  0.16980667  0.96659004  1.0
  C  C187  1  0.15309755  0.09187117  0.86181231  1.0
  C  C188  1  0.15042540  0.15114809  0.81048807  1.0
  C  C189  1  0.21847936  0.17535690  0.75972144  1.0
  C  C190  1  0.29175142  0.14573822  0.76239700  1.0
  C  C191  1  0.29865938  0.09094343  0.81461770  1.0
  C  C192  1  0.22635626  0.06215479  0.86297274  1.0
  C  C193  1  0.12653597  0.28328728  0.84377728  1.0
  C  C194  1  0.05057630  0.31780009  0.84864233  1.0
  C  C195  1  0.05588555  0.37869770  0.90139477  1.0
  C  C196  1  0.92106110  0.39263273  0.86394265  1.0
  C  C197  1  0.91087221  0.33305957  0.80949434  1.0
  C  C198  1  0.97547619  0.29367292  0.80167633  1.0
  C  C199  1  0.38487836  0.06781109  0.82173636  1.0
  C  C200  1  0.44637309  0.09053599  0.75937445  1.0
  C  C201  1  0.34780035  0.95844073  0.83713276  1.0
  C  C202  1  0.45151078  0.13288442  0.87850222  1.0
  C  C203  1  0.23017595  0.59279383  0.02277601  1.0
  C  C204  1  0.89403308  0.81047693  0.34410938  1.0
  C  C205  1  0.93177626  0.90961211  0.36463810  1.0
  C  C206  1  0.02196924  0.95532924  0.39921943  1.0
  C  C207  1  0.07003614  0.90073309  0.41690290  1.0
  C  C208  1  0.03061439  0.80066707  0.40044562  1.0
  C  C209  1  0.94375563  0.75779600  0.36207805  1.0
  C  C210  1  0.80410434  0.93673581  0.40156459  1.0
  C  C211  1  0.75451178  0.99978501  0.39387001  1.0
  C  C212  1  0.67214005  0.97825519  0.43217938  1.0
  C  C213  1  0.65764830  0.11118325  0.39353709  1.0
  C  C214  1  0.73638494  0.13554682  0.35179820  1.0
  C  C215  1  0.78703411  0.08018312  0.35219218  1.0
  C  C216  1  0.07924416  0.73831571  0.42209491  1.0
  C  C217  1  0.00443130  0.64908582  0.46039698  1.0
  C  C218  1  0.11105231  0.70109206  0.36120348  1.0
  C  C219  1  0.16980636  0.79680625  0.46659042  1.0
  C  C220  1  0.09187211  0.15309887  0.36181338  1.0
  C  C221  1  0.15115151  0.15042631  0.31049021  1.0
  C  C222  1  0.17535480  0.21847828  0.25972446  1.0
  C  C223  1  0.14574053  0.29175359  0.26239946  1.0
  C  C224  1  0.09094480  0.29866246  0.31461911  1.0
  C  C225  1  0.06215877  0.22636014  0.36297569  1.0
  C  C226  1  0.28328330  0.12653188  0.34377805  1.0
  C  C227  1  0.31779611  0.05057223  0.34863930  1.0
  C  C228  1  0.37869096  0.05588430  0.40139083  1.0
  C  C229  1  0.39262952  0.92105997  0.36393870  1.0
  C  C230  1  0.33304987  0.91086394  0.30949466  1.0
  C  C231  1  0.29366965  0.97547059  0.30167364  1.0
  C  C232  1  0.06781593  0.38488125  0.32173914  1.0
  C  C233  1  0.09053700  0.44637400  0.25937665  1.0
  C  C234  1  0.95844671  0.34780374  0.33713714  1.0
  C  C235  1  0.13288912  0.45151475  0.37850549  1.0
  C  C236  1  0.59276975  0.23017127  0.52276872  1.0
  C  C237  1  0.18952249  0.10596553  0.15589562  1.0
  C  C238  1  0.09038659  0.06822284  0.13536535  1.0
  C  C239  1  0.04467005  0.97803022  0.10078339  1.0
  C  C240  1  0.09926562  0.92996283  0.08309806  1.0
  C  C241  1  0.19933287  0.96938562  0.09955691  1.0
  C  C242  1  0.24219891  0.05624121  0.13792555  1.0
  C  C243  1  0.06326500  0.19589399  0.09843918  1.0
  C  C244  1  0.00021564  0.24548723  0.10613412  1.0
  C  C245  1  0.02174021  0.32785620  0.06782069  1.0
  C  C246  1  0.88882301  0.34236152  0.10646369  1.0
  C  C247  1  0.86446024  0.26362695  0.14820561  1.0
  C  C248  1  0.91981739  0.21297118  0.14781263  1.0
  C  C249  1  0.26168321  0.92075376  0.07790724  1.0
  C  C250  1  0.35090855  0.99556714  0.03960565  1.0
  C  C251  1  0.29890368  0.88894184  0.13879919  1.0
  C  C252  1  0.20318991  0.83018878  0.03341173  1.0
  C  C253  1  0.84690049  0.90812870  0.13818606  1.0
  C  C254  1  0.84957330  0.84885178  0.18951227  1.0
  C  C255  1  0.78151699  0.82464076  0.24027788  1.0
  C  C256  1  0.70824623  0.85425944  0.23760135  1.0
  C  C257  1  0.70133832  0.90905570  0.18538312  1.0
  C  C258  1  0.77363940  0.93784139  0.13702412  1.0
  C  C259  1  0.87346004  0.71670964  0.15622351  1.0
  C  C260  1  0.94942098  0.68219537  0.15135944  1.0
  C  C261  1  0.94410617  0.62129701  0.09860499  1.0
  C  C262  1  0.07892556  0.60735533  0.13605654  1.0
  C  C263  1  0.08911932  0.66692777  0.19050487  1.0
  C  C264  1  0.02452274  0.70632327  0.19832202  1.0
  C  C265  1  0.61511957  0.93218436  0.17826247  1.0
  C  C266  1  0.55362687  0.90946242  0.24062540  1.0
  C  C267  1  0.65219723  0.04155399  0.16286558  1.0
  C  C268  1  0.54848481  0.86710882  0.12149609  1.0
  C  C269  1  0.76985183  0.40723484  0.97722524  1.0
  S  S270  1  0.22215971  0.25492232  0.69613000  1.0
  S  S271  1  0.93248022  0.92299357  0.56864732  1.0
  S  S272  1  0.33562796  0.65713691  0.45696866  1.0
  S  S273  1  0.74507894  0.77784149  0.80386626  1.0
  S  S274  1  0.07700704  0.06751803  0.93134994  1.0
  S  S275  1  0.34290704  0.66440248  0.04303593  1.0
  S  S276  1  0.77783863  0.74507681  0.30386837  1.0
  S  S277  1  0.06751939  0.07700410  0.43135203  1.0
  S  S278  1  0.66440050  0.34290573  0.54302730  1.0
  S  S279  1  0.25492271  0.22215913  0.19613313  1.0
  S  S280  1  0.92299525  0.93248259  0.06864994  1.0
  S  S281  1  0.65711074  0.33561733  0.95696715  1.0
  N  N282  1  0.37458366  0.96682067  0.56646941  1.0
  N  N283  1  0.58526731  0.00783687  0.58997974  1.0
  N  N284  1  0.46056410  0.85433626  0.49185736  1.0
  N  N285  1  0.03317152  0.62540312  0.93353287  1.0
  N  N286  1  0.99216942  0.41474096  0.91002273  1.0
  N  N287  1  0.14568164  0.53947638  0.00814948  1.0
  N  N288  1  0.62541777  0.03318364  0.43353638  1.0
  N  N289  1  0.41473744  0.99217037  0.41001776  1.0
  N  N290  1  0.53943444  0.14569526  0.50814272  1.0
  N  N291  1  0.96682329  0.37458569  0.06646294  1.0
  N  N292  1  0.00781655  0.58524562  0.08997742  1.0
  N  N293  1  0.85433845  0.46055668  0.99185371  1.0
  O  O294  1  0.12027298  0.03902225  0.64637383  1.0
  O  O295  1  0.81221995  0.91603517  0.68844841  1.0
  O  O296  1  0.96097792  0.87972312  0.85362203  1.0
  O  O297  1  0.08396512  0.18778155  0.81155070  1.0
  O  O298  1  0.87972410  0.96097835  0.35362552  1.0
  O  O299  1  0.18778238  0.08396692  0.31155148  1.0
  O  O300  1  0.03902343  0.12027823  0.14638031  1.0
  O  O301  1  0.91603059  0.81221611  0.18844862  1.0
