# generated using pymatgen
data_CdH2C2N3Cl
_symmetry_space_group_name_H-M   'P 1'
_cell_length_a   11.13376936
_cell_length_b   11.60211540
_cell_length_c   11.60214865
_cell_angle_alpha   120.00004685
_cell_angle_beta   90.00000866
_cell_angle_gamma   89.99998113
_symmetry_Int_Tables_number   1
_chemical_formula_structural   CdH2C2N3Cl
_chemical_formula_sum   'Cd6 H12 C12 N18 Cl6'
_cell_volume   1297.92098296
_cell_formula_units_Z   6
loop_
 _symmetry_equiv_pos_site_id
 _symmetry_equiv_pos_as_xyz
  1  'x, y, z'
loop_
 _atom_site_type_symbol
 _atom_site_label
 _atom_site_symmetry_multiplicity
 _atom_site_fract_x
 _atom_site_fract_y
 _atom_site_fract_z
 _atom_site_occupancy
  Cd  Cd0  1  0.75000918  0.22804977  0.61402560  1.0
  Cd  Cd1  1  0.41667371  0.38597381  0.61402144  1.0
  Cd  Cd2  1  0.08334186  0.38597480  0.77195321  1.0
  Cd  Cd3  1  0.25000867  0.77195078  0.38597449  1.0
  Cd  Cd4  1  0.91667331  0.61402619  0.38597915  1.0
  Cd  Cd5  1  0.58334234  0.61402531  0.22804738  1.0
  H  H6  1  0.76496364  0.36839279  0.41615443  1.0
  H  H7  1  0.43162371  0.58384949  0.95223857  1.0
  H  H8  1  0.09829102  0.04775907  0.63160426  1.0
  H  H9  1  0.26496321  0.63160726  0.58384616  1.0
  H  H10  1  0.93162333  0.41615186  0.04776238  1.0
  H  H11  1  0.59829141  0.95224103  0.36839633  1.0
  H  H12  1  0.90172056  0.95224179  0.58385028  1.0
  H  H13  1  0.23504967  0.63160838  0.04776026  1.0
  H  H14  1  0.56838788  0.41614731  0.36838667  1.0
  H  H15  1  0.40172104  0.04775821  0.41615030  1.0
  H  H16  1  0.73504929  0.36839082  0.95223948  1.0
  H  H17  1  0.06838821  0.58385194  0.63161306  1.0
  C  C18  1  0.83953138  0.40590356  0.48549813  1.0
  C  C19  1  0.50619326  0.51450110  0.92040020  1.0
  C  C20  1  0.17285965  0.07959778  0.59409607  1.0
  C  C21  1  0.33953185  0.59409660  0.51450061  1.0
  C  C22  1  0.00619280  0.48549767  0.07960002  1.0
  C  C23  1  0.67285915  0.92040229  0.40590451  1.0
  C  C24  1  0.82715731  0.92039996  0.51450559  1.0
  C  C25  1  0.16048823  0.59410422  0.07959803  1.0
  C  C26  1  0.49382642  0.48549261  0.40589088  1.0
  C  C27  1  0.32715779  0.07959920  0.48549413  1.0
  C  C28  1  0.66048783  0.40589636  0.92040207  1.0
  C  C29  1  0.99382593  0.51450699  0.59410834  1.0
  N  N30  1  0.91667513  0.50175041  0.49825428  1.0
  N  N31  1  0.58333515  0.50174979  0.00349523  1.0
  N  N32  1  0.25000505  0.99649777  0.49824719  1.0
  N  N33  1  0.41667547  0.49824922  0.50174494  1.0
  N  N34  1  0.08333557  0.49824945  0.99650449  1.0
  N  N35  1  0.75000472  0.00350142  0.50175253  1.0
  N  N36  1  0.86689140  0.36177510  0.56840015  1.0
  N  N37  1  0.53355327  0.43160104  0.79337502  1.0
  N  N38  1  0.20022144  0.20661872  0.63822162  1.0
  N  N39  1  0.36689095  0.63822491  0.43160044  1.0
  N  N40  1  0.03355370  0.56839872  0.20662422  1.0
  N  N41  1  0.70022187  0.79338135  0.36177897  1.0
  N  N42  1  0.79979013  0.79338420  0.43161138  1.0
  N  N43  1  0.13312194  0.63822857  0.20662142  1.0
  N  N44  1  0.46645921  0.56839129  0.36176995  1.0
  N  N45  1  0.29979059  0.20661633  0.56838871  1.0
  N  N46  1  0.63312243  0.36177202  0.79337868  1.0
  N  N47  1  0.96645965  0.43160832  0.63822927  1.0
  Cl  Cl48  1  0.91667512  0.22414783  0.77585329  1.0
  Cl  Cl49  1  0.58334414  0.22414827  0.44829487  1.0
  Cl  Cl50  1  0.25000956  0.55170182  0.77585072  1.0
  Cl  Cl51  1  0.41667548  0.77585130  0.22414643  1.0
  Cl  Cl52  1  0.08334455  0.77585148  0.55170437  1.0
  Cl  Cl53  1  0.75000919  0.44829786  0.22414850  1.0
