# generated using pymatgen
data_Zn2H32C38N10O
_symmetry_space_group_name_H-M   'P 1'
_cell_length_a   19.96962129
_cell_length_b   20.00852920
_cell_length_c   20.72871181
_cell_angle_alpha   106.65232335
_cell_angle_beta   106.66057071
_cell_angle_gamma   113.60986902
_symmetry_Int_Tables_number   1
_chemical_formula_structural   Zn2H32C38N10O
_chemical_formula_sum   'Zn4 H64 C76 N20 O2'
_cell_volume   6465.95762410
_cell_formula_units_Z   2
loop_
 _symmetry_equiv_pos_site_id
 _symmetry_equiv_pos_as_xyz
  1  'x, y, z'
loop_
 _atom_site_type_symbol
 _atom_site_label
 _atom_site_symmetry_multiplicity
 _atom_site_fract_x
 _atom_site_fract_y
 _atom_site_fract_z
 _atom_site_occupancy
  Zn  Zn0  1  0.61083322  0.61668247  0.49802083  1.0
  Zn  Zn1  1  0.39777125  0.39640899  0.49851191  1.0
  Zn  Zn2  1  0.51492809  0.59690534  0.60109853  1.0
  Zn  Zn3  1  0.49608808  0.41788026  0.39575037  1.0
  H  H4  1  0.78315652  0.64812478  0.61461897  1.0
  H  H5  1  0.23882216  0.38241120  0.38821201  1.0
  H  H6  1  0.52164643  0.77626532  0.65440028  1.0
  H  H7  1  0.36534289  0.23756171  0.24396480  1.0
  H  H8  1  0.24100536  0.19919474  0.38191692  1.0
  H  H9  1  0.63227369  0.79329502  0.50377516  1.0
  H  H10  1  0.35843106  0.40192845  0.25408912  1.0
  H  H11  1  0.39486914  0.64670410  0.52115528  1.0
  H  H12  1  0.05905382  0.43009905  0.47345722  1.0
  H  H13  1  0.94488593  0.42885366  0.48373007  1.0
  H  H14  1  0.02268222  0.64119101  0.50589638  1.0
  H  H15  1  0.49829632  0.35218531  0.60931774  1.0
  H  H16  1  0.01739712  0.58195434  0.55519931  1.0
  H  H17  1  0.13467117  0.58369712  0.55300651  1.0
  H  H18  1  0.14386655  0.64865801  0.50938973  1.0
  H  H19  1  0.89655149  0.46221565  0.31163852  1.0
  H  H20  1  0.94566724  0.56971861  0.36109776  1.0
  H  H21  1  0.01925226  0.47979123  0.31003530  1.0
  H  H22  1  0.88952655  0.37779570  0.38393405  1.0
  H  H23  1  0.00640792  0.38670444  0.37388246  1.0
  H  H24  1  0.07057989  0.58664931  0.36641606  1.0
  H  H25  1  0.65247461  0.08564943  0.68757339  1.0
  H  H26  1  0.47837021  0.61476989  0.74792710  1.0
  H  H27  1  0.67174343  0.20848069  0.68616128  1.0
  H  H28  1  0.62831023  0.12331405  0.48292757  1.0
  H  H29  1  0.70711750  0.17926236  0.57717949  1.0
  H  H30  1  0.68975923  0.05679953  0.57815978  1.0
  H  H31  1  0.61124016  0.00099213  0.48388916  1.0
  H  H32  1  0.45551210  0.09331308  0.53148346  1.0
  H  H33  1  0.48064392  0.07280965  0.45613932  1.0
  H  H34  1  0.43788426  0.97048053  0.53173874  1.0
  H  H35  1  0.56890846  0.17485192  0.66782335  1.0
  H  H36  1  0.54897558  0.05108879  0.66705998  1.0
  H  H37  1  0.62782767  0.38078777  0.34539975  1.0
  H  H38  1  0.46345262  0.95016082  0.45653935  1.0
  H  H39  1  0.40864673  0.61202588  0.81965012  1.0
  H  H40  1  0.38004330  0.61274743  0.92887146  1.0
  H  H41  1  0.46588680  0.67392627  0.26407040  1.0
  H  H42  1  0.30220166  0.35029063  0.72712994  1.0
  H  H43  1  0.26381175  0.41555887  0.02626312  1.0
  H  H44  1  0.29516256  0.41209205  0.14958820  1.0
  H  H45  1  0.28475671  0.09628535  0.16527234  1.0
  H  H46  1  0.31300321  0.35198595  0.61347164  1.0
  H  H47  1  0.17625493  0.95866165  0.05829835  1.0
  H  H48  1  0.03317680  0.80906644  0.86348422  1.0
  H  H49  1  0.12482528  0.08016083  0.27047890  1.0
  H  H50  1  0.01775190  0.94131903  0.16365630  1.0
  H  H51  1  0.76040032  0.63351678  0.83870722  1.0
  H  H52  1  0.78547086  0.64159797  0.49410374  1.0
  H  H53  1  0.62507688  0.37415761  0.47121839  1.0
  H  H54  1  0.64841231  0.60818361  0.74433065  1.0
  H  H55  1  0.51894989  0.66666667  0.37771262  1.0
  H  H56  1  0.47537694  0.75215713  0.19819624  1.0
  H  H57  1  0.48632527  0.70412166  0.11827028  1.0
  H  H58  1  0.39700341  0.70793806  0.10403809  1.0
  H  H59  1  0.24762692  0.27668202  0.78643478  1.0
  H  H60  1  0.29365817  0.33146648  0.88735733  1.0
  H  H61  1  0.19751551  0.31387973  0.83193970  1.0
  H  H62  1  0.02927159  0.73994727  0.75083599  1.0
  H  H63  1  0.02102677  0.82801301  0.76002114  1.0
  H  H64  1  0.98207323  0.74778810  0.66776364  1.0
  H  H65  1  0.97408054  0.76599354  0.07573117  1.0
  H  H66  1  0.97093304  0.68536844  0.00634622  1.0
  H  H67  1  0.90053108  0.66005257  0.04592228  1.0
  C  C68  1  0.73835974  0.63450900  0.63590003  1.0
  C  C69  1  0.57421485  0.34131216  0.54922073  1.0
  C  C70  1  0.38357516  0.48215057  0.70628922  1.0
  C  C71  1  0.73764483  0.50912286  0.42175211  1.0
  C  C72  1  0.48633012  0.60072218  0.35744835  1.0
  C  C73  1  0.28874630  0.44576752  0.42486262  1.0
  C  C74  1  0.54986841  0.76878188  0.61734760  1.0
  C  C75  1  0.34493609  0.24088817  0.28742439  1.0
  C  C76  1  0.28111094  0.22173141  0.35736899  1.0
  C  C77  1  0.60630419  0.77706883  0.54031137  1.0
  C  C78  1  0.40410277  0.46573225  0.29439452  1.0
  C  C79  1  0.52376776  0.36519224  0.57153503  1.0
  C  C80  1  0.36851179  0.58094339  0.49305789  1.0
  C  C81  1  0.42057120  0.53746399  0.28627047  1.0
  C  C82  1  0.28574175  0.51761558  0.44529729  1.0
  C  C83  1  0.57230064  0.81375919  0.57801221  1.0
  C  C84  1  0.27536380  0.18169434  0.28627685  1.0
  C  C85  1  0.94603109  0.43256551  0.43211866  1.0
  C  C86  1  0.02239002  0.58579661  0.50475728  1.0
  C  C87  1  0.10139677  0.58960182  0.50464783  1.0
  C  C88  1  0.21491697  0.52244336  0.43256803  1.0
  C  C89  1  0.94519925  0.50993170  0.43324135  1.0
  C  C90  1  0.44136312  0.55092264  0.70543241  1.0
  C  C91  1  0.02328801  0.43659452  0.42692822  1.0
  C  C92  1  0.07956620  0.51956774  0.43058406  1.0
  C  C93  1  0.03135961  0.52684041  0.36248242  1.0
  C  C94  1  0.95047602  0.51716413  0.36206724  1.0
  C  C95  1  0.15344121  0.52308411  0.42974916  1.0
  C  C96  1  0.87067070  0.50611510  0.43251558  1.0
  C  C97  1  0.80810884  0.50600726  0.42645001  1.0
  C  C98  1  0.60786491  0.15766941  0.64804581  1.0
  C  C99  1  0.64309444  0.12834127  0.54008533  1.0
  C  C100  1  0.63171237  0.04737564  0.54069168  1.0
  C  C101  1  0.65442925  0.44534345  0.38164946  1.0
  C  C102  1  0.56461026  0.88012304  0.57542047  1.0
  C  C103  1  0.58644618  0.14965886  0.56719114  1.0
  C  C104  1  0.59540710  0.07637956  0.64835667  1.0
  C  C105  1  0.56692054  0.01191866  0.56794544  1.0
  C  C106  1  0.48464786  0.99651583  0.51360634  1.0
  C  C107  1  0.49614915  0.07773534  0.51331395  1.0
  C  C108  1  0.56064247  0.93762304  0.57000560  1.0
  C  C109  1  0.59435579  0.22487293  0.56637660  1.0
  C  C110  1  0.59181397  0.28332235  0.56206169  1.0
  C  C111  1  0.38725446  0.54233114  0.21634661  1.0
  C  C112  1  0.35789811  0.41690521  0.63740471  1.0
  C  C113  1  0.32602064  0.47023261  0.14819326  1.0
  C  C114  1  0.30756187  0.47163828  0.07925082  1.0
  C  C115  1  0.34829595  0.54541749  0.07553134  1.0
  C  C116  1  0.40185639  0.62022840  0.14330959  1.0
  C  C117  1  0.42061752  0.61677727  0.21211876  1.0
  C  C118  1  0.36252718  0.55568690  0.88347980  1.0
  C  C119  1  0.37913631  0.55488048  0.82305966  1.0
  C  C120  1  0.32447666  0.48257299  0.88898663  1.0
  C  C121  1  0.35928513  0.48110347  0.76609618  1.0
  C  C122  1  0.31813590  0.40809305  0.77052955  1.0
  C  C123  1  0.73472111  0.57859153  0.45753519  1.0
  C  C124  1  0.29968033  0.40695887  0.83036659  1.0
  C  C125  1  0.82441340  0.67614173  0.77709680  1.0
  C  C126  1  0.81970229  0.67222842  0.84235193  1.0
  C  C127  1  0.88748654  0.71603966  0.91368319  1.0
  C  C128  1  0.96512817  0.77193706  0.92193177  1.0
  C  C129  1  0.97231666  0.76749009  0.85508026  1.0
  C  C130  1  0.90466806  0.72075045  0.78413555  1.0
  C  C131  1  0.16613922  0.98589430  0.10536915  1.0
  C  C132  1  0.22594389  0.06292595  0.16499550  1.0
  C  C133  1  0.09009315  0.94168115  0.10439109  1.0
  C  C134  1  0.58828794  0.37600615  0.50060358  1.0
  C  C135  1  0.21272106  0.09924195  0.22558655  1.0
  C  C136  1  0.13716974  0.05369326  0.22476198  1.0
  C  C137  1  0.07705165  0.97616144  0.16537514  1.0
  C  C138  1  0.66983974  0.61371806  0.70245797  1.0
  C  C139  1  0.74934679  0.64049473  0.70815965  1.0
  C  C140  1  0.44238254  0.70063701  0.14118243  1.0
  C  C141  1  0.25742956  0.32775679  0.83393993  1.0
  C  C142  1  0.99054428  0.76129492  0.72559644  1.0
  C  C143  1  0.93367170  0.70384952  0.02811530  1.0
  N  N144  1  0.65958761  0.60781416  0.59241594  1.0
  N  N145  1  0.36688556  0.46545628  0.45990165  1.0
  N  N146  1  0.56869021  0.71028271  0.60364726  1.0
  N  N147  1  0.38813891  0.30977981  0.35347740  1.0
  N  N148  1  0.34844435  0.29780559  0.39717903  1.0
  N  N149  1  0.60398239  0.71566522  0.55577917  1.0
  N  N150  1  0.45683505  0.48544549  0.36379611  1.0
  N  N151  1  0.41598200  0.54841639  0.50190036  1.0
  N  N152  1  0.34564322  0.54908899  0.00831496  1.0
  N  N153  1  0.31575973  0.47967043  0.95306680  1.0
  N  N154  1  0.03392471  0.84002967  0.98692980  1.0
  N  N155  1  0.50744753  0.40823731  0.53679743  1.0
  N  N156  1  0.02249899  0.86605790  0.04428054  1.0
  N  N157  1  0.44899599  0.52850596  0.64163479  1.0
  N  N158  1  0.60655644  0.47459912  0.39327592  1.0
  N  N159  1  0.39684902  0.44492100  0.59902313  1.0
  N  N160  1  0.65670222  0.55770639  0.44048314  1.0
  N  N161  1  0.54700813  0.41490949  0.49315886  1.0
  N  N162  1  0.61760723  0.59528878  0.63348913  1.0
  N  N163  1  0.50737711  0.56846972  0.40268611  1.0
  O  O164  1  0.91020185  0.71815586  0.71898110  1.0
  O  O165  1  0.87177342  0.70131563  0.96960881  1.0
