# generated using pymatgen
data_Zn3H16(C19O6)2
_symmetry_space_group_name_H-M   'P 1'
_cell_length_a   23.75099480
_cell_length_b   27.89641273
_cell_length_c   27.90014358
_cell_angle_alpha   79.56142151
_cell_angle_beta   64.79823773
_cell_angle_gamma   64.81507400
_symmetry_Int_Tables_number   1
_chemical_formula_structural   Zn3H16(C19O6)2
_chemical_formula_sum   'Zn6 H32 C76 O24'
_cell_volume   15136.14284499
_cell_formula_units_Z   2
loop_
 _symmetry_equiv_pos_site_id
 _symmetry_equiv_pos_as_xyz
  1  'x, y, z'
loop_
 _atom_site_type_symbol
 _atom_site_label
 _atom_site_symmetry_multiplicity
 _atom_site_fract_x
 _atom_site_fract_y
 _atom_site_fract_z
 _atom_site_occupancy
  Zn  Zn0  1  0.53603673  0.46396241  0.46396288  1.0
  Zn  Zn1  1  0.55377191  0.00001161  0.99999182  1.0
  Zn  Zn2  1  0.44622494  0.99999297  0.00001204  1.0
  Zn  Zn3  1  0.99999378  0.53603878  0.46396109  1.0
  Zn  Zn4  1  0.46396227  0.53603734  0.53603761  1.0
  Zn  Zn5  1  0.00000452  0.46396103  0.53603881  1.0
  H  H6  1  0.59085124  0.81132239  0.18864177  1.0
  H  H7  1  0.77946712  0.81139026  0.81130264  1.0
  H  H8  1  0.59077774  0.18868705  0.81135169  1.0
  H  H9  1  0.40215952  0.18860334  0.18870779  1.0
  H  H10  1  0.40918560  0.81135000  0.18868494  1.0
  H  H11  1  0.22053054  0.18870701  0.18860426  1.0
  H  H12  1  0.40918840  0.18863861  0.81131866  1.0
  H  H13  1  0.59783758  0.81130458  0.81139050  1.0
  H  H14  1  0.59046051  0.88128799  0.11867494  1.0
  H  H15  1  0.70910090  0.88136606  0.88126547  1.0
  H  H16  1  0.59036753  0.11872099  0.88131516  1.0
  H  H17  1  0.47173566  0.11863420  0.11873424  1.0
  H  H18  1  0.40959794  0.88131369  0.11871969  1.0
  H  H19  1  0.29089726  0.11873397  0.11863501  1.0
  H  H20  1  0.40957840  0.11867261  0.88128582  1.0
  H  H21  1  0.52826633  0.88126857  0.88136572  1.0
  H  H22  1  0.43960119  0.74880743  0.37196569  1.0
  H  H23  1  0.81157737  0.62804068  0.74881836  1.0
  H  H24  1  0.56029231  0.25119000  0.62803200  1.0
  H  H25  1  0.18849495  0.37195994  0.25118081  1.0
  H  H26  1  0.56042661  0.62803475  0.25119052  1.0
  H  H27  1  0.18836440  0.25118190  0.37195960  1.0
  H  H28  1  0.43968555  0.37196151  0.74881081  1.0
  H  H29  1  0.81156955  0.74881831  0.62803982  1.0
  H  H30  1  0.43978415  0.67871147  0.44168705  1.0
  H  H31  1  0.88148933  0.55832390  0.67871517  1.0
  H  H32  1  0.56010250  0.32129032  0.55831197  1.0
  H  H33  1  0.11857853  0.44167909  0.32128375  1.0
  H  H34  1  0.56023170  0.55831273  0.32128732  1.0
  H  H35  1  0.11845886  0.32128449  0.44167896  1.0
  H  H36  1  0.43987453  0.44168511  0.67871587  1.0
  H  H37  1  0.88147574  0.67871532  0.55832245  1.0
  C  C38  1  0.50000551  0.57254545  0.42745510  1.0
  C  C39  1  0.76721167  0.73279063  0.73278911  1.0
  C  C40  1  0.37796291  0.17322269  0.17328082  1.0
  C  C41  1  0.44880492  0.82674379  0.17327301  1.0
  C  C42  1  0.27553440  0.17328068  0.17322285  1.0
  C  C43  1  0.44877498  0.17324707  0.82672538  1.0
  C  C44  1  0.62203725  0.82672761  0.82677394  1.0
  C  C45  1  0.55125027  0.82672779  0.17324993  1.0
  C  C46  1  0.72446106  0.82677340  0.82672741  1.0
  C  C47  1  0.55117753  0.17327464  0.82674466  1.0
  C  C48  1  0.50002459  0.26721914  0.73277563  1.0
  C  C49  1  0.55108295  0.86562724  0.13434881  1.0
  C  C50  1  0.68539988  0.86567764  0.86562650  1.0
  C  C51  1  0.55101911  0.13437477  0.86564205  1.0
  C  C52  1  0.41670520  0.13432199  0.13437624  1.0
  C  C53  1  0.44896621  0.86564168  0.13437351  1.0
  C  C54  1  0.31459830  0.13437565  0.13432292  1.0
  C  C55  1  0.44894456  0.13434683  0.86562475  1.0
  C  C56  1  0.23279156  0.26720959  0.26720893  1.0
  C  C57  1  0.58329564  0.86562792  0.86567691  1.0
  C  C58  1  0.50003148  0.88540564  0.11459150  1.0
  C  C59  1  0.49997949  0.73277751  0.26722311  1.0
  C  C60  1  0.61457528  0.88542518  0.88542399  1.0
  C  C61  1  0.49997188  0.11459061  0.88540434  1.0
  C  C62  1  0.38542044  0.11457979  0.11457985  1.0
  C  C63  1  0.50003103  0.80668376  0.19331665  1.0
  C  C64  1  0.69329881  0.80670241  0.80669990  1.0
  C  C65  1  0.49997020  0.19331487  0.80668348  1.0
  C  C66  1  0.30670123  0.19329860  0.19329951  1.0
  C  C67  1  0.50002689  0.76695482  0.23304531  1.0
  C  C68  1  0.73302794  0.76697222  0.76697209  1.0
  C  C69  1  0.49997428  0.23304302  0.76695462  1.0
  C  C70  1  0.26696951  0.23303116  0.23303033  1.0
  C  C71  1  0.46593729  0.70705177  0.36106495  1.0
  C  C72  1  0.82700571  0.63894040  0.70706100  1.0
  C  C73  1  0.53400436  0.29294883  0.63893269  1.0
  C  C74  1  0.92745066  0.57254960  0.57254963  1.0
  C  C75  1  0.17303192  0.36106259  0.29293881  1.0
  C  C76  1  0.53408290  0.63893418  0.29294733  1.0
  C  C77  1  0.17296796  0.29293931  0.36106191  1.0
  C  C78  1  0.46597041  0.36106446  0.70705226  1.0
  C  C79  1  0.82699581  0.70706170  0.63893914  1.0
  C  C80  1  0.49998948  0.42745635  0.57254707  1.0
  C  C81  1  0.46603560  0.66805447  0.39987463  1.0
  C  C82  1  0.86591209  0.60013320  0.66806304  1.0
  C  C83  1  0.53390704  0.33194416  0.60012552  1.0
  C  C84  1  0.13412827  0.39986900  0.33193844  1.0
  C  C85  1  0.53398952  0.60012424  0.33194404  1.0
  C  C86  1  0.13406522  0.33193902  0.39986823  1.0
  C  C87  1  0.46606791  0.39987360  0.66805671  1.0
  C  C88  1  0.07254978  0.42745062  0.42745049  1.0
  C  C89  1  0.86589562  0.66806317  0.60013223  1.0
  C  C90  1  0.50000073  0.61427202  0.38572764  1.0
  C  C91  1  0.88572046  0.61428142  0.61428086  1.0
  C  C92  1  0.49999591  0.38572740  0.61427257  1.0
  C  C93  1  0.11428270  0.38571800  0.38571771  1.0
  C  C94  1  0.49998677  0.69305927  0.30693890  1.0
  C  C95  1  0.80693337  0.69306876  0.69306822  1.0
  C  C96  1  0.50001811  0.30693857  0.69305933  1.0
  C  C97  1  0.19306767  0.30693304  0.30693248  1.0
  C  C98  1  0.42717295  0.07282856  0.07282830  1.0
  C  C99  1  0.50001030  0.92716232  0.07284016  1.0
  C  C100  1  0.57282378  0.92717720  0.92717611  1.0
  C  C101  1  0.49998914  0.07283987  0.92716140  1.0
  C  C102  1  0.39038237  0.49999112  0.50000994  1.0
  C  C103  1  0.89040722  0.50000125  0.49999836  1.0
  C  C104  1  0.60961694  0.50000949  0.49999088  1.0
  C  C105  1  0.10959229  0.49999896  0.50000139  1.0
  C  C106  1  0.32987760  0.49997973  0.50002070  1.0
  C  C107  1  0.82990791  0.49999105  0.50000692  1.0
  C  C108  1  0.67011731  0.50001851  0.49997999  1.0
  C  C109  1  0.17008495  0.50000758  0.49999264  1.0
  C  C110  1  0.27832197  0.49999206  0.50000767  1.0
  C  C111  1  0.77835157  0.49999546  0.50000275  1.0
  C  C112  1  0.72168091  0.50000420  0.49999408  1.0
  C  C113  1  0.22165410  0.50000079  0.49999871  1.0
  O  O114  1  0.53188106  0.52413722  0.41212254  1.0
  O  O115  1  0.94401240  0.58788031  0.52414484  1.0
  O  O116  1  0.46813844  0.47586300  0.58788073  1.0
  O  O117  1  0.05600312  0.41211951  0.47585493  1.0
  O  O118  1  0.46812045  0.58787877  0.47586197  1.0
  O  O119  1  0.05602233  0.47585495  0.41211899  1.0
  O  O120  1  0.53185435  0.41212342  0.52413846  1.0
  O  O121  1  0.94396183  0.52414526  0.58788021  1.0
  O  O122  1  0.44629674  0.46791931  0.46791718  1.0
  O  O123  1  0.91423168  0.53209339  0.46791866  1.0
  O  O124  1  0.38213347  0.53206928  0.53209320  1.0
  O  O125  1  0.91425051  0.46792023  0.53206830  1.0
  O  O126  1  0.55370297  0.53209358  0.53206945  1.0
  O  O127  1  0.08575980  0.53206771  0.46792080  1.0
  O  O128  1  0.61786530  0.46791747  0.46791964  1.0
  O  O129  1  0.08575582  0.46791871  0.53209367  1.0
  O  O130  1  0.39565003  0.05641054  0.05643044  1.0
  O  O131  1  0.45205484  0.94357872  0.05647000  1.0
  O  O132  1  0.50848497  0.94352225  0.94364832  1.0
  O  O133  1  0.45208033  0.05639765  0.94355925  1.0
  O  O134  1  0.60434557  0.94364790  0.94352041  1.0
  O  O135  1  0.54796037  0.94355939  0.05639721  1.0
  O  O136  1  0.49151121  0.05643043  0.05640960  1.0
  O  O137  1  0.54789444  0.05647062  0.94357737  1.0
