# generated using pymatgen
data_CoH16(C4N)4
_symmetry_space_group_name_H-M   'P 1'
_cell_length_a   7.43070508
_cell_length_b   18.73451763
_cell_length_c   18.73417926
_cell_angle_alpha   90.00030291
_cell_angle_beta   89.99895888
_cell_angle_gamma   89.99780795
_symmetry_Int_Tables_number   1
_chemical_formula_structural   CoH16(C4N)4
_chemical_formula_sum   'Co4 H64 C64 N16'
_cell_volume   2607.99774406
_cell_formula_units_Z   4
loop_
 _symmetry_equiv_pos_site_id
 _symmetry_equiv_pos_as_xyz
  1  'x, y, z'
loop_
 _atom_site_type_symbol
 _atom_site_label
 _atom_site_symmetry_multiplicity
 _atom_site_fract_x
 _atom_site_fract_y
 _atom_site_fract_z
 _atom_site_occupancy
  Co  Co0  1  0.74999716  0.25000073  0.74999274  1.0
  Co  Co1  1  0.25001095  0.25000184  0.75000202  1.0
  Co  Co2  1  0.24999685  0.75000111  0.24999852  1.0
  Co  Co3  1  0.75000189  0.75000374  0.25000472  1.0
  H  H4  1  0.92823825  0.12532280  0.03205853  1.0
  H  H5  1  0.92825253  0.37468079  0.46794111  1.0
  H  H6  1  0.57178759  0.37467539  0.03206208  1.0
  H  H7  1  0.07173309  0.53204588  0.62531260  1.0
  H  H8  1  0.42825613  0.53204971  0.87468546  1.0
  H  H9  1  0.42824612  0.96795193  0.62532314  1.0
  H  H10  1  0.07174396  0.96794941  0.87468950  1.0
  H  H11  1  0.57180314  0.12531490  0.46792999  1.0
  H  H12  1  0.07170327  0.87468705  0.96795034  1.0
  H  H13  1  0.07175089  0.62531091  0.53205229  1.0
  H  H14  1  0.42823333  0.62531097  0.96795267  1.0
  H  H15  1  0.92825150  0.46794262  0.37467973  1.0
  H  H16  1  0.57179440  0.46793131  0.12532021  1.0
  H  H17  1  0.57182863  0.03203710  0.37467987  1.0
  H  H18  1  0.92821506  0.03205563  0.12531671  1.0
  H  H19  1  0.42822451  0.87468693  0.53207034  1.0
  H  H20  1  0.69803897  0.19488630  0.96039218  1.0
  H  H21  1  0.69808229  0.30511007  0.53961076  1.0
  H  H22  1  0.80189053  0.30511306  0.96038142  1.0
  H  H23  1  0.30195269  0.46038408  0.69488762  1.0
  H  H24  1  0.19801252  0.46039957  0.80510846  1.0
  H  H25  1  0.19811212  0.03962624  0.69489382  1.0
  H  H26  1  0.30192612  0.03960973  0.80511231  1.0
  H  H27  1  0.80195664  0.19488120  0.53959195  1.0
  H  H28  1  0.30192408  0.80511341  0.03960442  1.0
  H  H29  1  0.30189960  0.69489070  0.46038530  1.0
  H  H30  1  0.19808328  0.69489091  0.03961358  1.0
  H  H31  1  0.69806554  0.53960975  0.30512286  1.0
  H  H32  1  0.80195996  0.53960547  0.19489615  1.0
  H  H33  1  0.80191687  0.96039428  0.30512573  1.0
  H  H34  1  0.69806384  0.96039104  0.19488856  1.0
  H  H35  1  0.19806428  0.80510463  0.46039344  1.0
  H  H36  1  0.58138871  0.18819290  0.87872581  1.0
  H  H37  1  0.58141418  0.31180149  0.62127050  1.0
  H  H38  1  0.91863470  0.31180656  0.87873453  1.0
  H  H39  1  0.41860790  0.37871949  0.68819120  1.0
  H  H40  1  0.08141500  0.37872396  0.81180231  1.0
  H  H41  1  0.08138588  0.12127425  0.68819120  1.0
  H  H42  1  0.41860946  0.12126936  0.81180896  1.0
  H  H43  1  0.91860352  0.18818861  0.62126095  1.0
  H  H44  1  0.41858915  0.81181214  0.12127186  1.0
  H  H45  1  0.41860673  0.68819715  0.37872983  1.0
  H  H46  1  0.08139429  0.68819528  0.12126688  1.0
  H  H47  1  0.58137130  0.62126794  0.31181608  1.0
  H  H48  1  0.91863149  0.62126827  0.18819856  1.0
  H  H49  1  0.91862965  0.87874680  0.31182088  1.0
  H  H50  1  0.58136705  0.87873995  0.18819405  1.0
  H  H51  1  0.08139722  0.81180469  0.37872657  1.0
  H  H52  1  0.63754620  0.10965256  0.92839771  1.0
  H  H53  1  0.63752060  0.39034472  0.57159553  1.0
  H  H54  1  0.86245878  0.39034610  0.92840565  1.0
  H  H55  1  0.36247669  0.42839859  0.60964899  1.0
  H  H56  1  0.13749296  0.42840637  0.89034211  1.0
  H  H57  1  0.13752877  0.07159420  0.60965473  1.0
  H  H58  1  0.36247677  0.07159431  0.89034890  1.0
  H  H59  1  0.86246843  0.10964831  0.57159397  1.0
  H  H60  1  0.36245587  0.89035302  0.07160049  1.0
  H  H61  1  0.36247341  0.60965338  0.42840588  1.0
  H  H62  1  0.13753119  0.60965467  0.07160803  1.0
  H  H63  1  0.63755096  0.57159844  0.39036095  1.0
  H  H64  1  0.86249970  0.57158800  0.10965823  1.0
  H  H65  1  0.86244370  0.92839963  0.39035841  1.0
  H  H66  1  0.63752262  0.92840273  0.10965091  1.0
  H  H67  1  0.13750539  0.89034392  0.42840690  1.0
  C  C68  1  0.95748074  0.07011696  0.01756285  1.0
  C  C69  1  0.95753342  0.42987925  0.48243551  1.0
  C  C70  1  0.54247713  0.42987315  0.01756476  1.0
  C  C71  1  0.04249153  0.51755666  0.57011623  1.0
  C  C72  1  0.45749775  0.51756301  0.92989083  1.0
  C  C73  1  0.45754403  0.98244940  0.57012076  1.0
  C  C74  1  0.04245137  0.98243907  0.92988075  1.0
  C  C75  1  0.54253504  0.07010531  0.48242058  1.0
  C  C76  1  0.04244732  0.92988702  0.98244336  1.0
  C  C77  1  0.04248211  0.57010978  0.51755521  1.0
  C  C78  1  0.45754514  0.57010787  0.98245265  1.0
  C  C79  1  0.95753208  0.48243237  0.42987611  1.0
  C  C80  1  0.54252183  0.48241534  0.07012125  1.0
  C  C81  1  0.54249303  0.01754657  0.42989185  1.0
  C  C82  1  0.95748477  0.01756383  0.07011692  1.0
  C  C83  1  0.45751145  0.92988052  0.51758563  1.0
  C  C84  1  0.99997710  0.05374023  0.94626413  1.0
  C  C85  1  0.00000679  0.44625806  0.55373010  1.0
  C  C86  1  0.50001496  0.44625585  0.94627818  1.0
  C  C87  1  0.49998912  0.05373230  0.55373526  1.0
  C  C88  1  0.99996509  0.94626953  0.05372886  1.0
  C  C89  1  0.00000539  0.55372732  0.44627331  1.0
  C  C90  1  0.50002480  0.55372303  0.05373069  1.0
  C  C91  1  0.50000354  0.94626847  0.44627255  1.0
  C  C92  1  0.99998510  0.10913089  0.89087408  1.0
  C  C93  1  0.00002166  0.39087007  0.60912763  1.0
  C  C94  1  0.49997180  0.39087718  0.89087609  1.0
  C  C95  1  0.50001343  0.10913553  0.60911334  1.0
  C  C96  1  0.99995977  0.89087994  0.10912052  1.0
  C  C97  1  0.99998849  0.60912109  0.39087698  1.0
  C  C98  1  0.50006257  0.60912039  0.10912211  1.0
  C  C99  1  0.49998327  0.89087966  0.39088380  1.0
  C  C100  1  0.86024409  0.15678138  0.87410162  1.0
  C  C101  1  0.86025151  0.34322268  0.62589161  1.0
  C  C102  1  0.63976204  0.34324101  0.87408636  1.0
  C  C103  1  0.13974702  0.37410009  0.65677261  1.0
  C  C104  1  0.36027229  0.37412294  0.84320806  1.0
  C  C105  1  0.36023071  0.12591003  0.65675462  1.0
  C  C106  1  0.13974400  0.12589564  0.84322475  1.0
  C  C107  1  0.63970811  0.15679147  0.62587430  1.0
  C  C108  1  0.13974454  0.84322419  0.12588911  1.0
  C  C109  1  0.13974115  0.65677009  0.37410285  1.0
  C  C110  1  0.36027907  0.65677471  0.12589102  1.0
  C  C111  1  0.86025102  0.62590014  0.34323039  1.0
  C  C112  1  0.63976343  0.62589865  0.15677573  1.0
  C  C113  1  0.63971754  0.87410409  0.34323238  1.0
  C  C114  1  0.86025673  0.87409713  0.15677185  1.0
  C  C115  1  0.36024417  0.84322852  0.37411002  1.0
  C  C116  1  0.68413449  0.16259188  0.91161339  1.0
  C  C117  1  0.68416303  0.33740951  0.58838752  1.0
  C  C118  1  0.81585108  0.33741310  0.91160697  1.0
  C  C119  1  0.31586698  0.41160708  0.66258979  1.0
  C  C120  1  0.18412447  0.41162189  0.83740657  1.0
  C  C121  1  0.18415489  0.08839720  0.66258567  1.0
  C  C122  1  0.31584499  0.08838545  0.83741271  1.0
  C  C123  1  0.81586963  0.16259056  0.58837271  1.0
  C  C124  1  0.31582991  0.83741423  0.08838375  1.0
  C  C125  1  0.31584578  0.66258913  0.41161068  1.0
  C  C126  1  0.18417253  0.66258927  0.08839070  1.0
  C  C127  1  0.68413644  0.58838621  0.33741909  1.0
  C  C128  1  0.81589510  0.58838155  0.16259377  1.0
  C  C129  1  0.81585123  0.91162012  0.33741894  1.0
  C  C130  1  0.68411537  0.91162012  0.16258816  1.0
  C  C131  1  0.18414187  0.83740914  0.41161589  1.0
  N  N132  1  0.91223165  0.19885078  0.81867398  1.0
  N  N133  1  0.91224465  0.30115409  0.68132262  1.0
  N  N134  1  0.58777970  0.30116491  0.81865727  1.0
  N  N135  1  0.08776309  0.31867830  0.69884549  1.0
  N  N136  1  0.41223602  0.31869160  0.80113223  1.0
  N  N137  1  0.41223155  0.18133578  0.69883168  1.0
  N  N138  1  0.08775663  0.18132622  0.80115332  1.0
  N  N139  1  0.58776492  0.19885821  0.68130163  1.0
  N  N140  1  0.08777715  0.80115106  0.18132796  1.0
  N  N141  1  0.08777762  0.69884881  0.31867238  1.0
  N  N142  1  0.41223718  0.69885240  0.18132385  1.0
  N  N143  1  0.91220938  0.68133101  0.30115004  1.0
  N  N144  1  0.58781451  0.68132625  0.19885103  1.0
  N  N145  1  0.58778264  0.81867780  0.30115211  1.0
  N  N146  1  0.91220372  0.81867722  0.19885236  1.0
  N  N147  1  0.41221159  0.80115164  0.31867682  1.0
