# generated using pymatgen
data_Al2H8C25I(NO7)2
_symmetry_space_group_name_H-M   'P 1'
_cell_length_a   6.71464265
_cell_length_b   20.70996347
_cell_length_c   23.72697559
_cell_angle_alpha   90.27402361
_cell_angle_beta   92.61296826
_cell_angle_gamma   91.71279219
_symmetry_Int_Tables_number   1
_chemical_formula_structural   Al2H8C25I(NO7)2
_chemical_formula_sum   'Al4 H16 C50 I2 N4 O28'
_cell_volume   3294.50775452
_cell_formula_units_Z   2
loop_
 _symmetry_equiv_pos_site_id
 _symmetry_equiv_pos_as_xyz
  1  'x, y, z'
loop_
 _atom_site_type_symbol
 _atom_site_label
 _atom_site_symmetry_multiplicity
 _atom_site_fract_x
 _atom_site_fract_y
 _atom_site_fract_z
 _atom_site_occupancy
  Al  Al0  1  0.80010277  0.25162369  0.25335631  1.0
  Al  Al1  1  0.19989730  0.74837583  0.74664286  1.0
  Al  Al2  1  0.29994389  0.25174675  0.25233399  1.0
  Al  Al3  1  0.70005779  0.74825277  0.74766730  1.0
  H  H4  1  0.19898232  0.41293012  0.54116645  1.0
  H  H5  1  0.80098529  0.58707459  0.45883290  1.0
  H  H6  1  0.81015574  0.44558314  0.57298321  1.0
  H  H7  1  0.18981490  0.55442159  0.42701700  1.0
  H  H8  1  0.27690085  0.57570405  0.97631505  1.0
  H  H9  1  0.72313919  0.42429415  0.02368108  1.0
  H  H10  1  0.19938603  0.05101632  0.45650699  1.0
  H  H11  1  0.80065597  0.94897996  0.54349926  1.0
  H  H12  1  0.16371304  0.97013951  0.53357054  1.0
  H  H13  1  0.83632445  0.02985772  0.46643399  1.0
  H  H14  1  0.22510050  0.07201452  0.02220679  1.0
  H  H15  1  0.77486955  0.92798827  0.97778498  1.0
  H  H16  1  0.55728766  0.33655612  0.24821971  1.0
  H  H17  1  0.44270190  0.66344336  0.75177811  1.0
  H  H18  1  0.04049136  0.16769444  0.24196279  1.0
  H  H19  1  0.95949842  0.83230553  0.75803841  1.0
  C  C20  1  0.55468364  0.17468121  0.32850938  1.0
  C  C21  1  0.44532490  0.82530964  0.67149067  1.0
  C  C22  1  0.53111054  0.17371878  0.17627156  1.0
  C  C23  1  0.46889079  0.82627350  0.82373138  1.0
  C  C24  1  0.04289647  0.32864119  0.17624105  1.0
  C  C25  1  0.95710709  0.67136269  0.82376239  1.0
  C  C26  1  0.07138899  0.32895510  0.32907528  1.0
  C  C27  1  0.92862026  0.67104590  0.67092650  1.0
  C  C28  1  0.89549034  0.46918096  0.54041027  1.0
  C  C29  1  0.10447881  0.53082376  0.45958993  1.0
  C  C30  1  0.10965641  0.45161036  0.52326105  1.0
  C  C31  1  0.89031270  0.54839533  0.47673746  1.0
  C  C32  1  0.07925404  0.37350809  0.37595230  1.0
  C  C33  1  0.92074179  0.62649721  0.62404476  1.0
  C  C34  1  0.82766278  0.47511771  0.47684786  1.0
  C  C35  1  0.17229724  0.52488553  0.52315057  1.0
  C  C36  1  0.04325886  0.45643891  0.45861335  1.0
  C  C37  1  0.95672141  0.54355909  0.54137975  1.0
  C  C38  1  0.07560224  0.41189245  0.41498000  1.0
  C  C39  1  0.92437359  0.58811809  0.58502661  1.0
  C  C40  1  0.18009950  0.49945216  0.03028020  1.0
  C  C41  1  0.81992921  0.50055035  0.96972175  1.0
  C  C42  1  0.02745127  0.45501688  0.04536660  1.0
  C  C43  1  0.97257430  0.54498514  0.95463280  1.0
  C  C44  1  0.84590717  0.45692250  0.01336433  1.0
  C  C45  1  0.15412288  0.54308050  0.98663426  1.0
  C  C46  1  0.04271765  0.41111304  0.09055352  1.0
  C  C47  1  0.95731096  0.58889044  0.90944548  1.0
  C  C48  1  0.96114064  0.62729213  0.87083218  1.0
  C  C49  1  0.03886609  0.37271176  0.12917465  1.0
  C  C50  1  0.31009808  0.98353069  0.51855962  1.0
  C  C51  1  0.68993321  0.01646507  0.48144233  1.0
  C  C52  1  0.47999172  0.95450496  0.54338871  1.0
  C  C53  1  0.52004542  0.04548889  0.45661328  1.0
  C  C54  1  0.67031176  0.97165014  0.52415732  1.0
  C  C55  1  0.32972710  0.02834468  0.47584763  1.0
  C  C56  1  0.46124348  0.90902500  0.58722288  1.0
  C  C57  1  0.53878320  0.09096881  0.41277860  1.0
  C  C58  1  0.55117222  0.12989880  0.37469167  1.0
  C  C59  1  0.44884216  0.87008966  0.62530884  1.0
  C  C60  1  0.32204027  0.99666338  0.96856904  1.0
  C  C61  1  0.67792553  0.00333843  0.03142774  1.0
  C  C62  1  0.47408385  0.95438293  0.95434393  1.0
  C  C63  1  0.52586976  0.04561643  0.04565064  1.0
  C  C64  1  0.65320246  0.95907083  0.98751618  1.0
  C  C65  1  0.34675133  0.04093383  0.01247588  1.0
  C  C66  1  0.46223988  0.90995205  0.90894915  1.0
  C  C67  1  0.53773163  0.09004833  0.09104473  1.0
  C  C68  1  0.52670429  0.12876035  0.12943899  1.0
  C  C69  1  0.47328538  0.87123141  0.87056891  1.0
  I  I70  1  0.43269032  0.56731468  0.56294530  1.0
  I  I71  1  0.56728023  0.43268329  0.43706036  1.0
  N  N72  1  0.37789717  0.50012667  0.06013968  1.0
  N  N73  1  0.62213439  0.49987634  0.93985935  1.0
  N  N74  1  0.12607309  0.99425231  0.93773330  1.0
  N  N75  1  0.87389249  0.00574757  0.06226179  1.0
  O  O76  1  0.36418093  0.19171054  0.19300333  1.0
  O  O77  1  0.63581427  0.80828075  0.80699745  1.0
  O  O78  1  0.72469795  0.19272755  0.31159799  1.0
  O  O79  1  0.27530350  0.80726810  0.68840329  1.0
  O  O80  1  0.89725141  0.31208614  0.30984546  1.0
  O  O81  1  0.10275169  0.68791531  0.69015248  1.0
  O  O82  1  0.70438081  0.19003631  0.19639508  1.0
  O  O83  1  0.29562331  0.80995694  0.80360326  1.0
  O  O84  1  0.87436471  0.31122516  0.19442100  1.0
  O  O85  1  0.12563728  0.68877871  0.80558116  1.0
  O  O86  1  0.38463685  0.19117325  0.30837844  1.0
  O  O87  1  0.61538059  0.80881811  0.69162042  1.0
  O  O88  1  0.55345307  0.29000798  0.25212310  1.0
  O  O89  1  0.44654880  0.70999154  0.74788157  1.0
  O  O90  1  0.21481879  0.31257821  0.19507474  1.0
  O  O91  1  0.78518277  0.68742180  0.80492403  1.0
  O  O92  1  0.23657171  0.31130604  0.31074168  1.0
  O  O93  1  0.76344630  0.68869160  0.68926058  1.0
  O  O94  1  0.04648618  0.21320098  0.25178749  1.0
  O  O95  1  0.95351408  0.78679853  0.74821505  1.0
  O  O96  1  0.42847817  0.45034346  0.08483315  1.0
  O  O97  1  0.48262011  0.55040630  0.05743758  1.0
  O  O98  1  0.57153943  0.54966481  0.91517674  1.0
  O  O99  1  0.51742984  0.44959145  0.94254978  1.0
  O  O100  1  0.07435228  0.94347461  0.91278290  1.0
  O  O101  1  0.02355805  0.04307323  0.94000484  1.0
  O  O102  1  0.92563542  0.05652776  0.08720522  1.0
  O  O103  1  0.97639569  0.95692516  0.05999310  1.0
