# generated using pymatgen
data_Zn2H23C33I6N7O8
_symmetry_space_group_name_H-M   'P 1'
_cell_length_a   10.80151555
_cell_length_b   10.85125146
_cell_length_c   14.02074656
_cell_angle_alpha   98.11928239
_cell_angle_beta   93.60447448
_cell_angle_gamma   73.98578653
_symmetry_Int_Tables_number   1
_chemical_formula_structural   Zn2H23C33I6N7O8
_chemical_formula_sum   'Zn2 H23 C33 I6 N7 O8'
_cell_volume   1563.27019143
_cell_formula_units_Z   1
loop_
 _symmetry_equiv_pos_site_id
 _symmetry_equiv_pos_as_xyz
  1  'x, y, z'
loop_
 _atom_site_type_symbol
 _atom_site_label
 _atom_site_symmetry_multiplicity
 _atom_site_fract_x
 _atom_site_fract_y
 _atom_site_fract_z
 _atom_site_occupancy
  Zn  Zn0  1  0.47107841  0.36835241  0.53687803  1.0
  Zn  Zn1  1  0.40425952  0.65048546  0.54055429  1.0
  H  H2  1  0.42305785  0.38202953  0.01954030  1.0
  H  H3  1  0.51111266  0.99930301  0.05261625  1.0
  H  H4  1  0.59206111  0.08426206  0.98966510  1.0
  H  H5  1  0.57288501  0.26047449  0.33202221  1.0
  H  H6  1  0.70933381  0.34730405  0.26535549  1.0
  H  H7  1  0.67861386  0.26367043  0.15258465  1.0
  H  H8  1  0.80978795  0.18973117  0.22940490  1.0
  H  H9  1  0.33831810  0.22955116  0.57929965  1.0
  H  H10  1  0.46221299  0.09040490  0.70197579  1.0
  H  H11  1  0.43357236  0.26228050  0.73022799  1.0
  H  H12  1  0.58618512  0.16727418  0.68803946  1.0
  H  H13  1  0.40957560  0.67266540  0.05897459  1.0
  H  H14  1  0.96190135  0.73562362  0.73045038  1.0
  H  H15  1  0.03580799  0.89637818  0.67474474  1.0
  H  H16  1  0.90493510  0.86861441  0.59791071  1.0
  H  H17  1  0.06688554  0.80012730  0.56050709  1.0
  H  H18  1  0.19304832  0.36237401  0.39928859  1.0
  H  H19  1  0.75790505  0.80516517  0.07925656  1.0
  H  H20  1  0.70008719  0.61957588  0.02862551  1.0
  H  H21  1  0.63517981  0.62819085  0.14401394  1.0
  H  H22  1  0.80030703  0.54905080  0.12389150  1.0
  H  H23  1  0.76266517  0.05160966  0.10490340  1.0
  H  H24  1  0.52076824  0.15647842  0.10361919  1.0
  C  C25  1  0.67780869  0.48499510  0.55018430  1.0
  C  C26  1  0.85359404  0.58457734  0.62180788  1.0
  C  C27  1  0.97611057  0.60787476  0.61257111  1.0
  C  C28  1  0.42059363  0.50608025  0.35426504  1.0
  C  C29  1  0.05762368  0.52611429  0.54322010  1.0
  C  C30  1  0.67778912  0.80349574  0.30096476  1.0
  C  C31  1  0.70487660  0.83953740  0.21357294  1.0
  C  C32  1  0.68173543  0.97471803  0.20278747  1.0
  C  C33  1  0.63641914  0.07221039  0.27885167  1.0
  C  C34  1  0.59129245  0.03477075  0.36226623  1.0
  C  C35  1  0.60564471  0.89995774  0.36920292  1.0
  C  C36  1  0.41665191  0.49260385  0.25040749  1.0
  C  C37  1  0.48060126  0.96516906  0.50315129  1.0
  C  C38  1  0.48503575  0.09480870  0.50692444  1.0
  C  C39  1  0.19372864  0.53502106  0.53962118  1.0
  C  C40  1  0.43578184  0.55350003  0.72475560  1.0
  C  C41  1  0.42813520  0.56626075  0.82840583  1.0
  C  C42  1  0.41581921  0.57899864  0.01585160  1.0
  C  C43  1  0.41814065  0.47578125  0.06209242  1.0
  C  C44  1  0.41560015  0.48458197  0.16264088  1.0
  C  C45  1  0.42135491  0.57167807  0.91558270  1.0
  C  C46  1  0.72047722  0.63127471  0.10665391  1.0
  C  C47  1  0.91629585  0.24719682  0.48909212  1.0
  C  C48  1  0.57357984  0.06500749  0.06155471  1.0
  C  C49  1  0.70989593  0.25124556  0.22799958  1.0
  C  C50  1  0.48243985  0.17690367  0.68169672  1.0
  C  C51  1  0.00449820  0.82481075  0.62270068  1.0
  C  C52  1  0.99858674  0.16721968  0.41880158  1.0
  C  C53  1  0.09361352  0.21508231  0.38138415  1.0
  C  C54  1  0.11237823  0.33215313  0.42174596  1.0
  C  C55  1  0.02778172  0.41432900  0.49209520  1.0
  C  C56  1  0.91613475  0.37991773  0.51629004  1.0
  C  C57  1  0.81801981  0.47929456  0.57034645  1.0
  I  I58  1  0.76045419  0.61951886  0.34361965  1.0
  I  I59  1  0.73085143  0.71987648  0.72361313  1.0
  I  I60  1  0.83422153  0.15926005  0.58464624  1.0
  I  I61  1  0.99168226  0.97619049  0.37305347  1.0
  I  I62  1  0.22117467  0.10896559  0.27239941  1.0
  I  I63  1  0.34404221  0.91881034  0.58849176  1.0
  N  N64  1  0.54368482  0.87189254  0.44157874  1.0
  N  N65  1  0.53914036  0.12517129  0.43451158  1.0
  N  N66  1  0.74962783  0.75486914  0.13396743  1.0
  N  N67  1  0.69631886  0.00136754  0.10739935  1.0
  N  N68  1  0.62577281  0.19985354  0.27791523  1.0
  N  N69  1  0.43735028  0.19956120  0.58168556  1.0
  N  N70  1  0.01451537  0.70885692  0.66920436  1.0
  O  O71  1  0.64776213  0.38338890  0.51059255  1.0
  O  O72  1  0.59815774  0.59519387  0.56759361  1.0
  O  O73  1  0.41879492  0.40685719  0.39333922  1.0
  O  O74  1  0.42646294  0.61600032  0.39684636  1.0
  O  O75  1  0.27685700  0.43780980  0.56754206  1.0
  O  O76  1  0.21830856  0.63153634  0.51184715  1.0
  O  O77  1  0.49796480  0.44387318  0.68360001  1.0
  O  O78  1  0.37892335  0.65341256  0.68476428  1.0
