# generated using pymatgen
data_GdH14C17NO7
_symmetry_space_group_name_H-M   'P 1'
_cell_length_a   6.38964658
_cell_length_b   16.59063476
_cell_length_c   24.19433531
_cell_angle_alpha   89.99989581
_cell_angle_beta   88.64081412
_cell_angle_gamma   89.99945949
_symmetry_Int_Tables_number   1
_chemical_formula_structural   GdH14C17NO7
_chemical_formula_sum   'Gd4 H56 C68 N4 O28'
_cell_volume   2564.07854628
_cell_formula_units_Z   4
loop_
 _symmetry_equiv_pos_site_id
 _symmetry_equiv_pos_as_xyz
  1  'x, y, z'
loop_
 _atom_site_type_symbol
 _atom_site_label
 _atom_site_symmetry_multiplicity
 _atom_site_fract_x
 _atom_site_fract_y
 _atom_site_fract_z
 _atom_site_occupancy
  Gd  Gd0  1  0.26345995  0.93655355  0.97815115  1.0
  Gd  Gd1  1  0.73654487  0.43655084  0.52184747  1.0
  Gd  Gd2  1  0.73653205  0.06344289  0.02184610  1.0
  Gd  Gd3  1  0.26346428  0.56344439  0.47815300  1.0
  H  H4  1  0.63906037  0.22204676  0.17971066  1.0
  H  H5  1  0.36093180  0.72204899  0.32029077  1.0
  H  H6  1  0.36091922  0.77796173  0.82028004  1.0
  H  H7  1  0.63908039  0.27795407  0.67971548  1.0
  H  H8  1  0.01104314  0.16310907  0.23655781  1.0
  H  H9  1  0.98895522  0.66311777  0.26344489  1.0
  H  H10  1  0.98894418  0.83689400  0.76343781  1.0
  H  H11  1  0.01106172  0.33688891  0.73655802  1.0
  H  H12  1  0.96139383  0.08354462  0.15120561  1.0
  H  H13  1  0.03861754  0.58355088  0.34879794  1.0
  H  H14  1  0.03858562  0.91645302  0.84879253  1.0
  H  H15  1  0.96140095  0.41645400  0.65120538  1.0
  H  H16  1  0.05367644  0.30317714  0.26202910  1.0
  H  H17  1  0.94631989  0.80317521  0.23797181  1.0
  H  H18  1  0.94631867  0.69683195  0.73796896  1.0
  H  H19  1  0.05368771  0.19683147  0.76202826  1.0
  H  H20  1  0.73336957  0.29588257  0.35705564  1.0
  H  H21  1  0.26661754  0.79588806  0.14294614  1.0
  H  H22  1  0.26663341  0.70411386  0.64293990  1.0
  H  H23  1  0.73337749  0.20410597  0.85705646  1.0
  H  H24  1  0.67761931  0.20630333  0.27599874  1.0
  H  H25  1  0.32237166  0.70630658  0.22400478  1.0
  H  H26  1  0.32238057  0.79369973  0.72399517  1.0
  H  H27  1  0.67762958  0.29369166  0.77600069  1.0
  H  H28  1  0.12237580  0.77950206  0.07118648  1.0
  H  H29  1  0.87764145  0.27950431  0.42881641  1.0
  H  H30  1  0.87764268  0.22049679  0.92881725  1.0
  H  H31  1  0.12233622  0.72048128  0.57119414  1.0
  H  H32  1  0.97750460  0.68225471  0.11681786  1.0
  H  H33  1  0.02250121  0.18226422  0.38317817  1.0
  H  H34  1  0.02247469  0.31774113  0.88318937  1.0
  H  H35  1  0.97749227  0.81773222  0.61682321  1.0
  H  H36  1  0.84444289  0.60989731  0.07552256  1.0
  H  H37  1  0.15555703  0.10990263  0.42447110  1.0
  H  H38  1  0.15553960  0.39009973  0.92448135  1.0
  H  H39  1  0.84444745  0.89009200  0.57552815  1.0
  H  H40  1  0.69870094  0.68174104  0.11618225  1.0
  H  H41  1  0.30130181  0.18174357  0.38381091  1.0
  H  H42  1  0.30127376  0.31825962  0.88381922  1.0
  H  H43  1  0.69869172  0.81825407  0.61618840  1.0
  H  H44  1  0.70680297  0.76974122  0.97283866  1.0
  H  H45  1  0.29325488  0.26974242  0.52715078  1.0
  H  H46  1  0.29321398  0.23026064  0.02716383  1.0
  H  H47  1  0.70677634  0.73026245  0.47284132  1.0
  H  H48  1  0.52944232  0.73891648  0.02701994  1.0
  H  H49  1  0.47059041  0.23891517  0.47296432  1.0
  H  H50  1  0.47056372  0.26108719  0.97297972  1.0
  H  H51  1  0.52941895  0.76109031  0.52702458  1.0
  H  H52  1  0.67015114  0.66470007  0.98714511  1.0
  H  H53  1  0.32990006  0.16469938  0.51284365  1.0
  H  H54  1  0.32985646  0.33530058  0.01285495  1.0
  H  H55  1  0.67014045  0.83530489  0.48715377  1.0
  H  H56  1  0.13087847  0.43388432  0.37459874  1.0
  H  H57  1  0.86910354  0.93388600  0.12540003  1.0
  H  H58  1  0.86912603  0.56611272  0.62539927  1.0
  H  H59  1  0.13088216  0.06611405  0.87459932  1.0
  C  C60  1  0.23039634  0.05987360  0.06772219  1.0
  C  C61  1  0.76960006  0.55987351  0.43227815  1.0
  C  C62  1  0.76958785  0.94012224  0.93227386  1.0
  C  C63  1  0.23041218  0.44012293  0.56772479  1.0
  C  C64  1  0.26997493  0.10682223  0.11707708  1.0
  C  C65  1  0.73002489  0.60682604  0.38292609  1.0
  C  C66  1  0.73000613  0.89317842  0.88291857  1.0
  C  C67  1  0.26999984  0.39318125  0.61707885  1.0
  C  C68  1  0.46835669  0.14584088  0.12510464  1.0
  C  C69  1  0.53164527  0.64584599  0.37489724  1.0
  C  C70  1  0.53162287  0.85416339  0.87488771  1.0
  C  C71  1  0.46837785  0.35415949  0.62511019  1.0
  C  C72  1  0.49030070  0.19107111  0.17436100  1.0
  C  C73  1  0.50969070  0.69107584  0.32564047  1.0
  C  C74  1  0.50967727  0.80893497  0.82563260  1.0
  C  C75  1  0.49032619  0.30893085  0.67436492  1.0
  C  C76  1  0.32928979  0.19835074  0.21381627  1.0
  C  C77  1  0.67070769  0.69835684  0.28618515  1.0
  C  C78  1  0.67068818  0.80165354  0.78617774  1.0
  C  C79  1  0.32931232  0.30165105  0.71382105  1.0
  C  C80  1  0.13604446  0.15914583  0.20523270  1.0
  C  C81  1  0.86395241  0.65914944  0.29477208  1.0
  C  C82  1  0.86393193  0.84085543  0.79476214  1.0
  C  C83  1  0.13606921  0.34085785  0.70523164  1.0
  C  C84  1  0.10929850  0.11425435  0.15786076  1.0
  C  C85  1  0.89070270  0.61426074  0.34214156  1.0
  C  C86  1  0.89068725  0.88574932  0.84213528  1.0
  C  C87  1  0.10931422  0.38574594  0.65786217  1.0
  C  C88  1  0.36101988  0.24800211  0.26360394  1.0
  C  C89  1  0.63897316  0.74800666  0.23639828  1.0
  C  C90  1  0.63897369  0.75199794  0.73639247  1.0
  C  C91  1  0.36103123  0.25199641  0.76360593  1.0
  C  C92  1  0.20212136  0.29910287  0.28320160  1.0
  C  C93  1  0.79786881  0.79910754  0.21679934  1.0
  C  C94  1  0.79787377  0.70089778  0.71679563  1.0
  C  C95  1  0.20212777  0.20089734  0.78320367  1.0
  C  C96  1  0.23291829  0.34990792  0.32866312  1.0
  C  C97  1  0.76707051  0.84990921  0.17134025  1.0
  C  C98  1  0.76707992  0.65009213  0.67133658  1.0
  C  C99  1  0.23292299  0.15009145  0.82866030  1.0
  C  C100  1  0.42593582  0.34725666  0.35675843  1.0
  C  C101  1  0.57405464  0.84725869  0.14324411  1.0
  C  C102  1  0.57405766  0.65273857  0.64324336  1.0
  C  C103  1  0.42593883  0.15274016  0.85675809  1.0
  C  C104  1  0.58340851  0.29513726  0.33663142  1.0
  C  C105  1  0.41658483  0.79513976  0.16337282  1.0
  C  C106  1  0.41659124  0.70486099  0.66336993  1.0
  C  C107  1  0.58341805  0.20485728  0.83662809  1.0
  C  C108  1  0.55376295  0.24642194  0.29094672  1.0
  C  C109  1  0.44622859  0.74642843  0.20905386  1.0
  C  C110  1  0.44623689  0.75357510  0.70904967  1.0
  C  C111  1  0.55377581  0.25357163  0.79094953  1.0
  C  C112  1  0.45987573  0.39830762  0.40604690  1.0
  C  C113  1  0.54011654  0.89830810  0.09395476  1.0
  C  C114  1  0.54013031  0.60169063  0.59395276  1.0
  C  C115  1  0.45987538  0.10169135  0.90604663  1.0
  C  C116  1  0.00435256  0.78172344  0.03874614  1.0
  C  C117  1  0.99567885  0.28172519  0.46124966  1.0
  C  C118  1  0.99566285  0.21826999  0.96125471  1.0
  C  C119  1  0.00431928  0.71826823  0.53875418  1.0
  C  C120  1  0.84167469  0.67236988  0.09078806  1.0
  C  C121  1  0.15833142  0.17237464  0.40920591  1.0
  C  C122  1  0.15831091  0.32762776  0.90921625  1.0
  C  C123  1  0.84166679  0.82762120  0.59079420  1.0
  C  C124  1  0.67854049  0.72520130  0.00548241  1.0
  C  C125  1  0.32150032  0.22520163  0.49450761  1.0
  C  C126  1  0.32146709  0.27479876  0.99451848  1.0
  C  C127  1  0.67852302  0.77480083  0.50548742  1.0
  N  N128  1  0.84867246  0.72839251  0.04445692  1.0
  N  N129  1  0.15135722  0.22839776  0.45553811  1.0
  N  N130  1  0.15132564  0.27160513  0.95554898  1.0
  N  N131  1  0.84865038  0.77159928  0.54446154  1.0
  O  O132  1  0.05493461  0.02353714  0.06017341  1.0
  O  O133  1  0.94506589  0.52353462  0.43982529  1.0
  O  O134  1  0.94505266  0.97646291  0.93982510  1.0
  O  O135  1  0.05494798  0.47646483  0.56017433  1.0
  O  O136  1  0.37285966  0.05175678  0.02940673  1.0
  O  O137  1  0.62712608  0.55175285  0.47058872  1.0
  O  O138  1  0.62712295  0.94824207  0.97059015  1.0
  O  O139  1  0.37287842  0.44824178  0.52940930  1.0
  O  O140  1  0.61241643  0.38296734  0.43741462  1.0
  O  O141  1  0.38757469  0.88296903  0.06258622  1.0
  O  O142  1  0.38758177  0.61702850  0.56258549  1.0
  O  O143  1  0.61241726  0.11702560  0.93741351  1.0
  O  O144  1  0.32708591  0.45566127  0.41457396  1.0
  O  O145  1  0.67290648  0.95565952  0.08542515  1.0
  O  O146  1  0.67292955  0.54433998  0.58542400  1.0
  O  O147  1  0.32707447  0.04434114  0.91457670  1.0
  O  O148  1  0.62678654  0.14253037  0.08971741  1.0
  O  O149  1  0.37321861  0.64253290  0.41028611  1.0
  O  O150  1  0.37318209  0.85747511  0.91027334  1.0
  O  O151  1  0.62681387  0.35747379  0.58972293  1.0
  O  O152  1  0.07422345  0.39908109  0.34426043  1.0
  O  O153  1  0.92576259  0.89908189  0.15573835  1.0
  O  O154  1  0.92576850  0.60091655  0.65573930  1.0
  O  O155  1  0.07422939  0.10091937  0.84425972  1.0
  O  O156  1  0.02039757  0.83171553  0.00006912  1.0
  O  O157  1  0.97964187  0.33171843  0.49993030  1.0
  O  O158  1  0.97962415  0.16827187  0.99992922  1.0
  O  O159  1  0.02035779  0.66827258  0.50007600  1.0
