# generated using pymatgen
data_Zn4H8C40Br8O13F4
_symmetry_space_group_name_H-M   'P 1'
_cell_length_a   23.94135882
_cell_length_b   23.94156944
_cell_length_c   23.93965507
_cell_angle_alpha   66.32312512
_cell_angle_beta   72.58693147
_cell_angle_gamma   107.41001019
_symmetry_Int_Tables_number   1
_chemical_formula_structural   Zn4H8C40Br8O13F4
_chemical_formula_sum   'Zn8 H16 C80 Br16 O26 F8'
_cell_volume   10519.90143545
_cell_formula_units_Z   2
loop_
 _symmetry_equiv_pos_site_id
 _symmetry_equiv_pos_as_xyz
  1  'x, y, z'
loop_
 _atom_site_type_symbol
 _atom_site_label
 _atom_site_symmetry_multiplicity
 _atom_site_fract_x
 _atom_site_fract_y
 _atom_site_fract_z
 _atom_site_occupancy
  Zn  Zn0  1  0.05686564  0.09974639  0.45710546  1.0
  Zn  Zn1  1  0.05686304  0.95711942  0.48601434  1.0
  Zn  Zn2  1  0.94313066  0.95710615  0.59975947  1.0
  Zn  Zn3  1  0.94314741  0.98603267  0.45710317  1.0
  Zn  Zn4  1  0.94313658  0.40025498  0.04289111  1.0
  Zn  Zn5  1  0.05687036  0.54289261  0.90024016  1.0
  Zn  Zn6  1  0.94313563  0.54288230  0.01398095  1.0
  Zn  Zn7  1  0.05685013  0.51397057  0.04289777  1.0
  H  H8  1  0.92369918  0.20884105  0.90105207  1.0
  H  H9  1  0.07628275  0.40104665  0.70881506  1.0
  H  H10  1  0.92370766  0.09895475  0.79118169  1.0
  H  H11  1  0.07624049  0.29117566  0.59893171  1.0
  H  H12  1  0.07630308  0.67528209  0.21484515  1.0
  H  H13  1  0.92371855  0.71490135  0.17522363  1.0
  H  H14  1  0.07624173  0.78507003  0.32480404  1.0
  H  H15  1  0.92370852  0.82475586  0.28511883  1.0
  H  H16  1  0.60987483  0.20883502  0.21490991  1.0
  H  H17  1  0.60987445  0.40105245  0.17522313  1.0
  H  H18  1  0.39012694  0.09894659  0.32478662  1.0
  H  H19  1  0.39012369  0.29114715  0.28517175  1.0
  H  H20  1  0.39013417  0.71493967  0.70882460  1.0
  H  H21  1  0.39011292  0.67522342  0.90107177  1.0
  H  H22  1  0.60988914  0.82478865  0.59892597  1.0
  H  H23  1  0.60986432  0.78513846  0.79116126  1.0
  C  C24  1  0.18095285  0.09046984  0.40951726  1.0
  C  C25  1  0.99999738  0.86261377  0.63738648  1.0
  C  C26  1  0.99999220  0.09046730  0.59048076  1.0
  C  C27  1  0.81905029  0.90953035  0.59046209  1.0
  C  C28  1  0.00000133  0.13739000  0.36261198  1.0
  C  C29  1  0.99999702  0.90952519  0.40952123  1.0
  C  C30  1  0.00000200  0.40953566  0.90951507  1.0
  C  C31  1  0.00000629  0.63738740  0.86260920  1.0
  C  C32  1  0.81904720  0.40952820  0.09048786  1.0
  C  C33  1  0.99998695  0.59047544  0.09047840  1.0
  C  C34  1  0.99999995  0.36261375  0.13738596  1.0
  C  C35  1  0.18094950  0.59047964  0.90953883  1.0
  C  C36  1  0.00000171  0.19481700  0.30518504  1.0
  C  C37  1  0.00000050  0.30518714  0.19481254  1.0
  C  C38  1  0.95789654  0.18124238  0.27665545  1.0
  C  C39  1  0.04210653  0.31876242  0.22334112  1.0
  C  C40  1  0.95789455  0.23455274  0.22334479  1.0
  C  C41  1  0.04210716  0.26545101  0.27665303  1.0
  C  C42  1  0.99999942  0.80518729  0.69481249  1.0
  C  C43  1  0.00000493  0.69481440  0.80518277  1.0
  C  C44  1  0.95789531  0.77665052  0.76545741  1.0
  C  C45  1  0.04210836  0.72335064  0.73453911  1.0
  C  C46  1  0.95789726  0.72333913  0.81876767  1.0
  C  C47  1  0.04210665  0.77666256  0.68122857  1.0
  C  C48  1  0.99999846  0.37203351  0.87201650  1.0
  C  C49  1  0.95733372  0.29922324  0.90683771  1.0
  C  C50  1  0.95721387  0.26442939  0.87222602  1.0
  C  C51  1  0.99998947  0.30048067  0.80047048  1.0
  C  C52  1  0.04276907  0.37222798  0.76440929  1.0
  C  C53  1  0.04265848  0.40684428  0.79919782  1.0
  C  C54  1  0.99998470  0.26522207  0.76521238  1.0
  C  C55  1  0.99997992  0.23478582  0.73477862  1.0
  C  C56  1  0.99997972  0.19952668  0.69952104  1.0
  C  C57  1  0.95721230  0.12777660  0.73558474  1.0
  C  C58  1  0.95732857  0.09316027  0.70079535  1.0
  C  C59  1  0.99998365  0.12797432  0.62797470  1.0
  C  C60  1  0.04262510  0.20079130  0.59315037  1.0
  C  C61  1  0.04274097  0.23558413  0.62776032  1.0
  C  C62  1  0.00000332  0.62799684  0.12795667  1.0
  C  C63  1  0.04267197  0.63585514  0.15809601  1.0
  C  C64  1  0.04278829  0.67058536  0.19277171  1.0
  C  C65  1  0.00000567  0.69954763  0.19950258  1.0
  C  C66  1  0.95723205  0.69282686  0.17052792  1.0
  C  C67  1  0.95734739  0.65815159  0.13579906  1.0
  C  C68  1  0.99999634  0.73479442  0.23477123  1.0
  C  C69  1  0.99998611  0.76521144  0.26522427  1.0
  C  C70  1  0.99997918  0.80045704  0.30049399  1.0
  C  C71  1  0.04274040  0.80715856  0.32948549  1.0
  C  C72  1  0.04262462  0.84183383  0.36421406  1.0
  C  C73  1  0.99998390  0.87200729  0.37203940  1.0
  C  C74  1  0.95732737  0.86416669  0.34188309  1.0
  C  C75  1  0.95721109  0.82943751  0.30720697  1.0
  C  C76  1  0.74404782  0.37202990  0.12797877  1.0
  C  C77  1  0.70604908  0.29921752  0.15814145  1.0
  C  C78  1  0.63664428  0.26442498  0.19282091  1.0
  C  C79  1  0.60095143  0.30048233  0.19953011  1.0
  C  C80  1  0.63664430  0.37223193  0.17054104  1.0
  C  C81  1  0.70604878  0.40684534  0.13581192  1.0
  C  C82  1  0.53043552  0.26521982  0.23479921  1.0
  C  C83  1  0.46956649  0.23477286  0.26524588  1.0
  C  C84  1  0.39905043  0.19951194  0.30050813  1.0
  C  C85  1  0.36335701  0.12776500  0.32948043  1.0
  C  C86  1  0.29395297  0.09315160  0.36420524  1.0
  C  C87  1  0.25595292  0.12796389  0.37204579  1.0
  C  C88  1  0.29394898  0.20076943  0.34191255  1.0
  C  C89  1  0.36335504  0.23556089  0.30724024  1.0
  C  C90  1  0.25595092  0.62798524  0.87203605  1.0
  C  C91  1  0.29395566  0.65816342  0.79921408  1.0
  C  C92  1  0.36335959  0.69284203  0.76442155  1.0
  C  C93  1  0.39904873  0.69954060  0.80048577  1.0
  C  C94  1  0.36334909  0.67054694  0.87224415  1.0
  C  C95  1  0.29394381  0.63581597  0.90685871  1.0
  C  C96  1  0.46956552  0.73480310  0.76522017  1.0
  C  C97  1  0.53043556  0.76524279  0.73476856  1.0
  C  C98  1  0.60095140  0.80049852  0.69950678  1.0
  C  C99  1  0.63665253  0.82947553  0.62775166  1.0
  C  C100  1  0.70605672  0.86420129  0.59313951  1.0
  C  C101  1  0.74404981  0.87204192  0.62795900  1.0
  C  C102  1  0.70604484  0.84188974  0.70077611  1.0
  C  C103  1  0.63663947  0.80721841  0.73556700  1.0
  Br  Br104  1  0.89498906  0.23849668  0.00372217  1.0
  Br  Br105  1  0.10500896  0.50371592  0.73846057  1.0
  Br  Br106  1  0.89499318  0.99628336  0.76153726  1.0
  Br  Br107  1  0.10493617  0.26152479  0.49625654  1.0
  Br  Br108  1  0.10502680  0.60134117  0.15646185  1.0
  Br  Br109  1  0.89500881  0.65654200  0.10126289  1.0
  Br  Br110  1  0.10494344  0.84342177  0.39877528  1.0
  Br  Br111  1  0.89498998  0.89870375  0.34349372  1.0
  Br  Br112  1  0.74219719  0.23849103  0.15653747  1.0
  Br  Br113  1  0.74219503  0.50372289  0.10125726  1.0
  Br  Br114  1  0.25780602  0.99627827  0.39874297  1.0
  Br  Br115  1  0.25779951  0.26148768  0.34355039  1.0
  Br  Br116  1  0.25781622  0.65657765  0.73847331  1.0
  Br  Br117  1  0.25779166  0.60125508  0.00374804  1.0
  Br  Br118  1  0.74220960  0.89874294  0.49625428  1.0
  Br  Br119  1  0.74218251  0.84350224  0.76151222  1.0
  O  O120  1  0.99999926  0.99999944  0.50000046  1.0
  O  O121  1  0.15163517  0.12630059  0.41310066  1.0
  O  O122  1  0.04007987  0.88434061  0.57557678  1.0
  O  O123  1  0.96055172  0.02532590  0.62631014  1.0
  O  O124  1  0.15163347  0.02532787  0.43522682  1.0
  O  O125  1  0.03944786  0.12628915  0.52533352  1.0
  O  O126  1  0.95991446  0.88433013  0.65575363  1.0
  O  O127  1  0.84836381  0.91311726  0.62629706  1.0
  O  O128  1  0.95992798  0.07559052  0.38432674  1.0
  O  O129  1  0.84837288  0.93525267  0.52531059  1.0
  O  O130  1  0.04007868  0.15574835  0.38433705  1.0
  O  O131  1  0.03943574  0.91314053  0.43522450  1.0
  O  O132  1  0.96057256  0.93524624  0.41311872  1.0
  O  O133  1  0.00000033  0.50000191  0.99999856  1.0
  O  O134  1  0.96057115  0.37370589  0.97466886  1.0
  O  O135  1  0.04009216  0.61567361  0.84424431  1.0
  O  O136  1  0.84836566  0.47466910  0.06478526  1.0
  O  O137  1  0.03942989  0.47467920  0.87368320  1.0
  O  O138  1  0.84836669  0.37370429  0.08687696  1.0
  O  O139  1  0.95991890  0.61565850  0.92441828  1.0
  O  O140  1  0.96056183  0.58687557  0.06475909  1.0
  O  O141  1  0.04007528  0.42441375  0.11566915  1.0
  O  O142  1  0.03939830  0.56473762  0.08689871  1.0
  O  O143  1  0.95991974  0.34425489  0.11566404  1.0
  O  O144  1  0.15163609  0.58685892  0.87371020  1.0
  O  O145  1  0.15162615  0.56477553  0.97468623  1.0
  F  F146  1  0.91527206  0.11604697  0.29923250  1.0
  F  F147  1  0.08473057  0.38395782  0.20076421  1.0
  F  F148  1  0.91527043  0.21450483  0.20077301  1.0
  F  F149  1  0.08473042  0.28549894  0.29922589  1.0
  F  F150  1  0.91527057  0.79921923  0.78551564  1.0
  F  F151  1  0.08473286  0.70078142  0.71448116  1.0
  F  F152  1  0.91527526  0.70076138  0.88397212  1.0
  F  F153  1  0.08472869  0.79924135  0.61602370  1.0
