# generated using pymatgen
data_Zn4H11C23O13F
_symmetry_space_group_name_H-M   'P 1'
_cell_length_a   18.39852919
_cell_length_b   18.45915285
_cell_length_c   18.47611493
_cell_angle_alpha   119.84624716
_cell_angle_beta   119.86080037
_cell_angle_gamma   89.99975341
_symmetry_Int_Tables_number   1
_chemical_formula_structural   Zn4H11C23O13F
_chemical_formula_sum   'Zn8 H22 C46 O26 F2'
_cell_volume   4456.59530805
_cell_formula_units_Z   2
loop_
 _symmetry_equiv_pos_site_id
 _symmetry_equiv_pos_as_xyz
  1  'x, y, z'
loop_
 _atom_site_type_symbol
 _atom_site_label
 _atom_site_symmetry_multiplicity
 _atom_site_fract_x
 _atom_site_fract_y
 _atom_site_fract_z
 _atom_site_occupancy
  Zn  Zn0  1  0.62145891  0.70808691  0.41755744  1.0
  Zn  Zn1  1  0.20554244  0.11796438  0.41044337  1.0
  Zn  Zn2  1  0.79510132  0.88203798  0.58955743  1.0
  Zn  Zn3  1  0.20458090  0.29226969  0.40987997  1.0
  Zn  Zn4  1  0.79684741  0.71032484  0.41853848  1.0
  Zn  Zn5  1  0.37830436  0.28967310  0.58145724  1.0
  Zn  Zn6  1  0.20390250  0.29191494  0.58244768  1.0
  Zn  Zn7  1  0.79469648  0.70772937  0.59011694  1.0
  H  H8  1  0.34613686  0.46662648  0.90586614  1.0
  H  H9  1  0.04777638  0.45325105  0.38332583  1.0
  H  H10  1  0.66445103  0.54674814  0.61667655  1.0
  H  H11  1  0.04835041  0.93194842  0.38413857  1.0
  H  H12  1  0.56642210  0.16313250  0.61363554  1.0
  H  H13  1  0.95166663  0.54998272  0.38475592  1.0
  H  H14  1  0.56691118  0.45001700  0.61524517  1.0
  H  H15  1  0.95278768  0.83686693  0.38636216  1.0
  H  H16  1  0.44026567  0.53336884  0.09413513  1.0
  H  H17  1  0.33545336  0.93013643  0.38318862  1.0
  H  H18  1  0.95146496  0.54736499  0.61581272  1.0
  H  H19  1  0.33565731  0.45264004  0.38419464  1.0
  H  H20  1  0.95226298  0.06986203  0.61681175  1.0
  H  H21  1  0.43325916  0.83502847  0.38507834  1.0
  H  H22  1  0.04720163  0.45030274  0.61398270  1.0
  H  H23  1  0.43322232  0.54970167  0.38602164  1.0
  H  H24  1  0.04817795  0.16497051  0.61492245  1.0
  H  H25  1  0.95188008  0.06827594  0.90388472  1.0
  H  H26  1  0.04753972  0.16397461  0.09529535  1.0
  H  H27  1  0.95224455  0.83602777  0.90470484  1.0
  H  H28  1  0.04800066  0.93172461  0.09611439  1.0
  H  H29  1  0.66420895  0.06805310  0.61586127  1.0
  C  C30  1  0.88863443  0.61134878  0.50085599  1.0
  C  C31  1  0.97287410  0.52626609  0.56518066  1.0
  C  C32  1  0.40769652  0.47373575  0.43482240  1.0
  C  C33  1  0.97385301  0.04049393  0.56637564  1.0
  C  C34  1  0.40747932  0.95950491  0.43362444  1.0
  C  C35  1  0.46154720  0.90690207  0.43471058  1.0
  C  C36  1  0.02588505  0.47259512  0.56422179  1.0
  C  C37  1  0.46166625  0.52740728  0.43578068  1.0
  C  C38  1  0.38762255  0.10869163  0.49613266  1.0
  C  C39  1  0.02683432  0.09309813  0.56529039  1.0
  C  C40  1  0.55416789  0.94619611  0.50033601  1.0
  C  C41  1  0.05274702  0.44617115  0.49841895  1.0
  C  C42  1  0.55432921  0.55383076  0.50158328  1.0
  C  C43  1  0.05383235  0.05380525  0.49966621  1.0
  C  C44  1  0.89149096  0.89130570  0.50386453  1.0
  C  C45  1  0.97333393  0.03912590  0.94676896  1.0
  C  C46  1  0.02629621  0.09212190  0.05274062  1.0
  C  C47  1  0.97355725  0.90788025  0.94726032  1.0
  C  C48  1  0.02656678  0.96087438  0.05322966  1.0
  C  C49  1  0.38778221  0.38865007  0.49914503  1.0
  C  C50  1  0.05328043  0.05332592  0.10662465  1.0
  C  C51  1  0.94665221  0.94667368  0.89337220  1.0
  C  C52  1  0.61220680  0.88955208  0.50124933  1.0
  C  C53  1  0.10932875  0.38803111  0.49714676  1.0
  C  C54  1  0.61218269  0.61196771  0.50285278  1.0
  C  C55  1  0.11095443  0.11044943  0.49875084  1.0
  C  C56  1  0.88972504  0.88963525  0.77934086  1.0
  C  C57  1  0.11038721  0.11036502  0.22065693  1.0
  C  C58  1  0.61397164  0.62292039  0.23021567  1.0
  C  C59  1  0.38376371  0.37707975  0.76978793  1.0
  C  C60  1  0.41642489  0.47329960  0.94508926  1.0
  C  C61  1  0.47133498  0.52669660  0.05491405  1.0
  C  C62  1  0.44175487  0.42644452  0.88300059  1.0
  C  C63  1  0.55874852  0.57355516  0.11699993  1.0
  C  C64  1  0.59219048  0.03864412  0.56515194  1.0
  C  C65  1  0.02622141  0.47423933  0.43380864  1.0
  C  C66  1  0.59241395  0.52576177  0.56619356  1.0
  C  C67  1  0.02703895  0.96135666  0.43484800  1.0
  C  C68  1  0.53813962  0.09126016  0.56392496  1.0
  C  C69  1  0.97307063  0.52779416  0.43462227  1.0
  C  C70  1  0.53844903  0.47220484  0.56537804  1.0
  C  C71  1  0.97421493  0.90874067  0.43607223  1.0
  C  C72  1  0.44551130  0.05192565  0.49795194  1.0
  C  C73  1  0.94600789  0.55399378  0.50021845  1.0
  C  C74  1  0.44579324  0.44600790  0.49978483  1.0
  C  C75  1  0.94755911  0.94807346  0.50204675  1.0
  O  O76  1  0.75172902  0.75188537  0.50387256  1.0
  O  O77  1  0.42683102  0.19213045  0.55382990  1.0
  O  O78  1  0.87299799  0.80786284  0.44615792  1.0
  O  O79  1  0.42690920  0.36760187  0.56196635  1.0
  O  O80  1  0.57313858  0.80591060  0.43924578  1.0
  O  O81  1  0.12990392  0.36417478  0.55707682  1.0
  O  O82  1  0.57282731  0.63581149  0.44290931  1.0
  O  O83  1  0.13389466  0.19408830  0.56075961  1.0
  O  O84  1  0.24785369  0.24811596  0.49612748  1.0
  O  O85  1  0.69602257  0.63318874  0.56365475  1.0
  O  O86  1  0.13218756  0.07076669  0.43626734  1.0
  O  O87  1  0.69591998  0.92923431  0.56372632  1.0
  O  O88  1  0.13237430  0.36681672  0.43635032  1.0
  O  O89  1  0.86687943  0.93064997  0.56308974  1.0
  O  O90  1  0.30406177  0.36543488  0.43608743  1.0
  O  O91  1  0.86797270  0.63456486  0.56391361  1.0
  O  O92  1  0.30378331  0.06934846  0.43691709  1.0
  O  O93  1  0.86745060  0.80600153  0.73550307  1.0
  O  O94  1  0.13297851  0.07080072  0.26492317  1.0
  O  O95  1  0.86804776  0.92920069  0.73507859  1.0
  O  O96  1  0.13194984  0.19400012  0.26449574  1.0
  O  O97  1  0.69730895  0.64996331  0.27431890  1.0
  O  O98  1  0.42299545  0.35003410  0.72568039  1.0
  O  O99  1  0.57238533  0.63215635  0.27101140  1.0
  O  O100  1  0.86494160  0.63239505  0.43803160  1.0
  O  O101  1  0.30138397  0.36784437  0.72899093  1.0
  F  F102  1  0.52412573  0.42045668  0.91984730  1.0
  F  F103  1  0.60427328  0.57954058  0.08015118  1.0
