# generated using pymatgen
data_Zn2H3C12S2O7F
_symmetry_space_group_name_H-M   'P 1'
_cell_length_a   19.66870347
_cell_length_b   19.69050925
_cell_length_c   33.37235323
_cell_angle_alpha   79.15917631
_cell_angle_beta   79.22155484
_cell_angle_gamma   63.96868294
_symmetry_Int_Tables_number   1
_chemical_formula_structural   Zn2H3C12S2O7F
_chemical_formula_sum   'Zn16 H24 C96 S16 O56 F8'
_cell_volume   11326.05760744
_cell_formula_units_Z   8
loop_
 _symmetry_equiv_pos_site_id
 _symmetry_equiv_pos_as_xyz
  1  'x, y, z'
loop_
 _atom_site_type_symbol
 _atom_site_label
 _atom_site_symmetry_multiplicity
 _atom_site_fract_x
 _atom_site_fract_y
 _atom_site_fract_z
 _atom_site_occupancy
  Zn  Zn0  1  0.05620654  0.40005828  0.47853086  1.0
  Zn  Zn1  1  0.98379413  0.48298407  0.56074285  1.0
  Zn  Zn2  1  0.05880271  0.56032975  0.48252882  1.0
  Zn  Zn3  1  0.90121861  0.55527984  0.47963905  1.0
  Zn  Zn4  1  0.69465174  0.34994428  0.27183869  1.0
  Zn  Zn5  1  0.68945847  0.19011746  0.26704015  1.0
  Zn  Zn6  1  0.76857216  0.26659654  0.19084533  1.0
  Zn  Zn7  1  0.84868084  0.19528493  0.27289181  1.0
  Zn  Zn8  1  0.26677646  0.76640265  0.68920883  1.0
  Zn  Zn9  1  0.34890007  0.69495293  0.77156389  1.0
  Zn  Zn10  1  0.19354395  0.84710894  0.77116899  1.0
  Zn  Zn11  1  0.19043259  0.68796055  0.76621849  1.0
  Zn  Zn12  1  0.56070328  0.06012592  0.98338269  1.0
  Zn  Zn13  1  0.40118151  0.05502462  0.97808841  1.0
  Zn  Zn14  1  0.55429893  0.90154188  0.97786048  1.0
  Zn  Zn15  1  0.48415201  0.98353936  0.06031856  1.0
  H  H16  1  0.95383498  0.24880251  0.35126240  1.0
  H  H17  1  0.74671192  0.45559082  0.35114777  1.0
  H  H18  1  0.00097855  0.29774797  0.39931498  1.0
  H  H19  1  0.09766111  0.59757638  0.69999010  1.0
  H  H20  1  0.20140898  0.70132695  0.59659584  1.0
  H  H21  1  0.05008119  0.55021977  0.65133545  1.0
  H  H22  1  0.46311259  0.24030096  0.34103944  1.0
  H  H23  1  0.47929874  0.70264618  0.60141023  1.0
  H  H24  1  0.20271370  0.97901561  0.60178785  1.0
  H  H25  1  0.94864474  0.97010126  0.34797261  1.0
  H  H26  1  0.54981864  0.04988364  0.15267374  1.0
  H  H27  1  0.65324418  0.15332858  0.04899152  1.0
  H  H28  1  0.59840342  0.09839088  0.20020037  1.0
  H  H29  1  0.54762371  0.77050177  0.14826368  1.0
  H  H30  1  0.16302972  0.14118452  0.04065304  1.0
  H  H31  1  0.50121500  0.79610491  0.89880179  1.0
  H  H32  1  0.29449724  0.00334858  0.89886869  1.0
  H  H33  1  0.45197978  0.74944676  0.85068426  1.0
  H  H34  1  0.30119487  0.27968888  0.90210634  1.0
  H  H35  1  0.78681100  0.00946823  0.90904230  1.0
  H  H36  1  0.81003278  0.52752337  0.41879500  1.0
  H  H37  1  0.13586093  0.63602746  0.52663874  1.0
  H  H38  1  0.72325255  0.22307027  0.11444585  1.0
  H  H39  1  0.22218245  0.94016180  0.83124110  1.0
  C  C40  1  0.06150591  0.31603093  0.56179584  1.0
  C  C41  1  0.06959988  0.57008672  0.56954113  1.0
  C  C42  1  0.18370282  0.43979864  0.43871283  1.0
  C  C43  1  0.93716492  0.68395048  0.43879799  1.0
  C  C44  1  0.93063971  0.43006630  0.43058244  1.0
  C  C45  1  0.81641101  0.56100237  0.56201086  1.0
  C  C46  1  0.56571482  0.31145968  0.31133703  1.0
  C  C47  1  0.68051403  0.18010213  0.18067595  1.0
  C  C48  1  0.68920855  0.43339080  0.18817496  1.0
  C  C49  1  0.93486042  0.18765733  0.18971627  1.0
  C  C50  1  0.81857383  0.32068301  0.31989002  1.0
  C  C51  1  0.81113222  0.06609608  0.31164128  1.0
  C  C52  1  0.43382852  0.68944994  0.68830118  1.0
  C  C53  1  0.31937225  0.81992767  0.81944287  1.0
  C  C54  1  0.18897786  0.93364263  0.68859010  1.0
  C  C55  1  0.06610787  0.80984258  0.81113213  1.0
  C  C56  1  0.18123036  0.68065918  0.67967873  1.0
  C  C57  1  0.31252112  0.56592084  0.81120665  1.0
  C  C58  1  0.43854367  0.18387354  0.93866754  1.0
  C  C59  1  0.42943876  0.93124051  0.93033689  1.0
  C  C60  1  0.68385855  0.93857400  0.93858217  1.0
  C  C61  1  0.56133440  0.81626970  0.06131520  1.0
  C  C62  1  0.57016461  0.06991082  0.06927939  1.0
  C  C63  1  0.31628348  0.06146099  0.06134751  1.0
  C  C64  1  0.90105816  0.40331672  0.40218273  1.0
  C  C65  1  0.84743750  0.34941123  0.34846427  1.0
  C  C66  1  0.82833795  0.44859264  0.38840872  1.0
  C  C67  1  0.91958547  0.30426344  0.36190781  1.0
  C  C68  1  0.80244728  0.42067665  0.36153284  1.0
  C  C69  1  0.94544058  0.33144149  0.38842683  1.0
  C  C70  1  0.09867783  0.59889704  0.59711902  1.0
  C  C71  1  0.15232616  0.65218099  0.65102150  1.0
  C  C72  1  0.14193636  0.64207559  0.58135402  1.0
  C  C73  1  0.10951167  0.60944560  0.66689384  1.0
  C  C74  1  0.16831385  0.66830701  0.60880296  1.0
  C  C75  1  0.08331114  0.58341491  0.63997901  1.0
  C  C76  1  0.30441099  0.45386329  0.40093004  1.0
  C  C77  1  0.44611847  0.29708086  0.34896206  1.0
  C  C78  1  0.25826907  0.41513446  0.41395355  1.0
  C  C79  1  0.49094395  0.33693712  0.33640146  1.0
  C  C80  1  0.37803851  0.34010085  0.37255269  1.0
  C  C81  1  0.37285977  0.41194912  0.37732004  1.0
  C  C82  1  0.72532019  0.57634234  0.62928573  1.0
  C  C83  1  0.52408455  0.67374537  0.62139138  1.0
  C  C84  1  0.74204838  0.58560424  0.58684747  1.0
  C  C85  1  0.50900073  0.66387109  0.66373444  1.0
  C  C86  1  0.60326528  0.64160459  0.60901295  1.0
  C  C87  1  0.64649033  0.60794338  0.64245670  1.0
  C  C88  1  0.07663316  0.22502132  0.62918005  1.0
  C  C89  1  0.17381859  0.02384500  0.62167363  1.0
  C  C90  1  0.08597155  0.24165709  0.58672815  1.0
  C  C91  1  0.16376507  0.00884303  0.66402825  1.0
  C  C92  1  0.14186131  0.10294285  0.60915441  1.0
  C  C93  1  0.10814909  0.14625539  0.64249247  1.0
  C  C94  1  0.84407988  0.80083359  0.39721229  1.0
  C  C95  1  0.90424567  0.94972554  0.35249317  1.0
  C  C96  1  0.91236782  0.75822709  0.41379432  1.0
  C  C97  1  0.83562840  0.99103006  0.33640838  1.0
  C  C98  1  0.90704424  0.88019108  0.37462593  1.0
  C  C99  1  0.84009586  0.87042889  0.37479779  1.0
  C  C100  1  0.65274001  0.15264729  0.15167965  1.0
  C  C101  1  0.59875482  0.09874275  0.09800980  1.0
  C  C102  1  0.66844132  0.16841419  0.10842744  1.0
  C  C103  1  0.58291230  0.08296461  0.14082513  1.0
  C  C104  1  0.64097096  0.14100053  0.08205564  1.0
  C  C105  1  0.60981337  0.10983211  0.16698726  1.0
  C  C106  1  0.67358499  0.52453331  0.12070355  1.0
  C  C107  1  0.57654026  0.72578921  0.12830058  1.0
  C  C108  1  0.66427585  0.50776908  0.16315453  1.0
  C  C109  1  0.58653194  0.74099573  0.08595112  1.0
  C  C110  1  0.60842728  0.64661257  0.14076942  1.0
  C  C111  1  0.64208598  0.60335458  0.10740546  1.0
  C  C112  1  0.08154566  0.12401877  0.17763262  1.0
  C  C113  1  0.17057345  0.12467929  0.07304700  1.0
  C  C114  1  0.00943763  0.16280058  0.16488373  1.0
  C  C115  1  0.24168005  0.08599715  0.08666139  1.0
  C  C116  1  0.11223930  0.13842910  0.10643460  1.0
  C  C117  1  0.14072248  0.10965908  0.14478281  1.0
  C  C118  1  0.34641610  0.84942820  0.84777233  1.0
  C  C119  1  0.40067169  0.90258249  0.90162711  1.0
  C  C120  1  0.30130138  0.92201499  0.86156197  1.0
  C  C121  1  0.44567498  0.83052760  0.88816156  1.0
  C  C122  1  0.32935440  0.94771157  0.88847033  1.0
  C  C123  1  0.41835958  0.80490935  0.86156707  1.0
  C  C124  1  0.40565156  0.44900029  0.85284785  1.0
  C  C125  1  0.34559623  0.30004865  0.89758847  1.0
  C  C126  1  0.33737228  0.49157698  0.83624534  1.0
  C  C127  1  0.41416884  0.25876857  0.91372697  1.0
  C  C128  1  0.34286209  0.36947448  0.87532718  1.0
  C  C129  1  0.40976699  0.37928091  0.87519028  1.0
  C  C130  1  0.94541745  0.79585058  0.84912453  1.0
  C  C131  1  0.80376380  0.95267579  0.90114169  1.0
  C  C132  1  0.99163428  0.83448336  0.83605601  1.0
  C  C133  1  0.75881875  0.91292297  0.91365994  1.0
  C  C134  1  0.87188759  0.90957784  0.87758444  1.0
  C  C135  1  0.87701629  0.83775478  0.87279069  1.0
  S  S136  1  0.29932930  0.32554128  0.39703452  1.0
  S  S137  1  0.45122494  0.42668554  0.35295782  1.0
  S  S138  1  0.65983702  0.63384608  0.56242062  1.0
  S  S139  1  0.59021115  0.61562650  0.68894496  1.0
  S  S140  1  0.13424081  0.15939015  0.56248344  1.0
  S  S141  1  0.11557362  0.09012161  0.68905861  1.0
  S  S142  1  0.97312873  0.80410692  0.40177130  1.0
  S  S143  1  0.77399171  0.94622368  0.34786065  1.0
  S  S144  1  0.61596836  0.59003994  0.18741973  1.0
  S  S145  1  0.63458410  0.65970277  0.06087625  1.0
  S  S146  1  0.01398564  0.18223313  0.11152239  1.0
  S  S147  1  0.23863202  0.06589180  0.13989966  1.0
  S  S148  1  0.27675139  0.44554780  0.84819091  1.0
  S  S149  1  0.47585723  0.30353190  0.90217220  1.0
  S  S150  1  0.95066824  0.92404013  0.85307158  1.0
  S  S151  1  0.79854119  0.82315190  0.89710866  1.0
  O  O152  1  0.00042073  0.49890331  0.50028148  1.0
  O  O153  1  0.07818601  0.31496673  0.52280543  1.0
  O  O154  1  0.03150715  0.53157475  0.58532873  1.0
  O  O155  1  0.15560874  0.50617353  0.45001407  1.0
  O  O156  1  0.02621602  0.37451953  0.58093847  1.0
  O  O157  1  0.15365405  0.39195671  0.44665758  1.0
  O  O158  1  0.08502230  0.58623064  0.53031058  1.0
  O  O159  1  0.00377056  0.65753619  0.45019979  1.0
  O  O160  1  0.88706101  0.49649036  0.44242931  1.0
  O  O161  1  0.89093180  0.65236216  0.44703299  1.0
  O  O162  1  0.99610311  0.38745159  0.44183617  1.0
  O  O163  1  0.87516426  0.52617179  0.58105274  1.0
  O  O164  1  0.81515294  0.57717018  0.52297947  1.0
  O  O165  1  0.74982599  0.25022705  0.25081341  1.0
  O  O166  1  0.59640911  0.35862864  0.30310514  1.0
  O  O167  1  0.66442356  0.16469697  0.21904966  1.0
  O  O168  1  0.72515640  0.37462274  0.16919315  1.0
  O  O169  1  0.59282758  0.24501651  0.30017960  1.0
  O  O170  1  0.67236676  0.43455844  0.22712427  1.0
  O  O171  1  0.72021921  0.21879444  0.16490115  1.0
  O  O172  1  0.87694632  0.22287914  0.16959487  1.0
  O  O173  1  0.86191497  0.25459707  0.30928799  1.0
  O  O174  1  0.93396500  0.17235995  0.22862209  1.0
  O  O175  1  0.75316261  0.36426911  0.30840686  1.0
  O  O176  1  0.74459418  0.09349951  0.30017449  1.0
  O  O177  1  0.85815231  0.09671604  0.30393178  1.0
  O  O178  1  0.25023752  0.74919860  0.74952770  1.0
  O  O179  1  0.37586760  0.72515218  0.66860556  1.0
  O  O180  1  0.36228701  0.75488303  0.80792532  1.0
  O  O181  1  0.17237316  0.93352777  0.72758614  1.0
  O  O182  1  0.43394302  0.67332125  0.72727879  1.0
  O  O183  1  0.22480828  0.87580942  0.66893492  1.0
  O  O184  1  0.25242834  0.86300266  0.80792863  1.0
  O  O185  1  0.09604916  0.85790275  0.80336140  1.0
  O  O186  1  0.16555728  0.66378637  0.71807518  1.0
  O  O187  1  0.09433130  0.74383937  0.79948500  1.0
  O  O188  1  0.21925864  0.71950491  0.66347203  1.0
  O  O189  1  0.35890022  0.59734787  0.80312979  1.0
  O  O190  1  0.24602232  0.59229872  0.79975373  1.0
  O  O191  1  0.50002178  0.00009841  0.99995180  1.0
  O  O192  1  0.50540671  0.15610241  0.94971507  1.0
  O  O193  1  0.38611890  0.99688133  0.94152880  1.0
  O  O194  1  0.65291634  0.89158044  0.94666003  1.0
  O  O195  1  0.39106922  0.15371506  0.94694094  1.0
  O  O196  1  0.65679280  0.00496406  0.94975078  1.0
  O  O197  1  0.49522174  0.88762126  0.94138041  1.0
  O  O198  1  0.57725553  0.81624660  0.02233944  1.0
  O  O199  1  0.53176689  0.03147012  0.08559716  1.0
  O  O200  1  0.52612034  0.87422696  0.08096308  1.0
  O  O201  1  0.58639333  0.08588247  0.03082805  1.0
  O  O202  1  0.31571777  0.07811067  0.02252756  1.0
  O  O203  1  0.37474696  0.02559584  0.08084914  1.0
  O  O204  1  0.78213343  0.51792511  0.39993057  1.0
  O  O205  1  0.15929099  0.65938557  0.54084526  1.0
  O  O206  1  0.70891282  0.20889979  0.09109173  1.0
  O  O207  1  0.23187895  0.96821466  0.84996500  1.0
  F  F208  1  0.28706171  0.52398863  0.40952443  1.0
  F  F209  1  0.77774336  0.54123309  0.65569564  1.0
  F  F210  1  0.04152719  0.27743754  0.65551101  1.0
  F  F211  1  0.78681544  0.77928554  0.40163334  1.0
  F  F212  1  0.70876391  0.47212195  0.09434738  1.0
  F  F213  1  0.09514098  0.10181962  0.21705134  1.0
  F  F214  1  0.46289863  0.47058461  0.84848617  1.0
  F  F215  1  0.96277707  0.72572937  0.84050461  1.0
