# generated using pymatgen
data_Zr3H22C44NO16F5
_symmetry_space_group_name_H-M   'P 1'
_cell_length_a   19.03174244
_cell_length_b   19.19259701
_cell_length_c   19.19266138
_cell_angle_alpha   90.37357573
_cell_angle_beta   119.72642691
_cell_angle_gamma   119.72751400
_symmetry_Int_Tables_number   1
_chemical_formula_structural   Zr3H22C44NO16F5
_chemical_formula_sum   'Zr6 H44 C88 N2 O32 F10'
_cell_volume   4981.79015379
_cell_formula_units_Z   2
loop_
 _symmetry_equiv_pos_site_id
 _symmetry_equiv_pos_as_xyz
  1  'x, y, z'
loop_
 _atom_site_type_symbol
 _atom_site_label
 _atom_site_symmetry_multiplicity
 _atom_site_fract_x
 _atom_site_fract_y
 _atom_site_fract_z
 _atom_site_occupancy
  Zr  Zr0  1  0.68530514  0.09218437  0.09215592  1.0
  Zr  Zr1  1  0.31521889  0.90782660  0.90778232  1.0
  Zr  Zr2  1  0.50192229  0.90834782  0.90836995  1.0
  Zr  Zr3  1  0.49865498  0.09165127  0.09165232  1.0
  Zr  Zr4  1  0.50023734  0.09170247  0.90828217  1.0
  Zr  Zr5  1  0.50026077  0.90826315  0.09175662  1.0
  H  H6  1  0.64713823  0.07252479  0.92837397  1.0
  H  H7  1  0.35340403  0.07162788  0.92747131  1.0
  H  H8  1  0.35585810  0.78293436  0.92752391  1.0
  H  H9  1  0.64465299  0.07247098  0.21705730  1.0
  H  H10  1  0.06634862  0.68038190  0.88968110  1.0
  H  H11  1  0.93386715  0.32320208  0.11373461  1.0
  H  H12  1  0.70852031  0.32206791  0.88994577  1.0
  H  H13  1  0.83612522  0.44762778  0.88862581  1.0
  H  H14  1  0.29166741  0.68145153  0.11344380  1.0
  H  H15  1  0.16408245  0.55255379  0.11139149  1.0
  H  H16  1  0.06661890  0.88634800  0.67699364  1.0
  H  H17  1  0.93408498  0.11036926  0.31982444  1.0
  H  H18  1  0.70874405  0.88663197  0.31875793  1.0
  H  H19  1  0.83631513  0.88880745  0.44779838  1.0
  H  H20  1  0.29190939  0.11017348  0.67810158  1.0
  H  H21  1  0.16426603  0.11161250  0.55270670  1.0
  H  H22  1  0.50331399  0.68141436  0.11356902  1.0
  H  H23  1  0.50273278  0.32129073  0.88923020  1.0
  H  H24  1  0.50369924  0.32345180  0.11363922  1.0
  H  H25  1  0.50053865  0.44924905  0.11165325  1.0
  H  H26  1  0.50479426  0.68043585  0.89030423  1.0
  H  H27  1  0.50069588  0.55117441  0.88868573  1.0
  H  H28  1  0.49739455  0.11063056  0.67856291  1.0
  H  H29  1  0.49680162  0.88633257  0.31840712  1.0
  H  H30  1  0.49530828  0.10958322  0.31936243  1.0
  H  H31  1  0.49913630  0.11107886  0.44849214  1.0
  H  H32  1  0.49638463  0.88619545  0.67632714  1.0
  H  H33  1  0.49930803  0.88809654  0.55040720  1.0
  H  H34  1  0.06595808  0.88662898  0.88916260  1.0
  H  H35  1  0.88940703  0.82252641  0.82441879  1.0
  H  H36  1  0.29092824  0.10647722  0.11383662  1.0
  H  H37  1  0.93468619  0.11089391  0.11338548  1.0
  H  H38  1  0.11124981  0.17562803  0.17751297  1.0
  H  H39  1  0.70972357  0.88621680  0.89350794  1.0
  H  H40  1  0.29257206  0.68027001  0.67710106  1.0
  H  H41  1  0.70795634  0.32291849  0.31969192  1.0
  H  H42  1  0.93336551  0.32254131  0.31921741  1.0
  H  H43  1  0.06032915  0.44788143  0.44782002  1.0
  H  H44  1  0.06723180  0.68084583  0.67751970  1.0
  H  H45  1  0.94021051  0.55223592  0.55216606  1.0
  H  H46  1  0.68535072  0.81647910  0.79689045  1.0
  H  H47  1  0.72098488  0.76784862  0.76151928  1.0
  H  H48  1  0.31532349  0.20295536  0.18364619  1.0
  H  H49  1  0.27973853  0.23855835  0.23215075  1.0
  C  C50  1  0.73433944  0.23634501  0.00249567  1.0
  C  C51  1  0.26614662  0.99749866  0.76369463  1.0
  C  C52  1  0.26590284  0.76852728  0.00225391  1.0
  C  C53  1  0.73456575  0.99771596  0.23154719  1.0
  C  C54  1  0.73744497  0.99863005  0.00270596  1.0
  C  C55  1  0.73364916  0.23622380  0.23175326  1.0
  C  C56  1  0.26316797  0.99730309  0.00141024  1.0
  C  C57  1  0.26691909  0.76824607  0.76381473  1.0
  C  C58  1  0.49641721  0.99774354  0.76409736  1.0
  C  C59  1  0.50623572  0.76891790  0.00264267  1.0
  C  C60  1  0.49414920  0.99736832  0.23101649  1.0
  C  C61  1  0.50395266  0.23584697  0.00220286  1.0
  C  C62  1  0.18858551  0.69052657  0.00214494  1.0
  C  C63  1  0.81162054  0.31365430  0.00188165  1.0
  C  C64  1  0.08869702  0.65278624  0.93888848  1.0
  C  C65  1  0.01731416  0.57961527  0.93843973  1.0
  C  C66  1  0.91152841  0.35020662  0.06393990  1.0
  C  C67  1  0.98292750  0.42117121  0.06215408  1.0
  C  C68  1  0.78627432  0.35022944  0.93889864  1.0
  C  C69  1  0.85924698  0.42155664  0.93862110  1.0
  C  C70  1  0.21392521  0.65273806  0.06392527  1.0
  C  C71  1  0.14097639  0.57949473  0.06225870  1.0
  C  C72  1  0.03834293  0.53875822  0.99962110  1.0
  C  C73  1  0.96190079  0.46147833  0.00043060  1.0
  C  C74  1  0.18883937  0.99818091  0.68649051  1.0
  C  C75  1  0.81183662  0.99790962  0.30966028  1.0
  C  C76  1  0.08893504  0.93616677  0.65001069  1.0
  C  C77  1  0.01751257  0.93801926  0.57914126  1.0
  C  C78  1  0.91172866  0.06120901  0.34746032  1.0
  C  C79  1  0.98310357  0.06173644  0.42070579  1.0
  C  C80  1  0.78649438  0.93618315  0.34750420  1.0
  C  C81  1  0.85943194  0.93791184  0.42081367  1.0
  C  C82  1  0.21416035  0.06123042  0.64997639  1.0
  C  C83  1  0.14117034  0.06157189  0.57874735  1.0
  C  C84  1  0.03852177  0.99977500  0.53885984  1.0
  C  C85  1  0.96207184  0.00057380  0.46158344  1.0
  C  C86  1  0.50479858  0.69060073  0.00191397  1.0
  C  C87  1  0.50359620  0.31327181  0.00202056  1.0
  C  C88  1  0.50286827  0.65336752  0.06374217  1.0
  C  C89  1  0.50018421  0.57997456  0.06179366  1.0
  C  C90  1  0.50228827  0.34891082  0.93860156  1.0
  C  C91  1  0.50013270  0.41992632  0.93811521  1.0
  C  C92  1  0.50282174  0.35092034  0.06398676  1.0
  C  C93  1  0.50101685  0.42227528  0.06234220  1.0
  C  C94  1  0.50367972  0.65204104  0.93899728  1.0
  C  C95  1  0.50133375  0.57863417  0.93857453  1.0
  C  C96  1  0.49996121  0.53849124  0.00020455  1.0
  C  C97  1  0.49986786  0.46117948  0.99946925  1.0
  C  C98  1  0.49654723  0.99784182  0.68655728  1.0
  C  C99  1  0.49534114  0.99798655  0.30921091  1.0
  C  C100  1  0.49776725  0.06122355  0.65089562  1.0
  C  C101  1  0.49977759  0.06165990  0.57980394  1.0
  C  C102  1  0.49718239  0.93612784  0.34641401  1.0
  C  C103  1  0.49971363  0.93800125  0.41973297  1.0
  C  C104  1  0.49634813  0.06085205  0.34771541  1.0
  C  C105  1  0.49855861  0.06121439  0.42105742  1.0
  C  C106  1  0.49721788  0.93582749  0.64884444  1.0
  C  C107  1  0.49888267  0.93742838  0.57741370  1.0
  C  C108  1  0.49999938  0.00029969  0.53851300  1.0
  C  C109  1  0.49989761  0.99956895  0.46119597  1.0
  C  C110  1  0.08525328  0.93520442  0.93788999  1.0
  C  C111  1  0.01061819  0.93453656  0.93690883  1.0
  C  C112  1  0.90858481  0.87109615  0.87327537  1.0
  C  C113  1  0.21217911  0.06067153  0.06514997  1.0
  C  C114  1  0.14042940  0.06317629  0.06626298  1.0
  C  C115  1  0.16619504  0.12807165  0.13113000  1.0
  C  C116  1  0.91537556  0.06217368  0.06478530  1.0
  C  C117  1  0.99002655  0.06315121  0.06547897  1.0
  C  C118  1  0.09207901  0.12677922  0.12893753  1.0
  C  C119  1  0.78846667  0.93492222  0.93932536  1.0
  C  C120  1  0.86022906  0.93379380  0.93684865  1.0
  C  C121  1  0.83447180  0.86892755  0.87196447  1.0
  C  C122  1  0.18488963  0.99748373  0.00131812  1.0
  C  C123  1  0.03811531  0.99939477  0.00160661  1.0
  C  C124  1  0.81573397  0.99875388  0.00250997  1.0
  C  C125  1  0.96253694  0.99843892  0.00062498  1.0
  C  C126  1  0.18905534  0.69034112  0.68647054  1.0
  C  C127  1  0.81149166  0.31356357  0.30965780  1.0
  C  C128  1  0.21516375  0.65275582  0.65006504  1.0
  C  C129  1  0.14229466  0.57971389  0.57911807  1.0
  C  C130  1  0.78536944  0.34996305  0.34722281  1.0
  C  C131  1  0.85821573  0.42091377  0.42027068  1.0
  C  C132  1  0.91194479  0.35047602  0.34767463  1.0
  C  C133  1  0.98362147  0.42172547  0.42078695  1.0
  C  C134  1  0.08861212  0.65234774  0.64957064  1.0
  C  C135  1  0.01691472  0.57924648  0.57831943  1.0
  C  C136  1  0.03938674  0.53868937  0.53856083  1.0
  C  C137  1  0.96111749  0.46146322  0.46132088  1.0
  N  N138  1  0.73595638  0.80380285  0.81225098  1.0
  N  N139  1  0.26469593  0.18776032  0.19623594  1.0
  O  O140  1  0.76368418  0.20617848  0.06155946  1.0
  O  O141  1  0.23681896  0.93839614  0.79383636  1.0
  O  O142  1  0.23656540  0.79828651  0.94276588  1.0
  O  O143  1  0.76392208  0.05714177  0.20173579  1.0
  O  O144  1  0.64721621  0.93979480  0.94329871  1.0
  O  O145  1  0.64354135  0.20557510  0.20178868  1.0
  O  O146  1  0.35339622  0.05672449  0.06023016  1.0
  O  O147  1  0.35702380  0.79818895  0.79446812  1.0
  O  O148  1  0.49710365  0.05741691  0.79504004  1.0
  O  O149  1  0.50535565  0.79911932  0.06153524  1.0
  O  O150  1  0.49509366  0.93850154  0.20085145  1.0
  O  O151  1  0.50334700  0.20494240  0.94257449  1.0
  O  O152  1  0.50644967  0.79905118  0.94351369  1.0
  O  O153  1  0.49408125  0.05655428  0.20094101  1.0
  O  O154  1  0.50313111  0.20542394  0.06103242  1.0
  O  O155  1  0.49735744  0.93897531  0.79457142  1.0
  O  O156  1  0.76523009  0.05798469  0.06136636  1.0
  O  O157  1  0.23741077  0.79824804  0.79436848  1.0
  O  O158  1  0.23537439  0.93865063  0.94204546  1.0
  O  O159  1  0.76314186  0.20564537  0.20175730  1.0
  O  O160  1  0.64454819  0.93879417  0.20115863  1.0
  O  O161  1  0.64435146  0.20520323  0.94279970  1.0
  O  O162  1  0.35612406  0.05715788  0.79477855  1.0
  O  O163  1  0.35590619  0.79886544  0.06115615  1.0
  O  O164  1  0.60361993  0.05191961  0.15536310  1.0
  O  O165  1  0.39691577  0.84462998  0.94809075  1.0
  O  O166  1  0.39540187  0.05151379  0.94788366  1.0
  O  O167  1  0.60514016  0.05211075  0.94849747  1.0
  O  O168  1  0.42413326  0.96161931  0.88567413  1.0
  O  O169  1  0.57642204  0.11433120  0.03837504  1.0
  O  O170  1  0.42289438  0.96170626  0.03782389  1.0
  O  O171  1  0.57765850  0.96217867  0.03831674  1.0
  F  F172  1  0.92211373  0.54848706  0.87276010  1.0
  F  F173  1  0.07817350  0.45052599  0.12607747  1.0
  F  F174  1  0.92227276  0.87413722  0.54984863  1.0
  F  F175  1  0.07829650  0.12746875  0.45186673  1.0
  F  F176  1  0.49760052  0.54922129  0.12543122  1.0
  F  F177  1  0.49810080  0.44836955  0.87223317  1.0
  F  F178  1  0.50174960  0.12751377  0.55133722  1.0
  F  F179  1  0.50219533  0.87430833  0.45043132  1.0
  F  F180  1  0.17761130  0.54879811  0.54994904  1.0
  F  F181  1  0.82287832  0.45008457  0.45115195  1.0
