# generated using pymatgen
data_ZnH34C36NO6
_symmetry_space_group_name_H-M   'P 1'
_cell_length_a   18.69609649
_cell_length_b   19.50844673
_cell_length_c   19.51711428
_cell_angle_alpha   85.34427699
_cell_angle_beta   89.66201557
_cell_angle_gamma   89.64645296
_symmetry_Int_Tables_number   1
_chemical_formula_structural   ZnH34C36NO6
_chemical_formula_sum   'Zn2 H68 C72 N2 O12'
_cell_volume   7094.78496167
_cell_formula_units_Z   2
loop_
 _symmetry_equiv_pos_site_id
 _symmetry_equiv_pos_as_xyz
  1  'x, y, z'
loop_
 _atom_site_type_symbol
 _atom_site_label
 _atom_site_symmetry_multiplicity
 _atom_site_fract_x
 _atom_site_fract_y
 _atom_site_fract_z
 _atom_site_occupancy
  Zn  Zn0  1  0.58229420  0.49856739  0.49928279  1.0
  Zn  Zn1  1  0.41829028  0.49967738  0.49984339  1.0
  H  H2  1  0.44648387  0.42180242  0.86126504  1.0
  H  H3  1  0.59500213  0.41154452  0.17342039  1.0
  H  H4  1  0.45331793  0.58515580  0.13925686  1.0
  H  H5  1  0.59940222  0.58431107  0.82437765  1.0
  H  H6  1  0.55250814  0.13782293  0.57910410  1.0
  H  H7  1  0.40485468  0.82526354  0.58628569  1.0
  H  H8  1  0.54932098  0.85985395  0.41509279  1.0
  H  H9  1  0.40220872  0.17461263  0.41428438  1.0
  H  H10  1  0.53406821  0.39075930  0.94361181  1.0
  H  H11  1  0.54166254  0.60994836  0.05537038  1.0
  H  H12  1  0.53379731  0.38880808  0.07043514  1.0
  H  H13  1  0.54024541  0.61197967  0.92853891  1.0
  H  H14  1  0.46429967  0.05510052  0.60862627  1.0
  H  H15  1  0.46107333  0.94384975  0.38902447  1.0
  H  H16  1  0.46494137  0.92823779  0.61023359  1.0
  H  H17  1  0.46211635  0.07068517  0.38744649  1.0
  H  H18  1  0.93090316  0.40652205  0.47393066  1.0
  H  H19  1  0.06912777  0.60808848  0.53825046  1.0
  H  H20  1  0.93649260  0.61098775  0.54164872  1.0
  H  H21  1  0.06365743  0.40257281  0.47297314  1.0
  H  H22  1  0.72749832  0.38649542  0.63372131  1.0
  H  H23  1  0.67239405  0.45812916  0.65003363  1.0
  H  H24  1  0.64519123  0.40263716  0.58853222  1.0
  H  H25  1  0.27546895  0.63651495  0.38747789  1.0
  H  H26  1  0.32705196  0.64770969  0.46153457  1.0
  H  H27  1  0.35738953  0.58970261  0.40290690  1.0
  H  H28  1  0.72601013  0.60195824  0.35546360  1.0
  H  H29  1  0.67148416  0.52771930  0.35778148  1.0
  H  H30  1  0.64501589  0.59642855  0.40508752  1.0
  H  H31  1  0.27508345  0.36545451  0.61426399  1.0
  H  H32  1  0.32454642  0.35372812  0.53838164  1.0
  H  H33  1  0.35761735  0.40992463  0.59676268  1.0
  H  H34  1  0.80197424  0.49473665  0.69043707  1.0
  H  H35  1  0.88791010  0.52150902  0.65623259  1.0
  H  H36  1  0.87977930  0.44233569  0.70935355  1.0
  H  H37  1  0.17656222  0.57378420  0.33045619  1.0
  H  H38  1  0.10615713  0.63573525  0.33915831  1.0
  H  H39  1  0.09311547  0.54763259  0.37054329  1.0
  H  H40  1  0.80006820  0.67284111  0.41028045  1.0
  H  H41  1  0.87120844  0.66778566  0.34860380  1.0
  H  H42  1  0.89065434  0.65920010  0.43880737  1.0
  H  H43  1  0.17926093  0.42894305  0.67542443  1.0
  H  H44  1  0.10715018  0.36958251  0.66738933  1.0
  H  H45  1  0.09548694  0.45870062  0.63865173  1.0
  H  H46  1  0.42864462  0.37797553  0.69005375  1.0
  H  H47  1  0.39105718  0.37163564  0.77431592  1.0
  H  H48  1  0.36093070  0.43597476  0.71081389  1.0
  H  H49  1  0.63169974  0.41833606  0.33781986  1.0
  H  H50  1  0.55268949  0.37136746  0.35127560  1.0
  H  H51  1  0.60938061  0.35498694  0.28097770  1.0
  H  H52  1  0.43648534  0.62539011  0.31323861  1.0
  H  H53  1  0.40216711  0.63877464  0.22830583  1.0
  H  H54  1  0.36521751  0.57462822  0.28809586  1.0
  H  H55  1  0.63851223  0.57232702  0.66245749  1.0
  H  H56  1  0.56213657  0.62270661  0.64475355  1.0
  H  H57  1  0.61639652  0.63897696  0.71617268  1.0
  H  H58  1  0.56988091  0.31013914  0.62176135  1.0
  H  H59  1  0.60617675  0.22534338  0.63062728  1.0
  H  H60  1  0.63896525  0.28726256  0.56610838  1.0
  H  H61  1  0.36799208  0.66103049  0.57796575  1.0
  H  H62  1  0.44596794  0.64719133  0.62645866  1.0
  H  H63  1  0.38907691  0.71767912  0.64195984  1.0
  H  H64  1  0.56629089  0.68653428  0.37381448  1.0
  H  H65  1  0.60196182  0.77108549  0.36238667  1.0
  H  H66  1  0.63677792  0.70980892  0.42655863  1.0
  H  H67  1  0.36210354  0.33547852  0.42561678  1.0
  H  H68  1  0.43913214  0.35487543  0.37672625  1.0
  H  H69  1  0.38652048  0.28286993  0.35883401  1.0
  C  C70  1  0.50878244  0.63228743  0.49826850  1.0
  C  C71  1  0.50819566  0.36616056  0.50004627  1.0
  C  C72  1  0.49192707  0.50007705  0.36641169  1.0
  C  C73  1  0.49266727  0.49924504  0.63282812  1.0
  C  C74  1  0.53533568  0.43905387  0.96812024  1.0
  C  C75  1  0.53958148  0.56168696  0.03086870  1.0
  C  C76  1  0.53601637  0.43793126  0.03947636  1.0
  C  C77  1  0.53959415  0.56278756  0.95948268  1.0
  C  C78  1  0.46406334  0.03070975  0.56025608  1.0
  C  C79  1  0.46221728  0.96819007  0.43740596  1.0
  C  C80  1  0.46356223  0.95931177  0.56115932  1.0
  C  C81  1  0.46198494  0.03959075  0.43652663  1.0
  C  C82  1  0.53564019  0.49940520  0.07232883  1.0
  C  C83  1  0.53496841  0.50148886  0.92668279  1.0
  C  C84  1  0.46524016  0.92657802  0.49963738  1.0
  C  C85  1  0.46551408  0.07229935  0.49794602  1.0
  C  C86  1  0.07530463  0.50529585  0.50508219  1.0
  C  C87  1  0.92486493  0.50927055  0.50687363  1.0
  C  C88  1  0.73173326  0.46844550  0.55475390  1.0
  C  C89  1  0.26891577  0.55306515  0.46538154  1.0
  C  C90  1  0.73213125  0.53676930  0.44930538  1.0
  C  C91  1  0.26853042  0.45001217  0.53742263  1.0
  C  C92  1  0.80656661  0.47287016  0.55835697  1.0
  C  C93  1  0.19383305  0.55454126  0.46549124  1.0
  C  C94  1  0.80699233  0.54231326  0.45153994  1.0
  C  C95  1  0.19345722  0.45094209  0.53977634  1.0
  C  C96  1  0.46313461  0.45665181  0.75519767  1.0
  C  C97  1  0.54862504  0.44889368  0.26442037  1.0
  C  C98  1  0.46690328  0.54736289  0.24485253  1.0
  C  C99  1  0.55143209  0.54856632  0.73403858  1.0
  C  C100  1  0.53666476  0.24389429  0.54356946  1.0
  C  C101  1  0.45170874  0.73428787  0.54928560  1.0
  C  C102  1  0.53508855  0.75408327  0.45225957  1.0
  C  C103  1  0.44982771  0.26498910  0.45032964  1.0
  C  C104  1  0.47649117  0.45679684  0.82547824  1.0
  C  C105  1  0.55906743  0.44962318  0.19337260  1.0
  C  C106  1  0.48072518  0.54751279  0.17447242  1.0
  C  C107  1  0.56124443  0.54845997  0.80504215  1.0
  C  C108  1  0.52322162  0.17359503  0.54345357  1.0
  C  C109  1  0.44140963  0.80538037  0.54870120  1.0
  C  C110  1  0.52133569  0.82451420  0.45216368  1.0
  C  C111  1  0.43995321  0.19396028  0.45050991  1.0
  C  C112  1  0.52520022  0.50222839  0.85166919  1.0
  C  C113  1  0.52626209  0.49895735  0.14749168  1.0
  C  C114  1  0.47525783  0.14736417  0.49735166  1.0
  C  C115  1  0.47494202  0.85141224  0.50002963  1.0
  C  C116  1  0.96138856  0.45060035  0.48817943  1.0
  C  C117  1  0.03879943  0.56385393  0.52423651  1.0
  C  C118  1  0.96426345  0.56556951  0.52559109  1.0
  C  C119  1  0.03576757  0.44845718  0.48746815  1.0
  C  C120  1  0.84553016  0.50961494  0.50627992  1.0
  C  C121  1  0.15435196  0.50356271  0.50352184  1.0
  C  C122  1  0.50180767  0.50221246  0.70907276  1.0
  C  C123  1  0.50184574  0.49810673  0.29007236  1.0
  C  C124  1  0.49887250  0.28993753  0.49719864  1.0
  C  C125  1  0.49921655  0.70866734  0.50065586  1.0
  C  C126  1  0.69204116  0.42635258  0.60979696  1.0
  C  C127  1  0.30937609  0.60971242  0.42667199  1.0
  C  C128  1  0.69183549  0.56801656  0.38855175  1.0
  C  C129  1  0.30857171  0.39174230  0.57428172  1.0
  C  C130  1  0.85335997  0.47689240  0.67014693  1.0
  C  C131  1  0.13227049  0.58957880  0.36334345  1.0
  C  C132  1  0.85150883  0.64796869  0.39934823  1.0
  C  C133  1  0.13375295  0.41545335  0.64354018  1.0
  C  C134  1  0.40818129  0.40780463  0.73143754  1.0
  C  C135  1  0.58739815  0.39559916  0.31084717  1.0
  C  C136  1  0.41518509  0.59944759  0.26985913  1.0
  C  C137  1  0.59406684  0.59833054  0.68708782  1.0
  C  C138  1  0.59063090  0.26785652  0.59327712  1.0
  C  C139  1  0.41180701  0.68780920  0.60170837  1.0
  C  C140  1  0.58764742  0.72917364  0.40087093  1.0
  C  C141  1  0.40755878  0.31186106  0.40015826  1.0
  N  N142  1  0.69606136  0.50040351  0.50069268  1.0
  N  N143  1  0.30481227  0.50103774  0.50094355  1.0
  O  O144  1  0.57163221  0.60687871  0.49994351  1.0
  O  O145  1  0.45028512  0.40007579  0.50539789  1.0
  O  O146  1  0.57100455  0.39104303  0.49785227  1.0
  O  O147  1  0.45089996  0.59889345  0.49388880  1.0
  O  O148  1  0.42901670  0.49809815  0.39157771  1.0
  O  O149  1  0.55067573  0.49388364  0.59906881  1.0
  O  O150  1  0.42995125  0.50150319  0.60783141  1.0
  O  O151  1  0.54962346  0.50443104  0.40008065  1.0
  O  O152  1  0.84253234  0.43748613  0.61194774  1.0
  O  O153  1  0.15908693  0.60803595  0.42837951  1.0
  O  O154  1  0.84347028  0.57498321  0.39655561  1.0
  O  O155  1  0.15836285  0.39795897  0.57708995  1.0
