# generated using pymatgen
data_AlC21N3(Cl2O)6
_symmetry_space_group_name_H-M   'P 1'
_cell_length_a   4.01602829
_cell_length_b   28.15279247
_cell_length_c   28.15733251
_cell_angle_alpha   60.01423532
_cell_angle_beta   88.91866599
_cell_angle_gamma   89.38506426
_symmetry_Int_Tables_number   1
_chemical_formula_structural   AlC21N3(Cl2O)6
_chemical_formula_sum   'Al2 C42 N6 Cl24 O12'
_cell_volume   2756.92418935
_cell_formula_units_Z   2
loop_
 _symmetry_equiv_pos_site_id
 _symmetry_equiv_pos_as_xyz
  1  'x, y, z'
loop_
 _atom_site_type_symbol
 _atom_site_label
 _atom_site_symmetry_multiplicity
 _atom_site_fract_x
 _atom_site_fract_y
 _atom_site_fract_z
 _atom_site_occupancy
  Al  Al0  1  0.00904030  0.00062912  0.49985416  1.0
  Al  Al1  1  0.00463635  0.66735334  0.16643892  1.0
  C  C2  1  0.51556868  0.95568062  0.46099847  1.0
  C  C3  1  0.50856605  0.08439922  0.45512231  1.0
  C  C4  1  0.50025185  0.96187201  0.58387680  1.0
  C  C5  1  0.50317985  0.58342310  0.21217565  1.0
  C  C6  1  0.51138600  0.70592477  0.08277560  1.0
  C  C7  1  0.49588039  0.71260085  0.20510895  1.0
  C  C8  1  0.50239607  0.52160564  0.24468082  1.0
  C  C9  1  0.41143798  0.49185752  0.21928550  1.0
  C  C10  1  0.41042521  0.43413095  0.24856414  1.0
  C  C11  1  0.51625638  0.40589229  0.30381639  1.0
  C  C12  1  0.60970190  0.43657476  0.32894626  1.0
  C  C13  1  0.59776572  0.49405766  0.29966010  1.0
  C  C14  1  0.57271050  0.23029199  0.33517999  1.0
  C  C15  1  0.47266393  0.26106425  0.35994082  1.0
  C  C16  1  0.39267536  0.23418868  0.41645814  1.0
  C  C17  1  0.40489369  0.17654361  0.44706202  1.0
  C  C18  1  0.50297386  0.14607753  0.42222749  1.0
  C  C19  1  0.59121255  0.17299161  0.36639587  1.0
  C  C20  1  0.50667774  0.73478780  0.02111677  1.0
  C  C21  1  0.40880265  0.78984555  0.99096737  1.0
  C  C22  1  0.39456052  0.81666975  0.93337851  1.0
  C  C23  1  0.47301553  0.78717723  0.90627267  1.0
  C  C24  1  0.57324261  0.73193086  0.93675043  1.0
  C  C25  1  0.59316050  0.70601105  0.99396379  1.0
  C  C26  1  0.60953539  0.93185371  0.73038740  1.0
  C  C27  1  0.51504095  0.87584315  0.76134586  1.0
  C  C28  1  0.40746595  0.84864268  0.73338170  1.0
  C  C29  1  0.40640715  0.87717142  0.67567751  1.0
  C  C30  1  0.49806820  0.93250703  0.64569668  1.0
  C  C31  1  0.59572303  0.96012447  0.67296635  1.0
  C  C32  1  0.49423644  0.74517023  0.23432045  1.0
  C  C33  1  0.40172701  0.71969960  0.28986594  1.0
  C  C34  1  0.40505838  0.74883332  0.31844332  1.0
  C  C35  1  0.51464064  0.80413977  0.29095730  1.0
  C  C36  1  0.60903198  0.82936527  0.23470562  1.0
  C  C37  1  0.59431553  0.80017601  0.20646250  1.0
  C  C38  1  0.57093461  0.83578450  0.43472196  1.0
  C  C39  1  0.47309163  0.86052086  0.37962598  1.0
  C  C40  1  0.39843946  0.91705379  0.35027259  1.0
  C  C41  1  0.41460724  0.94784088  0.37708892  1.0
  C  C42  1  0.51045645  0.92298783  0.43197634  1.0
  C  C43  1  0.59285720  0.86712068  0.46058735  1.0
  N  N44  1  0.56821195  0.34890690  0.33704868  1.0
  N  N45  1  0.41739255  0.31781830  0.32461275  1.0
  N  N46  1  0.41625340  0.80841916  0.84973508  1.0
  N  N47  1  0.56791415  0.85219423  0.81811724  1.0
  N  N48  1  0.56935200  0.83732484  0.31455430  1.0
  N  N49  1  0.41456179  0.82519705  0.35838601  1.0
  Cl  Cl50  1  0.70712612  0.53134168  0.32998953  1.0
  Cl  Cl51  1  0.73228584  0.40319659  0.39575414  1.0
  Cl  Cl52  1  0.29658954  0.52716551  0.15177574  1.0
  Cl  Cl53  1  0.29085942  0.40092140  0.21491894  1.0
  Cl  Cl54  1  0.68306470  0.26412061  0.26704943  1.0
  Cl  Cl55  1  0.72557439  0.13544148  0.33692261  1.0
  Cl  Cl56  1  0.26087844  0.27023483  0.44745968  1.0
  Cl  Cl57  1  0.29411292  0.14252150  0.51538896  1.0
  Cl  Cl58  1  0.72646218  0.63927539  0.03113397  1.0
  Cl  Cl59  1  0.68073224  0.69773801  0.90265024  1.0
  Cl  Cl60  1  0.30108108  0.82405050  0.02523765  1.0
  Cl  Cl61  1  0.26206518  0.88335533  0.89768989  1.0
  Cl  Cl62  1  0.73608757  0.96540187  0.76344163  1.0
  Cl  Cl63  1  0.70652330  0.02790016  0.63542609  1.0
  Cl  Cl64  1  0.28852278  0.78145076  0.76691897  1.0
  Cl  Cl65  1  0.28877064  0.84485092  0.64063598  1.0
  Cl  Cl66  1  0.70762233  0.83047045  0.13850742  1.0
  Cl  Cl67  1  0.73744083  0.89618109  0.20088444  1.0
  Cl  Cl68  1  0.28013108  0.65220091  0.32242011  1.0
  Cl  Cl69  1  0.28632404  0.71492767  0.38599320  1.0
  Cl  Cl70  1  0.67314372  0.76757126  0.46874854  1.0
  Cl  Cl71  1  0.72213472  0.83762320  0.52717434  1.0
  Cl  Cl72  1  0.26729827  0.94782624  0.28387619  1.0
  Cl  Cl73  1  0.31192850  0.01623013  0.34305953  1.0
  O  O74  1  0.26320088  0.99480530  0.55968821  1.0
  O  O75  1  0.27782817  0.94720172  0.49468162  1.0
  O  O76  1  0.27576366  0.05953026  0.44665316  1.0
  O  O77  1  0.74139842  0.95087162  0.56127271  1.0
  O  O78  1  0.74398331  0.06197792  0.48863202  1.0
  O  O79  1  0.75445047  0.98882912  0.44994019  1.0
  O  O80  1  0.26178502  0.72118401  0.17219868  1.0
  O  O81  1  0.26382966  0.60811444  0.22064765  1.0
  O  O82  1  0.27650287  0.67231656  0.10812171  1.0
  O  O83  1  0.73403735  0.67893378  0.21613965  1.0
  O  O84  1  0.74722951  0.71712670  0.10485086  1.0
  O  O85  1  0.74439050  0.60565895  0.17874836  1.0
