# generated using pymatgen
data_CuH12C10NO4
_symmetry_space_group_name_H-M   'P 1'
_cell_length_a   8.77364369
_cell_length_b   13.01428676
_cell_length_c   14.09477802
_cell_angle_alpha   117.47344645
_cell_angle_beta   92.80977532
_cell_angle_gamma   90.00500767
_symmetry_Int_Tables_number   1
_chemical_formula_structural   CuH12C10NO4
_chemical_formula_sum   'Cu4 H48 C40 N4 O16'
_cell_volume   1425.69705819
_cell_formula_units_Z   4
loop_
 _symmetry_equiv_pos_site_id
 _symmetry_equiv_pos_as_xyz
  1  'x, y, z'
loop_
 _atom_site_type_symbol
 _atom_site_label
 _atom_site_symmetry_multiplicity
 _atom_site_fract_x
 _atom_site_fract_y
 _atom_site_fract_z
 _atom_site_occupancy
  Cu  Cu0  1  0.07894334  0.00888421  0.58319971  1.0
  Cu  Cu1  1  0.42106621  0.42559866  0.41683157  1.0
  Cu  Cu2  1  0.92105320  0.99111484  0.41679991  1.0
  Cu  Cu3  1  0.57894613  0.57440178  0.58316421  1.0
  H  H4  1  0.50935080  0.03891128  0.61096577  1.0
  H  H5  1  0.99064168  0.42782719  0.38920772  1.0
  H  H6  1  0.49064689  0.96108710  0.38903318  1.0
  H  H7  1  0.00937414  0.57217686  0.61079425  1.0
  H  H8  1  0.61989703  0.08639651  0.73614100  1.0
  H  H9  1  0.88005622  0.35027136  0.26406020  1.0
  H  H10  1  0.38009948  0.91360232  0.26385754  1.0
  H  H11  1  0.11996525  0.64973246  0.73593980  1.0
  H  H12  1  0.58776315  0.93699414  0.64895549  1.0
  H  H13  1  0.91246765  0.28781601  0.35108603  1.0
  H  H14  1  0.41223231  0.06300458  0.35104554  1.0
  H  H15  1  0.08754818  0.71218662  0.64891452  1.0
  H  H16  1  0.94849970  0.60384388  0.29377887  1.0
  H  H17  1  0.55170569  0.31012786  0.70656878  1.0
  H  H18  1  0.05149675  0.39615289  0.70621501  1.0
  H  H19  1  0.44829512  0.68987956  0.29343226  1.0
  H  H20  1  0.87167146  0.63016966  0.41765756  1.0
  H  H21  1  0.62843113  0.21291202  0.58257133  1.0
  H  H22  1  0.12832851  0.36982504  0.58233684  1.0
  H  H23  1  0.37157112  0.78709028  0.41743239  1.0
  H  H24  1  0.07168947  0.61595108  0.40477264  1.0
  H  H25  1  0.42847915  0.21134671  0.59558842  1.0
  H  H26  1  0.92830797  0.38405055  0.59522263  1.0
  H  H27  1  0.57152068  0.78865821  0.40441445  1.0
  H  H28  1  0.21062401  0.19066463  0.80842255  1.0
  H  H29  1  0.28918639  0.38254802  0.19174001  1.0
  H  H30  1  0.78937240  0.80933711  0.19157629  1.0
  H  H31  1  0.71081486  0.61744403  0.80825521  1.0
  H  H32  1  0.39698138  0.20027315  0.95381002  1.0
  H  H33  1  0.10274217  0.24705525  0.04630193  1.0
  H  H34  1  0.60301167  0.79972983  0.04619266  1.0
  H  H35  1  0.89725685  0.75293714  0.95369537  1.0
  H  H36  1  0.43384918  0.82841902  0.77132102  1.0
  H  H37  1  0.06633963  0.05689411  0.22823947  1.0
  H  H38  1  0.56614174  0.17158281  0.22868485  1.0
  H  H39  1  0.93365588  0.94310575  0.77176443  1.0
  H  H40  1  0.25036800  0.83641136  0.63531510  1.0
  H  H41  1  0.24984432  0.20068501  0.36435559  1.0
  H  H42  1  0.74962855  0.16358933  0.36468702  1.0
  H  H43  1  0.75015456  0.79931384  0.63564555  1.0
  H  H44  1  0.63088822  0.95280725  0.92387318  1.0
  H  H45  1  0.86911427  0.02922887  0.07616648  1.0
  H  H46  1  0.36909920  0.04719453  0.07613005  1.0
  H  H47  1  0.13088132  0.97076716  0.92383533  1.0
  H  H48  1  0.59679339  0.10154177  0.00640129  1.0
  H  H49  1  0.90329315  0.09500989  0.99324337  1.0
  H  H50  1  0.40319859  0.89846017  0.99360209  1.0
  H  H51  1  0.09670359  0.90498546  0.00675776  1.0
  C  C52  1  0.75302658  0.01643011  0.59705117  1.0
  C  C53  1  0.74702375  0.41906456  0.40314846  1.0
  C  C54  1  0.24697467  0.98356876  0.40295258  1.0
  C  C55  1  0.25299416  0.58094112  0.59684994  1.0
  C  C56  1  0.60767668  0.02161271  0.65173600  1.0
  C  C57  1  0.89238057  0.36970596  0.34843414  1.0
  C  C58  1  0.39232103  0.97838659  0.34826474  1.0
  C  C59  1  0.10763979  0.63030109  0.65157082  1.0
  C  C60  1  0.98201901  0.77775043  0.42205832  1.0
  C  C61  1  0.51770639  0.35604872  0.57840358  1.0
  C  C62  1  0.01797295  0.22224753  0.57793936  1.0
  C  C63  1  0.48230256  0.64395182  0.42159317  1.0
  C  C64  1  0.96909240  0.64827544  0.38093207  1.0
  C  C65  1  0.53098372  0.26761505  0.61943586  1.0
  C  C66  1  0.03090404  0.35172203  0.61906252  1.0
  C  C67  1  0.46901840  0.73238994  0.38056708  1.0
  C  C68  1  0.26234080  0.11271833  0.80485409  1.0
  C  C69  1  0.23753126  0.30806635  0.19518050  1.0
  C  C70  1  0.73765227  0.88728251  0.19514646  1.0
  C  C71  1  0.76246997  0.69192854  0.80481755  1.0
  C  C72  1  0.36602396  0.11729927  0.88484506  1.0
  C  C73  1  0.13381232  0.23277369  0.11514474  1.0
  C  C74  1  0.63396803  0.88270196  0.11515761  1.0
  C  C75  1  0.86618666  0.76722062  0.88485361  1.0
  C  C76  1  0.43121689  0.01507183  0.87560644  1.0
  C  C77  1  0.06879004  0.13959865  0.12420940  1.0
  C  C78  1  0.56877398  0.98492958  0.12439728  1.0
  C  C79  1  0.93120664  0.86039770  0.87579099  1.0
  C  C80  1  0.38749794  0.91156445  0.78486234  1.0
  C  C81  1  0.11265637  0.12662879  0.21486178  1.0
  C  C82  1  0.61249296  0.08843646  0.21514175  1.0
  C  C83  1  0.88734026  0.87336877  0.78513895  1.0
  C  C84  1  0.28408430  0.91477358  0.70828525  1.0
  C  C85  1  0.21605773  0.20630962  0.29147698  1.0
  C  C86  1  0.71591000  0.08522724  0.29171787  1.0
  C  C87  1  0.78394227  0.79368905  0.70852312  1.0
  C  C88  1  0.54096035  0.01558359  0.96088757  1.0
  C  C89  1  0.95907704  0.05476868  0.03897622  1.0
  C  C90  1  0.45903170  0.98441736  0.03911655  1.0
  C  C91  1  0.04091968  0.94522647  0.96102383  1.0
  N  N92  1  0.22152923  0.01311822  0.71761656  1.0
  N  N93  1  0.27852493  0.29544741  0.28229367  1.0
  N  N94  1  0.77846496  0.98688174  0.28238224  1.0
  N  N95  1  0.72147625  0.70454939  0.71770542  1.0
  O  O96  1  0.87833681  0.02286828  0.64963523  1.0
  O  O97  1  0.62172758  0.37278287  0.35062913  1.0
  O  O98  1  0.12166207  0.97712985  0.35036520  1.0
  O  O99  1  0.37829223  0.62721004  0.64937643  1.0
  O  O100  1  0.73926006  0.00393276  0.50178000  1.0
  O  O101  1  0.76074699  0.50191239  0.49835164  1.0
  O  O102  1  0.26073772  0.99606484  0.49822077  1.0
  O  O103  1  0.23926805  0.49810355  0.50164142  1.0
  O  O104  1  0.05575263  0.83540386  0.51199850  1.0
  O  O105  1  0.44387673  0.32374268  0.48847977  1.0
  O  O106  1  0.94424032  0.16459519  0.48799594  1.0
  O  O107  1  0.55611510  0.67626337  0.51152425  1.0
  O  O108  1  0.91595810  0.81959607  0.36540875  1.0
  O  O109  1  0.58361415  0.45457211  0.63501368  1.0
  O  O110  1  0.08403148  0.18040330  0.63458774  1.0
  O  O111  1  0.41641189  0.54542364  0.36497652  1.0
