# generated using pymatgen
data_ZnH12C18(NO3)2
_symmetry_space_group_name_H-M   'P 1'
_cell_length_a   17.60137304
_cell_length_b   17.60138182
_cell_length_c   22.89186484
_cell_angle_alpha   90.00000397
_cell_angle_beta   90.00002644
_cell_angle_gamma   89.99999004
_symmetry_Int_Tables_number   1
_chemical_formula_structural   ZnH12C18(NO3)2
_chemical_formula_sum   'Zn8 H96 C144 N16 O48'
_cell_volume   7092.09402061
_cell_formula_units_Z   8
loop_
 _symmetry_equiv_pos_site_id
 _symmetry_equiv_pos_as_xyz
  1  'x, y, z'
loop_
 _atom_site_type_symbol
 _atom_site_label
 _atom_site_symmetry_multiplicity
 _atom_site_fract_x
 _atom_site_fract_y
 _atom_site_fract_z
 _atom_site_occupancy
  Zn  Zn0  1  0.08230457  0.43287349  0.20282387  1.0
  Zn  Zn1  1  0.91769564  0.56712651  0.20282402  1.0
  Zn  Zn2  1  0.41769544  0.93287341  0.29717623  1.0
  Zn  Zn3  1  0.58230426  0.06712660  0.29717580  1.0
  Zn  Zn4  1  0.06712636  0.41769573  0.70282419  1.0
  Zn  Zn5  1  0.93287358  0.58230432  0.70282392  1.0
  Zn  Zn6  1  0.56712662  0.08230441  0.79717613  1.0
  Zn  Zn7  1  0.43287395  0.91769565  0.79717613  1.0
  H  H8  1  0.96718336  0.35877072  0.49115527  1.0
  H  H9  1  0.03281645  0.64122931  0.49115511  1.0
  H  H10  1  0.53281649  0.85877125  0.00884457  1.0
  H  H11  1  0.46718303  0.14122930  0.00884454  1.0
  H  H12  1  0.14122861  0.53281681  0.99115546  1.0
  H  H13  1  0.85877093  0.46718326  0.99115559  1.0
  H  H14  1  0.64122806  0.96718321  0.50884448  1.0
  H  H15  1  0.35877120  0.03281682  0.50884484  1.0
  H  H16  1  0.78338625  0.44991016  0.22342825  1.0
  H  H17  1  0.21661398  0.55009041  0.22342859  1.0
  H  H18  1  0.71661359  0.94991012  0.27657203  1.0
  H  H19  1  0.28338610  0.05008989  0.27657192  1.0
  H  H20  1  0.05008960  0.71661374  0.72342803  1.0
  H  H21  1  0.94991035  0.28338631  0.72342817  1.0
  H  H22  1  0.55008981  0.78338630  0.77657145  1.0
  H  H23  1  0.44991017  0.21661376  0.77657185  1.0
  H  H24  1  0.67731159  0.29010226  0.26779421  1.0
  H  H25  1  0.32268865  0.70989888  0.26779372  1.0
  H  H26  1  0.82268827  0.79010220  0.23220562  1.0
  H  H27  1  0.17731139  0.20989838  0.23220593  1.0
  H  H28  1  0.20989816  0.82268835  0.76779404  1.0
  H  H29  1  0.79010239  0.17731113  0.76779412  1.0
  H  H30  1  0.70989836  0.67731165  0.73220593  1.0
  H  H31  1  0.29010216  0.32268840  0.73220585  1.0
  H  H32  1  0.12964181  0.53849474  0.30968542  1.0
  H  H33  1  0.87035789  0.46150527  0.30968555  1.0
  H  H34  1  0.37035770  0.03849477  0.19031466  1.0
  H  H35  1  0.62964193  0.96150523  0.19031473  1.0
  H  H36  1  0.96150492  0.37035789  0.80968546  1.0
  H  H37  1  0.03849509  0.62964216  0.80968530  1.0
  H  H38  1  0.46150471  0.12964217  0.69031501  1.0
  H  H39  1  0.53849466  0.87035787  0.69031461  1.0
  H  H40  1  0.83162968  0.08944073  0.26167852  1.0
  H  H41  1  0.16836942  0.91055984  0.26167799  1.0
  H  H42  1  0.66836964  0.58944069  0.23832174  1.0
  H  H43  1  0.33163002  0.41055931  0.23832167  1.0
  H  H44  1  0.41055979  0.66836977  0.76167879  1.0
  H  H45  1  0.58944075  0.33162971  0.76167838  1.0
  H  H46  1  0.91055940  0.83163020  0.73832168  1.0
  H  H47  1  0.08944056  0.16836985  0.73832152  1.0
  H  H48  1  0.17160340  0.47127446  0.60883406  1.0
  H  H49  1  0.82839705  0.52872558  0.60883374  1.0
  H  H50  1  0.32839633  0.97127384  0.89116584  1.0
  H  H51  1  0.67160373  0.02872622  0.89116631  1.0
  H  H52  1  0.02872578  0.32839647  0.10883413  1.0
  H  H53  1  0.97127381  0.67160410  0.10883387  1.0
  H  H54  1  0.52872664  0.17160420  0.39116596  1.0
  H  H55  1  0.47127368  0.82839639  0.39116596  1.0
  H  H56  1  0.02770262  0.32726020  0.29729628  1.0
  H  H57  1  0.97229708  0.67273981  0.29729646  1.0
  H  H58  1  0.47229741  0.82726010  0.20270338  1.0
  H  H59  1  0.52770223  0.17273990  0.20270381  1.0
  H  H60  1  0.17273974  0.47229712  0.79729664  1.0
  H  H61  1  0.82726026  0.52770237  0.79729676  1.0
  H  H62  1  0.67273994  0.02770300  0.70270285  1.0
  H  H63  1  0.32726000  0.97229762  0.70270369  1.0
  H  H64  1  0.96550398  0.35975417  0.60042990  1.0
  H  H65  1  0.03449647  0.64024530  0.60043018  1.0
  H  H66  1  0.53449617  0.85975417  0.89956973  1.0
  H  H67  1  0.46550389  0.14024589  0.89956970  1.0
  H  H68  1  0.14024547  0.53449618  0.10042986  1.0
  H  H69  1  0.85975411  0.46550381  0.10042999  1.0
  H  H70  1  0.64024572  0.96550436  0.39956986  1.0
  H  H71  1  0.35975461  0.03449623  0.39956978  1.0
  H  H72  1  0.18373538  0.47451966  0.50002816  1.0
  H  H73  1  0.81626501  0.52548094  0.50002827  1.0
  H  H74  1  0.31626492  0.97451905  0.99997174  1.0
  H  H75  1  0.68373520  0.02548103  0.99997221  1.0
  H  H76  1  0.02548054  0.31626446  0.00002823  1.0
  H  H77  1  0.97451954  0.68373496  0.00002841  1.0
  H  H78  1  0.52548034  0.18373507  0.49997186  1.0
  H  H79  1  0.47451891  0.81626496  0.49997187  1.0
  H  H80  1  0.13067983  0.53340481  0.41808681  1.0
  H  H81  1  0.86931994  0.46659521  0.41808650  1.0
  H  H82  1  0.36932025  0.03340539  0.08191327  1.0
  H  H83  1  0.63067932  0.96659460  0.08191378  1.0
  H  H84  1  0.96659490  0.36931991  0.91808641  1.0
  H  H85  1  0.03340574  0.63067959  0.91808669  1.0
  H  H86  1  0.46659348  0.13068015  0.58191406  1.0
  H  H87  1  0.53340525  0.86932045  0.58191365  1.0
  H  H88  1  0.94929491  0.24634374  0.22087628  1.0
  H  H89  1  0.05070474  0.75365569  0.22087657  1.0
  H  H90  1  0.55070496  0.74634430  0.27912355  1.0
  H  H91  1  0.44929530  0.25365571  0.27912352  1.0
  H  H92  1  0.25365612  0.55070516  0.72087650  1.0
  H  H93  1  0.74634383  0.44929489  0.72087614  1.0
  H  H94  1  0.75365630  0.94929541  0.77912392  1.0
  H  H95  1  0.24634425  0.05070521  0.77912381  1.0
  H  H96  1  0.02629538  0.31134498  0.40552643  1.0
  H  H97  1  0.97370439  0.68865448  0.40552661  1.0
  H  H98  1  0.47370465  0.81134544  0.09447323  1.0
  H  H99  1  0.52629549  0.18865455  0.09447366  1.0
  H  H100  1  0.18865444  0.47370440  0.90552636  1.0
  H  H101  1  0.81134563  0.52629567  0.90552691  1.0
  H  H102  1  0.68865287  0.02629458  0.59447270  1.0
  H  H103  1  0.31134530  0.97370432  0.59447353  1.0
  C  C104  1  0.07544383  0.41786218  0.48595676  1.0
  C  C105  1  0.92455655  0.58213785  0.48595648  1.0
  C  C106  1  0.42455675  0.91786208  0.01404334  1.0
  C  C107  1  0.57544335  0.08213791  0.01404334  1.0
  C  C108  1  0.08213777  0.42455600  0.98595622  1.0
  C  C109  1  0.91786234  0.57544351  0.98595637  1.0
  C  C110  1  0.58213616  0.07544300  0.51404324  1.0
  C  C111  1  0.41786197  0.92455646  0.51404323  1.0
  C  C112  1  0.07758682  0.42194197  0.42157275  1.0
  C  C113  1  0.92241352  0.57805805  0.42157291  1.0
  C  C114  1  0.42241318  0.92194187  0.07842691  1.0
  C  C115  1  0.57758638  0.07805812  0.07842735  1.0
  C  C116  1  0.07805853  0.42241298  0.92157309  1.0
  C  C117  1  0.92194154  0.57758652  0.92157280  1.0
  C  C118  1  0.57805695  0.07758602  0.57842681  1.0
  C  C119  1  0.42194178  0.92241345  0.57842724  1.0
  C  C120  1  0.91079847  0.39235046  0.20975923  1.0
  C  C121  1  0.08920175  0.60764897  0.20975952  1.0
  C  C122  1  0.58920194  0.89235101  0.29024061  1.0
  C  C123  1  0.41079775  0.10764900  0.29024056  1.0
  C  C124  1  0.10764875  0.58920158  0.70975986  1.0
  C  C125  1  0.89235062  0.41079790  0.70975956  1.0
  C  C126  1  0.60764895  0.91079845  0.79024051  1.0
  C  C127  1  0.39235104  0.08920161  0.79024045  1.0
  C  C128  1  0.01420089  0.38402678  0.51530779  1.0
  C  C129  1  0.98579950  0.61597325  0.51530753  1.0
  C  C130  1  0.48579942  0.88402670  0.98469210  1.0
  C  C131  1  0.51420068  0.11597337  0.98469208  1.0
  C  C132  1  0.11597347  0.48579944  0.01530748  1.0
  C  C133  1  0.88402662  0.51420055  0.01530761  1.0
  C  C134  1  0.61597215  0.01420008  0.48469221  1.0
  C  C135  1  0.38402652  0.98579938  0.48469219  1.0
  C  C136  1  0.85956384  0.32962471  0.22696140  1.0
  C  C137  1  0.14043639  0.67037472  0.22696128  1.0
  C  C138  1  0.64043602  0.82962468  0.27303888  1.0
  C  C139  1  0.35956423  0.17037476  0.27303881  1.0
  C  C140  1  0.17037511  0.64043619  0.72696118  1.0
  C  C141  1  0.82962541  0.35956386  0.72696129  1.0
  C  C142  1  0.67037530  0.85956383  0.77303921  1.0
  C  C143  1  0.32962525  0.14043623  0.77303870  1.0
  C  C144  1  0.73702852  0.28095752  0.25750716  1.0
  C  C145  1  0.26297115  0.71904249  0.25750665  1.0
  C  C146  1  0.76297134  0.78095803  0.24249311  1.0
  C  C147  1  0.23702833  0.21904197  0.24249300  1.0
  C  C148  1  0.21904234  0.76297145  0.75750698  1.0
  C  C149  1  0.78095820  0.23702803  0.75750706  1.0
  C  C150  1  0.71904253  0.73702856  0.74249300  1.0
  C  C151  1  0.28095800  0.26297093  0.74249291  1.0
  C  C152  1  0.78149493  0.34270040  0.24001842  1.0
  C  C153  1  0.21850530  0.65730018  0.24001833  1.0
  C  C154  1  0.71850492  0.84269978  0.25998141  1.0
  C  C155  1  0.28149532  0.15730022  0.25998175  1.0
  C  C156  1  0.15729999  0.71850563  0.74001865  1.0
  C  C157  1  0.84269997  0.28149499  0.74001833  1.0
  C  C158  1  0.65730019  0.78149496  0.75998129  1.0
  C  C159  1  0.34270035  0.21850510  0.75998122  1.0
  C  C160  1  0.76690915  0.20777179  0.26164051  1.0
  C  C161  1  0.23309052  0.79222822  0.26163999  1.0
  C  C162  1  0.73309015  0.70777174  0.23835932  1.0
  C  C163  1  0.26690951  0.29222827  0.23835923  1.0
  C  C164  1  0.29222811  0.73309083  0.76164077  1.0
  C  C165  1  0.70777187  0.26690922  0.76164039  1.0
  C  C166  1  0.79222830  0.76690973  0.73835923  1.0
  C  C167  1  0.20777223  0.23309089  0.73835955  1.0
  C  C168  1  0.10640727  0.48954234  0.33261540  1.0
  C  C169  1  0.89359245  0.51045767  0.33261510  1.0
  C  C170  1  0.39359273  0.98954282  0.16738471  1.0
  C  C171  1  0.60640746  0.01045774  0.16738472  1.0
  C  C172  1  0.01045753  0.39359309  0.83261527  1.0
  C  C173  1  0.98954249  0.60640697  0.83261501  1.0
  C  C174  1  0.51045713  0.10640706  0.66738504  1.0
  C  C175  1  0.48954279  0.89359242  0.66738462  1.0
  C  C176  1  0.12770341  0.44735134  0.58073061  1.0
  C  C177  1  0.87229645  0.55264869  0.58073075  1.0
  C  C178  1  0.37229632  0.94735129  0.91926928  1.0
  C  C179  1  0.62770375  0.05264935  0.91926886  1.0
  C  C180  1  0.05264890  0.37229642  0.08073070  1.0
  C  C181  1  0.94735124  0.62770357  0.08073087  1.0
  C  C182  1  0.55264865  0.12770367  0.41926896  1.0
  C  C183  1  0.44735055  0.87229635  0.41926939  1.0
  C  C184  1  0.04955830  0.37162092  0.32594008  1.0
  C  C185  1  0.95044198  0.62837852  0.32594025  1.0
  C  C186  1  0.45044228  0.87162196  0.17406001  1.0
  C  C187  1  0.54955791  0.12837860  0.17406001  1.0
  C  C188  1  0.12837900  0.45044202  0.82594043  1.0
  C  C189  1  0.87162158  0.54955804  0.82594057  1.0
  C  C190  1  0.62837862  0.04955754  0.67405948  1.0
  C  C191  1  0.37162130  0.95044194  0.67405990  1.0
  C  C192  1  0.01241980  0.38478581  0.57603285  1.0
  C  C193  1  0.98758063  0.61521423  0.57603303  1.0
  C  C194  1  0.48758052  0.88478630  0.92396703  1.0
  C  C195  1  0.51242012  0.11521433  0.92396702  1.0
  C  C196  1  0.11521446  0.48757998  0.07603342  1.0
  C  C197  1  0.88478567  0.51241944  0.07603312  1.0
  C  C198  1  0.61521424  0.01242010  0.42396670  1.0
  C  C199  1  0.38478554  0.98758049  0.42396712  1.0
  C  C200  1  0.13362566  0.44934493  0.52022703  1.0
  C  C201  1  0.86637474  0.55065510  0.52022672  1.0
  C  C202  1  0.36637408  0.94934488  0.97977287  1.0
  C  C203  1  0.63362546  0.05065519  0.97977333  1.0
  C  C204  1  0.05065529  0.36637416  0.02022711  1.0
  C  C205  1  0.94934481  0.63362526  0.02022684  1.0
  C  C206  1  0.55065451  0.13362536  0.47977298  1.0
  C  C207  1  0.44934473  0.86637409  0.47977298  1.0
  C  C208  1  0.84467865  0.19415694  0.24796405  1.0
  C  C209  1  0.15532101  0.80584307  0.24796394  1.0
  C  C210  1  0.65532122  0.69415690  0.25203578  1.0
  C  C211  1  0.34467901  0.30584310  0.25203572  1.0
  C  C212  1  0.30584296  0.65532080  0.74796430  1.0
  C  C213  1  0.69415701  0.34467811  0.74796392  1.0
  C  C214  1  0.80584371  0.84467862  0.75203571  1.0
  C  C215  1  0.19415683  0.15532143  0.75203602  1.0
  C  C216  1  0.10770151  0.48583752  0.39324960  1.0
  C  C217  1  0.89229882  0.51416193  0.39325018  1.0
  C  C218  1  0.39229906  0.98583800  0.10675007  1.0
  C  C219  1  0.60770109  0.01416200  0.10675008  1.0
  C  C220  1  0.01416237  0.39229887  0.89324991  1.0
  C  C221  1  0.98583882  0.60770119  0.89325009  1.0
  C  C222  1  0.51416080  0.10770127  0.60674996  1.0
  C  C223  1  0.48583851  0.89229877  0.60674998  1.0
  C  C224  1  0.88962400  0.25569131  0.23132671  1.0
  C  C225  1  0.11037566  0.74430926  0.23132658  1.0
  C  C226  1  0.61037587  0.75569071  0.26867313  1.0
  C  C227  1  0.38962381  0.24430872  0.26867307  1.0
  C  C228  1  0.24430912  0.61037604  0.73132693  1.0
  C  C229  1  0.75569084  0.38962401  0.73132658  1.0
  C  C230  1  0.74430931  0.88962396  0.76867305  1.0
  C  C231  1  0.25569124  0.11037552  0.76867294  1.0
  C  C232  1  0.04855840  0.36348122  0.38635587  1.0
  C  C233  1  0.95144192  0.63651937  0.38635560  1.0
  C  C234  1  0.45144219  0.86348112  0.11364466  1.0
  C  C235  1  0.54855797  0.13651887  0.11364466  1.0
  C  C236  1  0.13651929  0.45144194  0.88635535  1.0
  C  C237  1  0.86348076  0.54855812  0.88635548  1.0
  C  C238  1  0.63651774  0.04855761  0.61364413  1.0
  C  C239  1  0.36348101  0.95144129  0.61364455  1.0
  C  C240  1  0.71658127  0.14358081  0.27876623  1.0
  C  C241  1  0.28341898  0.85641977  0.27876618  1.0
  C  C242  1  0.78341918  0.64358018  0.22123359  1.0
  C  C243  1  0.21658104  0.35641982  0.22123348  1.0
  C  C244  1  0.35642026  0.78341926  0.77876652  1.0
  C  C245  1  0.64358029  0.21658079  0.77876655  1.0
  C  C246  1  0.85641988  0.71658072  0.72123350  1.0
  C  C247  1  0.14358064  0.28341933  0.72123380  1.0
  N  N248  1  0.07705842  0.43402454  0.29927123  1.0
  N  N249  1  0.92294185  0.56597604  0.29927138  1.0
  N  N250  1  0.42294159  0.93402445  0.20072844  1.0
  N  N251  1  0.57705805  0.06597612  0.20072888  1.0
  N  N252  1  0.06597591  0.42294191  0.79927156  1.0
  N  N253  1  0.93402409  0.57705814  0.79927128  1.0
  N  N254  1  0.56597611  0.07705822  0.70072833  1.0
  N  N255  1  0.43402440  0.92294182  0.70072877  1.0
  N  N256  1  0.06759789  0.41663501  0.60830809  1.0
  N  N257  1  0.93240256  0.58336503  0.60830781  1.0
  N  N258  1  0.43240242  0.91663494  0.89169224  1.0
  N  N259  1  0.56759763  0.08336512  0.89169224  1.0
  N  N260  1  0.08336526  0.43240193  0.10830819  1.0
  N  N261  1  0.91663490  0.56759749  0.10830835  1.0
  N  N262  1  0.58336557  0.06759759  0.39169191  1.0
  N  N263  1  0.41663475  0.93240186  0.39169234  1.0
  O  O264  1  0.98079244  0.37823054  0.20179484  1.0
  O  O265  1  0.01920777  0.62176946  0.20179511  1.0
  O  O266  1  0.51920741  0.87822997  0.29820500  1.0
  O  O267  1  0.48079286  0.12176948  0.29820497  1.0
  O  O268  1  0.12176982  0.51920764  0.70179546  1.0
  O  O269  1  0.87823012  0.48079241  0.70179515  1.0
  O  O270  1  0.62177000  0.98079238  0.79820492  1.0
  O  O271  1  0.37822999  0.01920767  0.79820485  1.0
  O  O272  1  0.74652379  0.41126263  0.23730130  1.0
  O  O273  1  0.25347587  0.58873738  0.23730165  1.0
  O  O274  1  0.75347605  0.91126258  0.26269854  1.0
  O  O275  1  0.24652419  0.08873743  0.26269887  1.0
  O  O276  1  0.08873772  0.75347618  0.73730108  1.0
  O  O277  1  0.91126280  0.24652387  0.73730122  1.0
  O  O278  1  0.58873736  0.74652441  0.76269840  1.0
  O  O279  1  0.41126261  0.25347564  0.76269880  1.0
  O  O280  1  0.87544501  0.12389314  0.25051736  1.0
  O  O281  1  0.12455466  0.87610687  0.25051725  1.0
  O  O282  1  0.62455488  0.62389311  0.24948246  1.0
  O  O283  1  0.37544536  0.37610690  0.24948285  1.0
  O  O284  1  0.37610680  0.62455503  0.75051762  1.0
  O  O285  1  0.62389317  0.37544502  0.75051722  1.0
  O  O286  1  0.87610754  0.87544552  0.74948241  1.0
  O  O287  1  0.12389299  0.12455454  0.74948269  1.0
  O  O288  1  0.88057070  0.45877707  0.20402007  1.0
  O  O289  1  0.11942951  0.54122350  0.20401993  1.0
  O  O290  1  0.61942913  0.95877648  0.29598021  1.0
  O  O291  1  0.38057057  0.04122354  0.29598015  1.0
  O  O292  1  0.04122325  0.61942932  0.70401982  1.0
  O  O293  1  0.95877669  0.38057072  0.70401997  1.0
  O  O294  1  0.54122345  0.88057071  0.79598009  1.0
  O  O295  1  0.45877711  0.11942934  0.79598006  1.0
  O  O296  1  0.64723328  0.15971648  0.29196130  1.0
  O  O297  1  0.35276642  0.84028410  0.29196127  1.0
  O  O298  1  0.85276660  0.65971641  0.20803853  1.0
  O  O299  1  0.14723361  0.34028303  0.20803883  1.0
  O  O300  1  0.34028345  0.85276609  0.79196160  1.0
  O  O301  1  0.65971654  0.14723282  0.79196120  1.0
  O  O302  1  0.84028364  0.64723389  0.70803842  1.0
  O  O303  1  0.15971630  0.35276673  0.70803873  1.0
  O  O304  1  0.74288320  0.07633268  0.27866445  1.0
  O  O305  1  0.25711648  0.92366790  0.27866395  1.0
  O  O306  1  0.75711726  0.57633262  0.22133537  1.0
  O  O307  1  0.24288296  0.42366681  0.22133527  1.0
  O  O308  1  0.42366786  0.75711678  0.77866475  1.0
  O  O309  1  0.57633270  0.24288271  0.77866476  1.0
  O  O310  1  0.92366804  0.74288319  0.72133530  1.0
  O  O311  1  0.07633248  0.25711686  0.72133557  1.0
