# generated using pymatgen
data_Zn8H29C62I5O38
_symmetry_space_group_name_H-M   'P 1'
_cell_length_a   18.19097719
_cell_length_b   18.31483965
_cell_length_c   18.38274193
_cell_angle_alpha   61.03568623
_cell_angle_beta   60.85490136
_cell_angle_gamma   60.53187030
_symmetry_Int_Tables_number   1
_chemical_formula_structural   Zn8H29C62I5O38
_chemical_formula_sum   'Zn8 H29 C62 I5 O38'
_cell_volume   4409.36330634
_cell_formula_units_Z   1
loop_
 _symmetry_equiv_pos_site_id
 _symmetry_equiv_pos_as_xyz
  1  'x, y, z'
loop_
 _atom_site_type_symbol
 _atom_site_label
 _atom_site_symmetry_multiplicity
 _atom_site_fract_x
 _atom_site_fract_y
 _atom_site_fract_z
 _atom_site_occupancy
  Zn  Zn0  1  0.55267137  0.04333366  0.53356678  1.0
  Zn  Zn1  1  0.54296522  0.87382972  0.53851843  1.0
  Zn  Zn2  1  0.53046732  0.04950581  0.36942523  1.0
  Zn  Zn3  1  0.36500644  0.04600181  0.54711080  1.0
  Zn  Zn4  1  0.96622062  0.45439416  0.94612045  1.0
  Zn  Zn5  1  0.94500618  0.46580138  0.12543416  1.0
  Zn  Zn6  1  0.95888695  0.63232281  0.95331904  1.0
  Zn  Zn7  1  0.12993195  0.46151626  0.96256053  1.0
  H  H8  1  0.60179741  0.30356581  0.41534387  1.0
  H  H9  1  0.14076459  0.95964008  0.79662498  1.0
  H  H10  1  0.66017979  0.91953500  0.18322131  1.0
  H  H11  1  0.77145231  0.53625212  0.36778726  1.0
  H  H12  1  0.78548877  0.64981671  0.43811257  1.0
  H  H13  1  0.42625338  0.18174154  0.71238107  1.0
  H  H14  1  0.73921258  0.80000289  0.86175106  1.0
  H  H15  1  0.90203879  0.57438269  0.68161419  1.0
  H  H16  1  0.81607540  0.53007183  0.76573318  1.0
  H  H17  1  0.80165855  0.67658284  0.58879974  1.0
  H  H18  1  0.71581436  0.63173116  0.67127032  1.0
  H  H19  1  0.38616208  0.25474046  0.21372151  1.0
  H  H20  1  0.25250294  0.25268713  0.67217417  1.0
  H  H21  1  0.85546078  0.23944385  0.07968448  1.0
  H  H22  1  0.69514083  0.40163764  0.31967591  1.0
  H  H23  1  0.69212930  0.21641460  0.45400104  1.0
  H  H24  1  0.15901849  0.99150719  0.55692659  1.0
  H  H25  1  0.97338037  0.45060230  0.40879411  1.0
  H  H26  1  0.55594583  0.61218517  0.51777714  1.0
  H  H27  1  0.58953246  0.00347242  0.82864968  1.0
  H  H28  1  0.80920087  0.09458130  0.06333901  1.0
  H  H29  1  0.89935456  0.21962711  0.40850947  1.0
  H  H30  1  0.29555983  0.36163407  0.11459023  1.0
  H  H31  1  0.99949403  0.31125233  0.38735808  1.0
  H  H32  1  0.02872509  0.23840102  0.33204338  1.0
  H  H33  1  0.09488982  0.17710029  0.48526322  1.0
  H  H34  1  0.41744038  0.68366600  0.69820521  1.0
  H  H35  1  0.32098995  0.58881965  0.79021732  1.0
  H  H36  1  0.18274150  0.26383246  0.80812909  1.0
  C  C37  1  0.36456155  0.86338158  0.64929380  1.0
  C  C38  1  0.67394645  0.26757332  0.39574255  1.0
  C  C39  1  0.19037105  0.22026067  0.34749996  1.0
  C  C40  1  0.64704563  0.12903830  0.34799254  1.0
  C  C41  1  0.28074138  0.20762345  0.32133483  1.0
  C  C42  1  0.31591349  0.26254958  0.23650925  1.0
  C  C43  1  0.26482234  0.32340166  0.18112390  1.0
  C  C44  1  0.17376277  0.33533914  0.20833127  1.0
  C  C45  1  0.13827744  0.28422750  0.29341669  1.0
  C  C46  1  0.05487969  0.26072681  0.35748669  1.0
  C  C47  1  0.11524154  0.18514350  0.41576714  1.0
  C  C48  1  0.32160345  0.21542866  0.67078296  1.0
  C  C49  1  0.21857283  0.83865115  0.75519961  1.0
  C  C50  1  0.30983619  0.80487753  0.71355224  1.0
  C  C51  1  0.34593542  0.71280954  0.72887964  1.0
  C  C52  1  0.62880394  0.86507698  0.64405000  1.0
  C  C53  1  0.29187442  0.65978390  0.78004967  1.0
  C  C54  1  0.19866523  0.69538660  0.81762913  1.0
  C  C55  1  0.16412709  0.78630448  0.80426758  1.0
  C  C56  1  0.08033759  0.86426037  0.81943723  1.0
  C  C57  1  0.14306028  0.92508682  0.76041905  1.0
  C  C58  1  0.72627422  0.72218312  0.33125301  1.0
  C  C59  1  0.71210602  0.23649384  0.31772371  1.0
  C  C60  1  0.68333964  0.81288414  0.29981663  1.0
  C  C61  1  0.69366024  0.84887898  0.20966610  1.0
  C  C62  1  0.74528726  0.79678984  0.15411474  1.0
  C  C63  1  0.78971302  0.70455407  0.18640927  1.0
  C  C64  1  0.34064514  0.14150569  0.37528117  1.0
  C  C65  1  0.77627359  0.67050213  0.27652542  1.0
  C  C66  1  0.80031945  0.58557531  0.34984152  1.0
  C  C67  1  0.74417163  0.64610174  0.41295870  1.0
  C  C68  1  0.73468905  0.72099217  0.70537842  1.0
  C  C69  1  0.67866980  0.80592097  0.70830840  1.0
  C  C70  1  0.71001667  0.18039487  0.28877599  1.0
  C  C71  1  0.67963692  0.83242866  0.76879845  1.0
  C  C72  1  0.73908974  0.77726712  0.81697647  1.0
  C  C73  1  0.79710907  0.69198770  0.81150859  1.0
  C  C74  1  0.79149655  0.66489664  0.75610735  1.0
  C  C75  1  0.83008699  0.59141579  0.71815438  1.0
  C  C76  1  0.62855707  0.86937193  0.35741039  1.0
  C  C77  1  0.76678607  0.65513705  0.65993784  1.0
  C  C78  1  0.12126407  0.39042709  0.14680590  1.0
  C  C79  1  0.86101048  0.63601904  0.86182209  1.0
  C  C80  1  0.86913949  0.35666574  0.12176527  1.0
  C  C81  1  0.76512044  0.18163922  0.20099599  1.0
  C  C82  1  0.14199684  0.63860368  0.86587501  1.0
  C  C83  1  0.84987069  0.64432349  0.13244697  1.0
  C  C84  1  0.15436644  0.35189046  0.87187149  1.0
  C  C85  1  0.37465876  0.15566887  0.61685818  1.0
  C  C86  1  0.30513680  0.27283655  0.77720323  1.0
  C  C87  1  0.21591220  0.29264850  0.81816590  1.0
  C  C88  1  0.35589185  0.21956110  0.71869368  1.0
  C  C89  1  0.13044469  0.99089920  0.67276454  1.0
  C  C90  1  0.89800952  0.53990562  0.34156748  1.0
  C  C91  1  0.66486639  0.62405947  0.49030817  1.0
  C  C92  1  0.81469472  0.23957751  0.14694786  1.0
  C  C93  1  0.61060921  0.91497479  0.78921781  1.0
  C  C94  1  0.77946465  0.11389175  0.16796310  1.0
  C  C95  1  0.80322447  0.31315401  0.36905423  1.0
  C  C96  1  0.81563431  0.29610516  0.17760258  1.0
  C  C97  1  0.76379377  0.29149494  0.26467358  1.0
  C  C98  1  0.73336889  0.33060169  0.33527207  1.0
  I  I99  1  0.38619865  0.31799667  0.78604718  1.0
  I  I100  1  0.13668698  0.05606307  0.41641302  1.0
  I  I101  1  0.97968367  0.89243496  0.76966961  1.0
  I  I102  1  0.01982253  0.85999703  0.95641362  1.0
  I  I103  1  0.74688230  0.86444825  0.02241937  1.0
  O  O104  1  0.49626950  0.00372013  0.49775946  1.0
  O  O105  1  0.05793451  0.67855446  0.89115608  1.0
  O  O106  1  0.85464156  0.56319161  0.17220406  1.0
  O  O107  1  0.32662793  0.94552995  0.64266675  1.0
  O  O108  1  0.18560999  0.36927151  0.90829802  1.0
  O  O109  1  0.89237944  0.67778699  0.05297239  1.0
  O  O110  1  0.07255883  0.38076682  0.87689376  1.0
  O  O111  1  0.89855512  0.37326684  0.03870238  1.0
  O  O112  1  0.18143724  0.55577289  0.87736059  1.0
  O  O113  1  0.03837698  0.39934592  0.18069184  1.0
  O  O114  1  0.87751804  0.67615336  0.88982634  1.0
  O  O115  1  0.62306173  0.94619644  0.60975909  1.0
  O  O116  1  0.63871823  0.09878303  0.42937173  1.0
  O  O117  1  0.60130556  0.82628928  0.62529932  1.0
  O  O118  1  0.42388940  0.12759689  0.33393665  1.0
  O  O119  1  0.62263557  0.82913514  0.43855912  1.0
  O  O120  1  0.32884626  0.13715021  0.59704528  1.0
  O  O121  1  0.59224391  0.95154175  0.32169472  1.0
  O  O122  1  0.45957114  0.12817067  0.59568065  1.0
  O  O123  1  0.08939397  0.07015301  0.65875273  1.0
  O  O124  1  0.17132302  0.94915403  0.61270954  1.0
  O  O125  1  0.96009103  0.55779594  0.27641880  1.0
  O  O126  1  0.30463654  0.10553228  0.45730269  1.0
  O  O127  1  0.90903644  0.47528185  0.41844664  1.0
  O  O128  1  0.65452870  0.60538472  0.56719497  1.0
  O  O129  1  0.60467885  0.62719795  0.46413773  1.0
  O  O130  1  0.53369912  0.94432877  0.79016390  1.0
  O  O131  1  0.64111609  0.95355990  0.81167130  1.0
  O  O132  1  0.78061181  0.03806150  0.21323530  1.0
  O  O133  1  0.79581870  0.14466744  0.07942762  1.0
  O  O134  1  0.80928924  0.36716258  0.38476778  1.0
  O  O135  1  0.85837644  0.22720555  0.38338634  1.0
  O  O136  1  0.44354046  0.82695913  0.60456290  1.0
  O  O137  1  0.60373091  0.12501619  0.31348089  1.0
  O  O138  1  0.99951430  0.50205295  0.99674459  1.0
  O  O139  1  0.16407417  0.42040951  0.06572427  1.0
  O  O140  1  0.89425547  0.55328653  0.87155395  1.0
  O  O141  1  0.87976642  0.38709232  0.16420041  1.0
