# generated using pymatgen
data_ZnH21C22N7O4
_symmetry_space_group_name_H-M   'P 1'
_cell_length_a   23.08954397
_cell_length_b   24.09702744
_cell_length_c   24.30296369
_cell_angle_alpha   94.49465913
_cell_angle_beta   115.67507747
_cell_angle_gamma   116.17172260
_symmetry_Int_Tables_number   1
_chemical_formula_structural   ZnH21C22N7O4
_chemical_formula_sum   'Zn4 H84 C88 N28 O16'
_cell_volume   10312.62315000
_cell_formula_units_Z   4
loop_
 _symmetry_equiv_pos_site_id
 _symmetry_equiv_pos_as_xyz
  1  'x, y, z'
loop_
 _atom_site_type_symbol
 _atom_site_label
 _atom_site_symmetry_multiplicity
 _atom_site_fract_x
 _atom_site_fract_y
 _atom_site_fract_z
 _atom_site_occupancy
  Zn  Zn0  1  0.49922395  0.04189298  0.54489685  1.0
  Zn  Zn1  1  0.50480620  0.96033525  0.45639079  1.0
  Zn  Zn2  1  0.49985996  0.45990772  0.95359961  1.0
  Zn  Zn3  1  0.50296160  0.54118551  0.04779231  1.0
  H  H4  1  0.42837247  0.32114981  0.89067337  1.0
  H  H5  1  0.43213599  0.24633421  0.81784699  1.0
  H  H6  1  0.39966526  0.08760510  0.68742524  1.0
  H  H7  1  0.56833698  0.26099316  0.68283036  1.0
  H  H8  1  0.56775249  0.30997083  0.75546142  1.0
  H  H9  1  0.42964889  0.19123756  0.74235945  1.0
  H  H10  1  0.57604691  0.67967492  0.11330615  1.0
  H  H11  1  0.56503222  0.75346674  0.17978954  1.0
  H  H12  1  0.59783997  0.91156697  0.30912152  1.0
  H  H13  1  0.41923866  0.74009846  0.30609702  1.0
  H  H14  1  0.43800842  0.68889602  0.25069331  1.0
  H  H15  1  0.55179142  0.80923280  0.23986025  1.0
  H  H16  1  0.49635745  0.42907530  0.17372053  1.0
  H  H17  1  0.49380105  0.35723148  0.24072096  1.0
  H  H18  1  0.48438123  0.26079552  0.37993964  1.0
  H  H19  1  0.49966073  0.14039087  0.25250511  1.0
  H  H20  1  0.50831862  0.20814962  0.20897217  1.0
  H  H21  1  0.48013044  0.28681974  0.28832012  1.0
  H  H22  1  0.50737235  0.57387530  0.82752714  1.0
  H  H23  1  0.50402778  0.64373191  0.75874347  1.0
  H  H24  1  0.50404421  0.73797423  0.61619433  1.0
  H  H25  1  0.49602314  0.85974009  0.74899553  1.0
  H  H26  1  0.50246862  0.79880931  0.79856336  1.0
  H  H27  1  0.49481149  0.70373366  0.70090008  1.0
  H  H28  1  0.73902301  0.67393530  0.17544829  1.0
  H  H29  1  0.87883104  0.74037382  0.24296284  1.0
  H  H30  1  0.11195855  0.87801386  0.38512120  1.0
  H  H31  1  0.11940350  0.75549987  0.25247410  1.0
  H  H32  1  0.00702640  0.71060981  0.20319952  1.0
  H  H33  1  0.99709573  0.78782218  0.30119201  1.0
  H  H34  1  0.26461232  0.32976909  0.82449519  1.0
  H  H35  1  0.12488999  0.25925674  0.75974694  1.0
  H  H36  1  0.89459202  0.11569732  0.62183310  1.0
  H  H37  1  0.88204961  0.23915944  0.74890971  1.0
  H  H38  1  0.99505679  0.29299459  0.79273316  1.0
  H  H39  1  0.00774513  0.19884038  0.71336953  1.0
  H  H40  1  0.56899712  0.52459275  0.89500125  1.0
  H  H41  1  0.60058810  0.51610270  0.84417029  1.0
  H  H42  1  0.62064271  0.40192579  0.78191840  1.0
  H  H43  1  0.65799870  0.47027396  0.84077303  1.0
  H  H44  1  0.57634834  0.16678773  0.56758926  1.0
  H  H45  1  0.61095727  0.24269385  0.61571496  1.0
  H  H46  1  0.41789714  0.98002922  0.59231196  1.0
  H  H47  1  0.37482113  0.98628944  0.63268835  1.0
  H  H48  1  0.42715017  0.47465094  0.10051632  1.0
  H  H49  1  0.35841222  0.47626839  0.11119279  1.0
  H  H50  1  0.38417557  0.59704934  0.22273716  1.0
  H  H51  1  0.38650152  0.53040270  0.20081405  1.0
  H  H52  1  0.40103741  0.83704389  0.40987354  1.0
  H  H53  1  0.37026058  0.76069092  0.36654686  1.0
  H  H54  1  0.61319984  0.01946653  0.43417172  1.0
  H  H55  1  0.64503663  0.01290385  0.38329439  1.0
  H  H56  1  0.49881155  0.32599037  0.00473790  1.0
  H  H57  1  0.47383931  0.24814194  0.00912694  1.0
  H  H58  1  0.51303414  0.19564112  0.13680213  1.0
  H  H59  1  0.53936377  0.23070087  0.08813198  1.0
  H  H60  1  0.50682518  0.03028078  0.34159385  1.0
  H  H61  1  0.50235926  0.05052198  0.27230132  1.0
  H  H62  1  0.47815028  0.16271799  0.48227141  1.0
  H  H63  1  0.46773466  0.22594244  0.45982343  1.0
  H  H64  1  0.48911228  0.66717417  0.99020313  1.0
  H  H65  1  0.45902723  0.71815813  0.96035807  1.0
  H  H66  1  0.49984820  0.81141747  0.87180972  1.0
  H  H67  1  0.52352634  0.80002502  0.94380118  1.0
  H  H68  1  0.51458352  0.98218646  0.67487363  1.0
  H  H69  1  0.51541830  0.95843235  0.74054628  1.0
  H  H70  1  0.50365842  0.83457699  0.51132367  1.0
  H  H71  1  0.50320157  0.76477153  0.52766819  1.0
  H  H72  1  0.68748016  0.50919642  0.01546053  1.0
  H  H73  1  0.77103944  0.51068037  0.04667311  1.0
  H  H74  1  0.95167643  0.63932437  0.13108693  1.0
  H  H75  1  0.86962133  0.59110692  0.06036200  1.0
  H  H76  1  0.31868469  0.85006330  0.32654818  1.0
  H  H77  1  0.23205797  0.78882014  0.26055286  1.0
  H  H78  1  0.31353104  0.98198972  0.48924610  1.0
  H  H79  1  0.22358685  0.96185375  0.47340239  1.0
  H  H80  1  0.31438479  0.48564823  0.99169273  1.0
  H  H81  1  0.22902185  0.45447993  0.98880030  1.0
  H  H82  1  0.04942151  0.36184952  0.86685912  1.0
  H  H83  1  0.12846942  0.43614063  0.91040787  1.0
  H  H84  1  0.68036611  0.15575442  0.65957514  1.0
  H  H85  1  0.76717702  0.21772321  0.72853768  1.0
  H  H86  1  0.69449634  0.00753224  0.51937734  1.0
  H  H87  1  0.78420050  0.02385293  0.54141450  1.0
  C  C88  1  0.50230536  0.92397337  0.57412105  1.0
  C  C89  1  0.35085235  0.92816143  0.42705779  1.0
  C  C90  1  0.50123388  0.08307497  0.43226320  1.0
  C  C91  1  0.65351022  0.06957420  0.56910032  1.0
  C  C92  1  0.65014145  0.56857845  0.07039951  1.0
  C  C93  1  0.50480668  0.58587295  0.93630613  1.0
  C  C94  1  0.35237921  0.43320001  0.93108428  1.0
  C  C95  1  0.49717459  0.41474764  0.06423661  1.0
  C  C96  1  0.46406519  0.33998439  0.87032361  1.0
  C  C97  1  0.46664161  0.29911373  0.82996483  1.0
  C  C98  1  0.51566986  0.32583083  0.80612364  1.0
  C  C99  1  0.55905174  0.39453812  0.82446557  1.0
  C  C100  1  0.54876352  0.43349835  0.86263482  1.0
  C  C101  1  0.52176131  0.28488046  0.76439342  1.0
  C  C102  1  0.47640487  0.21907223  0.73499934  1.0
  C  C103  1  0.43921638  0.11170846  0.67167904  1.0
  C  C104  1  0.48386069  0.18016188  0.69226040  1.0
  C  C105  1  0.53344643  0.20813359  0.67016606  1.0
  C  C106  1  0.53743802  0.16758271  0.62916126  1.0
  C  C107  1  0.44547616  0.07331013  0.63045834  1.0
  C  C108  1  0.53777150  0.66040151  0.13117896  1.0
  C  C109  1  0.53074517  0.70067026  0.16778684  1.0
  C  C110  1  0.48068550  0.67375900  0.19056270  1.0
  C  C111  1  0.43866802  0.60496135  0.17318803  1.0
  C  C112  1  0.44948644  0.56639266  0.13525197  1.0
  C  C113  1  0.47526441  0.71449938  0.23314406  1.0
  C  C114  1  0.51321110  0.78081289  0.25527941  1.0
  C  C115  1  0.55787780  0.88807880  0.32462028  1.0
  C  C116  1  0.50906371  0.81990099  0.30087284  1.0
  C  C117  1  0.45932763  0.79267013  0.32301064  1.0
  C  C118  1  0.46023691  0.83367654  0.36794138  1.0
  C  C119  1  0.55638689  0.92699479  0.36971084  1.0
  C  C120  1  0.49853354  0.37088414  0.10371051  1.0
  C  C121  1  0.49652892  0.38503433  0.16016002  1.0
  C  C122  1  0.49511644  0.34476140  0.19738630  1.0
  C  C123  1  0.49771725  0.28833905  0.18161375  1.0
  C  C124  1  0.50125486  0.27422441  0.12605094  1.0
  C  C125  1  0.50033997  0.31458663  0.08624360  1.0
  C  C126  1  0.49877595  0.24659279  0.22151077  1.0
  C  C127  1  0.48972761  0.24945013  0.27292095  1.0
  C  C128  1  0.48880631  0.21904040  0.36691438  1.0
  C  C129  1  0.49209671  0.20615072  0.31146589  1.0
  C  C130  1  0.49792141  0.15249977  0.29572557  1.0
  C  C131  1  0.50164255  0.11245251  0.33437034  1.0
  C  C132  1  0.49898201  0.12543481  0.39191436  1.0
  C  C133  1  0.49206478  0.18020753  0.40696020  1.0
  C  C134  1  0.50325259  0.63019747  0.89734059  1.0
  C  C135  1  0.50518062  0.61681572  0.84071423  1.0
  C  C136  1  0.50255374  0.65561182  0.80211077  1.0
  C  C137  1  0.49913569  0.71147252  0.81820936  1.0
  C  C138  1  0.49685318  0.72543709  0.87451599  1.0
  C  C139  1  0.49745751  0.68435720  0.91364593  1.0
  C  C140  1  0.49963194  0.75447812  0.77958532  1.0
  C  C141  1  0.49775990  0.74698477  0.72289144  1.0
  C  C142  1  0.50275131  0.78103528  0.63149319  1.0
  C  C143  1  0.49975431  0.79298342  0.68711217  1.0
  C  C144  1  0.49918328  0.84907170  0.70629046  1.0
  C  C145  1  0.50094220  0.89230234  0.67107791  1.0
  C  C146  1  0.50296829  0.88033309  0.61317425  1.0
  C  C147  1  0.50520977  0.82345056  0.59470479  1.0
  C  C148  1  0.73430515  0.60670172  0.10789447  1.0
  C  C149  1  0.77295905  0.66160544  0.16320697  1.0
  C  C150  1  0.85083532  0.69818087  0.20075483  1.0
  C  C151  1  0.89552494  0.68295827  0.18481975  1.0
  C  C152  1  0.85769854  0.62825705  0.12953672  1.0
  C  C153  1  0.77713395  0.58931265  0.09141630  1.0
  C  C154  1  0.97762397  0.72258959  0.22254776  1.0
  C  C155  1  0.02274129  0.77327431  0.27899419  1.0
  C  C156  1  0.14402370  0.86552503  0.36988419  1.0
  C  C157  1  0.10525685  0.81178056  0.31444365  1.0
  C  C158  1  0.14759054  0.79734056  0.29516044  1.0
  C  C159  1  0.22664827  0.83467290  0.33025551  1.0
  C  C160  1  0.26761531  0.88951730  0.38808832  1.0
  C  C161  1  0.22361650  0.90494520  0.40647382  1.0
  C  C162  1  0.26830512  0.39452210  0.89347282  1.0
  C  C163  1  0.23026208  0.33994681  0.83807617  1.0
  C  C164  1  0.15247999  0.30077751  0.80243243  1.0
  C  C165  1  0.10729073  0.31440074  0.81910683  1.0
  C  C166  1  0.14444472  0.36907199  0.87415961  1.0
  C  C167  1  0.22495599  0.40899883  0.91195155  1.0
  C  C168  1  0.02518723  0.27507860  0.78008212  1.0
  C  C169  1  0.98108838  0.21914930  0.72874345  1.0
  C  C170  1  0.86134308  0.12874921  0.63471524  1.0
  C  C171  1  0.89860057  0.18233495  0.69007233  1.0
  C  C172  1  0.85505553  0.19834860  0.70569934  1.0
  C  C173  1  0.77579456  0.16278197  0.66713853  1.0
  C  C174  1  0.73660754  0.10789830  0.60960245  1.0
  C  C175  1  0.78216002  0.09166525  0.59464797  1.0
  N  N176  1  0.50447695  0.40629445  0.88680272  1.0
  N  N177  1  0.49392225  0.10068931  0.60915325  1.0
  N  N178  1  0.49718718  0.59403325  0.11438210  1.0
  N  N179  1  0.50789820  0.90030550  0.39114103  1.0
  N  N180  1  0.58670026  0.49979000  0.87646420  1.0
  N  N181  1  0.60937480  0.42899750  0.80502244  1.0
  N  N182  1  0.58754146  0.19416918  0.60923941  1.0
  N  N183  1  0.40080987  0.00660484  0.60879368  1.0
  N  N184  1  0.41325364  0.50000745  0.12326356  1.0
  N  N185  1  0.38580112  0.57015110  0.18985542  1.0
  N  N186  1  0.41434926  0.80755334  0.39210218  1.0
  N  N187  1  0.60245905  0.99341861  0.39206792  1.0
  N  N188  1  0.50452427  0.29720603  0.03298739  1.0
  N  N189  1  0.50327390  0.21968674  0.10472672  1.0
  N  N190  1  0.50907542  0.06207452  0.31633706  1.0
  N  N191  1  0.49002386  0.19774255  0.46118947  1.0
  N  N192  1  0.49470675  0.70181571  0.96779608  1.0
  N  N193  1  0.49119106  0.77792555  0.89477011  1.0
  N  N194  1  0.49844653  0.94538929  0.69309521  1.0
  N  N195  1  0.51114875  0.80920704  0.54263445  1.0
  N  N196  1  0.74521307  0.53673383  0.03777645  1.0
  N  N197  1  0.89523391  0.60705344  0.10952477  1.0
  N  N198  1  0.26330166  0.81560946  0.30817849  1.0
  N  N199  1  0.25654153  0.95804520  0.45831230  1.0
  N  N200  1  0.25665156  0.46241071  0.96439736  1.0
  N  N201  1  0.10644908  0.38679644  0.89694731  1.0
  N  N202  1  0.73785995  0.18231321  0.68549584  1.0
  N  N203  1  0.75081618  0.04077642  0.54046902  1.0
  O  O204  1  0.49887981  0.97403453  0.59189174  1.0
  O  O205  1  0.50459208  0.91168005  0.52295551  1.0
  O  O206  1  0.38828934  0.91192214  0.40936079  1.0
  O  O207  1  0.38520195  0.97700596  0.47816843  1.0
  O  O208  1  0.50335498  0.03245215  0.41527732  1.0
  O  O209  1  0.50091198  0.09764033  0.48455413  1.0
  O  O210  1  0.61472978  0.08378980  0.58592342  1.0
  O  O211  1  0.62053154  0.02174925  0.51680254  1.0
  O  O212  1  0.61506698  0.51989569  0.01883715  1.0
  O  O213  1  0.61688211  0.58621478  0.09150436  1.0
  O  O214  1  0.50364158  0.59839190  0.98793125  1.0
  O  O215  1  0.50695357  0.53642598  0.91612695  1.0
  O  O216  1  0.38703652  0.48228299  0.98222544  1.0
  O  O217  1  0.38609834  0.41533641  0.91084611  1.0
  O  O218  1  0.49953134  0.40227909  0.01322693  1.0
  O  O219  1  0.49363622  0.46370337  0.08325745  1.0
