# generated using pymatgen
data_AlH5C12SO6F
_symmetry_space_group_name_H-M   'P 1'
_cell_length_a   6.62065983
_cell_length_b   12.49419243
_cell_length_c   17.67957957
_cell_angle_alpha   94.07695287
_cell_angle_beta   98.42605414
_cell_angle_gamma   101.58567168
_symmetry_Int_Tables_number   1
_chemical_formula_structural   AlH5C12SO6F
_chemical_formula_sum   'Al2 H10 C24 S2 O12 F2'
_cell_volume   1409.54435572
_cell_formula_units_Z   2
loop_
 _symmetry_equiv_pos_site_id
 _symmetry_equiv_pos_as_xyz
  1  'x, y, z'
loop_
 _atom_site_type_symbol
 _atom_site_label
 _atom_site_symmetry_multiplicity
 _atom_site_fract_x
 _atom_site_fract_y
 _atom_site_fract_z
 _atom_site_occupancy
  Al  Al0  1  0.00004667  0.50004231  0.50001696  1.0
  Al  Al1  1  0.50000680  0.50003871  0.49999511  1.0
  H  H2  1  0.31920023  0.62030100  0.56545477  1.0
  H  H3  1  0.68075735  0.37986453  0.43446007  1.0
  H  H4  1  0.86006488  0.55816495  0.27806595  1.0
  H  H5  1  0.77827759  0.55552139  0.13563444  1.0
  H  H6  1  0.37144391  0.46855090  0.11782785  1.0
  H  H7  1  0.62823600  0.53103811  0.88215650  1.0
  H  H8  1  0.14010670  0.44196281  0.72192030  1.0
  H  H9  1  0.22181200  0.44455204  0.86435548  1.0
  H  H10  1  0.60636428  0.11392463  0.45647841  1.0
  H  H11  1  0.39365770  0.88618238  0.54353826  1.0
  C  C12  1  0.82296518  0.69645059  0.50828282  1.0
  C  C13  1  0.80810253  0.48500787  0.63600401  1.0
  C  C14  1  0.17705154  0.30364493  0.49173336  1.0
  C  C15  1  0.19181850  0.51496526  0.36398173  1.0
  C  C16  1  0.15880300  0.51749916  0.27873342  1.0
  C  C17  1  0.97135247  0.54054576  0.24184298  1.0
  C  C18  1  0.92539301  0.53822937  0.16262518  1.0
  C  C19  1  0.06798732  0.51139687  0.11609090  1.0
  C  C20  1  0.25795791  0.48972765  0.15181367  1.0
  C  C21  1  0.29985574  0.49329561  0.23124436  1.0
  C  C22  1  0.02062015  0.50397646  0.03501640  1.0
  C  C23  1  0.97929142  0.49585706  0.96497530  1.0
  C  C24  1  0.93192637  0.48845163  0.88390341  1.0
  C  C25  1  0.74179486  0.50991572  0.84818909  1.0
  C  C26  1  0.69994730  0.50641531  0.76874668  1.0
  C  C27  1  0.84110426  0.48236340  0.72124765  1.0
  C  C28  1  0.02870280  0.45947143  0.75813548  1.0
  C  C29  1  0.07459810  0.46171123  0.83734984  1.0
  C  C30  1  0.90520908  0.12233767  0.47664188  1.0
  C  C31  1  0.09479262  0.87774783  0.52339247  1.0
  C  C32  1  0.10940658  0.18507659  0.49277893  1.0
  C  C33  1  0.89059409  0.81501778  0.50724017  1.0
  C  C34  1  0.09896188  0.98983885  0.51228216  1.0
  C  C35  1  0.90102555  0.01024323  0.48775859  1.0
  S  S36  1  0.29296379  0.10749311  0.52302916  1.0
  S  S37  1  0.70705085  0.89261166  0.47701307  1.0
  O  O38  1  0.96796166  0.64477564  0.52511218  1.0
  O  O39  1  0.64136342  0.51048114  0.60420837  1.0
  O  O40  1  0.37253058  0.34623539  0.50733308  1.0
  O  O41  1  0.04540792  0.53588286  0.39814303  1.0
  O  O42  1  0.03204183  0.35533730  0.47487791  1.0
  O  O43  1  0.35866939  0.48955991  0.39581148  1.0
  O  O44  1  0.62747991  0.65385074  0.49268880  1.0
  O  O45  1  0.95461281  0.46417817  0.60182818  1.0
  O  O46  1  0.28327995  0.54720626  0.53816477  1.0
  O  O47  1  0.71678305  0.45289353  0.46185384  1.0
  O  O48  1  0.73741180  0.16464827  0.45258949  1.0
  O  O49  1  0.26261884  0.83544486  0.54743151  1.0
  F  F50  1  0.48542462  0.47059454  0.26131469  1.0
  F  F51  1  0.51434995  0.52901817  0.73865561  1.0
