# generated using pymatgen
data_DyH12C24(NO)6
_symmetry_space_group_name_H-M   'P 1'
_cell_length_a   14.88195167
_cell_length_b   21.91565417
_cell_length_c   29.02030910
_cell_angle_alpha   89.99860807
_cell_angle_beta   76.63747040
_cell_angle_gamma   89.98758885
_symmetry_Int_Tables_number   1
_chemical_formula_structural   DyH12C24(NO)6
_chemical_formula_sum   'Dy8 H96 C192 N48 O48'
_cell_volume   9208.66576069
_cell_formula_units_Z   8
loop_
 _symmetry_equiv_pos_site_id
 _symmetry_equiv_pos_as_xyz
  1  'x, y, z'
loop_
 _atom_site_type_symbol
 _atom_site_label
 _atom_site_symmetry_multiplicity
 _atom_site_fract_x
 _atom_site_fract_y
 _atom_site_fract_z
 _atom_site_occupancy
  Dy  Dy0  1  0.67572923  0.75228108  0.23442149  1.0
  Dy  Dy1  1  0.09226729  0.26213861  0.73348370  1.0
  Dy  Dy2  1  0.82455392  0.25234261  0.76534833  1.0
  Dy  Dy3  1  0.40786224  0.76211022  0.26663826  1.0
  Dy  Dy4  1  0.32431788  0.24769977  0.76562491  1.0
  Dy  Dy5  1  0.90794076  0.73788055  0.26659392  1.0
  Dy  Dy6  1  0.17570792  0.74767564  0.23446895  1.0
  Dy  Dy7  1  0.59199079  0.23796099  0.73342357  1.0
  H  H8  1  0.17378797  0.16677273  0.91355242  1.0
  H  H9  1  0.04333315  0.12964486  0.97761236  1.0
  H  H10  1  0.85430729  0.23779309  0.91823069  1.0
  H  H11  1  0.98457654  0.27297215  0.85384165  1.0
  H  H12  1  0.85327646  0.98930039  0.14858031  1.0
  H  H13  1  0.87911707  0.91036951  0.20547035  1.0
  H  H14  1  0.16546442  0.89637221  0.13291266  1.0
  H  H15  1  0.14048669  0.97550291  0.07461671  1.0
  H  H16  1  0.52151392  0.05574906  0.16157248  1.0
  H  H17  1  0.45232789  0.96866469  0.21481456  1.0
  H  H18  1  0.67167278  0.85100409  0.14191195  1.0
  H  H19  1  0.74163926  0.93677225  0.08972255  1.0
  H  H20  1  0.42695284  0.66666667  0.41005928  1.0
  H  H21  1  0.48947210  0.63433776  0.47868120  1.0
  H  H22  1  0.73049034  0.74693483  0.42645160  1.0
  H  H23  1  0.66763273  0.77818355  0.35753901  1.0
  H  H24  1  0.66557658  0.44183991  0.59526445  1.0
  H  H25  1  0.67694822  0.35354974  0.64740919  1.0
  H  H26  1  0.81818166  0.46526587  0.73063245  1.0
  H  H27  1  0.80819920  0.55487374  0.67770132  1.0
  H  H28  1  0.49549472  0.49111136  0.64908740  1.0
  H  H29  1  0.40994226  0.40932782  0.70073685  1.0
  H  H30  1  0.21513114  0.39561508  0.61233167  1.0
  H  H31  1  0.30099326  0.47768016  0.55936535  1.0
  H  H32  1  0.32619452  0.66683703  0.08651566  1.0
  H  H33  1  0.45660829  0.62972391  0.02242371  1.0
  H  H34  1  0.64567541  0.73780981  0.08178660  1.0
  H  H35  1  0.51542367  0.77298640  0.14620463  1.0
  H  H36  1  0.64665989  0.48931921  0.85144753  1.0
  H  H37  1  0.62080435  0.41038303  0.79456586  1.0
  H  H38  1  0.33449477  0.39641984  0.86716261  1.0
  H  H39  1  0.35946458  0.47556276  0.92545736  1.0
  H  H40  1  0.97841022  0.55575246  0.83843923  1.0
  H  H41  1  0.04762147  0.46863274  0.78521644  1.0
  H  H42  1  0.82830604  0.35101916  0.85810993  1.0
  H  H43  1  0.75833567  0.43681147  0.91031029  1.0
  H  H44  1  0.07418641  0.16710198  0.58965970  1.0
  H  H45  1  0.00987155  0.13295415  0.52215622  1.0
  H  H46  1  0.76923147  0.24579373  0.57428737  1.0
  H  H47  1  0.83337343  0.27836507  0.64246919  1.0
  H  H48  1  0.83358736  0.94150401  0.40498542  1.0
  H  H49  1  0.82261544  0.85329931  0.35273149  1.0
  H  H50  1  0.68310990  0.96535690  0.26890361  1.0
  H  H51  1  0.69294136  0.05492755  0.32185774  1.0
  H  H52  1  0.00524471  0.99163573  0.35020167  1.0
  H  H53  1  0.09025304  0.90915590  0.29917889  1.0
  H  H54  1  0.28411704  0.89552796  0.38810601  1.0
  H  H55  1  0.19894254  0.97851610  0.44032904  1.0
  H  H56  1  0.82620113  0.83317390  0.08649396  1.0
  H  H57  1  0.95660622  0.87032003  0.02241546  1.0
  H  H58  1  0.14572944  0.76220966  0.08175767  1.0
  H  H59  1  0.01550303  0.72700870  0.14616541  1.0
  H  H60  1  0.14667050  0.01073339  0.85144075  1.0
  H  H61  1  0.12083058  0.08966793  0.79455269  1.0
  H  H62  1  0.83446250  0.10362873  0.86708356  1.0
  H  H63  1  0.85944299  0.02449529  0.92537746  1.0
  H  H64  1  0.47845237  0.94423088  0.83843181  1.0
  H  H65  1  0.54763012  0.03133852  0.78521071  1.0
  H  H66  1  0.32830389  0.14898817  0.85814073  1.0
  H  H67  1  0.25834569  0.06319765  0.91030951  1.0
  H  H68  1  0.57298652  0.33333333  0.58996372  1.0
  H  H69  1  0.51049074  0.36567230  0.52133143  1.0
  H  H70  1  0.26946628  0.25306792  0.57354661  1.0
  H  H71  1  0.33228936  0.22183609  0.64246640  1.0
  H  H72  1  0.33441388  0.55818155  0.40471975  1.0
  H  H73  1  0.32304638  0.64646625  0.35257383  1.0
  H  H74  1  0.18180189  0.53474875  0.26935015  1.0
  H  H75  1  0.19178919  0.44514636  0.32228450  1.0
  H  H76  1  0.50459519  0.50892059  0.35090120  1.0
  H  H77  1  0.59017115  0.59071645  0.29928412  1.0
  H  H78  1  0.78491045  0.60437991  0.38773330  1.0
  H  H79  1  0.69904487  0.52227468  0.44065213  1.0
  H  H80  1  0.67394511  0.33319583  0.91343155  1.0
  H  H81  1  0.54353963  0.37029070  0.97752906  1.0
  H  H82  1  0.35445526  0.26217788  0.91819923  1.0
  H  H83  1  0.48468835  0.22699262  0.85379238  1.0
  H  H84  1  0.35328500  0.51069587  0.14857826  1.0
  H  H85  1  0.37909149  0.58963707  0.20546160  1.0
  H  H86  1  0.66542526  0.60361715  0.13290300  1.0
  H  H87  1  0.64048930  0.52447422  0.07461009  1.0
  H  H88  1  0.02156573  0.44426764  0.16153290  1.0
  H  H89  1  0.95243254  0.53136590  0.21478985  1.0
  H  H90  1  0.17175556  0.64897127  0.14188409  1.0
  H  H91  1  0.24167620  0.56318946  0.08966965  1.0
  H  H92  1  0.92673983  0.83310832  0.41013220  1.0
  H  H93  1  0.98924366  0.86551049  0.47873089  1.0
  H  H94  1  0.23053907  0.75312761  0.42644724  1.0
  H  H95  1  0.16765236  0.72174393  0.35758691  1.0
  H  H96  1  0.16535895  0.05831766  0.59539414  1.0
  H  H97  1  0.17699593  0.14657343  0.64750993  1.0
  H  H98  1  0.31826799  0.03469824  0.73064521  1.0
  H  H99  1  0.30801730  0.94512625  0.67773596  1.0
  H  H100  1  0.99524467  0.00919473  0.64881227  1.0
  H  H101  1  0.90968546  0.09104262  0.70040210  1.0
  H  H102  1  0.71403025  0.10396889  0.61239588  1.0
  H  H103  1  0.79974454  0.02175916  0.55956542  1.0
  C  C104  1  0.16659324  0.23833379  0.84056260  1.0
  C  C105  1  0.08753998  0.22162720  0.87956486  1.0
  C  C106  1  0.10333890  0.18172476  0.91510640  1.0
  C  C107  1  0.03157944  0.16094525  0.95054662  1.0
  C  C108  1  0.93851402  0.18061076  0.95221984  1.0
  C  C109  1  0.92492004  0.22321430  0.91680410  1.0
  C  C110  1  0.99742629  0.24265681  0.88121295  1.0
  C  C111  1  0.85376179  0.12031221  0.01773092  1.0
  C  C112  1  0.75655332  0.06131228  0.07207710  1.0
  C  C113  1  0.91282554  0.05162790  0.06271258  1.0
  C  C114  1  0.99507438  0.98703469  0.10622419  1.0
  C  C115  1  0.92111298  0.96907291  0.14516119  1.0
  C  C116  1  0.93582488  0.92522731  0.17677279  1.0
  C  C117  1  0.02341770  0.89824237  0.17233105  1.0
  C  C118  1  0.09806550  0.91733385  0.13577368  1.0
  C  C119  1  0.08445585  0.96070437  0.10369194  1.0
  C  C120  1  0.03682134  0.84806805  0.20469124  1.0
  C  C121  1  0.63747060  0.00307694  0.12311742  1.0
  C  C122  1  0.55321416  0.01065617  0.15841094  1.0
  C  C123  1  0.51566102  0.96302932  0.18748753  1.0
  C  C124  1  0.55888791  0.90529124  0.18189433  1.0
  C  C125  1  0.63982992  0.89604131  0.14616483  1.0
  C  C126  1  0.67901047  0.94363089  0.11718656  1.0
  C  C127  1  0.51542425  0.85508006  0.21326512  1.0
  C  C128  1  0.50354206  0.73762953  0.33846143  1.0
  C  C129  1  0.54328493  0.72376142  0.37945971  1.0
  C  C130  1  0.49334557  0.68368725  0.41423068  1.0
  C  C131  1  0.52770020  0.66547019  0.45213166  1.0
  C  C132  1  0.61590332  0.68777778  0.45731321  1.0
  C  C133  1  0.66352500  0.73056798  0.42252109  1.0
  C  C134  1  0.62847773  0.74769274  0.38440315  1.0
  C  C135  1  0.63251587  0.62859950  0.52487456  1.0
  C  C136  1  0.52888968  0.55797662  0.56448970  1.0
  C  C137  1  0.67225516  0.56652543  0.58006033  1.0
  C  C138  1  0.73404099  0.50541892  0.63380894  1.0
  C  C139  1  0.69807244  0.44693796  0.62496777  1.0
  C  C140  1  0.70476835  0.39788804  0.65390330  1.0
  C  C141  1  0.74693413  0.40458499  0.69244419  1.0
  C  C142  1  0.78447352  0.46143140  0.70117972  1.0
  C  C143  1  0.77937997  0.51049854  0.67219302  1.0
  C  C144  1  0.40532390  0.48942688  0.59946272  1.0
  C  C145  1  0.43473113  0.47022178  0.64103139  1.0
  C  C146  1  0.38713210  0.42484996  0.66959384  1.0
  C  C147  1  0.30845542  0.39734775  0.65917164  1.0
  C  C148  1  0.27639238  0.41703668  0.61960881  1.0
  C  C149  1  0.32343464  0.46197370  0.59053349  1.0
  C  C150  1  0.26004681  0.34673542  0.68909099  1.0
  C  C151  1  0.75658510  0.35191915  0.72279979  1.0
  C  C152  1  0.33343976  0.73835406  0.15954161  1.0
  C  C153  1  0.41245773  0.72165714  0.12050352  1.0
  C  C154  1  0.39663525  0.68177780  0.08495586  1.0
  C  C155  1  0.46836766  0.66100710  0.04949959  1.0
  C  C156  1  0.56143834  0.68065698  0.04780555  1.0
  C  C157  1  0.57505155  0.72324870  0.08322374  1.0
  C  C158  1  0.50257071  0.74268342  0.11882667  1.0
  C  C159  1  0.64617576  0.62035224  0.98228250  1.0
  C  C160  1  0.74338350  0.56135158  0.92792957  1.0
  C  C161  1  0.58712136  0.55165712  0.93732408  1.0
  C  C162  1  0.50487584  0.48706851  0.89382513  1.0
  C  C163  1  0.57882653  0.46910300  0.85487698  1.0
  C  C164  1  0.56410687  0.42525968  0.82327123  1.0
  C  C165  1  0.47652155  0.39828034  0.82773035  1.0
  C  C166  1  0.40188822  0.41737709  0.86429565  1.0
  C  C167  1  0.41549680  0.46074822  0.89637121  1.0
  C  C168  1  0.46313018  0.34809809  0.79538891  1.0
  C  C169  1  0.86247354  0.50308572  0.87690323  1.0
  C  C170  1  0.94672750  0.51065502  0.84160194  1.0
  C  C171  1  0.98429567  0.46302466  0.81253941  1.0
  C  C172  1  0.94107523  0.40529870  0.81815081  1.0
  C  C173  1  0.86012381  0.39606048  0.85387264  1.0
  C  C174  1  0.82094081  0.44365081  0.88284275  1.0
  C  C175  1  0.98463752  0.35506934  0.78681853  1.0
  C  C176  1  0.99752011  0.23798881  0.66137892  1.0
  C  C177  1  0.95793506  0.22428575  0.62031668  1.0
  C  C178  1  0.00764036  0.18403504  0.58562609  1.0
  C  C179  1  0.97232430  0.16495657  0.54822142  1.0
  C  C180  1  0.88391308  0.18685210  0.54339288  1.0
  C  C181  1  0.83655150  0.22978051  0.57795317  1.0
  C  C182  1  0.87242794  0.24775573  0.61566715  1.0
  C  C183  1  0.86644062  0.12793997  0.47587153  1.0
  C  C184  1  0.97181038  0.05889681  0.43482831  1.0
  C  C185  1  0.82729190  0.06619611  0.42011170  1.0
  C  C186  1  0.76611233  0.00526241  0.36607521  1.0
  C  C187  1  0.80163745  0.94674649  0.37508150  1.0
  C  C188  1  0.79514129  0.89770259  0.34609595  1.0
  C  C189  1  0.75347606  0.90448044  0.30738531  1.0
  C  C190  1  0.71643947  0.96141842  0.29848608  1.0
  C  C191  1  0.72145813  0.01048862  0.32748715  1.0
  C  C192  1  0.09508111  0.99014625  0.39996838  1.0
  C  C193  1  0.06562295  0.97057769  0.35856220  1.0
  C  C194  1  0.11299041  0.92483018  0.33030302  1.0
  C  C195  1  0.19136192  0.89723436  0.34097729  1.0
  C  C196  1  0.22319056  0.91709662  0.38054343  1.0
  C  C197  1  0.17648220  0.96253516  0.40923512  1.0
  C  C198  1  0.23989142  0.84655652  0.31114687  1.0
  C  C199  1  0.74368485  0.85183207  0.27706453  1.0
  C  C200  1  0.83349325  0.76160279  0.15949326  1.0
  C  C201  1  0.91249954  0.77833859  0.12047244  1.0
  C  C202  1  0.89665573  0.81823374  0.08493417  1.0
  C  C203  1  0.96837927  0.83902374  0.04948442  1.0
  C  C204  1  0.06146678  0.81937603  0.04778825  1.0
  C  C205  1  0.07510496  0.77677385  0.08319875  1.0
  C  C206  1  0.00263118  0.75732039  0.11879741  1.0
  C  C207  1  0.14617273  0.87968827  0.98227508  1.0
  C  C208  1  0.24338466  0.93866539  0.92791643  1.0
  C  C209  1  0.08711105  0.94837851  0.93729868  1.0
  C  C210  1  0.00486291  0.01298222  0.89378458  1.0
  C  C211  1  0.07882914  0.03095266  0.85485528  1.0
  C  C212  1  0.06411448  0.07480374  0.82324435  1.0
  C  C213  1  0.97651475  0.10178457  0.82767967  1.0
  C  C214  1  0.90186833  0.08267941  0.86422516  1.0
  C  C215  1  0.91547660  0.03930615  0.89630844  1.0
  C  C216  1  0.96316083  0.15194475  0.79529738  1.0
  C  C217  1  0.36248810  0.99690848  0.87689949  1.0
  C  C218  1  0.44675421  0.98933107  0.84159966  1.0
  C  C219  1  0.48431150  0.03696294  0.81253463  1.0
  C  C220  1  0.44107978  0.09469966  0.81814873  1.0
  C  C221  1  0.36014122  0.10394411  0.85388300  1.0
  C  C222  1  0.32095721  0.05635179  0.88284754  1.0
  C  C223  1  0.48454896  0.14492361  0.78678866  1.0
  C  C224  1  0.49639246  0.26241156  0.66156490  1.0
  C  C225  1  0.45664545  0.27625412  0.62056022  1.0
  C  C226  1  0.50659448  0.31632554  0.58578535  1.0
  C  C227  1  0.47224744  0.33454033  0.54787657  1.0
  C  C228  1  0.38405814  0.31222863  0.54268717  1.0
  C  C229  1  0.33643023  0.26944208  0.57747797  1.0
  C  C230  1  0.37146232  0.25232235  0.61560495  1.0
  C  C231  1  0.36748426  0.37139642  0.47510918  1.0
  C  C232  1  0.47114291  0.44200560  0.43548916  1.0
  C  C233  1  0.32776706  0.43348828  0.41992114  1.0
  C  C234  1  0.26596189  0.49459661  0.36617379  1.0
  C  C235  1  0.30191663  0.55308533  0.37501418  1.0
  C  C236  1  0.29521727  0.60212750  0.34608044  1.0
  C  C237  1  0.25306254  0.59543830  0.30753755  1.0
  C  C238  1  0.21551141  0.53858824  0.29880617  1.0
  C  C239  1  0.22061187  0.48952384  0.32779480  1.0
  C  C240  1  0.59472873  0.51056127  0.40053858  1.0
  C  C241  1  0.56534636  0.52979694  0.35897212  1.0
  C  C242  1  0.61295092  0.57517378  0.33043107  1.0
  C  C243  1  0.69162208  0.60267736  0.34087253  1.0
  C  C244  1  0.72365818  0.58296151  0.38043649  1.0
  C  C245  1  0.67661247  0.53800441  0.40948638  1.0
  C  C246  1  0.74000237  0.65330977  0.31095999  1.0
  C  C247  1  0.24348615  0.64808816  0.27714967  1.0
  C  C248  1  0.66666667  0.26169295  0.84036002  1.0
  C  C249  1  0.58768881  0.27835382  0.87943874  1.0
  C  C250  1  0.60349264  0.31824047  0.91499516  1.0
  C  C251  1  0.53175471  0.33900341  0.95045967  1.0
  C  C252  1  0.43867920  0.31936356  0.95216462  1.0
  C  C253  1  0.42508188  0.27675405  0.91675729  1.0
  C  C254  1  0.49756410  0.25731659  0.88115350  1.0
  C  C255  1  0.35391069  0.37967241  0.01768204  1.0
  C  C256  1  0.25664149  0.43865345  0.07204881  1.0
  C  C257  1  0.41290778  0.44835385  0.06268482  1.0
  C  C258  1  0.49508148  0.51295433  0.10621676  1.0
  C  C259  1  0.42110937  0.53091801  0.14515676  1.0
  C  C260  1  0.43580003  0.57476909  0.17676733  1.0
  C  C261  1  0.52338052  0.60175847  0.17231878  1.0
  C  C262  1  0.59803042  0.58265852  0.13576254  1.0
  C  C263  1  0.58444809  0.53928374  0.10368318  1.0
  C  C264  1  0.53675600  0.65194893  0.20466451  1.0
  C  C265  1  0.13753211  0.49691293  0.12307538  1.0
  C  C266  1  0.05328023  0.48935002  0.15837436  1.0
  C  C267  1  0.01575143  0.53697444  0.18746151  1.0
  C  C268  1  0.05899536  0.59469629  0.18186937  1.0
  C  C269  1  0.13992053  0.60393269  0.14612688  1.0
  C  C270  1  0.17907589  0.55634191  0.11713903  1.0
  C  C271  1  0.01554290  0.64492108  0.21324893  1.0
  C  C272  1  0.00350422  0.76225069  0.33848681  1.0
  C  C273  1  0.04322391  0.77611344  0.37949516  1.0
  C  C274  1  0.99319267  0.81614926  0.41427989  1.0
  C  C275  1  0.02752756  0.83440874  0.45217653  1.0
  C  C276  1  0.11585397  0.81225131  0.45731286  1.0
  C  C277  1  0.16352350  0.76944425  0.42253617  1.0
  C  C278  1  0.12845284  0.75223966  0.38443648  1.0
  C  C279  1  0.13247681  0.87160291  0.52478851  1.0
  C  C280  1  0.02880951  0.94232696  0.56428628  1.0
  C  C281  1  0.17196654  0.93360228  0.58008957  1.0
  C  C282  1  0.23379388  0.99464271  0.63389658  1.0
  C  C283  1  0.19792900  0.05317781  0.62507222  1.0
  C  C284  1  0.20477117  0.10221165  0.65399502  1.0
  C  C285  1  0.24700407  0.09546981  0.69251050  1.0
  C  C286  1  0.28447986  0.03857697  0.70122256  1.0
  C  C287  1  0.27923052  0.98952002  0.67224919  1.0
  C  C288  1  0.90472047  0.01056105  0.59936110  1.0
  C  C289  1  0.93428160  0.02992472  0.64084777  1.0
  C  C290  1  0.88670845  0.07534919  0.66935566  1.0
  C  C291  1  0.80785498  0.10269454  0.65899080  1.0
  C  C292  1  0.77542278  0.08265847  0.61962993  1.0
  C  C293  1  0.82242037  0.03765658  0.59061345  1.0
  C  C294  1  0.75971364  0.15345813  0.68882894  1.0
  C  C295  1  0.25667305  0.14810632  0.72289607  1.0
  N  N296  1  0.85967701  0.16273801  0.98197913  1.0
  N  N297  1  0.99210759  0.02632402  0.07087742  1.0
  N  N298  1  0.66811787  0.05346464  0.09798018  1.0
  N  N299  1  0.76567060  0.10511508  0.03853506  1.0
  N  N300  1  0.82765402  0.03023454  0.08300065  1.0
  N  N301  1  0.92860527  0.09811228  0.03109333  1.0
  N  N302  1  0.66271026  0.67178066  0.48996453  1.0
  N  N303  1  0.69786675  0.61167215  0.54788948  1.0
  N  N304  1  0.73185328  0.55691510  0.60880802  1.0
  N  N305  1  0.59161676  0.53517514  0.58690681  1.0
  N  N306  1  0.54514909  0.60700751  0.53531040  1.0
  N  N307  1  0.44437931  0.53151361  0.56716892  1.0
  N  N308  1  0.64027567  0.66278131  0.01802966  1.0
  N  N309  1  0.50784759  0.52635014  0.92917492  1.0
  N  N310  1  0.83182773  0.55349355  0.90202903  1.0
  N  N311  1  0.73426984  0.60516515  0.96145762  1.0
  N  N312  1  0.67229711  0.53026964  0.91701419  1.0
  N  N313  1  0.57132643  0.59813368  0.96894945  1.0
  N  N314  1  0.83600040  0.16981628  0.51126272  1.0
  N  N315  1  0.80051063  0.10989417  0.45339529  1.0
  N  N316  1  0.76806779  0.05666210  0.39130638  1.0
  N  N317  1  0.90905209  0.03598120  0.41236431  1.0
  N  N318  1  0.95492511  0.10789817  0.46415777  1.0
  N  N319  1  0.05641422  0.03299622  0.43186680  1.0
  N  N320  1  0.14028583  0.83726110  0.01801938  1.0
  N  N321  1  0.00783107  0.97369426  0.92913429  1.0
  N  N322  1  0.33183254  0.94650618  0.90201669  1.0
  N  N323  1  0.23426668  0.89486167  0.96145510  1.0
  N  N324  1  0.17228741  0.96975270  0.91698937  1.0
  N  N325  1  0.07132510  0.90191694  0.96893452  1.0
  N  N326  1  0.33727951  0.32822529  0.51002457  1.0
  N  N327  1  0.30214443  0.38834566  0.45209399  1.0
  N  N328  1  0.26817585  0.44310180  0.39117194  1.0
  N  N329  1  0.40841860  0.46482852  0.41307689  1.0
  N  N330  1  0.45486831  0.39296467  0.46466164  1.0
  N  N331  1  0.55566848  0.46845264  0.43281365  1.0
  N  N332  1  0.35985568  0.33724927  0.98193611  1.0
  N  N333  1  0.49215739  0.47366995  0.07086338  1.0
  N  N334  1  0.16818137  0.44651377  0.09793986  1.0
  N  N335  1  0.26580349  0.39485768  0.03849711  1.0
  N  N336  1  0.32771684  0.46971988  0.08299685  1.0
  N  N337  1  0.42873448  0.40190329  0.03103363  1.0
  N  N338  1  0.16273645  0.82840153  0.48989876  1.0
  N  N339  1  0.19762745  0.88839486  0.54796745  1.0
  N  N340  1  0.23144413  0.94315178  0.60891513  1.0
  N  N341  1  0.09141313  0.96506919  0.58680790  1.0
  N  N342  1  0.04519889  0.89336624  0.53504767  1.0
  N  N343  1  0.94419996  0.96871487  0.56693626  1.0
  O  O344  1  0.15422718  0.26124865  0.80111689  1.0
  O  O345  1  0.24849401  0.22878792  0.84483475  1.0
  O  O346  1  0.11737784  0.82568275  0.19934909  1.0
  O  O347  1  0.96677931  0.82890799  0.23572983  1.0
  O  O348  1  0.55246903  0.80093708  0.21002495  1.0
  O  O349  1  0.43893451  0.86378814  0.24255041  1.0
  O  O350  1  0.55109562  0.76452020  0.30057280  1.0
  O  O351  1  0.42051713  0.72281427  0.33994922  1.0
  O  O352  1  0.29401709  0.32754835  0.72321163  1.0
  O  O353  1  0.18804218  0.32424145  0.67939090  1.0
  O  O354  1  0.72718618  0.29828127  0.71394788  1.0
  O  O355  1  0.79790678  0.35800071  0.75626855  1.0
  O  O356  1  0.34583080  0.76127767  0.19898221  1.0
  O  O357  1  0.25154213  0.72879578  0.15529097  1.0
  O  O358  1  0.38261280  0.32565515  0.80078818  1.0
  O  O359  1  0.53315287  0.32898197  0.76430971  1.0
  O  O360  1  0.94757244  0.30093948  0.78998421  1.0
  O  O361  1  0.06125711  0.36376787  0.75765053  1.0
  O  O362  1  0.94974162  0.26468999  0.69932750  1.0
  O  O363  1  0.08048365  0.22313522  0.65997502  1.0
  O  O364  1  0.20605517  0.82735412  0.27699105  1.0
  O  O365  1  0.31192275  0.82410088  0.32086660  1.0
  O  O366  1  0.77280436  0.79812433  0.28598364  1.0
  O  O367  1  0.70251380  0.85794407  0.24353851  1.0
  O  O368  1  0.84590559  0.73868794  0.19893072  1.0
  O  O369  1  0.75157661  0.77112128  0.15523057  1.0
  O  O370  1  0.88259811  0.17432685  0.80060306  1.0
  O  O371  1  0.03322359  0.17109705  0.76427529  1.0
  O  O372  1  0.44749313  0.19907207  0.79003359  1.0
  O  O373  1  0.56104216  0.13623287  0.75751502  1.0
  O  O374  1  0.44885824  0.23549214  0.69944917  1.0
  O  O375  1  0.57938009  0.27728660  0.66009221  1.0
  O  O376  1  0.70602864  0.67243432  0.27682494  1.0
  O  O377  1  0.81197177  0.67586443  0.32067253  1.0
  O  O378  1  0.27283052  0.70173198  0.28603114  1.0
  O  O379  1  0.20232194  0.64199473  0.24362847  1.0
  O  O380  1  0.65419764  0.23870409  0.80096234  1.0
  O  O381  1  0.74859882  0.27133382  0.84453031  1.0
  O  O382  1  0.61729964  0.67435080  0.19929004  1.0
  O  O383  1  0.46672018  0.67110430  0.23571392  1.0
  O  O384  1  0.05254717  0.69906874  0.20999053  1.0
  O  O385  1  0.93908498  0.63619973  0.24255523  1.0
  O  O386  1  0.05109835  0.73536883  0.30059903  1.0
  O  O387  1  0.92047923  0.77707372  0.33996518  1.0
  O  O388  1  0.79402362  0.17271708  0.72281245  1.0
  O  O389  1  0.68759739  0.17597537  0.67925159  1.0
  O  O390  1  0.22737399  0.20177757  0.71403892  1.0
  O  O391  1  0.29784617  0.14196330  0.75641634  1.0
