# generated using pymatgen
data_ZnH5C17NO4F5
_symmetry_space_group_name_H-M   'P 1'
_cell_length_a   11.12938817
_cell_length_b   16.60816104
_cell_length_c   17.85082858
_cell_angle_alpha   89.59955010
_cell_angle_beta   88.27386392
_cell_angle_gamma   89.77149484
_symmetry_Int_Tables_number   1
_chemical_formula_structural   ZnH5C17NO4F5
_chemical_formula_sum   'Zn2 H10 C34 N2 O8 F10'
_cell_volume   3297.92207931
_cell_formula_units_Z   2
loop_
 _symmetry_equiv_pos_site_id
 _symmetry_equiv_pos_as_xyz
  1  'x, y, z'
loop_
 _atom_site_type_symbol
 _atom_site_label
 _atom_site_symmetry_multiplicity
 _atom_site_fract_x
 _atom_site_fract_y
 _atom_site_fract_z
 _atom_site_occupancy
  Zn  Zn0  1  0.50848390  0.58227126  0.50050377  1.0
  Zn  Zn1  1  0.50953149  0.41716193  0.49889114  1.0
  H  H2  1  0.12137955  0.38205497  0.48533508  1.0
  H  H3  1  0.89895163  0.38076024  0.51149895  1.0
  H  H4  1  0.10193592  0.55996513  0.53149689  1.0
  H  H5  1  0.91400025  0.56072603  0.47009931  1.0
  H  H6  1  0.43473002  0.63615265  0.86955751  1.0
  H  H7  1  0.43562368  0.63724888  0.12889847  1.0
  H  H8  1  0.47236394  0.62707910  0.73098413  1.0
  H  H9  1  0.46208641  0.62870973  0.26743479  1.0
  H  H10  1  0.64277013  0.71251980  0.41818073  1.0
  H  H11  1  0.36979842  0.70881625  0.58315996  1.0
  C  C12  1  0.49055257  0.49980311  0.35429770  1.0
  C  C13  1  0.50486561  0.49763580  0.64582722  1.0
  C  C14  1  0.74170905  0.50049113  0.49032238  1.0
  C  C15  1  0.27543495  0.50134953  0.50932060  1.0
  C  C16  1  0.07452904  0.43845078  0.49851390  1.0
  C  C17  1  0.94421349  0.43801886  0.49987710  1.0
  C  C18  1  0.14249776  0.50294837  0.51405528  1.0
  C  C19  1  0.87464409  0.50278478  0.48595854  1.0
  C  C20  1  0.44804401  0.57807209  0.84254265  1.0
  C  C21  1  0.44315984  0.57917589  0.15709907  1.0
  C  C22  1  0.46842232  0.57301585  0.76579228  1.0
  C  C23  1  0.45824329  0.57446948  0.23371268  1.0
  C  C24  1  0.48577398  0.49877758  0.72943334  1.0
  C  C25  1  0.47044300  0.50031783  0.27144892  1.0
  C  C26  1  0.48165431  0.42886978  0.77389875  1.0
  C  C27  1  0.46382779  0.43006452  0.22864984  1.0
  C  C28  1  0.46195353  0.43351139  0.85130548  1.0
  C  C29  1  0.44788093  0.43432194  0.15149271  1.0
  C  C30  1  0.44580169  0.50777641  0.88765502  1.0
  C  C31  1  0.43904173  0.50849202  0.11360489  1.0
  C  C32  1  0.43414287  0.51009643  0.96649562  1.0
  C  C33  1  0.43207355  0.51022012  0.03487112  1.0
  C  C34  1  0.57955299  0.83083119  0.45259984  1.0
  C  C35  1  0.42499357  0.82881078  0.54769156  1.0
  C  C36  1  0.58124217  0.74736636  0.45401473  1.0
  C  C37  1  0.42895067  0.74534407  0.54707565  1.0
  C  C38  1  0.50087189  0.87524751  0.49999431  1.0
  C  C39  1  0.49920044  0.95983002  0.49979870  1.0
  C  C40  1  0.49939589  0.03309761  0.49943746  1.0
  C  C41  1  0.58477285  0.16142459  0.45452423  1.0
  C  C42  1  0.41936869  0.16307730  0.54351701  1.0
  C  C43  1  0.58353225  0.24519019  0.45650996  1.0
  C  C44  1  0.42501876  0.24678888  0.54164440  1.0
  C  C45  1  0.50100143  0.11770452  0.49912923  1.0
  N  N46  1  0.50644240  0.70664962  0.50074001  1.0
  N  N47  1  0.50547177  0.28675465  0.49916331  1.0
  O  O48  1  0.47635682  0.56703919  0.38754738  1.0
  O  O49  1  0.53160287  0.56467601  0.61448075  1.0
  O  O50  1  0.52059895  0.43355833  0.38461853  1.0
  O  O51  1  0.49034118  0.43093420  0.61293569  1.0
  O  O52  1  0.68805769  0.56756048  0.47807692  1.0
  O  O53  1  0.32795656  0.56776177  0.52375200  1.0
  O  O54  1  0.69020253  0.43380944  0.50614413  1.0
  O  O55  1  0.32803434  0.43574643  0.49106354  1.0
  F  F56  1  0.66328632  0.28622031  0.41463794  1.0
  F  F57  1  0.34722934  0.28908206  0.58353063  1.0
  F  F58  1  0.49895639  0.35456319  0.74522326  1.0
  F  F59  1  0.47190014  0.35554358  0.25884850  1.0
  F  F60  1  0.46070458  0.36450351  0.89183553  1.0
  F  F61  1  0.44283488  0.36490494  0.11274626  1.0
  F  F62  1  0.65464213  0.87091085  0.40515360  1.0
  F  F63  1  0.34732127  0.86687635  0.59479305  1.0
  F  F64  1  0.66554757  0.12250153  0.41063762  1.0
  F  F65  1  0.33633452  0.12589122  0.58728384  1.0
