# generated using pymatgen
data_Al6H60C93N3O28F11
_symmetry_space_group_name_H-M   'P 1'
_cell_length_a   12.70121709
_cell_length_b   12.81276645
_cell_length_c   30.42166262
_cell_angle_alpha   80.83380365
_cell_angle_beta   89.73402874
_cell_angle_gamma   61.74375958
_symmetry_Int_Tables_number   1
_chemical_formula_structural   Al6H60C93N3O28F11
_chemical_formula_sum   'Al6 H60 C93 N3 O28 F11'
_cell_volume   4290.84921662
_cell_formula_units_Z   1
loop_
 _symmetry_equiv_pos_site_id
 _symmetry_equiv_pos_as_xyz
  1  'x, y, z'
loop_
 _atom_site_type_symbol
 _atom_site_label
 _atom_site_symmetry_multiplicity
 _atom_site_fract_x
 _atom_site_fract_y
 _atom_site_fract_z
 _atom_site_occupancy
  Al  Al0  1  0.41333836  0.17454232  0.48825567  1.0
  Al  Al1  1  0.42091380  0.91896580  0.50353648  1.0
  Al  Al2  1  0.65654957  0.92115389  0.50488675  1.0
  Al  Al3  1  0.92672914  0.16504485  0.02370759  1.0
  Al  Al4  1  0.67473639  0.40915738  0.00462232  1.0
  Al  Al5  1  0.90025456  0.42995962  0.00247876  1.0
  H  H6  1  0.86564971  0.58975189  0.10781355  1.0
  H  H7  1  0.84661096  0.63321443  0.18534291  1.0
  H  H8  1  0.52360407  0.36932342  0.21076500  1.0
  H  H9  1  0.21292689  0.33727542  0.20782566  1.0
  H  H10  1  0.22725239  0.30549320  0.28628854  1.0
  H  H11  1  0.01375562  0.17390213  0.29158211  1.0
  H  H12  1  0.95793008  0.27041880  0.21693344  1.0
  H  H13  1  0.18891393  0.98678689  0.29338684  1.0
  H  H14  1  0.27359872  0.01981923  0.20806177  1.0
  H  H15  1  0.83229914  0.66708093  0.32888508  1.0
  H  H16  1  0.35518931  0.16570138  0.28379870  1.0
  H  H17  1  0.73674032  0.95651566  0.29718757  1.0
  H  H18  1  0.12541334  0.04807389  0.21663978  1.0
  H  H19  1  0.74055954  0.76869468  0.79668477  1.0
  H  H20  1  0.74515980  0.78674280  0.71906152  1.0
  H  H21  1  0.84676503  0.54292055  0.79148006  1.0
  H  H22  1  0.76203544  0.46507185  0.79484211  1.0
  H  H23  1  0.44957136  0.79612048  0.71841282  1.0
  H  H24  1  0.50017236  0.64435325  0.71302608  1.0
  H  H25  1  0.46197209  0.73193116  0.79567794  1.0
  H  H26  1  0.58831226  0.88337388  0.71453939  1.0
  H  H27  1  0.58213675  0.84811283  0.79217268  1.0
  H  H28  1  0.78922460  0.21439711  0.30207359  1.0
  H  H29  1  0.53962066  0.57874803  0.79001179  1.0
  H  H30  1  0.83429546  0.97024521  0.69612969  1.0
  H  H31  1  0.80195781  0.94020411  0.61872846  1.0
  H  H32  1  0.49486828  0.29419464  0.59175159  1.0
  H  H33  1  0.44900214  0.77048987  0.39862034  1.0
  H  H34  1  0.57154645  0.37857580  0.80397505  1.0
  H  H35  1  0.58233881  0.39802885  0.88435171  1.0
  H  H36  1  0.05668250  0.42073248  0.88446353  1.0
  H  H37  1  0.09727448  0.39889774  0.80477948  1.0
  H  H38  1  0.23039602  0.30711588  0.66750865  1.0
  H  H39  1  0.85489758  0.06304688  0.29453263  1.0
  H  H40  1  0.28999634  0.25009470  0.59296768  1.0
  H  H41  1  0.09165924  0.06074010  0.82937906  1.0
  H  H42  1  0.05510858  0.08227000  0.90928628  1.0
  H  H43  1  0.51359755  0.61964871  0.18886070  1.0
  H  H44  1  0.53448876  0.57484756  0.11130727  1.0
  H  H45  1  0.46707813  0.72731985  0.32113847  1.0
  H  H46  1  0.76910320  0.98945020  0.22128076  1.0
  H  H47  1  0.01372474  0.39839725  0.29627027  1.0
  H  H48  1  0.84083029  0.44434646  0.33373480  1.0
  H  H49  1  0.86299275  0.29680908  0.33579169  1.0
  H  H50  1  0.85084616  0.14117628  0.21829156  1.0
  H  H51  1  0.81498089  0.40116651  0.28382328  1.0
  H  H52  1  0.70650971  0.51081178  0.67850867  1.0
  H  H53  1  0.80753445  0.30385525  0.70390414  1.0
  H  H54  1  0.84439033  0.32317497  0.75688849  1.0
  H  H55  1  0.91636155  0.35293420  0.70991724  1.0
  H  H56  1  0.12128588  0.93918303  0.64021316  1.0
  H  H57  1  0.25905019  0.77212877  0.60617752  1.0
  H  H58  1  0.32446879  0.78363769  0.65599086  1.0
  H  H59  1  0.35613184  0.83622445  0.60234961  1.0
  H  H60  1  0.74770405  0.28989930  0.22513198  1.0
  H  H61  1  0.47027203  0.27077804  0.29105577  1.0
  H  H62  1  0.47099684  0.26235635  0.21422454  1.0
  H  H63  1  0.61292263  0.04350287  0.21134400  1.0
  H  H64  1  0.31635906  0.37308140  0.44908922  1.0
  H  H65  1  0.00770091  0.96452813  0.01500984  1.0
  C  C66  1  0.29143015  0.08936555  0.42881274  1.0
  C  C67  1  0.66816565  0.65391343  0.23640483  1.0
  C  C68  1  0.66028770  0.67348263  0.27463721  1.0
  C  C69  1  0.60607550  0.78347488  0.45135538  1.0
  C  C70  1  0.70022627  0.58174744  0.10464721  1.0
  C  C71  1  0.66509090  0.04196552  0.27869181  1.0
  C  C72  1  0.77773509  0.15307130  0.28384140  1.0
  C  C73  1  0.76719608  0.19542957  0.23297189  1.0
  C  C74  1  0.67896517  0.21807148  0.12298728  1.0
  C  C75  1  0.66304294  0.14721497  0.29818140  1.0
  C  C76  1  0.68013549  0.05727354  0.22840202  1.0
  C  C77  1  0.65022685  0.69475939  0.31909728  1.0
  C  C78  1  0.66339293  0.18487447  0.21081029  1.0
  C  C79  1  0.54364077  0.27741934  0.22572611  1.0
  C  C80  1  0.55142313  0.26564846  0.27654163  1.0
  C  C81  1  0.62782152  0.09127223  0.43188855  1.0
  C  C82  1  0.66719441  0.20428941  0.16278169  1.0
  C  C83  1  0.66116663  0.12716271  0.34629560  1.0
  C  C84  1  0.65468323  0.11249051  0.38642238  1.0
  C  C85  1  0.25900737  0.22061317  0.27376240  1.0
  C  C86  1  0.05424348  0.23318551  0.28315840  1.0
  C  C87  1  0.03297962  0.27740840  0.23137153  1.0
  C  C88  1  0.74743676  0.68921358  0.34349446  1.0
  C  C89  1  0.09537789  0.25138509  0.12008371  1.0
  C  C90  1  0.19227152  0.15373204  0.29569062  1.0
  C  C91  1  0.24072962  0.24343078  0.22272190  1.0
  C  C92  1  0.14788501  0.20773296  0.20794843  1.0
  C  C93  1  0.28974331  0.08274103  0.55675950  1.0
  C  C94  1  0.19436037  0.07169619  0.22529874  1.0
  C  C95  1  0.22946043  0.03899916  0.27572628  1.0
  C  C96  1  0.12153056  0.23494733  0.15984407  1.0
  C  C97  1  0.21806559  0.12662042  0.34379811  1.0
  C  C98  1  0.24428641  0.10822597  0.38364178  1.0
  C  C99  1  0.73563173  0.71213495  0.38680477  1.0
  C  C100  1  0.65990617  0.79368741  0.72967289  1.0
  C  C101  1  0.74610131  0.57143142  0.72938943  1.0
  C  C102  1  0.76095394  0.54996479  0.78080905  1.0
  C  C103  1  0.68067011  0.61145314  0.88786559  1.0
  C  C104  1  0.63903437  0.69848767  0.71122463  1.0
  C  C105  1  0.60796747  0.78057422  0.57479073  1.0
  C  C106  1  0.66006102  0.77364241  0.78116342  1.0
  C  C107  1  0.65626307  0.65503374  0.79868348  1.0
  C  C108  1  0.53727580  0.66616472  0.78021422  1.0
  C  C109  1  0.52224566  0.70341341  0.72884865  1.0
  C  C110  1  0.77759339  0.62219476  0.16881435  1.0
  C  C111  1  0.66852525  0.63091517  0.84721198  1.0
  C  C112  1  0.63160172  0.72034520  0.66273068  1.0
  C  C113  1  0.62555383  0.73709808  0.62210664  1.0
  C  C114  1  0.64725896  0.11527242  0.60098319  1.0
  C  C115  1  0.56994721  0.22440430  0.61442537  1.0
  C  C116  1  0.58979191  0.23962585  0.65695112  1.0
  C  C117  1  0.61782453  0.09388613  0.55710568  1.0
  C  C118  1  0.68342127  0.14891299  0.68761051  1.0
  C  C119  1  0.76142750  0.04079197  0.67277725  1.0
  C  C120  1  0.74384256  0.02434391  0.62996152  1.0
  C  C121  1  0.78816937  0.59825601  0.12562994  1.0
  C  C122  1  0.79005077  0.09645770  0.84711069  1.0
  C  C123  1  0.79524914  0.10706334  0.89180417  1.0
  C  C124  1  0.63934191  0.31329383  0.87330839  1.0
  C  C125  1  0.63392311  0.30293381  0.82888236  1.0
  C  C126  1  0.70929282  0.19298671  0.81472096  1.0
  C  C127  1  0.70320196  0.17796097  0.77015179  1.0
  C  C128  1  0.69534751  0.16481799  0.73170497  1.0
  C  C129  1  0.62833521  0.74223469  0.40775135  1.0
  C  C130  1  0.71956888  0.21602258  0.90582049  1.0
  C  C131  1  0.24708504  0.10608428  0.60162978  1.0
  C  C132  1  0.60129939  0.58939577  0.12769315  1.0
  C  C133  1  0.19953056  0.04148320  0.62988478  1.0
  C  C134  1  0.16233800  0.08050440  0.67068913  1.0
  C  C135  1  0.17411930  0.17212560  0.68599336  1.0
  C  C136  1  0.22123238  0.23437202  0.65692290  1.0
  C  C137  1  0.25530321  0.20170739  0.61592753  1.0
  C  C138  1  0.08835289  0.32976852  0.82788614  1.0
  C  C139  1  0.06649098  0.34162896  0.87207834  1.0
  C  C140  1  0.06499681  0.15040415  0.88597614  1.0
  C  C141  1  0.53297336  0.74540099  0.38299768  1.0
  C  C142  1  0.08527753  0.13861338  0.84178190  1.0
  C  C143  1  0.59006552  0.61372158  0.17084870  1.0
  C  C144  1  0.09879459  0.22758738  0.81212684  1.0
  C  C145  1  0.12370993  0.21223680  0.76760496  1.0
  C  C146  1  0.14552578  0.19557204  0.72945164  1.0
  C  C147  1  0.05597165  0.25159900  0.90154957  1.0
  C  C148  1  0.71307883  0.23782061  0.07859893  1.0
  C  C149  1  0.71748367  0.54626106  0.05996850  1.0
  C  C150  1  0.04551340  0.26754920  0.07550504  1.0
  C  C151  1  0.72892518  0.23546566  0.95230033  1.0
  C  C152  1  0.70783167  0.56504937  0.93491416  1.0
  C  C153  1  0.54276198  0.72190025  0.33987090  1.0
  C  C154  1  0.67833049  0.63038716  0.19221251  1.0
  C  C155  1  0.02706903  0.26485775  0.94840366  1.0
  C  C156  1  0.87335676  0.36955510  0.31520807  1.0
  C  C157  1  0.83117897  0.35983689  0.72098790  1.0
  C  C158  1  0.28658943  0.82838764  0.62140325  1.0
  N  N159  1  0.00030310  0.32774059  0.30926747  1.0
  N  N160  1  0.73235800  0.48311160  0.71187775  1.0
  N  N161  1  0.18191507  0.94772633  0.62002488  1.0
  O  O162  1  0.52966004  0.16872671  0.44317542  1.0
  O  O163  1  0.81012912  0.53875907  0.04069136  1.0
  O  O164  1  0.02135705  0.36620092  0.04864040  1.0
  O  O165  1  0.32044136  0.16541134  0.43814671  1.0
  O  O166  1  0.01751798  0.18084910  0.97287109  1.0
  O  O167  1  0.81860829  0.15918637  0.97836044  1.0
  O  O168  1  0.64531500  0.33485733  0.96171784  1.0
  O  O169  1  0.63427746  0.53676448  0.95553247  1.0
  O  O170  1  0.80693700  0.54906107  0.95244756  1.0
  O  O171  1  0.00874753  0.36398239  0.96062426  1.0
  O  O172  1  0.83269915  0.33662802  0.00969745  1.0
  O  O173  1  0.51173570  0.79798529  0.55434352  1.0
  O  O174  1  0.30456787  0.99429080  0.45557433  1.0
  O  O175  1  0.50485778  0.80483392  0.46674984  1.0
  O  O176  1  0.68381059  0.80261018  0.46990760  1.0
  O  O177  1  0.70443419  0.99156952  0.45657243  1.0
  O  O178  1  0.51620965  0.16789497  0.53739024  1.0
  O  O179  1  0.30856987  0.16172689  0.53297686  1.0
  O  O180  1  0.30910117  0.98333943  0.54451164  1.0
  O  O181  1  0.68708249  0.80490930  0.55707704  1.0
  O  O182  1  0.69635242  0.99859047  0.54342693  1.0
  O  O183  1  0.49870093  0.00259567  0.49888639  1.0
  O  O184  1  0.02498463  0.18524762  0.06726253  1.0
  O  O185  1  0.82104926  0.17167327  0.07207870  1.0
  O  O186  1  0.63232682  0.32447192  0.04978051  1.0
  O  O187  1  0.64204185  0.51909492  0.04418175  1.0
  O  O188  1  0.33651265  0.33222096  0.47982349  1.0
  O  O189  1  0.01272817  0.00821844  0.03733543  1.0
  F  F190  1  0.56304739  0.36292734  0.28834234  1.0
  F  F191  1  0.51488250  0.34484105  0.67047312  1.0
  F  F192  1  0.11504702  0.02051762  0.69819246  1.0
  F  F193  1  0.55672276  0.03821497  0.28649907  1.0
  F  F194  1  0.00067567  0.40132519  0.22203057  1.0
  F  F195  1  0.35479548  0.96445082  0.28355604  1.0
  F  F196  1  0.35023444  0.17314248  0.20458934  1.0
  F  F197  1  0.85430208  0.57678370  0.71413484  1.0
  F  F198  1  0.83261525  0.70440311  0.40839486  1.0
  F  F199  1  0.87485155  0.00857914  0.92022765  1.0
  F  F200  1  0.86454216  0.98983567  0.83503269  1.0
