# generated using pymatgen
data_NiH(CO)5
_symmetry_space_group_name_H-M   'P 1'
_cell_length_a   6.72852428
_cell_length_b   15.07711989
_cell_length_c   15.07917848
_cell_angle_alpha   117.82750191
_cell_angle_beta   98.54914722
_cell_angle_gamma   98.55360816
_symmetry_Int_Tables_number   1
_chemical_formula_structural   NiH(CO)5
_chemical_formula_sum   'Ni6 H6 C30 O30'
_cell_volume   1295.51689353
_cell_formula_units_Z   6
loop_
 _symmetry_equiv_pos_site_id
 _symmetry_equiv_pos_as_xyz
  1  'x, y, z'
loop_
 _atom_site_type_symbol
 _atom_site_label
 _atom_site_symmetry_multiplicity
 _atom_site_fract_x
 _atom_site_fract_y
 _atom_site_fract_z
 _atom_site_occupancy
  Ni  Ni0  1  0.03158185  0.40996930  0.73104738  1.0
  Ni  Ni1  1  0.30046619  0.26898507  0.67890826  1.0
  Ni  Ni2  1  0.62163511  0.32110864  0.59009559  1.0
  Ni  Ni3  1  0.96841905  0.59003123  0.26895260  1.0
  Ni  Ni4  1  0.69953621  0.73101490  0.32109172  1.0
  Ni  Ni5  1  0.37836467  0.67889285  0.40990516  1.0
  H  H6  1  0.87481602  0.55972140  0.02117277  1.0
  H  H7  1  0.85353838  0.97871106  0.53836642  1.0
  H  H8  1  0.31521748  0.46161125  0.44031667  1.0
  H  H9  1  0.12518449  0.44027875  0.97882644  1.0
  H  H10  1  0.14646441  0.02128863  0.46163433  1.0
  H  H11  1  0.68478381  0.53838967  0.55968407  1.0
  C  C12  1  0.68521273  0.43478467  0.82511071  1.0
  C  C13  1  0.86016571  0.17486566  0.60962741  1.0
  C  C14  1  0.25064181  0.39048029  0.56529879  1.0
  C  C15  1  0.31478666  0.56521510  0.17488927  1.0
  C  C16  1  0.13983369  0.82513477  0.39037257  1.0
  C  C17  1  0.74936059  0.60952101  0.43470118  1.0
  C  C18  1  0.58306434  0.46478856  0.91198395  1.0
  C  C19  1  0.67117842  0.08799287  0.55267916  1.0
  C  C20  1  0.11855180  0.44735742  0.53532216  1.0
  C  C21  1  0.41693617  0.53521093  0.08801525  1.0
  C  C22  1  0.32882287  0.91200739  0.44732159  1.0
  C  C23  1  0.88144759  0.55264301  0.46467781  1.0
  C  C24  1  0.36515202  0.42936450  0.89879919  1.0
  C  C25  1  0.46643984  0.10125657  0.53057943  1.0
  C  C26  1  0.93591620  0.46946006  0.57067844  1.0
  C  C27  1  0.63484849  0.57063565  0.10120001  1.0
  C  C28  1  0.53356033  0.89874464  0.46942209  1.0
  C  C29  1  0.06408281  0.53053999  0.42932076  1.0
  C  C30  1  0.70953425  0.53327275  0.01169911  1.0
  C  C31  1  0.69778405  0.98823453  0.52141456  1.0
  C  C32  1  0.17640005  0.47856143  0.46679690  1.0
  C  C33  1  0.29046476  0.46672730  0.98830009  1.0
  C  C34  1  0.30221874  0.01176583  0.47858619  1.0
  C  C35  1  0.82360123  0.52144015  0.53320385  1.0
  C  C36  1  0.74616204  0.35713294  0.09832233  1.0
  C  C37  1  0.64768959  0.90159549  0.25893801  1.0
  C  C38  1  0.38888862  0.74125314  0.64265239  1.0
  C  C39  1  0.25383882  0.64286416  0.90167455  1.0
  C  C40  1  0.35230681  0.09840143  0.74106197  1.0
  C  C41  1  0.61111117  0.25874635  0.35734836  1.0
  O  O42  1  0.87952510  0.46890809  0.84258750  1.0
  O  O43  1  0.03700765  0.15739898  0.62631833  1.0
  O  O44  1  0.41086076  0.37383974  0.53119223  1.0
  O  O45  1  0.12047580  0.53109311  0.15741248  1.0
  O  O46  1  0.96299363  0.84260194  0.37368242  1.0
  O  O47  1  0.58914126  0.62616117  0.46880697  1.0
  O  O48  1  0.56976542  0.37432330  0.73223572  1.0
  O  O49  1  0.83759433  0.26776630  0.64210246  1.0
  O  O50  1  0.19554634  0.35799205  0.62570647  1.0
  O  O51  1  0.43023509  0.62567552  0.26776348  1.0
  O  O52  1  0.16240507  0.73223414  0.35789752  1.0
  O  O53  1  0.80445456  0.64200849  0.37429351  1.0
  O  O54  1  0.22619098  0.36281392  0.80832973  1.0
  O  O55  1  0.41795396  0.19174272  0.55449394  1.0
  O  O56  1  0.86348417  0.44548566  0.63720273  1.0
  O  O57  1  0.77380953  0.63718623  0.19166947  1.0
  O  O58  1  0.58204505  0.80825600  0.44550526  1.0
  O  O59  1  0.13651522  0.55451478  0.36279725  1.0
  O  O60  1  0.74703870  0.42046077  0.18279899  1.0
  O  O61  1  0.56416055  0.81714187  0.23791188  1.0
  O  O62  1  0.32649116  0.76229243  0.57923147  1.0
  O  O63  1  0.25296293  0.57953909  0.81719943  1.0
  O  O64  1  0.43584074  0.18285905  0.76208887  1.0
  O  O65  1  0.67350596  0.23770713  0.42076696  1.0
  O  O66  1  0.74277806  0.29271236  0.01480278  1.0
  O  O67  1  0.72775301  0.98508327  0.27792070  1.0
  O  O68  1  0.44979036  0.72225417  0.70715985  1.0
  O  O69  1  0.25722396  0.70728457  0.98519643  1.0
  O  O70  1  0.27224866  0.01491671  0.72208082  1.0
  O  O71  1  0.55020036  0.27774461  0.29283781  1.0
