# generated using pymatgen
data_Zn4H30C62O15
_symmetry_space_group_name_H-M   'P 1'
_cell_length_a   17.58745595
_cell_length_b   17.99247759
_cell_length_c   18.03944754
_cell_angle_alpha   63.53506750
_cell_angle_beta   86.86247652
_cell_angle_gamma   68.24909150
_symmetry_Int_Tables_number   1
_chemical_formula_structural   Zn4H30C62O15
_chemical_formula_sum   'Zn4 H30 C62 O15'
_cell_volume   4704.37020197
_cell_formula_units_Z   1
loop_
 _symmetry_equiv_pos_site_id
 _symmetry_equiv_pos_as_xyz
  1  'x, y, z'
loop_
 _atom_site_type_symbol
 _atom_site_label
 _atom_site_symmetry_multiplicity
 _atom_site_fract_x
 _atom_site_fract_y
 _atom_site_fract_z
 _atom_site_occupancy
  Zn  Zn0  1  0.43183685  0.43667419  0.57261140  1.0
  Zn  Zn1  1  0.58203497  0.42319066  0.46430405  1.0
  Zn  Zn2  1  0.54126663  0.54104082  0.56783059  1.0
  Zn  Zn3  1  0.43178651  0.60901306  0.39778960  1.0
  H  H4  1  0.95030302  0.62761863  0.25852811  1.0
  H  H5  1  0.43568675  0.42759060  0.15026434  1.0
  H  H6  1  0.55576142  0.58201127  0.85051782  1.0
  H  H7  1  0.80645036  0.50796101  0.45179183  1.0
  H  H8  1  0.62812764  0.67508660  0.03379745  1.0
  H  H9  1  0.37376150  0.15034441  0.29889757  1.0
  H  H10  1  0.48591854  0.21283411  0.46441632  1.0
  H  H11  1  0.60732782  0.12174206  0.70701227  1.0
  H  H12  1  0.61238913  0.85460876  0.70869145  1.0
  H  H13  1  0.35128407  0.04115965  0.26652488  1.0
  H  H14  1  0.37291752  0.88230337  0.30528584  1.0
  H  H15  1  0.96003435  0.26076562  0.72789455  1.0
  H  H16  1  0.51796266  0.78938939  0.53492774  1.0
  H  H17  1  0.43262073  0.18592100  0.39224443  1.0
  H  H18  1  0.55850683  0.81823173  0.61277078  1.0
  H  H19  1  0.80750082  0.31095120  0.69936653  1.0
  H  H20  1  0.62989183  0.96363563  0.74380122  1.0
  H  H21  1  0.09231968  0.26550877  0.67772507  1.0
  H  H22  1  0.06129418  0.68544038  0.23539763  1.0
  H  H23  1  0.19886363  0.67157375  0.28390390  1.0
  H  H24  1  0.20295216  0.45965164  0.52247844  1.0
  H  H25  1  0.85861652  0.46542247  0.36243767  1.0
  H  H26  1  0.37777579  0.36436778  0.08407274  1.0
  H  H27  1  0.22522942  0.33365863  0.52319043  1.0
  H  H28  1  0.48802473  0.47242196  0.20500978  1.0
  H  H29  1  0.60495613  0.65273195  0.17817992  1.0
  H  H30  1  0.60963438  0.64934183  0.91531324  1.0
  H  H31  1  0.35527876  0.34281584  0.96363834  1.0
  H  H32  1  0.37463644  0.37015189  0.81682111  1.0
  H  H33  1  0.51279242  0.52786700  0.79938395  1.0
  C  C34  1  0.53134532  0.54477897  0.28662150  1.0
  C  C35  1  0.10125424  0.36893641  0.56306879  1.0
  C  C36  1  0.05782386  0.32524393  0.62017134  1.0
  C  C37  1  0.45823150  0.46724310  0.71369010  1.0
  C  C38  1  0.97111574  0.35422293  0.60458958  1.0
  C  C39  1  0.92884221  0.42425800  0.52372865  1.0
  C  C40  1  0.92638978  0.31392398  0.66683545  1.0
  C  C41  1  0.84203797  0.34147099  0.65124075  1.0
  C  C42  1  0.84240936  0.45138733  0.51010672  1.0
  C  C43  1  0.44523964  0.45128271  0.80089266  1.0
  C  C44  1  0.54388714  0.56133660  0.19878064  1.0
  C  C45  1  0.16918468  0.62717315  0.32401983  1.0
  C  C46  1  0.38969110  0.38364392  0.92747490  1.0
  C  C47  1  0.40008547  0.39848708  0.84650409  1.0
  C  C48  1  0.47847515  0.48812956  0.83726181  1.0
  C  C49  1  0.53387334  0.27023713  0.56008881  1.0
  C  C50  1  0.46861870  0.47441989  0.91986110  1.0
  C  C51  1  0.42326187  0.42050666  0.96579473  1.0
  C  C52  1  0.50243149  0.51260128  0.95895758  1.0
  C  C53  1  0.49098700  0.49513362  0.04280885  1.0
  C  C54  1  0.44551291  0.44073449  0.08625578  1.0
  C  C55  1  0.41282313  0.40511982  0.04949775  1.0
  C  C56  1  0.17224386  0.50464466  0.45873134  1.0
  C  C57  1  0.54649321  0.56836603  0.91470946  1.0
  C  C58  1  0.57681933  0.60623972  0.95069248  1.0
  C  C59  1  0.56606037  0.59115758  0.03432674  1.0
  C  C60  1  0.52407144  0.53393490  0.08175746  1.0
  C  C61  1  0.46150994  0.73284594  0.44579801  1.0
  C  C62  1  0.59552684  0.63238625  0.07070943  1.0
  C  C63  1  0.58305030  0.61994638  0.15086218  1.0
  C  C64  1  0.51650650  0.51826615  0.16532088  1.0
  C  C65  1  0.44731323  0.82777454  0.42299023  1.0
  C  C66  1  0.54539654  0.17553232  0.58265025  1.0
  C  C67  1  0.09710628  0.50695388  0.43208116  1.0
  C  C68  1  0.38755977  0.98591863  0.32563483  1.0
  C  C69  1  0.39929053  0.89851967  0.34653471  1.0
  C  C70  1  0.48146474  0.84633942  0.47710052  1.0
  C  C71  1  0.46950769  0.93526314  0.45798439  1.0
  C  C72  1  0.42198963  0.00629476  0.37992021  1.0
  C  C73  1  0.70925775  0.43840517  0.55205861  1.0
  C  C74  1  0.50328337  0.95656633  0.51405294  1.0
  C  C75  1  0.49059125  0.04742246  0.49000325  1.0
  C  C76  1  0.44345493  0.11592594  0.41112137  1.0
  C  C77  1  0.41021028  0.09647178  0.35848504  1.0
  C  C78  1  0.05612013  0.57538519  0.35022875  1.0
  C  C79  1  0.54847311  0.88803138  0.59374064  1.0
  C  C80  1  0.57880193  0.90800070  0.64765699  1.0
  C  C81  1  0.56727932  0.99815616  0.62615342  1.0
  C  C82  1  0.52412147  0.06883244  0.54612056  1.0
  C  C83  1  0.59736255  0.01856031  0.68296463  1.0
  C  C84  1  0.58546566  0.10592437  0.66261150  1.0
  C  C85  1  0.29046383  0.55276669  0.43623972  1.0
  C  C86  1  0.51605232  0.15725038  0.52560526  1.0
  C  C87  1  0.20858517  0.56205859  0.40574543  1.0
  C  C88  1  0.80015327  0.41006793  0.57163783  1.0
  C  C89  1  0.05842100  0.44715908  0.48538898  1.0
  C  C90  1  0.09371164  0.63410267  0.29750100  1.0
  C  C91  1  0.86707938  0.53048983  0.33479001  1.0
  C  C92  1  0.19286299  0.32120219  0.57977857  1.0
  C  C93  1  0.97498872  0.46651886  0.46149566  1.0
  C  C94  1  0.93894592  0.52949193  0.37585660  1.0
  C  C95  1  0.97882122  0.58184995  0.32317255  1.0
  O  O96  1  0.49665527  0.50221612  0.50063333  1.0
  O  O97  1  0.68798358  0.42339544  0.49525918  1.0
  O  O98  1  0.32349354  0.60409499  0.38441822  1.0
  O  O99  1  0.66247192  0.47406589  0.59352187  1.0
  O  O100  1  0.32062733  0.49324548  0.51129687  1.0
  O  O101  1  0.82259001  0.59477520  0.27151422  1.0
  O  O102  1  0.23151027  0.26670641  0.64931485  1.0
  O  O103  1  0.47889907  0.30983994  0.59368644  1.0
  O  O104  1  0.41965559  0.72065851  0.39955880  1.0
  O  O105  1  0.56597590  0.46362424  0.34342438  1.0
  O  O106  1  0.50184824  0.51309522  0.67684569  1.0
  O  O107  1  0.48685522  0.61239850  0.29778974  1.0
  O  O108  1  0.42493070  0.43364870  0.68217776  1.0
  O  O109  1  0.58045151  0.30224737  0.50993028  1.0
  O  O110  1  0.51434024  0.67086641  0.50966675  1.0
