# generated using pymatgen
data_ZnH7C14Br2NO4
_symmetry_space_group_name_H-M   'P 1'
_cell_length_a   8.98276819
_cell_length_b   13.92652775
_cell_length_c   15.36947769
_cell_angle_alpha   89.83363852
_cell_angle_beta   89.95700020
_cell_angle_gamma   98.57804125
_symmetry_Int_Tables_number   1
_chemical_formula_structural   ZnH7C14Br2NO4
_chemical_formula_sum   'Zn2 H14 C28 Br4 N2 O8'
_cell_volume   1901.18529857
_cell_formula_units_Z   2
loop_
 _symmetry_equiv_pos_site_id
 _symmetry_equiv_pos_as_xyz
  1  'x, y, z'
loop_
 _atom_site_type_symbol
 _atom_site_label
 _atom_site_symmetry_multiplicity
 _atom_site_fract_x
 _atom_site_fract_y
 _atom_site_fract_z
 _atom_site_occupancy
  Zn  Zn0  1  0.49267180  0.40028872  0.50436979  1.0
  Zn  Zn1  1  0.50474669  0.59927647  0.49479819  1.0
  H  H2  1  0.01668744  0.61252399  0.49742599  1.0
  H  H3  1  0.98005162  0.38871137  0.49993942  1.0
  H  H4  1  0.38060729  0.34823566  0.93325064  1.0
  H  H5  1  0.37563453  0.62619554  0.06722061  1.0
  H  H6  1  0.39776596  0.35792089  0.77147089  1.0
  H  H7  1  0.39663814  0.62047731  0.22886032  1.0
  H  H8  1  0.56619799  0.65164883  0.94683053  1.0
  H  H9  1  0.57530716  0.36382016  0.05165028  1.0
  H  H10  1  0.70002340  0.95525753  0.41961485  1.0
  H  H11  1  0.30860994  0.04700335  0.42064393  1.0
  H  H12  1  0.69321826  0.77356227  0.41707010  1.0
  H  H13  1  0.31133744  0.22830886  0.42341822  1.0
  H  H14  1  0.31907494  0.72991547  0.57778779  1.0
  H  H15  1  0.68463213  0.26846347  0.58440119  1.0
  C  C16  1  0.49228421  0.50554109  0.66969238  1.0
  C  C17  1  0.49791879  0.49239590  0.32954110  1.0
  C  C18  1  0.61341149  0.90751038  0.45506560  1.0
  C  C19  1  0.39387938  0.09385177  0.45752431  1.0
  C  C20  1  0.61061335  0.80756886  0.45317371  1.0
  C  C21  1  0.39394560  0.19355746  0.45889199  1.0
  C  C22  1  0.40026468  0.78247178  0.54321538  1.0
  C  C23  1  0.60377619  0.21667061  0.54910081  1.0
  C  C24  1  0.39611397  0.88208366  0.54751642  1.0
  C  C25  1  0.61085217  0.11725581  0.54994860  1.0
  C  C26  1  0.50413195  0.94700464  0.50271977  1.0
  C  C27  1  0.50372376  0.05338805  0.50392135  1.0
  C  C28  1  0.79187349  0.52412145  0.49977364  1.0
  C  C29  1  0.20514261  0.47690860  0.49770809  1.0
  C  C30  1  0.95911127  0.53783331  0.49810445  1.0
  C  C31  1  0.03781316  0.46333718  0.49807191  1.0
  C  C32  1  0.42502680  0.41659124  0.90131778  1.0
  C  C33  1  0.42391703  0.56768512  0.09867912  1.0
  C  C34  1  0.43309231  0.42193085  0.81121878  1.0
  C  C35  1  0.43417258  0.56426968  0.18874610  1.0
  C  C36  1  0.48663979  0.50900820  0.76732598  1.0
  C  C37  1  0.49231377  0.48889183  0.23190875  1.0
  C  C38  1  0.53145754  0.59180656  0.81832079  1.0
  C  C39  1  0.54027425  0.41616835  0.18049752  1.0
  C  C40  1  0.52491473  0.58715244  0.90896759  1.0
  C  C41  1  0.53162102  0.41916800  0.08994423  1.0
  C  C42  1  0.47242233  0.49949080  0.95171410  1.0
  C  C43  1  0.47380207  0.49511738  0.04780600  1.0
  Br  Br44  1  0.61519478  0.71457717  0.76985847  1.0
  Br  Br45  1  0.63166001  0.31283002  0.22908082  1.0
  Br  Br46  1  0.24471393  0.92582198  0.61639502  1.0
  Br  Br47  1  0.76434768  0.07185146  0.61601431  1.0
  N  N48  1  0.50539347  0.74692744  0.49643937  1.0
  N  N49  1  0.49671029  0.25303181  0.50454827  1.0
  O  O50  1  0.51522777  0.42513843  0.63669637  1.0
  O  O51  1  0.52918088  0.57663977  0.36294946  1.0
  O  O52  1  0.47136128  0.58089724  0.62758540  1.0
  O  O53  1  0.46795917  0.41281386  0.37082657  1.0
  O  O54  1  0.72139372  0.43807887  0.49239050  1.0
  O  O55  1  0.27547876  0.56148871  0.48162549  1.0
  O  O56  1  0.73198263  0.60123138  0.50825913  1.0
  O  O57  1  0.26480810  0.40103802  0.51399372  1.0
