# generated using pymatgen
data_AlH9C24(ClO2)3
_symmetry_space_group_name_H-M   'P 1'
_cell_length_a   3.99339369
_cell_length_b   29.01059046
_cell_length_c   29.01328208
_cell_angle_alpha   59.99755861
_cell_angle_beta   89.99997196
_cell_angle_gamma   89.99845723
_symmetry_Int_Tables_number   1
_chemical_formula_structural   AlH9C24(ClO2)3
_chemical_formula_sum   'Al2 H18 C48 Cl6 O12'
_cell_volume   2910.82102261
_cell_formula_units_Z   2
loop_
 _symmetry_equiv_pos_site_id
 _symmetry_equiv_pos_as_xyz
  1  'x, y, z'
loop_
 _atom_site_type_symbol
 _atom_site_label
 _atom_site_symmetry_multiplicity
 _atom_site_fract_x
 _atom_site_fract_y
 _atom_site_fract_z
 _atom_site_occupancy
  Al  Al0  1  0.00904719  0.99998448  0.50000711  1.0
  Al  Al1  1  0.00916096  0.66668816  0.16665085  1.0
  H  H2  1  0.20720267  0.52018935  0.30139241  1.0
  H  H3  1  0.21108650  0.42057580  0.35168125  1.0
  H  H4  1  0.78623647  0.51971670  0.17652013  1.0
  H  H5  1  0.78604085  0.14694667  0.49015647  1.0
  H  H6  1  0.20718731  0.14648314  0.36526421  1.0
  H  H7  1  0.21115644  0.24609469  0.31497223  1.0
  H  H8  1  0.20721968  0.80142969  0.17841136  1.0
  H  H9  1  0.21116560  0.85171540  0.22773475  1.0
  H  H10  1  0.78622092  0.67652748  0.30374717  1.0
  H  H11  1  0.78611148  0.99015022  0.36290779  1.0
  H  H12  1  0.20729800  0.86523722  0.48825839  1.0
  H  H13  1  0.21132713  0.81494278  0.43894292  1.0
  H  H14  1  0.20701899  0.67845118  0.02017825  1.0
  H  H15  1  0.21086277  0.72776668  0.92056752  1.0
  H  H16  1  0.78614050  0.80380838  0.01967759  1.0
  H  H17  1  0.78609424  0.86286693  0.64697409  1.0
  H  H18  1  0.20702541  0.98823007  0.64647881  1.0
  H  H19  1  0.21095435  0.93891812  0.74608919  1.0
  C  C20  1  0.50752458  0.95896835  0.58180273  1.0
  C  C21  1  0.50749477  0.08178627  0.45921410  1.0
  C  C22  1  0.50752700  0.95919406  0.45900469  1.0
  C  C23  1  0.50764489  0.58488359  0.20745310  1.0
  C  C24  1  0.50760514  0.70748337  0.20765149  1.0
  C  C25  1  0.50757751  0.70770072  0.08485624  1.0
  C  C26  1  0.49904158  0.52572854  0.23635169  1.0
  C  C27  1  0.33372133  0.49790557  0.28545935  1.0
  C  C28  1  0.33444302  0.44271535  0.31314898  1.0
  C  C29  1  0.48778664  0.41374522  0.29162177  1.0
  C  C30  1  0.64298006  0.44266121  0.24110524  1.0
  C  C31  1  0.65568804  0.49792824  0.21441535  1.0
  C  C32  1  0.48512785  0.35757544  0.32023753  1.0
  C  C33  1  0.48512017  0.30909454  0.34641617  1.0
  C  C34  1  0.48776513  0.25292235  0.37503865  1.0
  C  C35  1  0.64291177  0.22400721  0.42556093  1.0
  C  C36  1  0.65554814  0.16873854  0.45225578  1.0
  C  C37  1  0.49891470  0.14093938  0.43031889  1.0
  C  C38  1  0.33365898  0.16876393  0.38120461  1.0
  C  C39  1  0.33442475  0.22395415  0.35351187  1.0
  C  C40  1  0.49904064  0.73637758  0.23790715  1.0
  C  C41  1  0.33374963  0.78548863  0.21663151  1.0
  C  C42  1  0.33448561  0.81317555  0.24412580  1.0
  C  C43  1  0.48785859  0.79163925  0.29462323  1.0
  C  C44  1  0.64302989  0.74111641  0.31622194  1.0
  C  C45  1  0.65571348  0.71442973  0.28764504  1.0
  C  C46  1  0.48520888  0.82025122  0.32217683  1.0
  C  C47  1  0.48524134  0.84641441  0.34449225  1.0
  C  C48  1  0.48787787  0.87502796  0.37204368  1.0
  C  C49  1  0.64301406  0.92555285  0.35044289  1.0
  C  C50  1  0.65566231  0.95224544  0.37901373  1.0
  C  C51  1  0.49898074  0.93029751  0.42875261  1.0
  C  C52  1  0.33377278  0.88118250  0.45003174  1.0
  C  C53  1  0.33454680  0.85349119  0.42254447  1.0
  C  C54  1  0.49888011  0.73795805  0.02570754  1.0
  C  C55  1  0.33354653  0.71667394  0.99788820  1.0
  C  C56  1  0.33424493  0.74416172  0.94270721  1.0
  C  C57  1  0.48764324  0.79465432  0.91373216  1.0
  C  C58  1  0.64283492  0.81627040  0.94263085  1.0
  C  C59  1  0.65556131  0.78769953  0.99789669  1.0
  C  C60  1  0.48502866  0.82219464  0.85756396  1.0
  C  C61  1  0.48503894  0.84447890  0.80909455  1.0
  C  C62  1  0.48764297  0.87201841  0.75292779  1.0
  C  C63  1  0.64282640  0.85040319  0.72402589  1.0
  C  C64  1  0.65552701  0.87897439  0.66875988  1.0
  C  C65  1  0.49883326  0.92871345  0.64095091  1.0
  C  C66  1  0.33352064  0.95000390  0.66876853  1.0
  C  C67  1  0.33426963  0.92251652  0.72395069  1.0
  Cl  Cl68  1  0.82325113  0.40893284  0.21251214  1.0
  Cl  Cl69  1  0.82316113  0.25773235  0.45415527  1.0
  Cl  Cl70  1  0.82326294  0.71250579  0.37854545  1.0
  Cl  Cl71  1  0.82324635  0.95416063  0.28812112  1.0
  Cl  Cl72  1  0.82316153  0.87859022  0.90890205  1.0
  Cl  Cl73  1  0.82318048  0.78808331  0.75775296  1.0
  O  O74  1  0.74531893  0.99233847  0.44898169  1.0
  O  O75  1  0.74536838  0.94894385  0.55869331  1.0
  O  O76  1  0.74536494  0.05867223  0.49235214  1.0
  O  O77  1  0.27580284  0.94880841  0.49319799  1.0
  O  O78  1  0.27582451  0.05797014  0.44883676  1.0
  O  O79  1  0.27583352  0.99317298  0.55798367  1.0
  O  O80  1  0.74545691  0.71772808  0.10796454  1.0
  O  O81  1  0.74548790  0.60799570  0.17430978  1.0
  O  O82  1  0.74542121  0.67433583  0.21767877  1.0
  O  O83  1  0.27595088  0.67349441  0.10867756  1.0
  O  O84  1  0.27590893  0.71786693  0.17345685  1.0
  O  O85  1  0.27597491  0.60870481  0.21782931  1.0
