# generated using pymatgen
data_ZnH6(C3N2)2
_symmetry_space_group_name_H-M   'P 1'
_cell_length_a   9.72654645
_cell_length_b   23.67025073
_cell_length_c   24.51336780
_cell_angle_alpha   89.99999946
_cell_angle_beta   89.99954364
_cell_angle_gamma   89.99992202
_symmetry_Int_Tables_number   1
_chemical_formula_structural   ZnH6(C3N2)2
_chemical_formula_sum   'Zn16 H96 C96 N64'
_cell_volume   5643.70759925
_cell_formula_units_Z   16
loop_
 _symmetry_equiv_pos_site_id
 _symmetry_equiv_pos_as_xyz
  1  'x, y, z'
loop_
 _atom_site_type_symbol
 _atom_site_label
 _atom_site_symmetry_multiplicity
 _atom_site_fract_x
 _atom_site_fract_y
 _atom_site_fract_z
 _atom_site_occupancy
  Zn  Zn0  1  0.01478035  0.49955310  0.82233935  1.0
  Zn  Zn1  1  0.48521503  0.99955354  0.17766256  1.0
  Zn  Zn2  1  0.98521283  0.00044866  0.32233964  1.0
  Zn  Zn3  1  0.51478146  0.50044521  0.67765954  1.0
  Zn  Zn4  1  0.98521860  0.50044969  0.17765936  1.0
  Zn  Zn5  1  0.51479317  0.00045009  0.82234063  1.0
  Zn  Zn6  1  0.01479640  0.99955159  0.67766274  1.0
  Zn  Zn7  1  0.48521749  0.49955082  0.32233713  1.0
  Zn  Zn8  1  0.00016775  0.67622467  0.99931423  1.0
  Zn  Zn9  1  0.49982663  0.17622511  0.00068528  1.0
  Zn  Zn10  1  0.99982847  0.82377581  0.49931687  1.0
  Zn  Zn11  1  0.50017299  0.32377407  0.50068511  1.0
  Zn  Zn12  1  0.99982708  0.32377727  0.00068652  1.0
  Zn  Zn13  1  0.50016821  0.82377641  0.99931506  1.0
  Zn  Zn14  1  0.00016945  0.17622106  0.50068469  1.0
  Zn  Zn15  1  0.49983110  0.67622154  0.49931278  1.0
  H  H16  1  0.95239653  0.55435158  0.94267914  1.0
  H  H17  1  0.54759964  0.05435102  0.05731636  1.0
  H  H18  1  0.04760185  0.94565015  0.44268315  1.0
  H  H19  1  0.45238857  0.44564225  0.55731836  1.0
  H  H20  1  0.04759830  0.44565162  0.05731835  1.0
  H  H21  1  0.45240651  0.94564965  0.94268602  1.0
  H  H22  1  0.95240738  0.05434714  0.55731515  1.0
  H  H23  1  0.54759599  0.55435124  0.44268361  1.0
  H  H24  1  0.30341646  0.72101963  0.96528415  1.0
  H  H25  1  0.19656647  0.22101982  0.03471291  1.0
  H  H26  1  0.69657428  0.77898085  0.46528857  1.0
  H  H27  1  0.80342630  0.27897640  0.53471750  1.0
  H  H28  1  0.69658352  0.27898274  0.03471619  1.0
  H  H29  1  0.80342117  0.77898127  0.96528784  1.0
  H  H30  1  0.30342365  0.22101560  0.53471176  1.0
  H  H31  1  0.19658190  0.72101582  0.46528692  1.0
  H  H32  1  0.98997521  0.58920417  0.72394128  1.0
  H  H33  1  0.51002290  0.08920915  0.27605462  1.0
  H  H34  1  0.01002035  0.91079754  0.22394787  1.0
  H  H35  1  0.48998045  0.41079640  0.77605773  1.0
  H  H36  1  0.01002065  0.41079566  0.27605294  1.0
  H  H37  1  0.48998633  0.91079406  0.72394939  1.0
  H  H38  1  0.98999093  0.08920524  0.77605492  1.0
  H  H39  1  0.51001438  0.58920300  0.22393527  1.0
  H  H40  1  0.98580846  0.79954453  0.05432174  1.0
  H  H41  1  0.51418794  0.29954368  0.94568270  1.0
  H  H42  1  0.01418639  0.70045505  0.55432067  1.0
  H  H43  1  0.48582230  0.20046063  0.44567434  1.0
  H  H44  1  0.01418021  0.20046291  0.94566800  1.0
  H  H45  1  0.48581101  0.70045826  0.05432335  1.0
  H  H46  1  0.98581461  0.29953802  0.44567762  1.0
  H  H47  1  0.51418693  0.79953878  0.55432600  1.0
  H  H48  1  0.70730822  0.46821652  0.78096450  1.0
  H  H49  1  0.79268043  0.96821370  0.21903869  1.0
  H  H50  1  0.29268476  0.03179030  0.28096208  1.0
  H  H51  1  0.20731729  0.53178590  0.71903704  1.0
  H  H52  1  0.29268559  0.53178796  0.21903584  1.0
  H  H53  1  0.20732572  0.03178993  0.78096288  1.0
  H  H54  1  0.70731830  0.96821629  0.71903866  1.0
  H  H55  1  0.79268783  0.46821942  0.28096167  1.0
  H  H56  1  0.21921556  0.86694116  0.05768315  1.0
  H  H57  1  0.28078539  0.36694227  0.94231919  1.0
  H  H58  1  0.78078025  0.63305758  0.55768253  1.0
  H  H59  1  0.71922286  0.13305950  0.44231132  1.0
  H  H60  1  0.78076797  0.13306712  0.94230576  1.0
  H  H61  1  0.71921561  0.63306052  0.05768686  1.0
  H  H62  1  0.21921973  0.36693549  0.44230843  1.0
  H  H63  1  0.28077711  0.86693357  0.55769065  1.0
  H  H64  1  0.07021721  0.44689754  0.94142735  1.0
  H  H65  1  0.42977217  0.94690054  0.05857784  1.0
  H  H66  1  0.92977564  0.05310042  0.44142291  1.0
  H  H67  1  0.57022362  0.55310115  0.55857299  1.0
  H  H68  1  0.92978585  0.55310102  0.05857422  1.0
  H  H69  1  0.57022678  0.05310225  0.94142495  1.0
  H  H70  1  0.07021303  0.94689856  0.55857580  1.0
  H  H71  1  0.42978458  0.44689825  0.44142531  1.0
  H  H72  1  0.75718512  0.59125533  0.65868419  1.0
  H  H73  1  0.74281094  0.09126272  0.34131089  1.0
  H  H74  1  0.24281381  0.90873793  0.15869371  1.0
  H  H75  1  0.25718495  0.40874115  0.84131148  1.0
  H  H76  1  0.24281486  0.40873690  0.34130554  1.0
  H  H77  1  0.25719829  0.90873753  0.65869435  1.0
  H  H78  1  0.75719747  0.09126486  0.84130867  1.0
  H  H79  1  0.74281400  0.59125783  0.15868193  1.0
  H  H80  1  0.16604161  0.61740816  0.80631111  1.0
  H  H81  1  0.33396736  0.11740366  0.19368841  1.0
  H  H82  1  0.83396259  0.88259694  0.30631427  1.0
  H  H83  1  0.66603251  0.38259597  0.69368852  1.0
  H  H84  1  0.83397585  0.38259716  0.19369290  1.0
  H  H85  1  0.66604393  0.88260082  0.80631356  1.0
  H  H86  1  0.16603122  0.11740162  0.69368729  1.0
  H  H87  1  0.33396541  0.61740132  0.30631060  1.0
  H  H88  1  0.81426615  0.31112859  0.89666448  1.0
  H  H89  1  0.68571685  0.81112709  0.10333588  1.0
  H  H90  1  0.18572143  0.18887486  0.39666360  1.0
  H  H91  1  0.31426777  0.68886912  0.60333305  1.0
  H  H92  1  0.18571430  0.68887926  0.10333668  1.0
  H  H93  1  0.31427799  0.18887359  0.89666365  1.0
  H  H94  1  0.81429397  0.81112117  0.60334816  1.0
  H  H95  1  0.68571782  0.31112353  0.39665913  1.0
  H  H96  1  0.14514324  0.70183060  0.88418497  1.0
  H  H97  1  0.35485825  0.20182945  0.11581902  1.0
  H  H98  1  0.85485426  0.79817240  0.38418564  1.0
  H  H99  1  0.64515140  0.29816805  0.61581921  1.0
  H  H100  1  0.85486290  0.29817218  0.11582067  1.0
  H  H101  1  0.64515098  0.79817291  0.88418091  1.0
  H  H102  1  0.14512619  0.20182828  0.61581878  1.0
  H  H103  1  0.35485063  0.70182755  0.38417950  1.0
  H  H104  1  0.81652253  0.39035758  0.81334095  1.0
  H  H105  1  0.68346946  0.89035439  0.18665898  1.0
  H  H106  1  0.18346980  0.10964756  0.31333928  1.0
  H  H107  1  0.31653097  0.60964182  0.68665942  1.0
  H  H108  1  0.18346305  0.60965070  0.18665979  1.0
  H  H109  1  0.31653875  0.10964671  0.81333973  1.0
  H  H110  1  0.81656102  0.89035100  0.68667003  1.0
  H  H111  1  0.68345461  0.39035040  0.31333561  1.0
  C  C112  1  0.00866816  0.58304525  0.91629380  1.0
  C  C113  1  0.49132858  0.08304402  0.08370450  1.0
  C  C114  1  0.99132973  0.91695691  0.41629769  1.0
  C  C115  1  0.50866218  0.41694883  0.58370347  1.0
  C  C116  1  0.99132771  0.41695711  0.08370490  1.0
  C  C117  1  0.50867962  0.91695539  0.91629951  1.0
  C  C118  1  0.00868053  0.08304081  0.58370102  1.0
  C  C119  1  0.49132546  0.58304424  0.41629564  1.0
  C  C120  1  0.24808614  0.75182836  0.98969663  1.0
  C  C121  1  0.25189874  0.25182810  0.01030206  1.0
  C  C122  1  0.75190204  0.74816958  0.48969844  1.0
  C  C123  1  0.74809555  0.24816897  0.51030397  1.0
  C  C124  1  0.75190355  0.24817316  0.01030126  1.0
  C  C125  1  0.74809302  0.74817215  0.98969951  1.0
  C  C126  1  0.24809999  0.25182686  0.51030068  1.0
  C  C127  1  0.25190443  0.75182748  0.48969841  1.0
  C  C128  1  0.89789939  0.56343260  0.72572331  1.0
  C  C129  1  0.60209675  0.06343711  0.27427422  1.0
  C  C130  1  0.10209614  0.93656784  0.22573083  1.0
  C  C131  1  0.39790253  0.43656675  0.77427681  1.0
  C  C132  1  0.10209853  0.43656511  0.27426968  1.0
  C  C133  1  0.39791145  0.93656398  0.72572979  1.0
  C  C134  1  0.89790692  0.06343410  0.77427318  1.0
  C  C135  1  0.60209231  0.56343223  0.22571945  1.0
  C  C136  1  0.08626018  0.79320137  0.03610943  1.0
  C  C137  1  0.41373279  0.29320199  0.96388884  1.0
  C  C138  1  0.91373093  0.70679609  0.53611326  1.0
  C  C139  1  0.58626475  0.20679682  0.46388384  1.0
  C  C140  1  0.91372438  0.20680648  0.96388235  1.0
  C  C141  1  0.58625999  0.70679911  0.03611517  1.0
  C  C142  1  0.08626391  0.29319487  0.46388299  1.0
  C  C143  1  0.41372803  0.79319498  0.53611568  1.0
  C  C144  1  0.75430763  0.50049964  0.75566680  1.0
  C  C145  1  0.74568461  0.00050068  0.24433482  1.0
  C  C146  1  0.24568730  0.99950249  0.25567099  1.0
  C  C147  1  0.25431630  0.49949979  0.74433174  1.0
  C  C148  1  0.24569235  0.49950103  0.24433150  1.0
  C  C149  1  0.25432462  0.99950210  0.75566837  1.0
  C  C150  1  0.75432193  0.00050114  0.74433506  1.0
  C  C151  1  0.74568162  0.50050257  0.25566616  1.0
  C  C152  1  0.20204427  0.82668683  0.03765737  1.0
  C  C153  1  0.29795168  0.32668667  0.96234171  1.0
  C  C154  1  0.79795195  0.67331190  0.53765955  1.0
  C  C155  1  0.70204795  0.17331468  0.46234001  1.0
  C  C156  1  0.79793926  0.17331891  0.96233399  1.0
  C  C157  1  0.70204521  0.67331654  0.03766149  1.0
  C  C158  1  0.20205728  0.32667695  0.46233671  1.0
  C  C159  1  0.29795306  0.82668261  0.53766645  1.0
  C  C160  1  0.99953809  0.42082193  0.91807862  1.0
  C  C161  1  0.50044352  0.92082010  0.08192091  1.0
  C  C162  1  0.00045112  0.07917899  0.41807549  1.0
  C  C163  1  0.49954975  0.57917652  0.58192118  1.0
  C  C164  1  0.00046086  0.57918128  0.08191724  1.0
  C  C165  1  0.49955337  0.07918268  0.91807943  1.0
  C  C166  1  0.99954166  0.92081830  0.58192077  1.0
  C  C167  1  0.50045639  0.42081782  0.41808079  1.0
  C  C168  1  0.78221425  0.56460964  0.69330241  1.0
  C  C169  1  0.71778292  0.06461662  0.30669431  1.0
  C  C170  1  0.21778604  0.93538742  0.19331119  1.0
  C  C171  1  0.28221674  0.43538598  0.80669604  1.0
  C  C172  1  0.21778675  0.43538554  0.30668855  1.0
  C  C173  1  0.28222734  0.93538617  0.69331093  1.0
  C  C174  1  0.78222627  0.06462001  0.80669445  1.0
  C  C175  1  0.71777912  0.56461216  0.19329941  1.0
  C  C176  1  0.11813931  0.61668153  0.84627061  1.0
  C  C177  1  0.38186760  0.11667868  0.15372932  1.0
  C  C178  1  0.88186203  0.88332189  0.34627280  1.0
  C  C179  1  0.61813204  0.38331967  0.65372958  1.0
  C  C180  1  0.88187300  0.38332252  0.15373014  1.0
  C  C181  1  0.61814266  0.88332411  0.84627143  1.0
  C  C182  1  0.11813589  0.11667921  0.65372672  1.0
  C  C183  1  0.38186177  0.61667593  0.34626994  1.0
  C  C184  1  0.86684592  0.35142853  0.89381003  1.0
  C  C185  1  0.63312974  0.85143001  0.10619032  1.0
  C  C186  1  0.13313452  0.14857027  0.39380933  1.0
  C  C187  1  0.36685687  0.64856704  0.60618855  1.0
  C  C188  1  0.13313555  0.64857341  0.10618745  1.0
  C  C189  1  0.36686715  0.14857193  0.89381002  1.0
  C  C190  1  0.86687060  0.85142617  0.60619591  1.0
  C  C191  1  0.63313591  0.35142645  0.39380852  1.0
  C  C192  1  0.10891873  0.65851463  0.88512371  1.0
  C  C193  1  0.39108496  0.15851220  0.11487621  1.0
  C  C194  1  0.89108183  0.84148921  0.38512629  1.0
  C  C195  1  0.60891957  0.34148446  0.61487774  1.0
  C  C196  1  0.89108947  0.34148731  0.11487867  1.0
  C  C197  1  0.60891810  0.84149101  0.88512494  1.0
  C  C198  1  0.10891095  0.15851189  0.61487528  1.0
  C  C199  1  0.39107835  0.65850988  0.38512383  1.0
  C  C200  1  0.86764614  0.39098198  0.85262882  1.0
  C  C201  1  0.63234173  0.89097966  0.14737560  1.0
  C  C202  1  0.13234540  0.10902232  0.35262282  1.0
  C  C203  1  0.36765434  0.60901697  0.64737343  1.0
  C  C204  1  0.13234664  0.60902208  0.14737355  1.0
  C  C205  1  0.36766030  0.10902186  0.85262515  1.0
  C  C206  1  0.86766588  0.89097498  0.64738159  1.0
  C  C207  1  0.63234050  0.39097736  0.35262283  1.0
  N  N208  1  0.87965209  0.52246938  0.76519283  1.0
  N  N209  1  0.62034110  0.02247049  0.23480756  1.0
  N  N210  1  0.12034676  0.97753360  0.26519579  1.0
  N  N211  1  0.37965589  0.47753294  0.73480735  1.0
  N  N212  1  0.12034480  0.47753256  0.23480465  1.0
  N  N213  1  0.37966813  0.97753272  0.76519685  1.0
  N  N214  1  0.87966658  0.02246876  0.73480903  1.0
  N  N215  1  0.62034512  0.52247026  0.26518769  1.0
  N  N216  1  0.69156119  0.52450151  0.71261121  1.0
  N  N217  1  0.80843611  0.02450633  0.28738756  1.0
  N  N218  1  0.30843975  0.97549512  0.21261520  1.0
  N  N219  1  0.19155777  0.47549542  0.78738794  1.0
  N  N220  1  0.30843879  0.47549451  0.28738179  1.0
  N  N221  1  0.19157312  0.97549603  0.71261605  1.0
  N  N222  1  0.69156434  0.02450808  0.78738636  1.0
  N  N223  1  0.80843913  0.52450567  0.21260873  1.0
  N  N224  1  0.11622083  0.74572320  0.00553178  1.0
  N  N225  1  0.38376818  0.24571961  0.99446813  1.0
  N  N226  1  0.88377499  0.75428102  0.50553326  1.0
  N  N227  1  0.61623081  0.25428005  0.49446833  1.0
  N  N228  1  0.88377503  0.25427958  0.99446326  1.0
  N  N229  1  0.61622152  0.75428148  0.00553384  1.0
  N  N230  1  0.11622704  0.24571712  0.49446626  1.0
  N  N231  1  0.38377637  0.74571851  0.50553487  1.0
  N  N232  1  0.30423812  0.80018138  0.00813047  1.0
  N  N233  1  0.19575482  0.30018128  0.99186862  1.0
  N  N234  1  0.69575663  0.69981861  0.50813051  1.0
  N  N235  1  0.80424216  0.19981670  0.49186904  1.0
  N  N236  1  0.69575877  0.19982478  0.99186457  1.0
  N  N237  1  0.80423898  0.69982109  0.00813417  1.0
  N  N238  1  0.30423513  0.30017572  0.49186208  1.0
  N  N239  1  0.19575885  0.80017384  0.50813334  1.0
  N  N240  1  0.05421414  0.56894652  0.86630142  1.0
  N  N241  1  0.44578471  0.06894575  0.13369607  1.0
  N  N242  1  0.94578372  0.93105774  0.36630463  1.0
  N  N243  1  0.55420505  0.43105133  0.63369857  1.0
  N  N244  1  0.94578584  0.43105668  0.13369851  1.0
  N  N245  1  0.55422658  0.93105830  0.86630509  1.0
  N  N246  1  0.05422448  0.06893871  0.63369367  1.0
  N  N247  1  0.44578259  0.56894342  0.36630259  1.0
  N  N248  1  0.03967175  0.63677091  0.92960159  1.0
  N  N249  1  0.46032482  0.13677012  0.07039711  1.0
  N  N250  1  0.96032690  0.86323167  0.42960395  1.0
  N  N251  1  0.53966929  0.36322569  0.57039844  1.0
  N  N252  1  0.96032720  0.36323061  0.07039997  1.0
  N  N253  1  0.53968030  0.86323225  0.92960078  1.0
  N  N254  1  0.03967514  0.13676646  0.57039762  1.0
  N  N255  1  0.46031835  0.63676865  0.42959986  1.0
  N  N256  1  0.95179808  0.43510907  0.86827607  1.0
  N  N257  1  0.54819067  0.93510934  0.13173080  1.0
  N  N258  1  0.04819006  0.06489311  0.36827157  1.0
  N  N259  1  0.45180880  0.56489109  0.63172429  1.0
  N  N260  1  0.04820498  0.56489413  0.13172753  1.0
  N  N261  1  0.45181239  0.06489260  0.86827036  1.0
  N  N262  1  0.95180889  0.93510672  0.63173367  1.0
  N  N263  1  0.54819632  0.43510704  0.36826912  1.0
  N  N264  1  0.95088044  0.37062645  0.93522118  1.0
  N  N265  1  0.54910441  0.87062797  0.06478365  1.0
  N  N266  1  0.04911356  0.12937363  0.43521748  1.0
  N  N267  1  0.45088303  0.62937287  0.56477959  1.0
  N  N268  1  0.04911851  0.62937422  0.06478038  1.0
  N  N269  1  0.45088939  0.12937524  0.93521791  1.0
  N  N270  1  0.95088128  0.87062620  0.56478612  1.0
  N  N271  1  0.54911797  0.37062526  0.43521667  1.0
