# generated using pymatgen
data_Zn4H14C32O13
_symmetry_space_group_name_H-M   'P 1'
_cell_length_a   16.10280757
_cell_length_b   16.13024026
_cell_length_c   16.10772166
_cell_angle_alpha   89.85158554
_cell_angle_beta   83.47922250
_cell_angle_gamma   84.17489675
_symmetry_Int_Tables_number   1
_chemical_formula_structural   Zn4H14C32O13
_chemical_formula_sum   'Zn4 H14 C32 O13'
_cell_volume   4135.15464837
_cell_formula_units_Z   1
loop_
 _symmetry_equiv_pos_site_id
 _symmetry_equiv_pos_as_xyz
  1  'x, y, z'
loop_
 _atom_site_type_symbol
 _atom_site_label
 _atom_site_symmetry_multiplicity
 _atom_site_fract_x
 _atom_site_fract_y
 _atom_site_fract_z
 _atom_site_occupancy
  Zn  Zn0  1  0.57079184  0.57094934  0.42914310  1.0
  Zn  Zn1  1  0.57174343  0.42272324  0.56367873  1.0
  Zn  Zn2  1  0.43615774  0.43756586  0.42904255  1.0
  Zn  Zn3  1  0.42029722  0.57094217  0.57832108  1.0
  H  H4  1  0.42768948  0.00805869  0.57316429  1.0
  H  H5  1  0.94003339  0.33293908  0.37975027  1.0
  H  H6  1  0.93920660  0.41919551  0.31122038  1.0
  H  H7  1  0.02215776  0.33735796  0.29686884  1.0
  H  H8  1  0.07357127  0.45889446  0.36286737  1.0
  H  H9  1  0.07413351  0.37405985  0.43072102  1.0
  H  H10  1  0.57140358  0.99235785  0.42759950  1.0
  H  H11  1  0.57361101  0.54540732  0.98718869  1.0
  H  H12  1  0.98088502  0.55756770  0.57149200  1.0
  H  H13  1  0.30753919  0.48653837  0.95293197  1.0
  H  H14  1  0.19489478  0.40856844  0.02443769  1.0
  H  H15  1  0.22954664  0.29952451  0.12850929  1.0
  H  H16  1  0.37714310  0.26968650  0.16138811  1.0
  H  H17  1  0.48878783  0.34983849  0.09229534  1.0
  C  C18  1  0.48756134  0.48856394  0.72521173  1.0
  C  C19  1  0.51912374  0.51361164  0.18554360  1.0
  C  C20  1  0.81683023  0.48307121  0.48054277  1.0
  C  C21  1  0.51330326  0.51082486  0.27489132  1.0
  C  C22  1  0.98165545  0.47430826  0.46875023  1.0
  C  C23  1  0.01968084  0.51881682  0.52346278  1.0
  C  C24  1  0.10704376  0.51675436  0.52028978  1.0
  C  C25  1  0.89329950  0.47959965  0.47584114  1.0
  C  C26  1  0.18341406  0.51452454  0.51734672  1.0
  C  C27  1  0.72646629  0.48816793  0.48700598  1.0
  C  C28  1  0.27315033  0.51059158  0.51258449  1.0
  C  C29  1  0.47982970  0.88985991  0.52044591  1.0
  C  C30  1  0.51305409  0.27623171  0.48729725  1.0
  C  C31  1  0.48806526  0.72467564  0.51284248  1.0
  C  C32  1  0.51802344  0.18655877  0.48209935  1.0
  C  C33  1  0.52466772  0.02360767  0.47495688  1.0
  C  C34  1  0.47445459  0.97699074  0.52577292  1.0
  C  C35  1  0.40515050  0.42418031  0.01911351  1.0
  C  C36  1  0.32240334  0.43919748  0.99893737  1.0
  C  C37  1  0.25938202  0.39520601  0.03901185  1.0
  C  C38  1  0.27878343  0.33432207  0.09765178  1.0
  C  C39  1  0.36143704  0.31774503  0.11641686  1.0
  C  C40  1  0.52045864  0.11072286  0.47936027  1.0
  C  C41  1  0.42431557  0.36275242  0.07781745  1.0
  C  C42  1  0.03176406  0.41952042  0.40037635  1.0
  C  C43  1  0.98010775  0.37487791  0.34406025  1.0
  C  C44  1  0.48304387  0.81398561  0.51752037  1.0
  C  C45  1  0.48141743  0.48393607  0.81504002  1.0
  C  C46  1  0.47158373  0.47309107  0.97882324  1.0
  C  C47  1  0.52607121  0.51126165  0.02226992  1.0
  C  C48  1  0.52229659  0.51178004  0.10943417  1.0
  C  C49  1  0.47708558  0.48034712  0.89105732  1.0
  O  O50  1  0.50043299  0.49967682  0.50060248  1.0
  O  O51  1  0.55878757  0.30578310  0.53729271  1.0
  O  O52  1  0.43647291  0.68939123  0.56412745  1.0
  O  O53  1  0.46334184  0.31612881  0.44164575  1.0
  O  O54  1  0.54380428  0.68945889  0.45772492  1.0
  O  O55  1  0.69090542  0.54291961  0.44195976  1.0
  O  O56  1  0.30326259  0.55662360  0.56387548  1.0
  O  O57  1  0.54440031  0.43827168  0.68520236  1.0
  O  O58  1  0.46258739  0.46188941  0.31038428  1.0
  O  O59  1  0.43574772  0.54232353  0.69528039  1.0
  O  O60  1  0.55918005  0.55693084  0.31043003  1.0
  O  O61  1  0.69174602  0.43727501  0.53722838  1.0
  O  O62  1  0.31449889  0.46105399  0.45716934  1.0
