# generated using pymatgen
data_ZnH22C29N3O4
_symmetry_space_group_name_H-M   'P 1'
_cell_length_a   15.29263044
_cell_length_b   18.24875628
_cell_length_c   19.65197746
_cell_angle_alpha   90.00034147
_cell_angle_beta   90.36357544
_cell_angle_gamma   89.99974321
_symmetry_Int_Tables_number   1
_chemical_formula_structural   ZnH22C29N3O4
_chemical_formula_sum   'Zn2 H44 C58 N6 O8'
_cell_volume   5484.19613159
_cell_formula_units_Z   2
loop_
 _symmetry_equiv_pos_site_id
 _symmetry_equiv_pos_as_xyz
  1  'x, y, z'
loop_
 _atom_site_type_symbol
 _atom_site_label
 _atom_site_symmetry_multiplicity
 _atom_site_fract_x
 _atom_site_fract_y
 _atom_site_fract_z
 _atom_site_occupancy
  Zn  Zn0  1  0.50000108  0.42455212  0.50000024  1.0
  Zn  Zn1  1  0.50000002  0.57531692  0.50000066  1.0
  H  H2  1  0.63967011  0.06743716  0.51553732  1.0
  H  H3  1  0.55503588  0.39096302  0.71652695  1.0
  H  H4  1  0.44759491  0.60768154  0.71522655  1.0
  H  H5  1  0.44496384  0.39096350  0.28347486  1.0
  H  H6  1  0.64012892  0.50126092  0.06464770  1.0
  H  H7  1  0.35986825  0.50126638  0.93535421  1.0
  H  H8  1  0.64089258  0.49810620  0.93793764  1.0
  H  H9  1  0.35910460  0.49810780  0.06206425  1.0
  H  H10  1  0.40232674  0.30788988  0.42699368  1.0
  H  H11  1  0.59766276  0.69202629  0.57307639  1.0
  H  H12  1  0.59767014  0.30788943  0.57300359  1.0
  H  H13  1  0.36034843  0.93245325  0.48438070  1.0
  H  H14  1  0.40233468  0.69202455  0.42692202  1.0
  H  H15  1  0.39808676  0.17064381  0.42323928  1.0
  H  H16  1  0.60116784  0.82924606  0.57738650  1.0
  H  H17  1  0.60190890  0.17064391  0.57675874  1.0
  H  H18  1  0.39883345  0.82924485  0.42261320  1.0
  H  H19  1  0.22240401  0.38305283  0.50231438  1.0
  H  H20  1  0.77781568  0.61777464  0.50266744  1.0
  H  H21  1  0.91894576  0.68690347  0.50066433  1.0
  H  H22  1  0.08100427  0.31381933  0.50060651  1.0
  H  H23  1  0.59141022  0.65761670  0.18511365  1.0
  H  H24  1  0.36032610  0.06743813  0.48446063  1.0
  H  H25  1  0.53512505  0.71264710  0.08604087  1.0
  H  H26  1  0.44404479  0.68676073  0.13781263  1.0
  H  H27  1  0.47512579  0.63195617  0.06690748  1.0
  H  H28  1  0.59328327  0.34141413  0.81683695  1.0
  H  H29  1  0.53500907  0.28636860  0.91443030  1.0
  H  H30  1  0.44489318  0.31317427  0.86112680  1.0
  H  H31  1  0.47555442  0.36737265  0.93286294  1.0
  H  H32  1  0.40859003  0.65762068  0.81488508  1.0
  H  H33  1  0.46487882  0.71264929  0.91395869  1.0
  H  H34  1  0.55595595  0.68675843  0.86218677  1.0
  H  H35  1  0.63965230  0.93245228  0.51561652  1.0
  H  H36  1  0.52487524  0.63195771  0.93308958  1.0
  H  H37  1  0.40671541  0.34141303  0.18316560  1.0
  H  H38  1  0.46498532  0.28636667  0.08556989  1.0
  H  H39  1  0.55510172  0.31317178  0.13886997  1.0
  H  H40  1  0.52444019  0.36736983  0.06713821  1.0
  H  H41  1  0.22218472  0.61777511  0.49730868  1.0
  H  H42  1  0.77760105  0.38305124  0.49771488  1.0
  H  H43  1  0.08105286  0.68690393  0.49927401  1.0
  H  H44  1  0.91900511  0.31382160  0.49943205  1.0
  H  H45  1  0.55240495  0.60768163  0.28477292  1.0
  C  C46  1  0.50160404  0.49909460  0.63259638  1.0
  C  C47  1  0.53209223  0.43793918  0.81608546  1.0
  C  C48  1  0.47011990  0.56122660  0.81541789  1.0
  C  C49  1  0.46790854  0.43793840  0.18391611  1.0
  C  C50  1  0.49905799  0.49965476  0.14764525  1.0
  C  C51  1  0.50094114  0.49965698  0.85235666  1.0
  C  C52  1  0.49841138  0.49936862  0.29122124  1.0
  C  C53  1  0.50158841  0.49936664  0.70877965  1.0
  C  C54  1  0.57865873  0.50028663  0.03620052  1.0
  C  C55  1  0.42133844  0.50028930  0.96379986  1.0
  C  C56  1  0.57906535  0.49911414  0.96525373  1.0
  C  C57  1  0.49839707  0.49909761  0.36740553  1.0
  C  C58  1  0.42093117  0.49911369  0.03474817  1.0
  C  C59  1  0.50044804  0.49970325  0.92797500  1.0
  C  C60  1  0.49954718  0.49970110  0.07202689  1.0
  C  C61  1  0.44487335  0.27460434  0.45931336  1.0
  C  C62  1  0.55487202  0.72528442  0.54092940  1.0
  C  C63  1  0.55512306  0.27460439  0.54068372  1.0
  C  C64  1  0.44512786  0.72528492  0.45907022  1.0
  C  C65  1  0.44280184  0.19851313  0.45798307  1.0
  C  C66  1  0.55678880  0.80138112  0.54235788  1.0
  C  C67  1  0.55719432  0.19851318  0.54201460  1.0
  C  C68  1  0.95535198  0.63541825  0.50039120  1.0
  C  C69  1  0.44321132  0.80138271  0.45763912  1.0
  C  C70  1  0.49999786  0.15843207  0.49999846  1.0
  C  C71  1  0.49999930  0.84146327  0.49999784  1.0
  C  C72  1  0.67102469  0.50063644  0.50074801  1.0
  C  C73  1  0.32897706  0.50063762  0.49925544  1.0
  C  C74  1  0.57794553  0.03805389  0.50977296  1.0
  C  C75  1  0.42205091  0.96183324  0.49019994  1.0
  C  C76  1  0.42205279  0.03805302  0.49022381  1.0
  C  C77  1  0.57794901  0.96183355  0.50979745  1.0
  C  C78  1  0.49999908  0.92230111  0.49999858  1.0
  C  C79  1  0.04467115  0.36533304  0.50030691  1.0
  C  C80  1  0.49999939  0.07760245  0.49999824  1.0
  C  C81  1  0.18515373  0.43401308  0.50083620  1.0
  C  C82  1  0.81497778  0.56677603  0.50160206  1.0
  C  C83  1  0.23079789  0.50043505  0.49942245  1.0
  C  C84  1  0.76920452  0.50043515  0.50058202  1.0
  C  C85  1  0.18502556  0.56677664  0.49839363  1.0
  C  C86  1  0.81485102  0.43401355  0.49917961  1.0
  C  C87  1  0.09334231  0.56820047  0.49930737  1.0
  C  C88  1  0.90657905  0.43254314  0.49967962  1.0
  C  C89  1  0.04647324  0.50036526  0.49989463  1.0
  C  C90  1  0.52941807  0.56029644  0.25590247  1.0
  C  C91  1  0.95352719  0.50036521  0.50010474  1.0
  C  C92  1  0.09342768  0.43254301  0.50033822  1.0
  C  C93  1  0.90666035  0.56819842  0.50068222  1.0
  C  C94  1  0.04464896  0.63542104  0.49957789  1.0
  C  C95  1  0.95533794  0.36533464  0.49972329  1.0
  C  C96  1  0.50046377  0.66594652  0.10852459  1.0
  C  C97  1  0.50104943  0.33339646  0.89157305  1.0
  C  C98  1  0.49954166  0.66594899  0.89147573  1.0
  C  C99  1  0.49894929  0.33339290  0.10842538  1.0
  C  C100  1  0.53229750  0.43862667  0.74481177  1.0
  C  C101  1  0.47058205  0.56029535  0.74409928  1.0
  C  C102  1  0.46770196  0.43862853  0.25518929  1.0
  C  C103  1  0.52988021  0.56122559  0.18458233  1.0
  N  N104  1  0.49999876  0.31200473  0.49999839  1.0
  N  N105  1  0.49999972  0.68789884  0.50000047  1.0
  N  N106  1  0.56199408  0.62393764  0.15059290  1.0
  N  N107  1  0.56358202  0.37524126  0.85079517  1.0
  N  N108  1  0.43800438  0.62393569  0.84940411  1.0
  N  N109  1  0.43641387  0.37524421  0.14920959  1.0
  O  O110  1  0.52063850  0.43902079  0.60295605  1.0
  O  O111  1  0.51755606  0.55904915  0.39737992  1.0
  O  O112  1  0.47936292  0.43902460  0.39704451  1.0
  O  O113  1  0.48244275  0.55904548  0.60262079  1.0
  O  O114  1  0.63286016  0.44025647  0.48725029  1.0
  O  O115  1  0.36663440  0.56118575  0.48574749  1.0
  O  O116  1  0.36714257  0.44025869  0.51275435  1.0
  O  O117  1  0.63336571  0.56118589  0.51425477  1.0
