# generated using pymatgen
data_ZnH5C6(NO)3
_symmetry_space_group_name_H-M   'P 1'
_cell_length_a   10.12445193
_cell_length_b   15.75571255
_cell_length_c   15.75564775
_cell_angle_alpha   115.56013727
_cell_angle_beta   102.35635693
_cell_angle_gamma   102.35656424
_symmetry_Int_Tables_number   1
_chemical_formula_structural   ZnH5C6(NO)3
_chemical_formula_sum   'Zn6 H30 C36 N18 O18'
_cell_volume   2076.70207820
_cell_formula_units_Z   6
loop_
 _symmetry_equiv_pos_site_id
 _symmetry_equiv_pos_as_xyz
  1  'x, y, z'
loop_
 _atom_site_type_symbol
 _atom_site_label
 _atom_site_symmetry_multiplicity
 _atom_site_fract_x
 _atom_site_fract_y
 _atom_site_fract_z
 _atom_site_occupancy
  Zn  Zn0  1  0.19134132  0.62042554  0.32289850  1.0
  Zn  Zn1  1  0.86859784  0.67725123  0.29766248  1.0
  Zn  Zn2  1  0.57098634  0.70237103  0.37966193  1.0
  Zn  Zn3  1  0.07098603  0.37966330  0.70237024  1.0
  Zn  Zn4  1  0.69134882  0.32289809  0.62042738  1.0
  Zn  Zn5  1  0.36860027  0.29766368  0.67725180  1.0
  H  H6  1  0.09384693  0.30786938  0.96929586  1.0
  H  H7  1  0.12466356  0.03073029  0.33853009  1.0
  H  H8  1  0.78613058  0.66149698  0.69222279  1.0
  H  H9  1  0.28613084  0.69222614  0.66150118  1.0
  H  H10  1  0.59385208  0.96929628  0.30787133  1.0
  H  H11  1  0.62465277  0.33853650  0.03073401  1.0
  H  H12  1  0.04617144  0.15948146  0.81821252  1.0
  H  H13  1  0.22819250  0.18174807  0.34116954  1.0
  H  H14  1  0.88681986  0.65898018  0.84069619  1.0
  H  H15  1  0.38682395  0.84069616  0.65897983  1.0
  H  H16  1  0.54617186  0.81821209  0.15947948  1.0
  H  H17  1  0.72818753  0.34117071  0.18175282  1.0
  H  H18  1  0.23391057  0.17730573  0.84918636  1.0
  H  H19  1  0.38482255  0.15055464  0.32793905  1.0
  H  H20  1  0.05673780  0.67205884  0.82279213  1.0
  H  H21  1  0.55673863  0.82278948  0.67205959  1.0
  H  H22  1  0.73391214  0.84918463  0.17730489  1.0
  H  H23  1  0.88481145  0.32793443  0.15055068  1.0
  H  H24  1  0.11079223  0.41829109  0.12431764  1.0
  H  H25  1  0.98640178  0.87563957  0.29361941  1.0
  H  H26  1  0.69248721  0.70586367  0.58182557  1.0
  H  H27  1  0.19248405  0.58182343  0.70586046  1.0
  H  H28  1  0.61079681  0.12431740  0.41828663  1.0
  H  H29  1  0.48639525  0.29361994  0.87563855  1.0
  H  H30  1  0.57245427  0.51204609  0.18582899  1.0
  H  H31  1  0.38655246  0.81407892  0.32625840  1.0
  H  H32  1  0.06040201  0.67382044  0.48794341  1.0
  H  H33  1  0.56040366  0.48794151  0.67382063  1.0
  H  H34  1  0.07245937  0.18583185  0.51204238  1.0
  H  H35  1  0.88655671  0.32626088  0.81408746  1.0
  C  C36  1  0.33319903  0.42735293  0.11636904  1.0
  C  C37  1  0.21674741  0.88352231  0.31080273  1.0
  C  C38  1  0.90586334  0.68897118  0.57267835  1.0
  C  C39  1  0.40586188  0.57267841  0.68897100  1.0
  C  C40  1  0.83320579  0.11636961  0.42734920  1.0
  C  C41  1  0.71674422  0.31080091  0.88352540  1.0
  C  C42  1  0.31629554  0.34328052  0.01982428  1.0
  C  C43  1  0.29644337  0.98002367  0.32326067  1.0
  C  C44  1  0.97317605  0.67670615  0.65682226  1.0
  C  C45  1  0.47319266  0.65682504  0.67670796  1.0
  C  C46  1  0.81629582  0.01982563  0.34327720  1.0
  C  C47  1  0.79642657  0.32325941  0.98002781  1.0
  C  C48  1  0.15519718  0.21556773  0.85117252  1.0
  C  C49  1  0.30417369  0.14870502  0.36426561  1.0
  C  C50  1  0.93978424  0.63583936  0.78458163  1.0
  C  C51  1  0.43978811  0.78458113  0.63584026  1.0
  C  C52  1  0.65519862  0.85117297  0.21556706  1.0
  C  C53  1  0.80416790  0.36426552  0.14870886  1.0
  C  C54  1  0.22732662  0.45541599  0.15533795  1.0
  C  C55  1  0.07190321  0.84460800  0.29983134  1.0
  C  C56  1  0.77184703  0.69974559  0.54463891  1.0
  C  C57  1  0.27184910  0.54463669  0.69974311  1.0
  C  C58  1  0.72733201  0.15533855  0.45541166  1.0
  C  C59  1  0.57189900  0.29983137  0.84460873  1.0
  C  C60  1  0.16546083  0.26472177  0.78604812  1.0
  C  C61  1  0.37963080  0.21388939  0.47852397  1.0
  C  C62  1  0.90089522  0.52155537  0.73542290  1.0
  C  C63  1  0.40090199  0.73542407  0.52155320  1.0
  C  C64  1  0.66545947  0.78604898  0.26472330  1.0
  C  C65  1  0.87962510  0.47852071  0.21388949  1.0
  C  C66  1  0.46379084  0.50368366  0.18743043  1.0
  C  C67  1  0.27631065  0.81253170  0.31628544  1.0
  C  C68  1  0.96007855  0.68371271  0.49632472  1.0
  C  C69  1  0.46008032  0.49632280  0.68371134  1.0
  C  C70  1  0.96379602  0.18743234  0.50367760  1.0
  C  C71  1  0.77631261  0.31628574  0.81253757  1.0
  N  N72  1  0.29088251  0.54186299  0.24285222  1.0
  N  N73  1  0.04797998  0.75719405  0.29895317  1.0
  N  N74  1  0.74890874  0.70078907  0.45818138  1.0
  N  N75  1  0.24890686  0.45817957  0.70078693  1.0
  N  N76  1  0.79088816  0.24285236  0.54186133  1.0
  N  N77  1  0.54798185  0.29895475  0.75719406  1.0
  N  N78  1  0.17941096  0.28773758  0.95365689  1.0
  N  N79  1  0.22579727  0.04627018  0.33395871  1.0
  N  N80  1  0.89185648  0.66610921  0.71240084  1.0
  N  N81  1  0.39184815  0.71240008  0.66610891  1.0
  N  N82  1  0.67941861  0.95365827  0.28773671  1.0
  N  N83  1  0.72578866  0.33395862  0.04627421  1.0
  N  N84  1  0.43681682  0.57217150  0.26286279  1.0
  N  N85  1  0.17392491  0.73718903  0.30940474  1.0
  N  N86  1  0.86456765  0.69057857  0.42785190  1.0
  N  N87  1  0.36456655  0.42785054  0.69057676  1.0
  N  N88  1  0.93682195  0.26286192  0.57216766  1.0
  N  N89  1  0.67392967  0.30940771  0.73719260  1.0
  O  O90  1  0.22684767  0.23378269  0.72202136  1.0
  O  O91  1  0.50502364  0.27781063  0.51148578  1.0
  O  O92  1  0.99336418  0.48850675  0.76622201  1.0
  O  O93  1  0.49336753  0.76622401  0.48850882  1.0
  O  O94  1  0.72684919  0.72202091  0.23378305  1.0
  O  O95  1  0.00502020  0.51148276  0.27781026  1.0
  O  O96  1  0.42311686  0.32473475  0.99840301  1.0
  O  O97  1  0.42464941  0.00137084  0.32612518  1.0
  O  O98  1  0.09860940  0.67395693  0.67541420  1.0
  O  O99  1  0.59860017  0.67541576  0.67395862  1.0
  O  O100  1  0.92312420  0.99840291  0.32472889  1.0
  O  O101  1  0.92464099  0.32611916  0.00137831  1.0
  O  O102  1  0.10854200  0.33214795  0.80031708  1.0
  O  O103  1  0.30848684  0.19981819  0.53176498  1.0
  O  O104  1  0.77648474  0.46840202  0.66816188  1.0
  O  O105  1  0.27648334  0.66816518  0.46840171  1.0
  O  O106  1  0.60854069  0.80032091  0.33214883  1.0
  O  O107  1  0.80848473  0.53176482  0.19981980  1.0
