# generated using pymatgen
data_ZnH5C9S2NO11
_symmetry_space_group_name_H-M   'P 1'
_cell_length_a   9.95153024
_cell_length_b   10.86279102
_cell_length_c   13.62087428
_cell_angle_alpha   91.67099211
_cell_angle_beta   98.39428163
_cell_angle_gamma   90.00273534
_symmetry_Int_Tables_number   1
_chemical_formula_structural   ZnH5C9S2NO11
_chemical_formula_sum   'Zn2 H10 C18 S4 N2 O22'
_cell_volume   1456.02791197
_cell_formula_units_Z   2
loop_
 _symmetry_equiv_pos_site_id
 _symmetry_equiv_pos_as_xyz
  1  'x, y, z'
loop_
 _atom_site_type_symbol
 _atom_site_label
 _atom_site_symmetry_multiplicity
 _atom_site_fract_x
 _atom_site_fract_y
 _atom_site_fract_z
 _atom_site_occupancy
  Zn  Zn0  1  0.64289777  0.51686912  0.49047958  1.0
  Zn  Zn1  1  0.35397064  0.48286070  0.49722273  1.0
  H  H2  1  0.65816130  0.47914178  0.02944790  1.0
  H  H3  1  0.13860793  0.78468079  0.45597828  1.0
  H  H4  1  0.32056404  0.86994170  0.36395205  1.0
  H  H5  1  0.53494360  0.92391305  0.54923486  1.0
  H  H6  1  0.87992251  0.46457786  0.43746516  1.0
  H  H7  1  0.24783429  0.37168633  0.72770885  1.0
  H  H8  1  0.16081191  0.51027578  0.03410210  1.0
  H  H9  1  0.09348577  0.05404996  0.28969683  1.0
  H  H10  1  0.69195403  0.24414409  0.37509644  1.0
  H  H11  1  0.92593853  0.81540922  0.54832898  1.0
  C  C12  1  0.51020599  0.26150728  0.45412102  1.0
  C  C13  1  0.47277153  0.73485517  0.50266955  1.0
  C  C14  1  0.44525960  0.50862880  0.30527404  1.0
  C  C15  1  0.42991522  0.50401123  0.19806390  1.0
  C  C16  1  0.44473280  0.48418587  0.00813969  1.0
  C  C17  1  0.56713790  0.47776384  0.97372123  1.0
  C  C18  1  0.58116803  0.47209344  0.87341542  1.0
  C  C19  1  0.43316986  0.49440548  0.10898732  1.0
  C  C20  1  0.90016374  0.72513205  0.57827403  1.0
  C  C21  1  0.11579967  0.69062854  0.42376123  1.0
  C  C22  1  0.58366142  0.47194843  0.78425903  1.0
  C  C23  1  0.38882800  0.92408280  0.41854551  1.0
  C  C24  1  0.46619208  0.87023890  0.49450739  1.0
  C  C25  1  0.38776213  0.05831583  0.41558264  1.0
  C  C26  1  0.50124201  0.12839960  0.42066641  1.0
  C  C27  1  0.93429942  0.61145471  0.51727000  1.0
  C  C28  1  0.07698524  0.59553027  0.49681678  1.0
  C  C29  1  0.56025284  0.47833211  0.67754484  1.0
  S  S30  1  0.08554024  0.40457343  0.61018715  1.0
  S  S31  1  0.28915074  0.48992122  0.92141482  1.0
  S  S32  1  0.21748049  0.11846122  0.42239562  1.0
  S  S33  1  0.65734075  0.05573229  0.39140133  1.0
  N  N34  1  0.84213741  0.53618375  0.47608791  1.0
  N  N35  1  0.15468475  0.50653407  0.52945279  1.0
  O  O36  1  0.61277223  0.32526273  0.43667843  1.0
  O  O37  1  0.00439274  0.32059043  0.54366719  1.0
  O  O38  1  0.21595931  0.33923164  0.65734062  1.0
  O  O39  1  0.26445329  0.61528518  0.89421834  1.0
  O  O40  1  0.29010356  0.39232291  0.84713288  1.0
  O  O41  1  0.17884959  0.44436803  0.98699639  1.0
  O  O42  1  0.19102988  0.09581962  0.52076097  1.0
  O  O43  1  0.18938780  0.23309364  0.37344085  1.0
  O  O44  1  0.13174248  0.01380880  0.35091625  1.0
  O  O45  1  0.74252834  0.03323932  0.48424607  1.0
  O  O46  1  0.62604331  0.95662192  0.31958594  1.0
  O  O47  1  0.41774522  0.30122500  0.50065697  1.0
  O  O48  1  0.71519344  0.16483798  0.33625705  1.0
  O  O49  1  0.85091199  0.71571069  0.65365900  1.0
  O  O50  1  0.10373568  0.66367718  0.33579640  1.0
  O  O51  1  0.65841630  0.45676668  0.62956404  1.0
  O  O52  1  0.43887477  0.50645491  0.64208056  1.0
  O  O53  1  0.59066427  0.69151965  0.52814767  1.0
  O  O54  1  0.36333882  0.67198518  0.48239802  1.0
  O  O55  1  0.56056740  0.54812431  0.34739162  1.0
  O  O56  1  0.34647779  0.47084329  0.34590071  1.0
  O  O57  1  0.03009741  0.48141430  0.68174034  1.0
