# generated using pymatgen
data_Er2H9C21(NO4)3
_symmetry_space_group_name_H-M   'P 1'
_cell_length_a   7.31397863
_cell_length_b   16.22282713
_cell_length_c   16.22264431
_cell_angle_alpha   120.00690948
_cell_angle_beta   90.00082294
_cell_angle_gamma   89.99887244
_symmetry_Int_Tables_number   1
_chemical_formula_structural   Er2H9C21(NO4)3
_chemical_formula_sum   'Er4 H18 C42 N6 O24'
_cell_volume   1666.87204601
_cell_formula_units_Z   2
loop_
 _symmetry_equiv_pos_site_id
 _symmetry_equiv_pos_as_xyz
  1  'x, y, z'
loop_
 _atom_site_type_symbol
 _atom_site_label
 _atom_site_symmetry_multiplicity
 _atom_site_fract_x
 _atom_site_fract_y
 _atom_site_fract_z
 _atom_site_occupancy
  Er  Er0  1  0.86702304  0.33333333  0.66666667  1.0
  Er  Er1  1  0.36711946  0.66666667  0.33333333  1.0
  Er  Er2  1  0.36698603  0.33333333  0.66666667  1.0
  Er  Er3  1  0.86723987  0.66666667  0.33333333  1.0
  H  H4  1  0.37654116  0.14725772  0.72633150  1.0
  H  H5  1  0.87661014  0.85278780  0.27368416  1.0
  H  H6  1  0.37654457  0.27365856  0.42088689  1.0
  H  H7  1  0.37649289  0.57912946  0.85280141  1.0
  H  H8  1  0.87662286  0.42085058  0.14715191  1.0
  H  H9  1  0.87667236  0.72629086  0.57913002  1.0
  H  H10  1  0.87654568  0.57911966  0.72633294  1.0
  H  H11  1  0.87652823  0.14718569  0.42083643  1.0
  H  H12  1  0.87649132  0.27366200  0.85274709  1.0
  H  H13  1  0.37657931  0.72631661  0.14721168  1.0
  H  H14  1  0.37659299  0.85285556  0.57917709  1.0
  H  H15  1  0.37667398  0.42082477  0.27367901  1.0
  H  H16  1  0.92358152  0.99999786  0.53993558  1.0
  H  H17  1  0.42361982  0.99999891  0.46008744  1.0
  H  H18  1  0.92361643  0.46006926  0.46004189  1.0
  H  H19  1  0.92358969  0.53991923  0.00002380  1.0
  H  H20  1  0.42358993  0.46008156  0.00001968  1.0
  H  H21  1  0.42360495  0.53995153  0.53992749  1.0
  C  C22  1  0.30524133  0.08168279  0.67707555  1.0
  C  C23  1  0.80527215  0.91836400  0.32294520  1.0
  C  C24  1  0.30524691  0.32292621  0.40457611  1.0
  C  C25  1  0.30518082  0.59543330  0.91837990  1.0
  C  C26  1  0.80528343  0.40456223  0.08159488  1.0
  C  C27  1  0.80531032  0.67703159  0.59543590  1.0
  C  C28  1  0.80524000  0.59542363  0.67706400  1.0
  C  C29  1  0.80521251  0.08162171  0.40455407  1.0
  C  C30  1  0.80520725  0.32292853  0.91832314  1.0
  C  C31  1  0.30523376  0.67705561  0.08164286  1.0
  C  C32  1  0.30527772  0.91840586  0.59545707  1.0
  C  C33  1  0.30531039  0.40454129  0.32294417  1.0
  C  C34  1  0.13833555  0.08552985  0.63638917  1.0
  C  C35  1  0.63838969  0.91448477  0.36361872  1.0
  C  C36  1  0.13836083  0.36360371  0.44911421  1.0
  C  C37  1  0.13831904  0.55087151  0.91449868  1.0
  C  C38  1  0.63839936  0.44912175  0.08549545  1.0
  C  C39  1  0.63841090  0.63638171  0.55088155  1.0
  C  C40  1  0.63834346  0.55087551  0.63638612  1.0
  C  C41  1  0.63834636  0.08550848  0.44912088  1.0
  C  C42  1  0.63831631  0.36361458  0.91447513  1.0
  C  C43  1  0.13835971  0.63638650  0.08552722  1.0
  C  C44  1  0.13838845  0.91451823  0.55089799  1.0
  C  C45  1  0.13843374  0.44909995  0.36360404  1.0
  C  C46  1  0.05293143  0.00000863  0.57316205  1.0
  C  C47  1  0.55294289  0.99999810  0.42686353  1.0
  C  C48  1  0.05295370  0.42684556  0.42683806  1.0
  C  C49  1  0.05290691  0.57313582  0.00001973  1.0
  C  C50  1  0.55290862  0.42684528  0.99999858  1.0
  C  C51  1  0.55294750  0.57315104  0.57314146  1.0
  C  C52  1  0.05477197  0.17560376  0.65238499  1.0
  C  C53  1  0.55487868  0.82440437  0.34762774  1.0
  C  C54  1  0.05473070  0.34761252  0.52317745  1.0
  C  C55  1  0.05472585  0.47680756  0.82442414  1.0
  C  C56  1  0.55489062  0.52320343  0.17559002  1.0
  C  C57  1  0.55491038  0.65238565  0.47680133  1.0
  C  C58  1  0.55475468  0.47681792  0.65239797  1.0
  C  C59  1  0.55476866  0.17560232  0.52318440  1.0
  C  C60  1  0.55472461  0.34762202  0.82439675  1.0
  C  C61  1  0.05484264  0.65237616  0.17559929  1.0
  C  C62  1  0.05486149  0.82441934  0.47682153  1.0
  C  C63  1  0.05490691  0.52318096  0.34761075  1.0
  N  N64  1  0.38719133  0.00005912  0.65796249  1.0
  N  N65  1  0.88717824  0.99998988  0.34206792  1.0
  N  N66  1  0.38722688  0.34204449  0.34208481  1.0
  N  N67  1  0.38714574  0.65791994  0.00000527  1.0
  N  N68  1  0.88717310  0.34204528  0.99994692  1.0
  N  N69  1  0.88721153  0.65789576  0.65792296  1.0
  O  O70  1  0.13477948  0.25702488  0.70371632  1.0
  O  O71  1  0.63486207  0.74299759  0.29630534  1.0
  O  O72  1  0.13471200  0.29629017  0.55327589  1.0
  O  O73  1  0.13468169  0.44674914  0.74299746  1.0
  O  O74  1  0.63485458  0.55326550  0.25700117  1.0
  O  O75  1  0.63490084  0.70370881  0.44673710  1.0
  O  O76  1  0.63473859  0.44674718  0.70372400  1.0
  O  O77  1  0.63476215  0.25700621  0.55325164  1.0
  O  O78  1  0.63468774  0.29628224  0.74298184  1.0
  O  O79  1  0.13485263  0.70372813  0.25702575  1.0
  O  O80  1  0.13486846  0.74300771  0.44675773  1.0
  O  O81  1  0.13495628  0.55323970  0.29625952  1.0
  O  O82  1  0.90184938  0.17276048  0.61434493  1.0
  O  O83  1  0.40196518  0.82726278  0.38569798  1.0
  O  O84  1  0.90179608  0.38563612  0.55835054  1.0
  O  O85  1  0.90182374  0.44159467  0.82726156  1.0
  O  O86  1  0.40196074  0.55842858  0.17274929  1.0
  O  O87  1  0.40197883  0.61432379  0.44157994  1.0
  O  O88  1  0.40180798  0.44163650  0.61437350  1.0
  O  O89  1  0.40181969  0.17277965  0.55836817  1.0
  O  O90  1  0.40182074  0.38568126  0.82725613  1.0
  O  O91  1  0.90197194  0.61430996  0.17277199  1.0
  O  O92  1  0.90195249  0.82723649  0.44160398  1.0
  O  O93  1  0.90203666  0.55841594  0.38565071  1.0
