# generated using pymatgen
data_CdH30C48N3O4
_symmetry_space_group_name_H-M   'P 1'
_cell_length_a   9.17745235
_cell_length_b   13.67841444
_cell_length_c   22.83410919
_cell_angle_alpha   74.48238845
_cell_angle_beta   83.64561033
_cell_angle_gamma   87.97152652
_symmetry_Int_Tables_number   1
_chemical_formula_structural   CdH30C48N3O4
_chemical_formula_sum   'Cd2 H60 C96 N6 O8'
_cell_volume   2744.92907971
_cell_formula_units_Z   2
loop_
 _symmetry_equiv_pos_site_id
 _symmetry_equiv_pos_as_xyz
  1  'x, y, z'
loop_
 _atom_site_type_symbol
 _atom_site_label
 _atom_site_symmetry_multiplicity
 _atom_site_fract_x
 _atom_site_fract_y
 _atom_site_fract_z
 _atom_site_occupancy
  Cd  Cd0  1  0.48861280  0.53704782  0.20003100  1.0
  Cd  Cd1  1  0.51138067  0.46295083  0.79996992  1.0
  H  H2  1  0.71792647  0.40062526  0.27758774  1.0
  H  H3  1  0.28206809  0.59937415  0.72241302  1.0
  H  H4  1  0.87575889  0.24518948  0.28521032  1.0
  H  H5  1  0.12423562  0.75480992  0.71479351  1.0
  H  H6  1  0.73089122  0.22496397  0.11540804  1.0
  H  H7  1  0.26911428  0.77503696  0.88459289  1.0
  H  H8  1  0.57509609  0.38071148  0.11590391  1.0
  H  H9  1  0.42491053  0.61928947  0.88409478  1.0
  H  H10  1  0.61985195  0.08671250  0.24502256  1.0
  H  H11  1  0.38014591  0.91328692  0.75497718  1.0
  H  H12  1  0.51265898  0.91707327  0.28818170  1.0
  H  H13  1  0.48733779  0.08292691  0.71181709  1.0
  H  H14  1  0.67116365  0.76137179  0.29896564  1.0
  H  H15  1  0.32883311  0.23862763  0.70103502  1.0
  H  H16  1  0.93463312  0.77701836  0.26453305  1.0
  H  H17  1  0.06536143  0.22298181  0.73546758  1.0
  H  H18  1  0.36933503  0.99377520  0.17156953  1.0
  H  H19  1  0.63066173  0.00621889  0.82843548  1.0
  H  H20  1  0.47860340  0.16311132  0.13202645  1.0
  H  H21  1  0.52139887  0.83688126  0.86797770  1.0
  H  H22  1  0.32184537  0.31901320  0.12238198  1.0
  H  H23  1  0.67816019  0.68098090  0.87762091  1.0
  H  H24  1  0.05806553  0.30468257  0.15518694  1.0
  H  H25  1  0.94193889  0.69531533  0.84481496  1.0
  H  H26  1  0.01333487  0.51744040  0.15426448  1.0
  H  H27  1  0.98666631  0.48256055  0.84573137  1.0
  H  H28  1  0.79732760  0.51162641  0.09811435  1.0
  H  H29  1  0.20267685  0.48837834  0.90187944  1.0
  H  H30  1  0.30547243  0.50125747  0.99670533  1.0
  H  H31  1  0.69453641  0.49874349  0.00329151  1.0
  H  H32  1  0.75079677  0.60492284  0.36636448  1.0
  H  H33  1  0.24920762  0.39508190  0.63363414  1.0
  H  H34  1  0.76078771  0.60908769  0.47463888  1.0
  H  H35  1  0.23923210  0.39090643  0.52536297  1.0
  H  H36  1  0.34932194  0.43773224  0.41639603  1.0
  H  H37  1  0.65068695  0.56226036  0.58360433  1.0
  H  H38  1  0.31424426  0.71355048  0.12148212  1.0
  H  H39  1  0.68576667  0.28645881  0.87851462  1.0
  H  H40  1  0.15518182  0.86559090  0.11905470  1.0
  H  H41  1  0.84482474  0.13441383  0.88094515  1.0
  H  H42  1  0.22604155  0.83207373  0.30723456  1.0
  H  H43  1  0.77395526  0.16792113  0.69276638  1.0
  H  H44  1  0.38501387  0.68160317  0.30156525  1.0
  H  H45  1  0.61499495  0.31839778  0.69843291  1.0
  H  H46  1  0.58781518  0.64135422  0.04849173  1.0
  H  H47  1  0.41218270  0.35864368  0.95150781  1.0
  H  H48  1  0.74388015  0.78534370  0.98155202  1.0
  H  H49  1  0.25611110  0.21465875  0.01844795  1.0
  H  H50  1  0.85991823  0.84430700  0.14708107  1.0
  H  H51  1  0.14007637  0.15569014  0.85291917  1.0
  H  H52  1  0.70654958  0.69505480  0.20622771  1.0
  H  H53  1  0.29344829  0.30494310  0.79377271  1.0
  H  H54  1  0.62387978  0.96620166  0.05051306  1.0
  H  H55  1  0.37610818  0.03380078  0.94948662  1.0
  H  H56  1  0.52249502  0.13932007  0.03232276  1.0
  H  H57  1  0.47749398  0.86068540  0.96767815  1.0
  H  H58  1  0.68731811  0.29012474  0.99132487  1.0
  H  H59  1  0.31267528  0.70987694  0.00867864  1.0
  H  H60  1  0.95040143  0.26628986  0.96453222  1.0
  H  H61  1  0.04958866  0.73371409  0.03547063  1.0
  C  C62  1  0.72217573  0.35807080  0.24331055  1.0
  C  C63  1  0.27782209  0.64193013  0.75669070  1.0
  C  C64  1  0.81020401  0.27220947  0.24698935  1.0
  C  C65  1  0.18979381  0.72779146  0.75301234  1.0
  C  C66  1  0.81396940  0.22131391  0.20112041  1.0
  C  C67  1  0.18603175  0.77868551  0.79887963  1.0
  C  C68  1  0.72863368  0.26057611  0.15288204  1.0
  C  C69  1  0.27137074  0.73942483  0.84711806  1.0
  C  C70  1  0.64260941  0.34651076  0.15272747  1.0
  C  C71  1  0.35739721  0.65349018  0.84727166  1.0
  C  C72  1  0.90612545  0.12892861  0.20407120  1.0
  C  C73  1  0.09387349  0.87107005  0.79592993  1.0
  C  C74  1  0.84235314  0.03216955  0.22864565  1.0
  C  C75  1  0.15764362  0.96782987  0.77135501  1.0
  C  C76  1  0.68947855  0.01949660  0.24904056  1.0
  C  C77  1  0.31051710  0.98050357  0.75095959  1.0
  C  C78  1  0.62976723  0.92470745  0.27336138  1.0
  C  C79  1  0.37022951  0.07529348  0.72663860  1.0
  C  C80  1  0.71932032  0.83641218  0.27948347  1.0
  C  C81  1  0.28067426  0.16358724  0.72051597  1.0
  C  C82  1  0.86664185  0.84511218  0.26023554  1.0
  C  C83  1  0.13335491  0.15488572  0.73976580  1.0
  C  C84  1  0.93329484  0.94215606  0.23391666  1.0
  C  C85  1  0.06669862  0.05784412  0.76608358  1.0
  C  C86  1  0.08355274  0.95243683  0.21249032  1.0
  C  C87  1  0.91644074  0.04756107  0.78751072  1.0
  C  C88  1  0.14718078  0.04911366  0.18791039  1.0
  C  C89  1  0.85281600  0.95088348  0.81209063  1.0
  C  C90  1  0.30022723  0.06115793  0.16793395  1.0
  C  C91  1  0.69977067  0.93883541  0.83206851  1.0
  C  C92  1  0.36109806  0.15587253  0.14558716  1.0
  C  C93  1  0.63890421  0.84412157  0.85441543  1.0
  C  C94  1  0.27242407  0.24431067  0.14063850  1.0
  C  C95  1  0.72757821  0.75568344  0.85936365  1.0
  C  C96  1  0.12470954  0.23616203  0.15905515  1.0
  C  C97  1  0.87529267  0.76383738  0.84094703  1.0
  C  C98  1  0.05710259  0.13917092  0.18381619  1.0
  C  C99  1  0.94289525  0.86082697  0.81618598  1.0
  C  C100  1  0.30055775  0.51220686  0.11265478  1.0
  C  C101  1  0.69944127  0.48778877  0.88734420  1.0
  C  C102  1  0.17150030  0.50938013  0.07811752  1.0
  C  C103  1  0.82849982  0.49061855  0.92187786  1.0
  C  C104  1  0.02685916  0.51239819  0.10712658  1.0
  C  C105  1  0.97314311  0.48760352  0.89286867  1.0
  C  C106  1  0.90798214  0.50888459  0.07597889  1.0
  C  C107  1  0.09202452  0.49111865  0.92401506  1.0
  C  C108  1  0.92691506  0.50147203  0.01471767  1.0
  C  C109  1  0.07309488  0.49853198  0.98527558  1.0
  C  C110  1  0.19343581  0.50308899  0.01824265  1.0
  C  C111  1  0.80657089  0.49691121  0.98175134  1.0
  C  C112  1  0.54199571  0.52227366  0.32026779  1.0
  C  C113  1  0.45801084  0.47773183  0.67973193  1.0
  C  C114  1  0.54817513  0.52119677  0.38577568  1.0
  C  C115  1  0.45183368  0.47880493  0.61422280  1.0
  C  C116  1  0.66556097  0.56983762  0.40221284  1.0
  C  C117  1  0.33444895  0.43016029  0.59778751  1.0
  C  C118  1  0.67077090  0.57167280  0.46189820  1.0
  C  C119  1  0.32924125  0.42832131  0.53810353  1.0
  C  C120  1  0.55931809  0.52483612  0.50822060  1.0
  C  C121  1  0.44069405  0.47516028  0.49177902  1.0
  C  C122  1  0.43837978  0.47471306  0.43001084  1.0
  C  C123  1  0.56163345  0.52528333  0.56998917  1.0
  C  C124  1  0.29271266  0.74218231  0.16183322  1.0
  C  C125  1  0.70729506  0.25782016  0.83816387  1.0
  C  C126  1  0.20334813  0.82669206  0.16065697  1.0
  C  C127  1  0.79665518  0.17331040  0.83934206  1.0
  C  C128  1  0.17664470  0.86109845  0.21339760  1.0
  C  C129  1  0.82335425  0.13889945  0.78660409  1.0
  C  C130  1  0.24290567  0.80809596  0.26511798  1.0
  C  C131  1  0.75709217  0.19190574  0.73488140  1.0
  C  C132  1  0.33160324  0.72432777  0.26209618  1.0
  C  C133  1  0.66839788  0.27567469  0.73790250  1.0
  C  C134  1  0.65151159  0.68860287  0.06783936  1.0
  C  C135  1  0.34848408  0.31139731  0.93215992  1.0
  C  C136  1  0.73719220  0.76884526  0.03123749  1.0
  C  C137  1  0.26279904  0.23115642  0.96876349  1.0
  C  C138  1  0.81441916  0.82691198  0.05931704  1.0
  C  C139  1  0.18557208  0.17309047  0.94068337  1.0
  C  C140  1  0.80275043  0.80072471  0.12324497  1.0
  C  C141  1  0.19724413  0.19927394  0.87675591  1.0
  C  C142  1  0.71693109  0.71887576  0.15641911  1.0
  C  C143  1  0.28306568  0.28112214  0.84358135  1.0
  C  C144  1  0.90767511  0.91493469  0.02575090  1.0
  C  C145  1  0.09231610  0.08507079  0.97424903  1.0
  C  C146  1  0.84852775  0.01382052  0.01717139  1.0
  C  C147  1  0.15146566  0.98618344  0.98282957  1.0
  C  C148  1  0.69605944  0.03128279  0.03195398  1.0
  C  C149  1  0.30392849  0.96872193  0.96804621  1.0
  C  C150  1  0.63966384  0.12801562  0.02204789  1.0
  C  C151  1  0.36032738  0.87198682  0.97795384  1.0
  C  C152  1  0.73288353  0.21350805  0.99828516  1.0
  C  C153  1  0.26710657  0.78649666  0.00171669  1.0
  C  C154  1  0.88016985  0.20020599  0.98339420  1.0
  C  C155  1  0.11982461  0.79979797  0.01660891  1.0
  C  C156  1  0.94277477  0.10071965  0.99147668  1.0
  C  C157  1  0.05721753  0.89928431  0.00852520  1.0
  N  N158  1  0.63898261  0.39436526  0.19722690  1.0
  N  N159  1  0.36102070  0.60563567  0.80277368  1.0
  N  N160  1  0.35630317  0.69170718  0.21146224  1.0
  N  N161  1  0.64370342  0.30829604  0.78853609  1.0
  N  N162  1  0.64176589  0.66370149  0.12928324  1.0
  N  N163  1  0.35823202  0.33629489  0.87071610  1.0
  O  O164  1  0.42852667  0.52095921  0.08457457  1.0
  O  O165  1  0.57147775  0.47904326  0.91542353  1.0
  O  O166  1  0.27196531  0.50555815  0.16988950  1.0
  O  O167  1  0.72803487  0.49443218  0.83010895  1.0
  O  O168  1  0.64060273  0.57117807  0.28027372  1.0
  O  O169  1  0.35939614  0.42882741  0.71972677  1.0
  O  O170  1  0.43723674  0.47599614  0.30685716  1.0
  O  O171  1  0.56277210  0.52400253  0.69314179  1.0
