# generated using pymatgen
data_AlH8C13N2O5F
_symmetry_space_group_name_H-M   'P 1'
_cell_length_a   6.63912001
_cell_length_b   11.07958247
_cell_length_c   16.94082228
_cell_angle_alpha   83.82199820
_cell_angle_beta   82.64061126
_cell_angle_gamma   73.63733913
_symmetry_Int_Tables_number   1
_chemical_formula_structural   AlH8C13N2O5F
_chemical_formula_sum   'Al2 H16 C26 N4 O10 F2'
_cell_volume   1182.46808144
_cell_formula_units_Z   2
loop_
 _symmetry_equiv_pos_site_id
 _symmetry_equiv_pos_as_xyz
  1  'x, y, z'
loop_
 _atom_site_type_symbol
 _atom_site_label
 _atom_site_symmetry_multiplicity
 _atom_site_fract_x
 _atom_site_fract_y
 _atom_site_fract_z
 _atom_site_occupancy
  Al  Al0  1  0.49658910  0.50097059  0.49604774  1.0
  Al  Al1  1  0.99473339  0.50531200  0.49668142  1.0
  H  H2  1  0.19512850  0.65268053  0.44390125  1.0
  H  H3  1  0.81455206  0.34781126  0.53342198  1.0
  H  H4  1  0.83691834  0.57601782  0.73138228  1.0
  H  H5  1  0.77251567  0.57710172  0.88092366  1.0
  H  H6  1  0.44290684  0.45341994  0.89376593  1.0
  H  H7  1  0.60859668  0.44980709  0.10254819  1.0
  H  H8  1  0.17273016  0.56607649  0.10683801  1.0
  H  H9  1  0.10251536  0.56718356  0.25640234  1.0
  H  H10  1  0.85543935  0.76473585  0.61216899  1.0
  H  H11  1  0.99803823  0.87980614  0.69768792  1.0
  H  H12  1  0.60007781  0.23302128  0.60876047  1.0
  H  H13  1  0.86788754  0.11529053  0.69634899  1.0
  H  H14  1  0.58482457  0.44646974  0.67939488  1.0
  H  H15  1  0.67295401  0.42501114  0.77439834  1.0
  H  H16  1  0.45800976  0.45589112  0.31648281  1.0
  H  H17  1  0.40118633  0.42032964  0.22534878  1.0
  C  C18  1  0.62734250  0.72746834  0.50668297  1.0
  C  C19  1  0.79795844  0.50693920  0.35165965  1.0
  C  C20  1  0.35752189  0.27633075  0.49447244  1.0
  C  C21  1  0.19314778  0.50219799  0.64102198  1.0
  C  C22  1  0.17287870  0.50791038  0.72800174  1.0
  C  C23  1  0.96772466  0.54634303  0.76828710  1.0
  C  C24  1  0.93085263  0.54745893  0.85020793  1.0
  C  C25  1  0.10719122  0.51065833  0.89490248  1.0
  C  C26  1  0.31149187  0.47819530  0.85701079  1.0
  C  C27  1  0.35139566  0.47414126  0.77308670  1.0
  C  C28  1  0.71740151  0.47335434  0.13758698  1.0
  C  C29  1  0.89497250  0.50407202  0.09754236  1.0
  C  C30  1  0.03892430  0.53813144  0.13961121  1.0
  C  C31  1  0.99915115  0.53846358  0.22159347  1.0
  C  C32  1  0.82307980  0.50535224  0.26411519  1.0
  C  C33  1  0.67616073  0.47241382  0.22164610  1.0
  C  C34  1  0.55628695  0.86751848  0.50977663  1.0
  C  C35  1  0.64779263  0.93265489  0.55784543  1.0
  C  C36  1  0.39934884  0.93585544  0.46376299  1.0
  C  C37  1  0.80103530  0.86722460  0.61004897  1.0
  C  C38  1  0.88077099  0.93191143  0.65797872  1.0
  C  C39  1  0.42183777  0.13534472  0.50368871  1.0
  C  C40  1  0.33354862  0.06873367  0.46029711  1.0
  C  C41  1  0.57744395  0.06802613  0.55553350  1.0
  C  C42  1  0.65941549  0.13110574  0.60719007  1.0
  C  C43  1  0.80835634  0.06464165  0.65697615  1.0
  N  N44  1  0.09229468  0.50689934  0.97911646  1.0
  N  N45  1  0.91325659  0.50244874  0.01349242  1.0
  N  N46  1  0.55457837  0.43641015  0.73976646  1.0
  N  N47  1  0.50507222  0.43725254  0.25858605  1.0
  O  O48  1  0.48467073  0.66979151  0.51602208  1.0
  O  O49  1  0.96173224  0.49732234  0.38667536  1.0
  O  O50  1  0.16147972  0.33172943  0.50304467  1.0
  O  O51  1  0.38035149  0.47538102  0.60392990  1.0
  O  O52  1  0.50517168  0.33025375  0.47958305  1.0
  O  O53  1  0.02531196  0.52102278  0.60644696  1.0
  O  O54  1  0.82444518  0.67689970  0.49378603  1.0
  O  O55  1  0.61143340  0.51967841  0.38790110  1.0
  O  O56  1  0.22970963  0.56360629  0.46141592  1.0
  O  O57  1  0.76458497  0.43937945  0.53171514  1.0
  F  F58  1  0.18817961  0.12797187  0.40987758  1.0
  F  F59  1  0.30940293  0.87916190  0.41646450  1.0
