# generated using pymatgen
data_AlH9C24Br3(NO2)3
_symmetry_space_group_name_H-M   'P 1'
_cell_length_a   3.98369194
_cell_length_b   15.64778912
_cell_length_c   15.84827780
_cell_angle_alpha   117.38519834
_cell_angle_beta   97.07107955
_cell_angle_gamma   97.04278327
_symmetry_Int_Tables_number   1
_chemical_formula_structural   AlH9C24Br3(NO2)3
_chemical_formula_sum   'Al1 H9 C24 Br3 N3 O6'
_cell_volume   852.33611179
_cell_formula_units_Z   1
loop_
 _symmetry_equiv_pos_site_id
 _symmetry_equiv_pos_as_xyz
  1  'x, y, z'
loop_
 _atom_site_type_symbol
 _atom_site_label
 _atom_site_symmetry_multiplicity
 _atom_site_fract_x
 _atom_site_fract_y
 _atom_site_fract_z
 _atom_site_occupancy
  Al  Al0  1  0.48678267  0.50142477  0.50305148  1.0
  H  H1  1  0.85437302  0.50536178  0.23749125  1.0
  H  H2  1  0.95796081  0.59171486  0.14046098  1.0
  H  H3  1  0.28158412  0.86700472  0.40487267  1.0
  H  H4  1  0.06344455  0.58812816  0.95457738  1.0
  H  H5  1  0.28868132  0.76444980  0.76812401  1.0
  H  H6  1  0.36942423  0.85851896  0.94912049  1.0
  H  H7  1  0.63918652  0.04413619  0.13774791  1.0
  H  H8  1  0.60219220  0.23582089  0.48626033  1.0
  H  H9  1  0.40769206  0.05259056  0.39902686  1.0
  C  C10  1  0.86644686  0.35114428  0.42340635  1.0
  C  C11  1  0.99289663  0.58036258  0.42925444  1.0
  C  C12  1  0.08875837  0.57204611  0.65184886  1.0
  C  C13  1  0.25838353  0.78397276  0.06923670  1.0
  C  C14  1  0.20537223  0.78668541  0.21176611  1.0
  C  C15  1  0.39260839  0.92915328  0.21014558  1.0
  C  C16  1  0.94811132  0.58473405  0.27329056  1.0
  C  C17  1  0.00573956  0.63238823  0.21936771  1.0
  C  C18  1  0.12999004  0.73440903  0.26693355  1.0
  C  C19  1  0.19024705  0.78775801  0.36855528  1.0
  C  C20  1  0.13739659  0.73926766  0.42186981  1.0
  C  C21  1  0.01971083  0.63694155  0.37513742  1.0
  C  C22  1  0.11834173  0.62624078  0.91364966  1.0
  C  C23  1  0.08209570  0.57434289  0.81334047  1.0
  C  C24  1  0.14344035  0.62363072  0.76024021  1.0
  C  C25  1  0.24563600  0.72644160  0.81001307  1.0
  C  C26  1  0.28937488  0.77879272  0.91030163  1.0
  C  C27  1  0.22345158  0.72891484  0.96280787  1.0
  C  C28  1  0.63803806  0.08614362  0.21465820  1.0
  C  C29  1  0.75858824  0.18758760  0.26455143  1.0
  C  C30  1  0.74867698  0.24251428  0.36337865  1.0
  C  C31  1  0.61511750  0.19234761  0.41020207  1.0
  C  C32  1  0.50538935  0.09109585  0.36193344  1.0
  C  C33  1  0.51458754  0.03713913  0.26314606  1.0
  Br  Br34  1  0.21250977  0.81687034  0.55917836  1.0
  Br  Br35  1  0.92570711  0.43561611  0.74952914  1.0
  Br  Br36  1  0.91364459  0.24658659  0.19105513  1.0
  N  N37  1  0.17189458  0.73301460  0.11516559  1.0
  N  N38  1  0.30853762  0.88509163  0.26226304  1.0
  N  N39  1  0.37509148  0.88189771  0.11376710  1.0
  O  O40  1  0.84917019  0.59345941  0.60847554  1.0
  O  O41  1  0.69648839  0.39468934  0.48881074  1.0
  O  O42  1  0.71369407  0.51951452  0.40886072  1.0
  O  O43  1  0.28427134  0.51370002  0.61141431  1.0
  O  O44  1  0.26216392  0.59564214  0.49065137  1.0
  O  O45  1  0.12795371  0.39355754  0.40869714  1.0
