# generated using pymatgen
data_NiH18C24S2(N4O3)2
_symmetry_space_group_name_H-M   'P 1'
_cell_length_a   7.41866990
_cell_length_b   15.60526860
_cell_length_c   17.09975767
_cell_angle_alpha   89.99992151
_cell_angle_beta   91.75018141
_cell_angle_gamma   89.99991713
_symmetry_Int_Tables_number   1
_chemical_formula_structural   NiH18C24S2(N4O3)2
_chemical_formula_sum   'Ni2 H36 C48 S4 N16 O12'
_cell_volume   1978.72118272
_cell_formula_units_Z   2
loop_
 _symmetry_equiv_pos_site_id
 _symmetry_equiv_pos_as_xyz
  1  'x, y, z'
loop_
 _atom_site_type_symbol
 _atom_site_label
 _atom_site_symmetry_multiplicity
 _atom_site_fract_x
 _atom_site_fract_y
 _atom_site_fract_z
 _atom_site_occupancy
  Ni  Ni0  1  0.99999937  0.00000018  0.99999958  1.0
  Ni  Ni1  1  0.00000166  0.49999999  0.49999996  1.0
  H  H2  1  0.88227669  0.13857992  0.70501426  1.0
  H  H3  1  0.11772796  0.63857920  0.79498691  1.0
  H  H4  1  0.11772518  0.86142035  0.29498766  1.0
  H  H5  1  0.88227391  0.36141850  0.20501266  1.0
  H  H6  1  0.49821491  0.34693276  0.71048696  1.0
  H  H7  1  0.50178774  0.84693371  0.78951159  1.0
  H  H8  1  0.50178696  0.65306687  0.28951261  1.0
  H  H9  1  0.49820603  0.15306720  0.21048671  1.0
  H  H10  1  0.34973992  0.27620341  0.82002975  1.0
  H  H11  1  0.65025890  0.77620378  0.67996825  1.0
  H  H12  1  0.65026060  0.72379686  0.17996981  1.0
  H  H13  1  0.34973757  0.22379841  0.32003067  1.0
  H  H14  1  0.62156976  0.14220421  0.99961553  1.0
  H  H15  1  0.37843218  0.64220055  0.50038268  1.0
  H  H16  1  0.37842806  0.85779927  0.00038458  1.0
  H  H17  1  0.62157238  0.35779780  0.49961576  1.0
  H  H18  1  0.36482370  0.06684712  0.06913894  1.0
  H  H19  1  0.63517900  0.56684455  0.43086004  1.0
  H  H20  1  0.63517547  0.93315508  0.93086060  1.0
  H  H21  1  0.36482421  0.43315444  0.56913839  1.0
  H  H22  1  0.16827400  0.08433685  0.84219327  1.0
  H  H23  1  0.83172542  0.58433776  0.65780498  1.0
  H  H24  1  0.83172517  0.91566150  0.15780627  1.0
  H  H25  1  0.16827510  0.41566251  0.34219399  1.0
  H  H26  1  0.81256329  0.42935549  0.66825554  1.0
  H  H27  1  0.18742966  0.92935403  0.83174220  1.0
  H  H28  1  0.18743723  0.57064542  0.33174461  1.0
  H  H29  1  0.81256816  0.07064560  0.16825732  1.0
  H  H30  1  0.99333584  0.31406374  0.47266906  1.0
  H  H31  1  0.00668093  0.81406479  0.02733447  1.0
  H  H32  1  0.00667412  0.68593589  0.52733237  1.0
  H  H33  1  0.99331689  0.18593677  0.97266681  1.0
  H  H34  1  0.86276629  0.18602620  0.54782618  1.0
  H  H35  1  0.13725036  0.68602716  0.95217801  1.0
  H  H36  1  0.13724367  0.81397278  0.45217642  1.0
  H  H37  1  0.86274612  0.31397247  0.04782442  1.0
  C  C38  1  0.53012730  0.16827057  0.82639914  1.0
  C  C39  1  0.46987186  0.66827043  0.67360075  1.0
  C  C40  1  0.46987052  0.83172906  0.17360155  1.0
  C  C41  1  0.53012865  0.33172984  0.32639763  1.0
  C  C42  1  0.68121067  0.13054738  0.79187180  1.0
  C  C43  1  0.31878726  0.63054602  0.70812812  1.0
  C  C44  1  0.31878581  0.86945289  0.20813004  1.0
  C  C45  1  0.68121325  0.36945297  0.29187085  1.0
  C  C46  1  0.76434407  0.16944260  0.72904321  1.0
  C  C47  1  0.23565779  0.66944184  0.77095730  1.0
  C  C48  1  0.23565646  0.83055703  0.27095868  1.0
  C  C49  1  0.76434138  0.33055715  0.22904224  1.0
  C  C50  1  0.70176869  0.24791678  0.69901992  1.0
  C  C51  1  0.29823832  0.74791529  0.80097997  1.0
  C  C52  1  0.29823588  0.75208413  0.30098086  1.0
  C  C53  1  0.70175950  0.25208370  0.19902072  1.0
  C  C54  1  0.55127293  0.28611417  0.73268639  1.0
  C  C55  1  0.44872856  0.78611518  0.76731221  1.0
  C  C56  1  0.44873029  0.71388482  0.26731437  1.0
  C  C57  1  0.55126521  0.21388509  0.23268609  1.0
  C  C58  1  0.46709525  0.24606998  0.79457754  1.0
  C  C59  1  0.53290231  0.74607103  0.70541931  1.0
  C  C60  1  0.53290392  0.75392901  0.20542316  1.0
  C  C61  1  0.46709280  0.25393052  0.29457842  1.0
  C  C62  1  0.43654858  0.13015073  0.89289268  1.0
  C  C63  1  0.56345070  0.63014935  0.60710668  1.0
  C  C64  1  0.56344924  0.86985018  0.10710801  1.0
  C  C65  1  0.43655117  0.36985092  0.39289173  1.0
  C  C66  1  0.49621676  0.12321005  0.97079965  1.0
  C  C67  1  0.50378254  0.62320818  0.52920030  1.0
  C  C68  1  0.50377971  0.87679150  0.02920160  1.0
  C  C69  1  0.49621932  0.37679081  0.47079869  1.0
  C  C70  1  0.26255491  0.09367273  0.89130637  1.0
  C  C71  1  0.73744449  0.59367314  0.60869303  1.0
  C  C72  1  0.73744426  0.90632626  0.10869434  1.0
  C  C73  1  0.26255738  0.40632585  0.39130654  1.0
  C  C74  1  0.79534552  0.28950916  0.63498604  1.0
  C  C75  1  0.20466001  0.78950699  0.86501437  1.0
  C  C76  1  0.20466039  0.71049111  0.36501534  1.0
  C  C77  1  0.79533781  0.21049135  0.13498632  1.0
  C  C78  1  0.83736147  0.37751084  0.62790474  1.0
  C  C79  1  0.16263974  0.87750933  0.87209433  1.0
  C  C80  1  0.16264175  0.62249007  0.37209543  1.0
  C  C81  1  0.83735943  0.12248901  0.12790579  1.0
  C  C82  1  0.86552298  0.25173605  0.56845200  1.0
  C  C83  1  0.13449076  0.75173639  0.93155090  1.0
  C  C84  1  0.13448563  0.74826358  0.43155000  1.0
  C  C85  1  0.86550436  0.24826388  0.06845093  1.0
  S  S86  1  0.78377373  0.03395879  0.82833355  1.0
  S  S87  1  0.21622585  0.53395755  0.67166710  1.0
  S  S88  1  0.21622409  0.96604148  0.17166538  1.0
  S  S89  1  0.78377467  0.46604208  0.32833305  1.0
  N  N90  1  0.36441484  0.08480776  0.01042813  1.0
  N  N91  1  0.63558510  0.58480511  0.48957137  1.0
  N  N92  1  0.63558299  0.91519443  0.98957256  1.0
  N  N93  1  0.36441811  0.41519388  0.51042822  1.0
  N  N94  1  0.22128713  0.06569432  0.96302745  1.0
  N  N95  1  0.77871235  0.56569353  0.53697316  1.0
  N  N96  1  0.77871204  0.93430595  0.03697385  1.0
  N  N97  1  0.22128817  0.43430610  0.46302639  1.0
  N  N98  1  0.92633800  0.39219949  0.56227418  1.0
  N  N99  1  0.07366721  0.89219859  0.93772551  1.0
  N  N100  1  0.07366792  0.60780014  0.43772544  1.0
  N  N101  1  0.92633330  0.10780104  0.06227405  1.0
  N  N102  1  0.94248085  0.31521269  0.52717284  1.0
  N  N103  1  0.05752865  0.81521303  0.97282876  1.0
  N  N104  1  0.05752507  0.68478694  0.47282913  1.0
  N  N105  1  0.94246917  0.18478853  0.02717076  1.0
  O  O106  1  0.64141602  0.96889115  0.83591734  1.0
  O  O107  1  0.35858625  0.46889102  0.66408280  1.0
  O  O108  1  0.35858045  0.03111040  0.16408333  1.0
  O  O109  1  0.64141696  0.53110925  0.33591562  1.0
  O  O110  1  0.85668207  0.06162500  0.90702506  1.0
  O  O111  1  0.14331877  0.56162457  0.59297499  1.0
  O  O112  1  0.14331979  0.93837335  0.09297393  1.0
  O  O113  1  0.85668175  0.43837442  0.40702457  1.0
  O  O114  1  0.92436107  0.01120236  0.77458480  1.0
  O  O115  1  0.07563858  0.51120306  0.72541588  1.0
  O  O116  1  0.07563405  0.98879406  0.22541294  1.0
  O  O117  1  0.92436193  0.48879593  0.27458426  1.0
