# generated using pymatgen
data_Zn4H8C40O13F12
_symmetry_space_group_name_H-M   'P 1'
_cell_length_a   23.81796755
_cell_length_b   23.81812085
_cell_length_c   23.81662906
_cell_angle_alpha   66.55501671
_cell_angle_beta   72.47605466
_cell_angle_gamma   107.52144585
_symmetry_Int_Tables_number   1
_chemical_formula_structural   Zn4H8C40O13F12
_chemical_formula_sum   'Zn8 H16 C80 O26 F24'
_cell_volume   10362.83270749
_cell_formula_units_Z   2
loop_
 _symmetry_equiv_pos_site_id
 _symmetry_equiv_pos_as_xyz
  1  'x, y, z'
loop_
 _atom_site_type_symbol
 _atom_site_label
 _atom_site_symmetry_multiplicity
 _atom_site_fract_x
 _atom_site_fract_y
 _atom_site_fract_z
 _atom_site_occupancy
  Zn  Zn0  1  0.05763293  0.10008718  0.45753602  1.0
  Zn  Zn1  1  0.05763174  0.95754535  0.48481970  1.0
  Zn  Zn2  1  0.94236165  0.95753444  0.60009787  1.0
  Zn  Zn3  1  0.94237787  0.98483560  0.45753246  1.0
  Zn  Zn4  1  0.94236641  0.39991320  0.04246286  1.0
  Zn  Zn5  1  0.05763989  0.54246594  0.89990077  1.0
  Zn  Zn6  1  0.94236758  0.54245503  0.01517600  1.0
  Zn  Zn7  1  0.05761935  0.51516814  0.04246941  1.0
  H  H8  1  0.92312867  0.27084636  0.96451506  1.0
  H  H9  1  0.07686567  0.46451955  0.77081271  1.0
  H  H10  1  0.92312951  0.03548136  0.72918596  1.0
  H  H11  1  0.07681824  0.22916822  0.53547008  1.0
  H  H12  1  0.07688207  0.61239282  0.15226044  1.0
  H  H13  1  0.92314078  0.65232325  0.11233277  1.0
  H  H14  1  0.07682043  0.84765128  0.38769466  1.0
  H  H15  1  0.92312885  0.88764436  0.34770069  1.0
  H  H16  1  0.73534750  0.27084105  0.15232378  1.0
  H  H17  1  0.73534175  0.46452072  0.11233417  1.0
  H  H18  1  0.26465737  0.03548017  0.38767063  1.0
  H  H19  1  0.26465081  0.22914565  0.34774693  1.0
  H  H20  1  0.26466109  0.65235129  0.77083105  1.0
  H  H21  1  0.26464756  0.61233382  0.96453780  1.0
  H  H22  1  0.73535521  0.88767619  0.53546074  1.0
  H  H23  1  0.73533817  0.84771668  0.72915606  1.0
  C  C24  1  0.18228575  0.09113357  0.40886612  1.0
  C  C25  1  0.99999782  0.86292912  0.63707331  1.0
  C  C26  1  0.99998857  0.09113528  0.59114602  1.0
  C  C27  1  0.81771588  0.90887006  0.59112893  1.0
  C  C28  1  0.00000390  0.13707659  0.36292509  1.0
  C  C29  1  0.99999218  0.90885347  0.40886016  1.0
  C  C30  1  0.00000302  0.40886929  0.90884808  1.0
  C  C31  1  0.00000398  0.63707281  0.86292481  1.0
  C  C32  1  0.81771422  0.40886155  0.09114953  1.0
  C  C33  1  0.99999569  0.59115368  0.09113304  1.0
  C  C34  1  0.99999772  0.36292716  0.13707251  1.0
  C  C35  1  0.18228251  0.59114570  0.90887033  1.0
  C  C36  1  1.00000000  0.19464312  0.30535892  1.0
  C  C37  1  0.00000156  0.30535881  0.19463965  1.0
  C  C38  1  0.95766215  0.18094372  0.27672528  1.0
  C  C39  1  0.04233991  0.31906003  0.22327218  1.0
  C  C40  1  0.95766263  0.23438820  0.22327809  1.0
  C  C41  1  0.04233988  0.26561555  0.27671923  1.0
  C  C42  1  0.00000007  0.80535997  0.69464102  1.0
  C  C43  1  0.00000281  0.69464144  0.80535614  1.0
  C  C44  1  0.95766405  0.77672011  0.76562009  1.0
  C  C45  1  0.04233932  0.72328235  0.73437650  1.0
  C  C46  1  0.95766568  0.72327353  0.81906454  1.0
  C  C47  1  0.04233744  0.77672840  0.68093192  1.0
  C  C48  1  0.00000244  0.37141454  0.87139624  1.0
  C  C49  1  0.95661274  0.29942192  0.90867558  1.0
  C  C50  1  0.95737207  0.26569169  0.87302344  1.0
  C  C51  1  0.99999060  0.30054034  0.80053006  1.0
  C  C52  1  0.04261566  0.37302641  0.76567313  1.0
  C  C53  1  0.04338160  0.40868317  0.79939880  1.0
  C  C54  1  0.99998640  0.26530325  0.76529329  1.0
  C  C55  1  0.99998318  0.23470683  0.73469664  1.0
  C  C56  1  0.99997617  0.19946557  0.69946406  1.0
  C  C57  1  0.95736724  0.12697557  0.73432420  1.0
  C  C58  1  0.95660507  0.09131932  0.70059886  1.0
  C  C59  1  0.99997952  0.12859110  0.62859698  1.0
  C  C60  1  0.04334847  0.20058741  0.59131615  1.0
  C  C61  1  0.04258885  0.23431606  0.62696900  1.0
  C  C62  1  0.00000442  0.62861863  0.12857440  1.0
  C  C63  1  0.04339609  0.63474022  0.15717402  1.0
  C  C64  1  0.04263319  0.66962824  0.19166679  1.0
  C  C65  1  0.00000701  0.69948787  0.19944344  1.0
  C  C66  1  0.95738527  0.69171474  0.16958016  1.0
  C  C67  1  0.95662422  0.65722831  0.13468507  1.0
  C  C68  1  0.99999789  0.73471215  0.23469244  1.0
  C  C69  1  0.99998925  0.76529343  0.26530245  1.0
  C  C70  1  0.99998011  0.80051694  0.30055199  1.0
  C  C71  1  0.04259195  0.80827440  0.33042993  1.0
  C  C72  1  0.04334992  0.84276083  0.36532553  1.0
  C  C73  1  0.99997987  0.87138671  0.37142167  1.0
  C  C74  1  0.95660459  0.86528339  0.34280356  1.0
  C  C75  1  0.95736784  0.83039328  0.30831277  1.0
  C  C76  1  0.74280815  0.37141221  0.12860013  1.0
  C  C77  1  0.70808724  0.29941659  0.15721970  1.0
  C  C78  1  0.63870527  0.26568699  0.19171098  1.0
  C  C79  1  0.60106851  0.30053851  0.19947056  1.0
  C  C80  1  0.63870375  0.37302755  0.16959028  1.0
  C  C81  1  0.70808547  0.40868318  0.13469829  1.0
  C  C82  1  0.53059616  0.26529944  0.23471453  1.0
  C  C83  1  0.46940310  0.23469409  0.26532211  1.0
  C  C84  1  0.39893006  0.19945449  0.30056944  1.0
  C  C85  1  0.36129504  0.12697071  0.33042825  1.0
  C  C86  1  0.29191356  0.09131559  0.36532040  1.0
  C  C87  1  0.25719139  0.12858289  0.37143203  1.0
  C  C88  1  0.29191213  0.20057432  0.34283265  1.0
  C  C89  1  0.36129277  0.23430391  0.30834261  1.0
  C  C90  1  0.25718843  0.62860705  0.87141753  1.0
  C  C91  1  0.29191562  0.65723609  0.79941584  1.0
  C  C92  1  0.36129795  0.69172662  0.76568700  1.0
  C  C93  1  0.39892976  0.69948441  0.80054430  1.0
  C  C94  1  0.36128857  0.66959685  0.87303941  1.0
  C  C95  1  0.29190562  0.63470059  0.90869621  1.0
  C  C96  1  0.46940394  0.73471982  0.76530165  1.0
  C  C97  1  0.53059594  0.76532100  0.73468806  1.0
  C  C98  1  0.60106968  0.80055641  0.69944765  1.0
  C  C99  1  0.63871223  0.83042412  0.62695580  1.0
  C  C100  1  0.70809349  0.86531673  0.59130138  1.0
  C  C101  1  0.74280956  0.87142019  0.62857898  1.0
  C  C102  1  0.70808233  0.84281100  0.70057659  1.0
  C  C103  1  0.63870131  0.80832046  0.73430420  1.0
  O  O104  1  0.00000005  0.99999933  0.49999999  1.0
  O  O105  1  0.15336360  0.12763236  0.41320241  1.0
  O  O106  1  0.04035064  0.88469834  0.57495301  1.0
  O  O107  1  0.95914676  0.02570954  0.62765305  1.0
  O  O108  1  0.15336436  0.02571496  0.43343165  1.0
  O  O109  1  0.04083668  0.12763162  0.52572388  1.0
  O  O110  1  0.95964208  0.88468582  0.65566353  1.0
  O  O111  1  0.84663256  0.91320802  0.62763007  1.0
  O  O112  1  0.95965704  0.07496264  0.38468571  1.0
  O  O113  1  0.84664275  0.93345195  0.52569782  1.0
  O  O114  1  0.04035235  0.15565890  0.38468882  1.0
  O  O115  1  0.04083659  0.91319934  0.43343474  1.0
  O  O116  1  0.95915880  0.93344538  0.41319176  1.0
  O  O117  1  0.00000042  0.50000184  0.99999864  1.0
  O  O118  1  0.95915570  0.37237086  0.97427291  1.0
  O  O119  1  0.04035856  0.61531455  0.84433513  1.0
  O  O120  1  0.84663648  0.47428489  0.06656968  1.0
  O  O121  1  0.04084950  0.47429085  0.87234466  1.0
  O  O122  1  0.84663466  0.37236381  0.08681082  1.0
  O  O123  1  0.95965004  0.61530307  0.92504397  1.0
  O  O124  1  0.95914921  0.58680547  0.06655899  1.0
  O  O125  1  0.04034150  0.42504111  0.11531492  1.0
  O  O126  1  0.04083067  0.56656830  0.08679902  1.0
  O  O127  1  0.95965055  0.34434381  0.11530755  1.0
  O  O128  1  0.15336673  0.58680304  0.87236869  1.0
  O  O129  1  0.15335469  0.56655702  0.97430191  1.0
  F  F130  1  0.91476545  0.11544460  0.29933617  1.0
  F  F131  1  0.08523573  0.38455915  0.20066198  1.0
  F  F132  1  0.91476781  0.21410305  0.20067406  1.0
  F  F133  1  0.08523401  0.28590018  0.29932410  1.0
  F  F134  1  0.91477096  0.79932308  0.78591502  1.0
  F  F135  1  0.08523192  0.70067833  0.71408256  1.0
  F  F136  1  0.91477228  0.70066307  0.88457118  1.0
  F  F137  1  0.08523041  0.79933887  0.61542541  1.0
  F  F138  1  0.08421433  0.40826369  0.69615616  1.0
  F  F139  1  0.91577037  0.19617996  0.90826924  1.0
  F  F140  1  0.08417528  0.30383095  0.59172193  1.0
  F  F141  1  0.91578081  0.09173618  0.80384377  1.0
  F  F142  1  0.91578266  0.71962232  0.17594709  1.0
  F  F143  1  0.08423080  0.67598728  0.21958075  1.0
  F  F144  1  0.91578151  0.82404623  0.28038561  1.0
  F  F145  1  0.08418158  0.78035116  0.32407985  1.0
  F  F146  1  0.60442723  0.40826503  0.17594097  1.0
  F  F147  1  0.60443433  0.19617251  0.21963635  1.0
  F  F148  1  0.39556622  0.30381523  0.28042866  1.0
  F  F149  1  0.39557076  0.09173532  0.32406355  1.0
  F  F150  1  0.39555796  0.67594036  0.90828450  1.0
  F  F151  1  0.39557385  0.71965541  0.69616670  1.0
  F  F152  1  0.60442438  0.78040369  0.80382130  1.0
  F  F153  1  0.60444348  0.82406965  0.59171194  1.0
