# generated using pymatgen
data_VH4C8O5
_symmetry_space_group_name_H-M   'P 1'
_cell_length_a   6.78553719
_cell_length_b   13.74445155
_cell_length_c   16.32778599
_cell_angle_alpha   90.00006002
_cell_angle_beta   89.99967792
_cell_angle_gamma   89.99990942
_symmetry_Int_Tables_number   1
_chemical_formula_structural   VH4C8O5
_chemical_formula_sum   'V4 H16 C32 O20'
_cell_volume   1522.78625882
_cell_formula_units_Z   4
loop_
 _symmetry_equiv_pos_site_id
 _symmetry_equiv_pos_as_xyz
  1  'x, y, z'
loop_
 _atom_site_type_symbol
 _atom_site_label
 _atom_site_symmetry_multiplicity
 _atom_site_fract_x
 _atom_site_fract_y
 _atom_site_fract_z
 _atom_site_occupancy
  V  V0  1  0.17760754  0.23357568  0.24999981  1.0
  V  V1  1  0.32222932  0.73364426  0.75000826  1.0
  V  V2  1  0.82225714  0.76635671  0.75000769  1.0
  V  V3  1  0.67756462  0.26642782  0.24999557  1.0
  H  H4  1  0.78829339  0.09890095  0.45597430  1.0
  H  H5  1  0.71181239  0.59936460  0.54394858  1.0
  H  H6  1  0.21193400  0.90051585  0.95614358  1.0
  H  H7  1  0.28837634  0.40123763  0.04412310  1.0
  H  H8  1  0.21194416  0.90051342  0.54386049  1.0
  H  H9  1  0.28836767  0.40123060  0.45587580  1.0
  H  H10  1  0.78830796  0.09888833  0.04402806  1.0
  H  H11  1  0.71180223  0.59935612  0.95604180  1.0
  H  H12  1  0.18166318  0.01547979  0.42513429  1.0
  H  H13  1  0.31852523  0.51616293  0.57464330  1.0
  H  H14  1  0.81845999  0.98394498  0.92526609  1.0
  H  H15  1  0.68153045  0.48440514  0.07479187  1.0
  H  H16  1  0.81845794  0.98395931  0.57473479  1.0
  H  H17  1  0.68153693  0.48441554  0.42519945  1.0
  H  H18  1  0.18166555  0.01547885  0.07487186  1.0
  H  H19  1  0.31853465  0.51617333  0.92535650  1.0
  C  C20  1  0.46696901  0.13205613  0.36373438  1.0
  C  C21  1  0.03294544  0.63226012  0.63623685  1.0
  C  C22  1  0.53289119  0.86774980  0.86375467  1.0
  C  C23  1  0.96693257  0.36795297  0.13628176  1.0
  C  C24  1  0.53290157  0.86775112  0.63625046  1.0
  C  C25  1  0.96692661  0.36795239  0.36371614  1.0
  C  C26  1  0.46696908  0.13205235  0.13626325  1.0
  C  C27  1  0.03295569  0.63225589  0.86376494  1.0
  C  C28  1  0.48326431  0.06379739  0.43386448  1.0
  C  C29  1  0.01673873  0.56421877  0.56600074  1.0
  C  C30  1  0.51678948  0.93577726  0.93400245  1.0
  C  C31  1  0.98329791  0.43620887  0.06614366  1.0
  C  C32  1  0.51680228  0.93577922  0.56600461  1.0
  C  C33  1  0.98329690  0.43621055  0.43385304  1.0
  C  C34  1  0.48327858  0.06379135  0.06613734  1.0
  C  C35  1  0.01674509  0.56421899  0.93400042  1.0
  C  C36  1  0.66341347  0.05492658  0.47567826  1.0
  C  C37  1  0.83667420  0.55538857  0.52418088  1.0
  C  C38  1  0.33673260  0.94454844  0.97585770  1.0
  C  C39  1  0.16343522  0.44515907  0.02438820  1.0
  C  C40  1  0.33674007  0.94454526  0.52414612  1.0
  C  C41  1  0.16344838  0.44515571  0.47561226  1.0
  C  C42  1  0.66342536  0.05491685  0.02432497  1.0
  C  C43  1  0.83667557  0.55538084  0.97580978  1.0
  C  C44  1  0.31997339  0.00830193  0.45849627  1.0
  C  C45  1  0.18022256  0.50890587  0.54127335  1.0
  C  C46  1  0.68018470  0.99113888  0.95868046  1.0
  C  C47  1  0.81988810  0.49161705  0.04144916  1.0
  C  C48  1  0.68018752  0.99114881  0.54131708  1.0
  C  C49  1  0.81989265  0.49162021  0.45854245  1.0
  C  C50  1  0.31998062  0.00830532  0.04151139  1.0
  C  C51  1  0.18023595  0.50890176  0.95872860  1.0
  O  O52  1  0.29526411  0.14883633  0.33466635  1.0
  O  O53  1  0.20458658  0.64904328  0.66530796  1.0
  O  O54  1  0.70459649  0.85095938  0.83471072  1.0
  O  O55  1  0.79526304  0.35116476  0.16531834  1.0
  O  O56  1  0.70461531  0.85096873  0.66529583  1.0
  O  O57  1  0.79526631  0.35116559  0.33467443  1.0
  O  O58  1  0.29526083  0.14884569  0.16533108  1.0
  O  O59  1  0.20457659  0.64904774  0.83469161  1.0
  O  O60  1  0.44955124  0.30641147  0.25000014  1.0
  O  O61  1  0.05033399  0.80651236  0.74999820  1.0
  O  O62  1  0.55028839  0.69348454  0.75000308  1.0
  O  O63  1  0.94956754  0.19357937  0.24999767  1.0
  O  O64  1  0.62722135  0.16971310  0.33731789  1.0
  O  O65  1  0.87254378  0.66973814  0.66272080  1.0
  O  O66  1  0.37256110  0.83024777  0.83727911  1.0
  O  O67  1  0.12723219  0.33028654  0.16268863  1.0
  O  O68  1  0.37256228  0.83024766  0.66271594  1.0
  O  O69  1  0.12722659  0.33028592  0.33731243  1.0
  O  O70  1  0.62722253  0.16970063  0.16268062  1.0
  O  O71  1  0.87254997  0.66974116  0.83727600  1.0
