# generated using pymatgen
data_ZnH10C17N3O4
_symmetry_space_group_name_H-M   'P 1'
_cell_length_a   13.98891880
_cell_length_b   15.14636819
_cell_length_c   15.21361679
_cell_angle_alpha   76.23882658
_cell_angle_beta   86.27444256
_cell_angle_gamma   82.75769583
_symmetry_Int_Tables_number   1
_chemical_formula_structural   ZnH10C17N3O4
_chemical_formula_sum   'Zn4 H40 C68 N12 O16'
_cell_volume   3103.92574510
_cell_formula_units_Z   4
loop_
 _symmetry_equiv_pos_site_id
 _symmetry_equiv_pos_as_xyz
  1  'x, y, z'
loop_
 _atom_site_type_symbol
 _atom_site_label
 _atom_site_symmetry_multiplicity
 _atom_site_fract_x
 _atom_site_fract_y
 _atom_site_fract_z
 _atom_site_occupancy
  Zn  Zn0  1  0.89596936  0.10888087  0.82932347  1.0
  Zn  Zn1  1  0.68971240  0.13097967  0.83602585  1.0
  Zn  Zn2  1  0.10403212  0.89111742  0.17067771  1.0
  Zn  Zn3  1  0.31028733  0.86902137  0.16397282  1.0
  H  H4  1  0.21059035  0.12480083  0.97240060  1.0
  H  H5  1  0.23648318  0.11747802  0.68881783  1.0
  H  H6  1  0.35740053  0.06562504  0.97600317  1.0
  H  H7  1  0.94210648  0.11145511  0.09911732  1.0
  H  H8  1  0.94865692  0.11718283  0.25944148  1.0
  H  H9  1  0.63451458  0.11186350  0.13660350  1.0
  H  H10  1  0.03620176  0.11029642  0.96744016  1.0
  H  H11  1  0.05895730  0.11056314  0.69470873  1.0
  H  H12  1  0.64695625  0.17038426  0.54115762  1.0
  H  H13  1  0.94845551  0.07208080  0.55718431  1.0
  H  H14  1  0.63321510  0.41342877  0.83084383  1.0
  H  H15  1  0.94781196  0.06349989  0.39536600  1.0
  H  H16  1  0.63132719  0.57609609  0.83957337  1.0
  H  H17  1  0.94942493  0.79920931  0.85615083  1.0
  H  H18  1  0.63473135  0.71071381  0.80959907  1.0
  H  H19  1  0.64342522  0.86833312  0.82865847  1.0
  H  H20  1  0.53363719  0.07972370  0.97236494  1.0
  H  H21  1  0.94028052  0.40210015  0.78446710  1.0
  H  H22  1  0.36281722  0.19012508  0.68819100  1.0
  H  H23  1  0.54030713  0.19090415  0.69662714  1.0
  H  H24  1  0.78940740  0.87520499  0.02760103  1.0
  H  H25  1  0.76351718  0.88251754  0.31118404  1.0
  H  H26  1  0.64260000  0.93438143  0.02400011  1.0
  H  H27  1  0.05788879  0.88854120  0.90087810  1.0
  H  H28  1  0.05134186  0.88281413  0.74055556  1.0
  H  H29  1  0.36548108  0.88813550  0.86339850  1.0
  H  H30  1  0.96379584  0.88971078  0.03255853  1.0
  H  H31  1  0.94104258  0.88943037  0.30529299  1.0
  H  H32  1  0.35304133  0.82961680  0.45884117  1.0
  H  H33  1  0.05154192  0.92792163  0.44281417  1.0
  H  H34  1  0.36678838  0.58657089  0.16915363  1.0
  H  H35  1  0.05218633  0.93650115  0.60463472  1.0
  H  H36  1  0.36867636  0.42390289  0.16042292  1.0
  H  H37  1  0.05057782  0.20079034  0.14384996  1.0
  H  H38  1  0.36527213  0.28928586  0.19039773  1.0
  H  H39  1  0.35657618  0.13166589  0.17133663  1.0
  H  H40  1  0.46636358  0.92028074  0.02763617  1.0
  H  H41  1  0.05972454  0.59789810  0.21553585  1.0
  H  H42  1  0.63718139  0.80987322  0.31181100  1.0
  H  H43  1  0.45969109  0.80909759  0.30337211  1.0
  C  C44  1  0.34401033  0.12737251  0.83175267  1.0
  C  C45  1  0.23945198  0.12253632  0.83063031  1.0
  C  C46  1  0.18098672  0.12061917  0.90933501  1.0
  C  C47  1  0.78112061  0.11001590  0.00760908  1.0
  C  C48  1  0.79514440  0.12556160  0.65914681  1.0
  C  C49  1  0.19499034  0.11866002  0.75169970  1.0
  C  C50  1  0.39389048  0.09612657  0.91258775  1.0
  C  C51  1  0.79062660  0.29562401  0.80952115  1.0
  C  C52  1  0.78723352  0.11197339  0.10487644  1.0
  C  C53  1  0.87621450  0.11309747  0.14108253  1.0
  C  C54  1  0.87954502  0.11496111  0.23146091  1.0
  C  C55  1  0.79716124  0.84603096  0.84448919  1.0
  C  C56  1  0.70519651  0.11242630  0.16311651  1.0
  C  C57  1  0.79576773  0.11556114  0.38215854  1.0
  C  C58  1  0.78709632  0.39513512  0.80801934  1.0
  C  C59  1  0.08330855  0.11355760  0.90716243  1.0
  C  C60  1  0.09653900  0.11308948  0.75450353  1.0
  C  C61  1  0.79360982  0.11449866  0.28483021  1.0
  C  C62  1  0.71484370  0.14688219  0.50972519  1.0
  C  C63  1  0.79758496  0.12206191  0.56153477  1.0
  C  C64  1  0.88292030  0.09200984  0.51897982  1.0
  C  C65  1  0.80397943  0.94182061  0.85174971  1.0
  C  C66  1  0.69935684  0.44606724  0.82214341  1.0
  C  C67  1  0.88210265  0.08797572  0.42890753  1.0
  C  C68  1  0.78909264  0.67051296  0.82503421  1.0
  C  C69  1  0.69903221  0.53654377  0.82650381  1.0
  C  C70  1  0.87837388  0.78097271  0.84650677  1.0
  C  C71  1  0.70364997  0.73128631  0.82149749  1.0
  C  C72  1  0.70782006  0.81924411  0.83169171  1.0
  C  C73  1  0.78679143  0.57488577  0.81647608  1.0
  C  C74  1  0.49223601  0.10191692  0.91115106  1.0
  C  C75  1  0.87072118  0.43974259  0.79668847  1.0
  C  C76  1  0.39733827  0.16310474  0.75273465  1.0
  C  C77  1  0.49590958  0.16523291  0.75662224  1.0
  C  C78  1  0.65598883  0.87262715  0.16825030  1.0
  C  C79  1  0.76054726  0.87746267  0.16937084  1.0
  C  C80  1  0.81901286  0.87938324  0.09066401  1.0
  C  C81  1  0.21887450  0.88998175  0.99238998  1.0
  C  C82  1  0.20485143  0.87444219  0.34085276  1.0
  C  C83  1  0.80500899  0.88133828  0.24830226  1.0
  C  C84  1  0.60610981  0.90387582  0.08741321  1.0
  C  C85  1  0.20937192  0.70437496  0.19048333  1.0
  C  C86  1  0.21276350  0.88802630  0.89512270  1.0
  C  C87  1  0.12377917  0.88690020  0.85891596  1.0
  C  C88  1  0.12045295  0.88503653  0.76853799  1.0
  C  C89  1  0.20284167  0.15396732  0.15551125  1.0
  C  C90  1  0.29479828  0.88757408  0.83688391  1.0
  C  C91  1  0.20423151  0.88443785  0.61784129  1.0
  C  C92  1  0.21290873  0.60486314  0.19198427  1.0
  C  C93  1  0.91668959  0.88644480  0.09283864  1.0
  C  C94  1  0.90346071  0.88690539  0.24550052  1.0
  C  C95  1  0.20638871  0.88550034  0.71516966  1.0
  C  C96  1  0.28515539  0.85311816  0.49027631  1.0
  C  C97  1  0.20241103  0.87794052  0.43846380  1.0
  C  C98  1  0.11708007  0.90799187  0.48102129  1.0
  C  C99  1  0.19602356  0.05817699  0.14825088  1.0
  C  C100  1  0.30064965  0.55393102  0.17785749  1.0
  C  C101  1  0.11789486  0.91202602  0.57109045  1.0
  C  C102  1  0.21091083  0.32948670  0.17496391  1.0
  C  C103  1  0.30096911  0.46345589  0.17349640  1.0
  C  C104  1  0.12162808  0.21902763  0.15349259  1.0
  C  C105  1  0.29635343  0.26871404  0.17849916  1.0
  C  C106  1  0.29218270  0.18075556  0.16830513  1.0
  C  C107  1  0.21321197  0.42511457  0.18352189  1.0
  C  C108  1  0.50776491  0.89808615  0.08885036  1.0
  C  C109  1  0.12928077  0.56025775  0.20331286  1.0
  C  C110  1  0.60266011  0.83689562  0.24726623  1.0
  C  C111  1  0.50408935  0.83476881  0.24337829  1.0
  N  N112  1  0.54274477  0.13506841  0.83456359  1.0
  N  N113  1  0.04172344  0.10998106  0.83098314  1.0
  N  N114  1  0.70732706  0.11299200  0.25058928  1.0
  N  N115  1  0.87531720  0.69590696  0.83740209  1.0
  N  N116  1  0.71308760  0.14444472  0.42272658  1.0
  N  N117  1  0.87138778  0.52679554  0.80056229  1.0
  N  N118  1  0.45725560  0.86493331  0.16543686  1.0
  N  N119  1  0.95827755  0.89001518  0.16901854  1.0
  N  N120  1  0.29266989  0.88700836  0.74941168  1.0
  N  N121  1  0.12468556  0.30409271  0.16259541  1.0
  N  N122  1  0.28691070  0.85555633  0.57727151  1.0
  N  N123  1  0.12861490  0.47320481  0.19943572  1.0
  O  O124  1  0.69851371  0.10867761  0.97780819  1.0
  O  O125  1  0.86080822  0.10981889  0.96175114  1.0
  O  O126  1  0.71364461  0.14519912  0.69619812  1.0
  O  O127  1  0.87591958  0.10688989  0.69786801  1.0
  O  O128  1  0.88692394  0.96615876  0.85696013  1.0
  O  O129  1  0.71001494  0.26229158  0.82523964  1.0
  O  O130  1  0.87199467  0.25163779  0.79747382  1.0
  O  O131  1  0.72372564  0.99250725  0.85161443  1.0
  O  O132  1  0.30148355  0.89132004  0.02218943  1.0
  O  O133  1  0.13918783  0.89017671  0.03824900  1.0
  O  O134  1  0.28635418  0.85480398  0.30380012  1.0
  O  O135  1  0.12407936  0.89311183  0.30213384  1.0
  O  O136  1  0.11308105  0.03384020  0.14304069  1.0
  O  O137  1  0.28998916  0.73770874  0.17476158  1.0
  O  O138  1  0.12800991  0.74835844  0.20252766  1.0
  O  O139  1  0.27627775  0.00749309  0.14838353  1.0
