# generated using pymatgen
data_Zn4H20C44Br8O13
_symmetry_space_group_name_H-M   'P 1'
_cell_length_a   24.00882657
_cell_length_b   24.00907690
_cell_length_c   24.00742907
_cell_angle_alpha   66.87755830
_cell_angle_beta   72.32023940
_cell_angle_gamma   107.67621244
_symmetry_Int_Tables_number   1
_chemical_formula_structural   Zn4H20C44Br8O13
_chemical_formula_sum   'Zn8 H40 C88 Br16 O26'
_cell_volume   10620.05088561
_cell_formula_units_Z   2
loop_
 _symmetry_equiv_pos_site_id
 _symmetry_equiv_pos_as_xyz
  1  'x, y, z'
loop_
 _atom_site_type_symbol
 _atom_site_label
 _atom_site_symmetry_multiplicity
 _atom_site_fract_x
 _atom_site_fract_y
 _atom_site_fract_z
 _atom_site_occupancy
  Zn  Zn0  1  0.05635472  0.09909491  0.45720394  1.0
  Zn  Zn1  1  0.05635788  0.95726033  0.48643069  1.0
  Zn  Zn2  1  0.94364042  0.95720174  0.59910417  1.0
  Zn  Zn3  1  0.94365413  0.98644588  0.45724702  1.0
  Zn  Zn4  1  0.94369333  0.40090522  0.04274720  1.0
  Zn  Zn5  1  0.05631300  0.54274814  0.90089420  1.0
  Zn  Zn6  1  0.94369050  0.54278854  0.01356556  1.0
  Zn  Zn7  1  0.05629594  0.51355531  0.04280101  1.0
  H  H8  1  0.92426320  0.20928221  0.90055163  1.0
  H  H9  1  0.07572083  0.40055204  0.70925437  1.0
  H  H10  1  0.92426651  0.09943977  0.79073011  1.0
  H  H11  1  0.07566601  0.29072087  0.59942478  1.0
  H  H12  1  0.07574180  0.67521545  0.21496805  1.0
  H  H13  1  0.92428430  0.71502812  0.17515119  1.0
  H  H14  1  0.07567440  0.78495398  0.32488077  1.0
  H  H15  1  0.92426835  0.82483025  0.28500950  1.0
  H  H16  1  0.60983657  0.20928588  0.21501975  1.0
  H  H17  1  0.60983964  0.40056455  0.17514761  1.0
  H  H18  1  0.39018342  0.09944396  0.32486181  1.0
  H  H19  1  0.39018017  0.29071288  0.28504583  1.0
  H  H20  1  0.39017270  0.71505184  0.70927731  1.0
  H  H21  1  0.39014617  0.67515085  0.90058485  1.0
  H  H22  1  0.60983268  0.82485859  0.59942121  1.0
  H  H23  1  0.60980807  0.78501344  0.79072158  1.0
  H  H24  1  0.85686835  0.09987425  0.31903176  1.0
  H  H25  1  0.90863339  0.06693469  0.34127918  1.0
  H  H26  1  0.91873962  0.10011097  0.25673942  1.0
  H  H27  1  0.08111049  0.40012796  0.24299445  1.0
  H  H28  1  0.09180270  0.43306856  0.15828502  1.0
  H  H29  1  0.14316193  0.39989282  0.18135455  1.0
  H  H30  1  0.91889251  0.17589836  0.18097614  1.0
  H  H31  1  0.90820009  0.24990877  0.15873199  1.0
  H  H32  1  0.85683998  0.17547569  0.24327298  1.0
  H  H33  1  0.14313630  0.32411008  0.25698705  1.0
  H  H34  1  0.09137013  0.25009293  0.34169670  1.0
  H  H35  1  0.08126345  0.32451980  0.31863232  1.0
  H  H36  1  0.85687122  0.75699718  0.82412420  1.0
  H  H37  1  0.90864130  0.84170167  0.75011088  1.0
  H  H38  1  0.91874160  0.81861982  0.82454869  1.0
  H  H39  1  0.08111179  0.68099034  0.67586781  1.0
  H  H40  1  0.09180084  0.65873932  0.74988601  1.0
  H  H41  1  0.14316165  0.74327441  0.67545200  1.0
  H  H42  1  0.91889617  0.74298781  0.90014841  1.0
  H  H43  1  0.90820594  0.65828575  0.93308460  1.0
  H  H44  1  0.85684504  0.68135742  0.89991296  1.0
  H  H45  1  0.14312911  0.81903641  0.59984406  1.0
  H  H46  1  0.09135927  0.84127828  0.56691216  1.0
  H  H47  1  0.08125958  0.75674510  0.60008728  1.0
  C  C48  1  0.18076773  0.09038016  0.40961201  1.0
  C  C49  1  0.99999342  0.86206369  0.63793827  1.0
  C  C50  1  0.99999719  0.09035738  0.59036633  1.0
  C  C51  1  0.81923550  0.90962568  0.59037274  1.0
  C  C52  1  0.00000583  0.13794113  0.36206142  1.0
  C  C53  1  0.99999760  0.90963503  0.40963627  1.0
  C  C54  1  0.00000177  0.40962461  0.90961059  1.0
  C  C55  1  0.00000966  0.63793753  0.86205674  1.0
  C  C56  1  0.81927191  0.40963765  0.09037123  1.0
  C  C57  1  0.99999352  0.59038485  0.09038181  1.0
  C  C58  1  0.99999443  0.36206264  0.13793872  1.0
  C  C59  1  0.18072498  0.59036306  0.90964537  1.0
  C  C60  1  0.00000349  0.19562967  0.30437208  1.0
  C  C61  1  0.99999871  0.30437358  0.19562560  1.0
  C  C62  1  0.95663141  0.17973587  0.27687859  1.0
  C  C63  1  0.04339243  0.32026687  0.22309732  1.0
  C  C64  1  0.95660897  0.23350853  0.22312610  1.0
  C  C65  1  0.04337244  0.26649421  0.27689224  1.0
  C  C66  1  0.99999746  0.80437411  0.69562667  1.0
  C  C67  1  0.00000537  0.69562658  0.80436947  1.0
  C  C68  1  0.95663220  0.77689347  0.76650095  1.0
  C  C69  1  0.04339211  0.72312899  0.73349551  1.0
  C  C70  1  0.95661300  0.72309802  0.82027254  1.0
  C  C71  1  0.04336860  0.77688144  0.67972298  1.0
  C  C72  1  0.99999908  0.37206529  0.87204867  1.0
  C  C73  1  0.95773391  0.29952113  0.90656259  1.0
  C  C74  1  0.95752447  0.26468117  0.87196896  1.0
  C  C75  1  0.99998891  0.30048367  0.80046998  1.0
  C  C76  1  0.04246127  0.37197552  0.76465863  1.0
  C  C77  1  0.04225928  0.40657007  0.79949740  1.0
  C  C78  1  0.99997960  0.26521836  0.76520731  1.0
  C  C79  1  0.99997013  0.23477874  0.73477466  1.0
  C  C80  1  0.99996937  0.19951397  0.69951127  1.0
  C  C81  1  0.95751780  0.12801730  0.73532296  1.0
  C  C82  1  0.95772904  0.09341914  0.70048572  1.0
  C  C83  1  0.99998044  0.12792255  0.62792958  1.0
  C  C84  1  0.04221943  0.20047837  0.59341500  1.0
  C  C85  1  0.04241987  0.23531779  0.62800907  1.0
  C  C86  1  0.00000410  0.62796018  0.12792711  1.0
  C  C87  1  0.04227233  0.63572551  0.15820094  1.0
  C  C88  1  0.04247855  0.67052570  0.19283330  1.0
  C  C89  1  0.00000749  0.69954695  0.19949875  1.0
  C  C90  1  0.95754237  0.69288610  0.17047117  1.0
  C  C91  1  0.95774699  0.65825025  0.13567412  1.0
  C  C92  1  0.99999842  0.73480159  0.23477186  1.0
  C  C93  1  0.99998458  0.76521742  0.26522803  1.0
  C  C94  1  0.99997749  0.80046721  0.30050512  1.0
  C  C95  1  0.04242691  0.80710841  0.32955227  1.0
  C  C96  1  0.04222260  0.84174117  0.36435336  1.0
  C  C97  1  0.99998199  0.87205451  0.37208954  1.0
  C  C98  1  0.95772831  0.86430727  0.34179209  1.0
  C  C99  1  0.95752093  0.82950553  0.30715903  1.0
  C  C100  1  0.74414418  0.37207419  0.12793103  1.0
  C  C101  1  0.70609685  0.29952377  0.15823470  1.0
  C  C102  1  0.63666386  0.26468754  0.19286776  1.0
  C  C103  1  0.60097289  0.30049183  0.19952069  1.0
  C  C104  1  0.63666489  0.37198706  0.17047492  1.0
  C  C105  1  0.70609865  0.40658202  0.13567011  1.0
  C  C106  1  0.53044564  0.26522616  0.23479665  1.0
  C  C107  1  0.46957490  0.23477981  0.26524828  1.0
  C  C108  1  0.39904649  0.19951258  0.30051562  1.0
  C  C109  1  0.36336012  0.12802094  0.32953994  1.0
  C  C110  1  0.29392776  0.09342804  0.36433101  1.0
  C  C111  1  0.25588844  0.12793795  0.37207406  1.0
  C  C112  1  0.29392416  0.20047755  0.34180525  1.0
  C  C113  1  0.36335699  0.23531534  0.30717912  1.0
  C  C114  1  0.25585271  0.62793686  0.87208150  1.0
  C  C115  1  0.29390780  0.65825282  0.79952229  1.0
  C  C116  1  0.36334168  0.69289219  0.76468454  1.0
  C  C117  1  0.39902668  0.69953629  0.80049596  1.0
  C  C118  1  0.36332806  0.67048426  0.87199916  1.0
  C  C119  1  0.29389280  0.63567694  0.90659528  1.0
  C  C120  1  0.46955494  0.73480508  0.76522805  1.0
  C  C121  1  0.53042430  0.76524469  0.73477366  1.0
  C  C122  1  0.60095415  0.80050469  0.69950541  1.0
  C  C123  1  0.63664910  0.82953190  0.62800685  1.0
  C  C124  1  0.70608269  0.86432527  0.59341423  1.0
  C  C125  1  0.74411416  0.87206844  0.62793274  1.0
  C  C126  1  0.70606884  0.84178195  0.70048154  1.0
  C  C127  1  0.63663664  0.80715654  0.73531828  1.0
  C  C128  1  0.90803122  0.10735196  0.30057058  1.0
  C  C129  1  0.09209171  0.39265130  0.19930678  1.0
  C  C130  1  0.90790978  0.20859798  0.19944044  1.0
  C  C131  1  0.09197341  0.29140424  0.30067660  1.0
  C  C132  1  0.90803532  0.80067941  0.79142193  1.0
  C  C133  1  0.09209239  0.69944613  0.70857422  1.0
  C  C134  1  0.90791636  0.69930751  0.89266662  1.0
  C  C135  1  0.09196415  0.80057197  0.60732937  1.0
  Br  Br136  1  0.89605528  0.23894866  0.00328812  1.0
  Br  Br137  1  0.10393586  0.50328584  0.73891203  1.0
  Br  Br138  1  0.89605664  0.99670390  0.76107254  1.0
  Br  Br139  1  0.10386914  0.26106010  0.49668501  1.0
  Br  Br140  1  0.10396854  0.60070949  0.15707439  1.0
  Br  Br141  1  0.89608292  0.65716120  0.10061913  1.0
  Br  Br142  1  0.10387607  0.84281105  0.39941983  1.0
  Br  Br143  1  0.89604695  0.89933926  0.34289925  1.0
  Br  Br144  1  0.74223214  0.23894348  0.15714786  1.0
  Br  Br145  1  0.74223546  0.50329870  0.10061118  1.0
  Br  Br146  1  0.25778589  0.99671083  0.39938878  1.0
  Br  Br147  1  0.25777884  0.26104386  0.34293327  1.0
  Br  Br148  1  0.25778156  0.65717939  0.73892994  1.0
  Br  Br149  1  0.25774494  0.60062271  0.00332003  1.0
  Br  Br150  1  0.74223507  0.89937795  0.49668997  1.0
  Br  Br151  1  0.74220214  0.84287139  0.76106740  1.0
  O  O152  1  0.00000117  0.99999976  0.49999897  1.0
  O  O153  1  0.15153652  0.12556029  0.41537303  1.0
  O  O154  1  0.03974090  0.88615281  0.57497410  1.0
  O  O155  1  0.95914291  0.02591538  0.62557764  1.0
  O  O156  1  0.15154156  0.02598172  0.43305773  1.0
  O  O157  1  0.04086102  0.12555978  0.52592877  1.0
  O  O158  1  0.96023903  0.88527218  0.65360921  1.0
  O  O159  1  0.84845935  0.91540154  0.62555776  1.0
  O  O160  1  0.96031771  0.07498248  0.38608943  1.0
  O  O161  1  0.84846894  0.93307638  0.52596859  1.0
  O  O162  1  0.03969828  0.15360322  0.38533284  1.0
  O  O163  1  0.04084562  0.91527319  0.43322996  1.0
  O  O164  1  0.95916530  0.93324476  0.41525999  1.0
  O  O165  1  0.99999924  0.50000043  0.99999893  1.0
  O  O166  1  0.95905080  0.37445098  0.97401740  1.0
  O  O167  1  0.03894255  0.61390647  0.84638701  1.0
  O  O168  1  0.84850262  0.47407104  0.06678456  1.0
  O  O169  1  0.04095866  0.47403164  0.87442820  1.0
  O  O170  1  0.84850531  0.37442669  0.08473207  1.0
  O  O171  1  0.96108250  0.61466942  0.92502153  1.0
  O  O172  1  0.95904405  0.58461229  0.06692598  1.0
  O  O173  1  0.03889701  0.42502130  0.11469692  1.0
  O  O174  1  0.04093192  0.56691575  0.08462303  1.0
  O  O175  1  0.96108596  0.34640003  0.11388426  1.0
  O  O176  1  0.15149838  0.58471385  0.87443127  1.0
  O  O177  1  0.15148725  0.56677433  0.97408606  1.0
