# generated using pymatgen
data_AlH6C15(ClO2)3
_symmetry_space_group_name_H-M   'P 1'
_cell_length_a   4.03356355
_cell_length_b   17.22744538
_cell_length_c   17.22735202
_cell_angle_alpha   59.99992449
_cell_angle_beta   90.00009752
_cell_angle_gamma   89.99978055
_symmetry_Int_Tables_number   1
_chemical_formula_structural   AlH6C15(ClO2)3
_chemical_formula_sum   'Al2 H12 C30 Cl6 O12'
_cell_volume   1036.71316803
_cell_formula_units_Z   2
loop_
 _symmetry_equiv_pos_site_id
 _symmetry_equiv_pos_as_xyz
  1  'x, y, z'
loop_
 _atom_site_type_symbol
 _atom_site_label
 _atom_site_symmetry_multiplicity
 _atom_site_fract_x
 _atom_site_fract_y
 _atom_site_fract_z
 _atom_site_occupancy
  Al  Al0  1  0.00641854  0.50000092  0.99999823  1.0
  Al  Al1  1  0.99366970  0.16666641  0.66666622  1.0
  H  H2  1  0.72402642  0.46981974  0.41719700  1.0
  H  H3  1  0.28260039  0.46818492  0.41851784  1.0
  H  H4  1  0.27588544  0.55358807  0.24962334  1.0
  H  H5  1  0.71738338  0.55334941  0.24825088  1.0
  H  H6  1  0.72403014  0.11298692  0.96981922  1.0
  H  H7  1  0.28259913  0.11329921  0.96818619  1.0
  H  H8  1  0.27588263  0.19678769  0.05359038  1.0
  H  H9  1  0.71738799  0.19840146  0.05335068  1.0
  H  H10  1  0.72402743  0.91719686  0.61298308  1.0
  H  H11  1  0.28260385  0.91851773  0.61329517  1.0
  H  H12  1  0.27589183  0.74962395  0.69678748  1.0
  H  H13  1  0.71738979  0.74825059  0.69839840  1.0
  C  C14  1  0.50323101  0.63688931  0.93330789  1.0
  C  C15  1  0.50324330  0.42980206  0.13688619  1.0
  C  C16  1  0.50323757  0.43331036  0.92980014  1.0
  C  C17  1  0.49675820  0.23329378  0.52981513  1.0
  C  C18  1  0.49675642  0.23688945  0.73329378  1.0
  C  C19  1  0.49675808  0.02981562  0.73688957  1.0
  C  C20  1  0.50345378  0.28112726  0.42992917  1.0
  C  C21  1  0.49653784  0.37769070  0.23680432  1.0
  C  C22  1  0.50506930  0.37419736  0.38004356  1.0
  C  C23  1  0.50028731  0.28304654  0.28597675  1.0
  C  C24  1  0.49499066  0.42086771  0.28672827  1.0
  C  C25  1  0.49967071  0.23570224  0.38068755  1.0
  C  C26  1  0.50313735  0.45901076  0.38650441  1.0
  C  C27  1  0.49690633  0.51212307  0.28027498  1.0
  C  C28  1  0.50344892  0.28894470  0.78112685  1.0
  C  C29  1  0.49653402  0.38550647  0.87768774  1.0
  C  C30  1  0.50506356  0.24575900  0.87419816  1.0
  C  C31  1  0.50028930  0.43097658  0.78304397  1.0
  C  C32  1  0.49498541  0.29240401  0.92086861  1.0
  C  C33  1  0.49967219  0.38360927  0.73570057  1.0
  C  C34  1  0.50313577  0.15448577  0.95901233  1.0
  C  C35  1  0.49690283  0.20760347  0.01212277  1.0
  C  C36  1  0.50344881  0.92992708  0.78894357  1.0
  C  C37  1  0.49653621  0.73680565  0.88550348  1.0
  C  C38  1  0.50507540  0.88004234  0.74575853  1.0
  C  C39  1  0.50028948  0.78597752  0.93097684  1.0
  C  C40  1  0.49499838  0.78672758  0.79240336  1.0
  C  C41  1  0.49967124  0.88068820  0.88361012  1.0
  C  C42  1  0.50313877  0.88650450  0.65448351  1.0
  C  C43  1  0.49691455  0.78027643  0.70759981  1.0
  Cl  Cl44  1  0.49224011  0.22405079  0.22959873  1.0
  Cl  Cl45  1  0.50775401  0.12033467  0.43711835  1.0
  Cl  Cl46  1  0.49224070  0.54635017  0.72404939  1.0
  Cl  Cl47  1  0.50775349  0.44254719  0.62033333  1.0
  Cl  Cl48  1  0.49223791  0.72959703  0.04635011  1.0
  Cl  Cl49  1  0.50775566  0.93711625  0.94254859  1.0
  O  O50  1  0.27147760  0.41496979  0.98667261  1.0
  O  O51  1  0.27146349  0.59836069  0.91496638  1.0
  O  O52  1  0.27148238  0.48667418  0.09835349  1.0
  O  O53  1  0.74303746  0.48665727  0.91534725  1.0
  O  O54  1  0.74304859  0.41534658  0.09799576  1.0
  O  O55  1  0.74302691  0.59799325  0.98665632  1.0
  O  O56  1  0.25699961  0.06873933  0.75133117  1.0
  O  O57  1  0.25699559  0.17992786  0.56874034  1.0
  O  O58  1  0.25699790  0.25133210  0.67992790  1.0
  O  O59  1  0.72858484  0.06831997  0.68000774  1.0
  O  O60  1  0.72858668  0.18000713  0.75167206  1.0
  O  O61  1  0.72858546  0.25167104  0.56832177  1.0
