# generated using pymatgen
data_CuH6C8N3
_symmetry_space_group_name_H-M   'P 1'
_cell_length_a   32.75928613
_cell_length_b   33.45457087
_cell_length_c   34.84141287
_cell_angle_alpha   90.99651634
_cell_angle_beta   92.35636395
_cell_angle_gamma   91.07552170
_symmetry_Int_Tables_number   1
_chemical_formula_structural   CuH6C8N3
_chemical_formula_sum   'Cu12 H72 C96 N36'
_cell_volume   38139.05724315
_cell_formula_units_Z   12
loop_
 _symmetry_equiv_pos_site_id
 _symmetry_equiv_pos_as_xyz
  1  'x, y, z'
loop_
 _atom_site_type_symbol
 _atom_site_label
 _atom_site_symmetry_multiplicity
 _atom_site_fract_x
 _atom_site_fract_y
 _atom_site_fract_z
 _atom_site_occupancy
  Cu  Cu0  1  0.87750359  0.09549157  0.14860800  1.0
  Cu  Cu1  1  0.85597322  0.12024889  0.06420072  1.0
  Cu  Cu2  1  0.90881015  0.17904360  0.12036730  1.0
  Cu  Cu3  1  0.11634325  0.41280457  0.65533483  1.0
  Cu  Cu4  1  0.14813845  0.37627643  0.57790520  1.0
  Cu  Cu5  1  0.07026754  0.33746928  0.61691597  1.0
  Cu  Cu6  1  0.37925596  0.90583702  0.34917701  1.0
  Cu  Cu7  1  0.34872947  0.86992915  0.42658020  1.0
  Cu  Cu8  1  0.41973519  0.82743867  0.38227632  1.0
  Cu  Cu9  1  0.62269927  0.58682984  0.85412321  1.0
  Cu  Cu10  1  0.66560818  0.62947098  0.92739506  1.0
  Cu  Cu11  1  0.58243412  0.66319765  0.89007753  1.0
  H  H12  1  0.80958379  0.02714037  0.15917305  1.0
  H  H13  1  0.79525022  0.04832959  0.03699410  1.0
  H  H14  1  0.97820801  0.20019791  0.18519494  1.0
  H  H15  1  0.94206349  0.08026746  0.21670634  1.0
  H  H16  1  0.85560338  0.17042752  0.98787446  1.0
  H  H17  1  0.90808088  0.25768732  0.07002653  1.0
  H  H18  1  0.18131689  0.48313669  0.67147943  1.0
  H  H19  1  0.22098384  0.43757712  0.56218696  1.0
  H  H20  1  0.00349519  0.32009580  0.67890268  1.0
  H  H21  1  0.06236533  0.42762098  0.72754657  1.0
  H  H22  1  0.15576071  0.31685879  0.50685193  1.0
  H  H23  1  0.04388264  0.27157402  0.55380577  1.0
  H  H24  1  0.32016019  0.97947405  0.33972682  1.0
  H  H25  1  0.29184813  0.94077181  0.45383672  1.0
  H  H26  1  0.48967914  0.81445826  0.32240083  1.0
  H  H27  1  0.43483310  0.92244756  0.27894656  1.0
  H  H28  1  0.33237933  0.80612273  0.49065811  1.0
  H  H29  1  0.43414462  0.75204493  0.43500408  1.0
  H  H30  1  0.68627030  0.51986357  0.83677589  1.0
  H  H31  1  0.74579546  0.57678655  0.93741241  1.0
  H  H32  1  0.51162414  0.67829994  0.82616358  1.0
  H  H33  1  0.55983751  0.56646619  0.78483815  1.0
  H  H34  1  0.67904542  0.68904014  0.99876538  1.0
  H  H35  1  0.56359400  0.73082084  0.95107954  1.0
  H  H36  1  0.70162611  0.93224265  0.08863168  1.0
  H  H37  1  0.73711040  0.99487435  0.14923154  1.0
  H  H38  1  0.67568750  0.95660040  0.16981380  1.0
  H  H39  1  0.75265741  0.97942970  0.06365703  1.0
  H  H40  1  0.30263937  0.56746279  0.56472191  1.0
  H  H41  1  0.25819643  0.50672362  0.55901846  1.0
  H  H42  1  0.32384071  0.53812012  0.64626711  1.0
  H  H43  1  0.25233649  0.51987181  0.64612835  1.0
  H  H44  1  0.21995845  0.07417396  0.40633922  1.0
  H  H45  1  0.24885851  0.01353390  0.34442093  1.0
  H  H46  1  0.19117995  0.05602628  0.32226345  1.0
  H  H47  1  0.26307750  0.01913868  0.43232373  1.0
  H  H48  1  0.81767268  0.45280114  0.82145283  1.0
  H  H49  1  0.75559864  0.49235380  0.82540179  1.0
  H  H50  1  0.80907335  0.43900862  0.90788567  1.0
  H  H51  1  0.78467347  0.50738952  0.90952807  1.0
  H  H52  1  0.07952161  0.08005387  0.28303167  1.0
  H  H53  1  0.01510412  0.07738288  0.24407226  1.0
  H  H54  1  0.04931885  0.15999087  0.31526265  1.0
  H  H55  1  0.02202123  0.16906057  0.25006308  1.0
  H  H56  1  0.43020200  0.56105209  0.70333128  1.0
  H  H57  1  0.48979811  0.55908831  0.74929038  1.0
  H  H58  1  0.46290444  0.64512666  0.68486419  1.0
  H  H59  1  0.47732013  0.64983704  0.75430999  1.0
  H  H60  1  0.94288258  0.31652634  0.81053975  1.0
  H  H61  1  0.97691556  0.31263824  0.74812945  1.0
  H  H62  1  0.92182943  0.40203801  0.78634599  1.0
  H  H63  1  0.99246652  0.40221895  0.76494233  1.0
  H  H64  1  0.56485619  0.93304159  0.20845497  1.0
  H  H65  1  0.50366589  0.93264763  0.24809798  1.0
  H  H66  1  0.53613000  0.84785392  0.18409532  1.0
  H  H67  1  0.52211287  0.84314581  0.25347858  1.0
  H  H68  1  0.86216808  0.35428649  0.96852123  1.0
  H  H69  1  0.87904851  0.30862747  0.02138702  1.0
  H  H70  1  0.90679559  0.29508243  0.91705138  1.0
  H  H71  1  0.87505007  0.24485789  0.95671535  1.0
  H  H72  1  0.32297655  0.67082385  0.55237615  1.0
  H  H73  1  0.32109231  0.73382309  0.51589697  1.0
  H  H74  1  0.41245953  0.69574510  0.57189339  1.0
  H  H75  1  0.41114613  0.71501675  0.50363474  1.0
  H  H76  1  0.55899909  0.80324911  0.07846150  1.0
  H  H77  1  0.55675135  0.76273746  0.01829700  1.0
  H  H78  1  0.64609929  0.82701661  0.05646706  1.0
  H  H79  1  0.64914877  0.75703219  0.03592406  1.0
  H  H80  1  0.08688954  0.20270964  0.42315253  1.0
  H  H81  1  0.15560526  0.24444975  0.47504488  1.0
  H  H82  1  0.17961587  0.18883009  0.43252035  1.0
  H  H83  1  0.06176494  0.24173252  0.47837062  1.0
  C  C84  1  0.35467139  0.58927453  0.62289903  1.0
  C  C85  1  0.38359568  0.64549087  0.59887424  1.0
  C  C86  1  0.41160854  0.61753372  0.65286134  1.0
  C  C87  1  0.64495750  0.90831674  0.13758460  1.0
  C  C88  1  0.61732836  0.85389596  0.10512199  1.0
  C  C89  1  0.58742834  0.87776401  0.15861400  1.0
  C  C90  1  0.85288992  0.40756710  0.87450568  1.0
  C  C91  1  0.89911521  0.37605794  0.83797627  1.0
  C  C92  1  0.88372024  0.35132006  0.89629631  1.0
  C  C93  1  0.16476734  0.10353914  0.35537199  1.0
  C  C94  1  0.14203605  0.15712731  0.38894909  1.0
  C  C95  1  0.10501313  0.13268348  0.33662935  1.0
  C  C96  1  0.81055176  0.03783293  0.12998027  1.0
  C  C97  1  0.78878241  0.02399199  0.09647491  1.0
  C  C98  1  0.80396032  0.04811599  0.06738358  1.0
  C  C99  1  0.96391779  0.17095851  0.18828587  1.0
  C  C100  1  0.97480457  0.14011381  0.21347743  1.0
  C  C101  1  0.94592802  0.10941993  0.20401400  1.0
  C  C102  1  0.86875470  0.18682058  0.01269919  1.0
  C  C103  1  0.88120610  0.22726229  0.01601522  1.0
  C  C104  1  0.89488190  0.23166514  0.05478004  1.0
  C  C105  1  0.18586424  0.46702509  0.64473155  1.0
  C  C106  1  0.21496465  0.47407772  0.61687530  1.0
  C  C107  1  0.20587289  0.44416194  0.58865157  1.0
  C  C108  1  0.02269139  0.34617884  0.68608653  1.0
  C  C109  1  0.02090595  0.37357623  0.71713269  1.0
  C  C110  1  0.05244627  0.40146072  0.71054371  1.0
  C  C111  1  0.12953000  0.30999724  0.52378714  1.0
  C  C112  1  0.09797573  0.28129220  0.51680912  1.0
  C  C113  1  0.07185857  0.28751139  0.54731607  1.0
  C  C114  1  0.31690795  0.96411945  0.36665301  1.0
  C  C115  1  0.29418839  0.97477283  0.39859207  1.0
  C  C116  1  0.30322803  0.94482303  0.42531715  1.0
  C  C117  1  0.47139484  0.84055582  0.31654612  1.0
  C  C118  1  0.47549439  0.86927969  0.28783605  1.0
  C  C119  1  0.44380748  0.89606059  0.29463919  1.0
  C  C120  1  0.35697241  0.79776991  0.47236525  1.0
  C  C121  1  0.38283619  0.76462898  0.47450446  1.0
  C  C122  1  0.40939701  0.77055917  0.44427454  1.0
  C  C123  1  0.69575977  0.53852127  0.86144724  1.0
  C  C124  1  0.73098688  0.53646112  0.88588707  1.0
  C  C125  1  0.72581775  0.56728991  0.91318872  1.0
  C  C126  1  0.52836975  0.65111821  0.82115150  1.0
  C  C127  1  0.52212210  0.62178629  0.79191670  1.0
  C  C128  1  0.55252866  0.59365178  0.80032108  1.0
  C  C129  1  0.65107805  0.69452583  0.98205306  1.0
  C  C130  1  0.62063665  0.72266832  0.98869850  1.0
  C  C131  1  0.59181492  0.71556750  0.95807559  1.0
  C  C132  1  0.67611670  0.93970122  0.14273260  1.0
  C  C133  1  0.70339658  0.94911110  0.11586656  1.0
  C  C134  1  0.73387438  0.98018633  0.12090007  1.0
  C  C135  1  0.75772181  0.99292265  0.09234086  1.0
  C  C136  1  0.32386747  0.55720605  0.62116463  1.0
  C  C137  1  0.29838364  0.54937893  0.59017256  1.0
  C  C138  1  0.26684743  0.51854573  0.58774998  1.0
  C  C139  1  0.24612753  0.50517445  0.61813066  1.0
  C  C140  1  0.19362507  0.07155179  0.35012846  1.0
  C  C141  1  0.21996579  0.05897111  0.37826414  1.0
  C  C142  1  0.24663419  0.02592111  0.37355400  1.0
  C  C143  1  0.26741147  0.00821225  0.40300730  1.0
  C  C144  1  0.82158801  0.43740470  0.87934919  1.0
  C  C145  1  0.80576423  0.45887094  0.84981049  1.0
  C  C146  1  0.77346321  0.48745131  0.85208650  1.0
  C  C147  1  0.76462441  0.50939540  0.88375372  1.0
  C  C148  1  0.06914821  0.13463275  0.31066369  1.0
  C  C149  1  0.05972866  0.10603183  0.28350381  1.0
  C  C150  1  0.02589700  0.10647460  0.25571028  1.0
  C  C151  1  0.00861033  0.13994464  0.24132730  1.0
  C  C152  1  0.44302084  0.61854693  0.68371374  1.0
  C  C153  1  0.44900077  0.58815004  0.70845331  1.0
  C  C154  1  0.47862247  0.58824901  0.74029245  1.0
  C  C155  1  0.49160160  0.62129845  0.76084403  1.0
  C  C156  1  0.92342969  0.37531063  0.80386250  1.0
  C  C157  1  0.94569334  0.34345150  0.79338194  1.0
  C  C158  1  0.97237782  0.34201458  0.76142478  1.0
  C  C159  1  0.99401721  0.37390669  0.74890555  1.0
  C  C160  1  0.55500754  0.87511490  0.18594407  1.0
  C  C161  1  0.54704123  0.90526304  0.21088746  1.0
  C  C162  1  0.51679372  0.90406678  0.23983497  1.0
  C  C163  1  0.50581843  0.87078784  0.25898180  1.0
  C  C164  1  0.88955258  0.32116130  0.92558270  1.0
  C  C165  1  0.87621369  0.32575452  0.96169730  1.0
  C  C166  1  0.87913682  0.29685381  0.99188737  1.0
  C  C167  1  0.87895505  0.25658845  0.98618262  1.0
  C  C168  1  0.38426249  0.67779843  0.57131363  1.0
  C  C169  1  0.35145779  0.68769454  0.54870537  1.0
  C  C170  1  0.35059728  0.71969524  0.52134626  1.0
  C  C171  1  0.38287701  0.73186198  0.50095521  1.0
  C  C172  1  0.61852740  0.82551179  0.07299527  1.0
  C  C173  1  0.58691755  0.80036118  0.06251113  1.0
  C  C174  1  0.58663279  0.77092203  0.03167967  1.0
  C  C175  1  0.62009289  0.75152533  0.01990531  1.0
  C  C176  1  0.14844690  0.18631643  0.42020476  1.0
  C  C177  1  0.11800449  0.20786484  0.43512816  1.0
  C  C178  1  0.12402075  0.23623506  0.46626140  1.0
  C  C179  1  0.09300808  0.25215798  0.48584607  1.0
  N  N180  1  0.35348217  0.61752298  0.59567605  1.0
  N  N181  1  0.41374028  0.64667553  0.62663776  1.0
  N  N182  1  0.38270333  0.58818287  0.65231671  1.0
  N  N183  1  0.64712693  0.88221520  0.10764009  1.0
  N  N184  1  0.58690409  0.85010590  0.13005232  1.0
  N  N185  1  0.61589263  0.90738778  0.16379752  1.0
  N  N186  1  0.87333461  0.40666587  0.84151706  1.0
  N  N187  1  0.90410385  0.34658739  0.86380577  1.0
  N  N188  1  0.85847585  0.38188870  0.90346736  1.0
  N  N189  1  0.17127172  0.12970781  0.38512817  1.0
  N  N190  1  0.10783606  0.15945795  0.36601410  1.0
  N  N191  1  0.13301525  0.10454411  0.32966160  1.0
  N  N192  1  0.83206525  0.07442758  0.08245335  1.0
  N  N193  1  0.83643879  0.06771534  0.12129354  1.0
  N  N194  1  0.92026663  0.12113490  0.17544786  1.0
  N  N195  1  0.93156845  0.15931288  0.16540173  1.0
  N  N196  1  0.89067115  0.19668857  0.07284805  1.0
  N  N197  1  0.87416569  0.16882228  0.04673110  1.0
  N  N198  1  0.17396001  0.42145326  0.59903959  1.0
  N  N199  1  0.16132613  0.43582022  0.63379228  1.0
  N  N200  1  0.07160660  0.39125168  0.67848473  1.0
  N  N201  1  0.05291203  0.35703629  0.66315390  1.0
  N  N202  1  0.08694855  0.31715163  0.57073056  1.0
  N  N203  1  0.12256020  0.33142624  0.55583793  1.0
  N  N204  1  0.32878026  0.91824683  0.41023884  1.0
  N  N205  1  0.33766163  0.93055750  0.37395389  1.0
  N  N206  1  0.42285248  0.88416423  0.32495379  1.0
  N  N207  1  0.44012738  0.84979221  0.33879406  1.0
  N  N208  1  0.39981102  0.80418754  0.42552189  1.0
  N  N209  1  0.36740194  0.82124851  0.44321034  1.0
  N  N210  1  0.69064356  0.58630631  0.90532811  1.0
  N  N211  1  0.67190940  0.56820764  0.87327495  1.0
  N  N212  1  0.57480428  0.60538581  0.83195459  1.0
  N  N213  1  0.55962541  0.64098278  0.84512681  1.0
  N  N214  1  0.60424154  0.68564267  0.93531813  1.0
  N  N215  1  0.64100538  0.67235728  0.95033338  1.0
