# generated using pymatgen
data_Zn4H48C54O25
_symmetry_space_group_name_H-M   'P 1'
_cell_length_a   17.19508069
_cell_length_b   17.19511077
_cell_length_c   17.19511405
_cell_angle_alpha   92.68112835
_cell_angle_beta   92.68115814
_cell_angle_gamma   92.68120745
_symmetry_Int_Tables_number   1
_chemical_formula_structural   Zn4H48C54O25
_chemical_formula_sum   'Zn8 H96 C108 O50'
_cell_volume   5066.86493670
_cell_formula_units_Z   2
loop_
 _symmetry_equiv_pos_site_id
 _symmetry_equiv_pos_as_xyz
  1  'x, y, z'
loop_
 _atom_site_type_symbol
 _atom_site_label
 _atom_site_symmetry_multiplicity
 _atom_site_fract_x
 _atom_site_fract_y
 _atom_site_fract_z
 _atom_site_occupancy
  Zn  Zn0  1  0.64290335  0.64290290  0.64290429  1.0
  Zn  Zn1  1  0.35709622  0.35709557  0.35709602  1.0
  Zn  Zn2  1  0.78373953  0.64868487  0.77004536  1.0
  Zn  Zn3  1  0.64868617  0.77004341  0.78373887  1.0
  Zn  Zn4  1  0.77004453  0.78373843  0.64868703  1.0
  Zn  Zn5  1  0.21625951  0.35131477  0.22995265  1.0
  Zn  Zn6  1  0.35131398  0.22995507  0.21625972  1.0
  Zn  Zn7  1  0.22995396  0.21626180  0.35131272  1.0
  H  H8  1  0.80994199  0.41224279  0.75791116  1.0
  H  H9  1  0.41224131  0.75791125  0.80994494  1.0
  H  H10  1  0.75791073  0.80994302  0.41224155  1.0
  H  H11  1  0.19005764  0.58775685  0.24208746  1.0
  H  H12  1  0.58775525  0.24208547  0.19005921  1.0
  H  H13  1  0.24208657  0.19005662  0.58775754  1.0
  H  H14  1  0.57124704  0.40831063  0.67390292  1.0
  H  H15  1  0.40831297  0.67390614  0.57125014  1.0
  H  H16  1  0.67390315  0.57124892  0.40831235  1.0
  H  H17  1  0.42875145  0.59168959  0.32609858  1.0
  H  H18  1  0.59168493  0.32609408  0.42875366  1.0
  H  H19  1  0.32609476  0.42875130  0.59168621  1.0
  H  H20  1  0.43730610  0.24129043  0.63727770  1.0
  H  H21  1  0.24128935  0.63727861  0.43730777  1.0
  H  H22  1  0.63727763  0.43730760  0.24129263  1.0
  H  H23  1  0.56269300  0.75871038  0.36272269  1.0
  H  H24  1  0.75870919  0.36272278  0.56269379  1.0
  H  H25  1  0.36272083  0.56269204  0.75870884  1.0
  H  H26  1  0.49291985  0.31893092  0.59654611  1.0
  H  H27  1  0.31892944  0.59654734  0.49292154  1.0
  H  H28  1  0.59654481  0.49291979  0.31893326  1.0
  H  H29  1  0.50707870  0.68107047  0.40345487  1.0
  H  H30  1  0.68106797  0.40345464  0.50708174  1.0
  H  H31  1  0.40345368  0.50708043  0.68106766  1.0
  H  H32  1  0.46354867  0.32788864  0.69573878  1.0
  H  H33  1  0.32788762  0.69574015  0.46354936  1.0
  H  H34  1  0.69573938  0.46354919  0.32789087  1.0
  H  H35  1  0.53644932  0.67211334  0.30426277  1.0
  H  H36  1  0.67211151  0.30426124  0.53645164  1.0
  H  H37  1  0.30425966  0.53645045  0.67211005  1.0
  H  H38  1  0.72265891  0.00998943  0.60223737  1.0
  H  H39  1  0.00999018  0.60223466  0.72266364  1.0
  H  H40  1  0.60223993  0.72265550  0.00998621  1.0
  H  H41  1  0.27734214  0.99001546  0.39775866  1.0
  H  H42  1  0.99000886  0.39776498  0.27733728  1.0
  H  H43  1  0.39776462  0.27733773  0.99001001  1.0
  H  H44  1  0.65055528  0.01407628  0.83747550  1.0
  H  H45  1  0.01407852  0.83747129  0.65055497  1.0
  H  H46  1  0.83747993  0.65055135  0.01407891  1.0
  H  H47  1  0.34944828  0.98592045  0.16251967  1.0
  H  H48  1  0.98592058  0.16252952  0.34944775  1.0
  H  H49  1  0.16252639  0.34944245  0.98592324  1.0
  H  H50  1  0.92617198  0.24831995  0.79960400  1.0
  H  H51  1  0.24831703  0.79960354  0.92617296  1.0
  H  H52  1  0.79960573  0.92617307  0.24831958  1.0
  H  H53  1  0.07382764  0.75167969  0.20039403  1.0
  H  H54  1  0.75168082  0.20039552  0.07382788  1.0
  H  H55  1  0.20039450  0.07382715  0.75167967  1.0
  H  H56  1  0.88091687  0.33358077  0.83659074  1.0
  H  H57  1  0.33357809  0.83659058  0.88091649  1.0
  H  H58  1  0.83659269  0.88091698  0.33358029  1.0
  H  H59  1  0.11908395  0.66641945  0.16340796  1.0
  H  H60  1  0.66641912  0.16340732  0.11908310  1.0
  H  H61  1  0.16340694  0.11908266  0.66641775  1.0
  H  H62  1  0.90758585  0.32647000  0.73672342  1.0
  H  H63  1  0.32646729  0.73672290  0.90758560  1.0
  H  H64  1  0.73672563  0.90758628  0.32647008  1.0
  H  H65  1  0.09241438  0.67353023  0.26327351  1.0
  H  H66  1  0.67352995  0.26327558  0.09241460  1.0
  H  H67  1  0.26327521  0.09241453  0.67352923  1.0
  H  H68  1  0.61663645  0.18255380  0.96235784  1.0
  H  H69  1  0.18255459  0.96235344  0.61663580  1.0
  H  H70  1  0.96235922  0.61663566  0.18255270  1.0
  H  H71  1  0.38336312  0.81744468  0.03764130  1.0
  H  H72  1  0.81744684  0.03764736  0.38336528  1.0
  H  H73  1  0.03764329  0.38336340  0.81744777  1.0
  H  H74  1  0.67745347  0.10310237  0.94030771  1.0
  H  H75  1  0.10310312  0.94030205  0.67745447  1.0
  H  H76  1  0.94030778  0.67745349  0.10310190  1.0
  H  H77  1  0.32254551  0.89689610  0.05969257  1.0
  H  H78  1  0.89689662  0.05969992  0.32254717  1.0
  H  H79  1  0.05969531  0.32254557  0.89689860  1.0
  H  H80  1  0.57560313  0.09591426  0.91090981  1.0
  H  H81  1  0.09591503  0.91090606  0.57560348  1.0
  H  H82  1  0.91090819  0.57560464  0.09591480  1.0
  H  H83  1  0.42439583  0.90408363  0.08909160  1.0
  H  H84  1  0.90408585  0.08909532  0.42439819  1.0
  H  H85  1  0.08909265  0.42439616  0.90408800  1.0
  H  H86  1  0.75314803  0.17345366  0.48046652  1.0
  H  H87  1  0.17345076  0.48046217  0.75314730  1.0
  H  H88  1  0.48046789  0.75314617  0.17345230  1.0
  H  H89  1  0.24685284  0.82654773  0.51953224  1.0
  H  H90  1  0.82654776  0.51953864  0.24685132  1.0
  H  H91  1  0.51953695  0.24685288  0.82654944  1.0
  H  H92  1  0.69535115  0.08639365  0.49598661  1.0
  H  H93  1  0.08639114  0.49598370  0.69534995  1.0
  H  H94  1  0.49598589  0.69535022  0.08639249  1.0
  H  H95  1  0.30464979  0.91360890  0.50401396  1.0
  H  H96  1  0.91360857  0.50401769  0.30464759  1.0
  H  H97  1  0.50401434  0.30465000  0.91360967  1.0
  H  H98  1  0.79430079  0.09771337  0.53509880  1.0
  H  H99  1  0.09771295  0.53509698  0.79429931  1.0
  H  H100  1  0.53509612  0.79429971  0.09771156  1.0
  H  H101  1  0.20569842  0.90228977  0.46490404  1.0
  H  H102  1  0.90228551  0.46490266  0.20569925  1.0
  H  H103  1  0.46490351  0.20569993  0.90228880  1.0
  C  C104  1  0.69747641  0.50305399  0.71249481  1.0
  C  C105  1  0.50305429  0.71249624  0.69748316  1.0
  C  C106  1  0.71249261  0.69748163  0.50305358  1.0
  C  C107  1  0.30252220  0.49694856  0.28750506  1.0
  C  C108  1  0.49694524  0.28750165  0.30252235  1.0
  C  C109  1  0.28750292  0.30251743  0.49694423  1.0
  C  C110  1  0.75185781  0.29665958  0.74217582  1.0
  C  C111  1  0.29665776  0.74217537  0.75185854  1.0
  C  C112  1  0.74217400  0.75185685  0.29665790  1.0
  C  C113  1  0.24814362  0.70334122  0.25782526  1.0
  C  C114  1  0.70333953  0.25782427  0.24814287  1.0
  C  C115  1  0.25782277  0.24814396  0.70334180  1.0
  C  C116  1  0.75677685  0.37786338  0.74085672  1.0
  C  C117  1  0.37786236  0.74085722  0.75678028  1.0
  C  C118  1  0.74085588  0.75677957  0.37786317  1.0
  C  C119  1  0.24322278  0.62213626  0.25914306  1.0
  C  C120  1  0.62213660  0.25914067  0.24322230  1.0
  C  C121  1  0.25914084  0.24322007  0.62213647  1.0
  C  C122  1  0.62073032  0.37585118  0.69316802  1.0
  C  C123  1  0.37585068  0.69317006  0.62073332  1.0
  C  C124  1  0.69316906  0.62073321  0.37585177  1.0
  C  C125  1  0.37926826  0.62415079  0.30683298  1.0
  C  C126  1  0.62414717  0.30682899  0.37926983  1.0
  C  C127  1  0.30682824  0.37926643  0.62414790  1.0
  C  C128  1  0.68183871  0.25404491  0.72002796  1.0
  C  C129  1  0.25404497  0.72002755  0.68184039  1.0
  C  C130  1  0.72002757  0.68183952  0.25404422  1.0
  C  C131  1  0.31816048  0.74595764  0.27997427  1.0
  C  C132  1  0.74595244  0.27997442  0.31816114  1.0
  C  C133  1  0.27997151  0.31816071  0.74595498  1.0
  C  C134  1  0.61634829  0.29450160  0.69591953  1.0
  C  C135  1  0.29450248  0.69592017  0.61634810  1.0
  C  C136  1  0.69591915  0.61634855  0.29450308  1.0
  C  C137  1  0.38365142  0.70549979  0.30408208  1.0
  C  C138  1  0.70549727  0.30408180  0.38365238  1.0
  C  C139  1  0.30407937  0.38365226  0.70549670  1.0
  C  C140  1  0.69105658  0.41658566  0.71583182  1.0
  C  C141  1  0.41658620  0.71583114  0.69105811  1.0
  C  C142  1  0.71582911  0.69105725  0.41658596  1.0
  C  C143  1  0.30894308  0.58341456  0.28416974  1.0
  C  C144  1  0.58341325  0.28416500  0.30894324  1.0
  C  C145  1  0.28416828  0.30894414  0.58341263  1.0
  C  C146  1  0.48265201  0.28754651  0.64976070  1.0
  C  C147  1  0.28754485  0.64976270  0.48265481  1.0
  C  C148  1  0.64976099  0.48265401  0.28754834  1.0
  C  C149  1  0.51734712  0.71245488  0.35023798  1.0
  C  C150  1  0.71245256  0.35023927  0.51734730  1.0
  C  C151  1  0.35023802  0.51734504  0.71245254  1.0
  C  C152  1  0.67956616  0.16775757  0.71956129  1.0
  C  C153  1  0.16775895  0.71955824  0.67956786  1.0
  C  C154  1  0.71956080  0.67956614  0.16775775  1.0
  C  C155  1  0.32043288  0.83224207  0.28043846  1.0
  C  C156  1  0.83223910  0.28044489  0.32043492  1.0
  C  C157  1  0.28044057  0.32043350  0.83224153  1.0
  C  C158  1  0.68743749  0.00561391  0.72004557  1.0
  C  C159  1  0.00561455  0.72004343  0.68743961  1.0
  C  C160  1  0.72004953  0.68743076  0.00560939  1.0
  C  C161  1  0.31256869  0.99438864  0.27994885  1.0
  C  C162  1  0.99438399  0.27995796  0.31256195  1.0
  C  C163  1  0.27995438  0.31256130  0.99438674  1.0
  C  C164  1  0.69974952  0.12485295  0.65242577  1.0
  C  C165  1  0.12485435  0.65242154  0.69975030  1.0
  C  C166  1  0.65242701  0.69974823  0.12485187  1.0
  C  C167  1  0.30025022  0.87514902  0.34757239  1.0
  C  C168  1  0.87514417  0.34757927  0.30025181  1.0
  C  C169  1  0.34757547  0.30025024  0.87514567  1.0
  C  C170  1  0.70492181  0.04401819  0.65261482  1.0
  C  C171  1  0.04401838  0.65261266  0.70492381  1.0
  C  C172  1  0.65261637  0.70491769  0.04401254  1.0
  C  C173  1  0.29508047  0.95598786  0.34738307  1.0
  C  C174  1  0.95597967  0.34739048  0.29507723  1.0
  C  C175  1  0.34738704  0.29507612  0.95598307  1.0
  C  C176  1  0.66431183  0.04641018  0.78669274  1.0
  C  C177  1  0.04640991  0.78669038  0.66431337  1.0
  C  C178  1  0.78669261  0.66430712  0.04640993  1.0
  C  C179  1  0.33569126  0.95358887  0.21330601  1.0
  C  C180  1  0.95358762  0.21331392  0.33568944  1.0
  C  C181  1  0.21330963  0.33568669  0.95358969  1.0
  C  C182  1  0.66198544  0.12757834  0.78629167  1.0
  C  C183  1  0.12757753  0.78628826  0.66198712  1.0
  C  C184  1  0.78629325  0.66198469  0.12757959  1.0
  C  C185  1  0.33801358  0.87242072  0.21370805  1.0
  C  C186  1  0.87242107  0.21371429  0.33801683  1.0
  C  C187  1  0.21371155  0.33801378  0.87242096  1.0
  C  C188  1  0.88566213  0.29342848  0.78529742  1.0
  C  C189  1  0.29342635  0.78529665  0.88566270  1.0
  C  C190  1  0.78529924  0.88566425  0.29342881  1.0
  C  C191  1  0.11433630  0.70657058  0.21470053  1.0
  C  C192  1  0.70657147  0.21470183  0.11433810  1.0
  C  C193  1  0.21469986  0.11433656  0.70656984  1.0
  C  C194  1  0.62768493  0.13583530  0.91933051  1.0
  C  C195  1  0.13583739  0.91932543  0.62768282  1.0
  C  C196  1  0.91933141  0.62768544  0.13583560  1.0
  C  C197  1  0.37231341  0.86416201  0.08066968  1.0
  C  C198  1  0.86416404  0.08067537  0.37231710  1.0
  C  C199  1  0.08067171  0.37231420  0.86416551  1.0
  C  C200  1  0.74084979  0.12845024  0.52167599  1.0
  C  C201  1  0.12844956  0.52167300  0.74084815  1.0
  C  C202  1  0.52167544  0.74084935  0.12844777  1.0
  C  C203  1  0.25915001  0.87155289  0.47832455  1.0
  C  C204  1  0.87154893  0.47832722  0.25915044  1.0
  C  C205  1  0.47832596  0.25915087  0.87155271  1.0
  C  C206  1  0.69646120  0.91982267  0.72120407  1.0
  C  C207  1  0.91982352  0.72120171  0.69646434  1.0
  C  C208  1  0.72120573  0.69645256  0.91982430  1.0
  C  C209  1  0.30354600  0.08017697  0.27879317  1.0
  C  C210  1  0.08017561  0.27879967  0.30353841  1.0
  C  C211  1  0.27879692  0.30353775  0.08017460  1.0
  O  O212  1  0.75988660  0.53750860  0.74276259  1.0
  O  O213  1  0.53750768  0.74275560  0.75988930  1.0
  O  O214  1  0.74274924  0.75988915  0.53750912  1.0
  O  O215  1  0.24011535  0.46249103  0.25723905  1.0
  O  O216  1  0.46249098  0.25723646  0.24011240  1.0
  O  O217  1  0.25724526  0.24011283  0.46249111  1.0
  O  O218  1  0.55078791  0.24903304  0.67545497  1.0
  O  O219  1  0.24903402  0.67545679  0.55078939  1.0
  O  O220  1  0.67545455  0.55079012  0.24903511  1.0
  O  O221  1  0.44920942  0.75096718  0.32454531  1.0
  O  O222  1  0.75096353  0.32454810  0.44921112  1.0
  O  O223  1  0.32454569  0.44921010  0.75096472  1.0
  O  O224  1  0.71525710  0.16818981  0.58993545  1.0
  O  O225  1  0.16819001  0.58993036  0.71525464  1.0
  O  O226  1  0.58993555  0.71525756  0.16818654  1.0
  O  O227  1  0.28474098  0.83181391  0.41006387  1.0
  O  O228  1  0.83181029  0.41007103  0.28474583  1.0
  O  O229  1  0.41006763  0.28474324  0.83180997  1.0
  O  O230  1  0.81305191  0.25295082  0.76392524  1.0
  O  O231  1  0.25294897  0.76392632  0.81305289  1.0
  O  O232  1  0.76392587  0.81305305  0.25294995  1.0
  O  O233  1  0.18694597  0.74704882  0.23607271  1.0
  O  O234  1  0.74704774  0.23607332  0.18694908  1.0
  O  O235  1  0.23607032  0.18694776  0.74704914  1.0
  O  O236  1  0.64424408  0.17371199  0.84964039  1.0
  O  O237  1  0.17371331  0.84963762  0.64424226  1.0
  O  O238  1  0.84964393  0.64424567  0.17371327  1.0
  O  O239  1  0.35575310  0.82628533  0.15035741  1.0
  O  O240  1  0.82628521  0.15036318  0.35576043  1.0
  O  O241  1  0.15035991  0.35575688  0.82628918  1.0
  O  O242  1  0.64058568  0.53614736  0.67919382  1.0
  O  O243  1  0.53614894  0.67919748  0.64058572  1.0
  O  O244  1  0.67919257  0.64058444  0.53614873  1.0
  O  O245  1  0.35941394  0.46385227  0.32080771  1.0
  O  O246  1  0.46384885  0.32080041  0.35941447  1.0
  O  O247  1  0.32080306  0.35941696  0.46385211  1.0
  O  O248  1  0.71210459  0.71210134  0.71210313  1.0
  O  O249  1  0.28789673  0.28789714  0.28789377  1.0
  O  O250  1  0.73617628  0.88977661  0.66750450  1.0
  O  O251  1  0.88977673  0.66749596  0.73618109  1.0
  O  O252  1  0.66751460  0.73616649  0.88977332  1.0
  O  O253  1  0.26383115  0.11022770  0.33248250  1.0
  O  O254  1  0.11022170  0.33250310  0.26382210  1.0
  O  O255  1  0.33249731  0.26382265  0.11022306  1.0
  O  O256  1  0.66493098  0.88331818  0.77578816  1.0
  O  O257  1  0.88331949  0.77578475  0.66493788  1.0
  O  O258  1  0.77579505  0.66491532  0.88332050  1.0
  O  O259  1  0.33508542  0.11667912  0.22420417  1.0
  O  O260  1  0.11667853  0.22421780  0.33506662  1.0
  O  O261  1  0.22421250  0.33506799  0.11667830  1.0
