# generated using pymatgen
data_CoH15C19(NO2)2
_symmetry_space_group_name_H-M   'P 1'
_cell_length_a   15.33893075
_cell_length_b   17.80433206
_cell_length_c   20.64652954
_cell_angle_alpha   103.58641015
_cell_angle_beta   89.99995137
_cell_angle_gamma   89.99995877
_symmetry_Int_Tables_number   1
_chemical_formula_structural   CoH15C19(NO2)2
_chemical_formula_sum   'Co8 H120 C152 N16 O32'
_cell_volume   5480.77004918
_cell_formula_units_Z   8
loop_
 _symmetry_equiv_pos_site_id
 _symmetry_equiv_pos_as_xyz
  1  'x, y, z'
loop_
 _atom_site_type_symbol
 _atom_site_label
 _atom_site_symmetry_multiplicity
 _atom_site_fract_x
 _atom_site_fract_y
 _atom_site_fract_z
 _atom_site_occupancy
  Co  Co0  1  0.42052444  0.30226970  0.04809938  1.0
  Co  Co1  1  0.42052480  0.19772545  0.95189816  1.0
  Co  Co2  1  0.57946310  0.69773623  0.95189935  1.0
  Co  Co3  1  0.57946339  0.80227545  0.04810785  1.0
  Co  Co4  1  0.30960587  0.69457627  0.45803595  1.0
  Co  Co5  1  0.30960569  0.80542841  0.54196702  1.0
  Co  Co6  1  0.69040774  0.30543208  0.54196905  1.0
  Co  Co7  1  0.69040859  0.19456536  0.45802796  1.0
  H  H8  1  0.47031529  0.26008416  0.17250318  1.0
  H  H9  1  0.47031651  0.23991216  0.82749506  1.0
  H  H10  1  0.52964031  0.73995290  0.82749802  1.0
  H  H11  1  0.52964300  0.76004770  0.17250224  1.0
  H  H12  1  0.23460992  0.53312513  0.44946508  1.0
  H  H13  1  0.23461009  0.96687373  0.55053437  1.0
  H  H14  1  0.76541087  0.46691720  0.55054050  1.0
  H  H15  1  0.76541200  0.03308206  0.44946120  1.0
  H  H16  1  0.34091780  0.18276681  0.17856340  1.0
  H  H17  1  0.34091956  0.31722999  0.82143010  1.0
  H  H18  1  0.65907691  0.81722695  0.82146016  1.0
  H  H19  1  0.65907972  0.68277306  0.17853951  1.0
  H  H20  1  0.31038434  0.11008307  0.26467788  1.0
  H  H21  1  0.31038488  0.38991842  0.73531988  1.0
  H  H22  1  0.68960841  0.88988789  0.73532781  1.0
  H  H23  1  0.68961049  0.61011095  0.26467115  1.0
  H  H24  1  0.42281735  0.90611006  0.13626998  1.0
  H  H25  1  0.42282069  0.59388709  0.86373060  1.0
  H  H26  1  0.57717150  0.09387819  0.86370797  1.0
  H  H27  1  0.57717272  0.40612159  0.13629093  1.0
  H  H28  1  0.44889613  0.97772944  0.04994761  1.0
  H  H29  1  0.44890069  0.52226303  0.95004918  1.0
  H  H30  1  0.55108946  0.02228153  0.95004431  1.0
  H  H31  1  0.55109141  0.47772056  0.04995502  1.0
  H  H32  1  0.36984477  0.05721281  0.34130494  1.0
  H  H33  1  0.36984539  0.44278930  0.65869488  1.0
  H  H34  1  0.63015321  0.94276758  0.65868267  1.0
  H  H35  1  0.63015389  0.55723302  0.34131711  1.0
  H  H36  1  0.34473980  0.98349723  0.42828169  1.0
  H  H37  1  0.34474068  0.51650683  0.57171875  1.0
  H  H38  1  0.65525296  0.01648493  0.57170820  1.0
  H  H39  1  0.65525273  0.48351603  0.42829189  1.0
  H  H40  1  0.29850159  0.77744748  0.27598671  1.0
  H  H41  1  0.29850373  0.72255490  0.72401632  1.0
  H  H42  1  0.70150486  0.22252960  0.72400852  1.0
  H  H43  1  0.70150598  0.27747080  0.27599243  1.0
  H  H44  1  0.32226274  0.85042070  0.18874627  1.0
  H  H45  1  0.32226480  0.64957936  0.81125583  1.0
  H  H46  1  0.67774241  0.14955169  0.81124468  1.0
  H  H47  1  0.67774295  0.35044927  0.18875541  1.0
  H  H48  1  0.69826862  0.33605520  0.09190328  1.0
  H  H49  1  0.69826979  0.16393936  0.90809318  1.0
  H  H50  1  0.30172478  0.66395178  0.90809031  1.0
  H  H51  1  0.30172036  0.83604824  0.09190984  1.0
  H  H52  1  0.85925507  0.33249013  0.09519138  1.0
  H  H53  1  0.85925494  0.16750670  0.90480406  1.0
  H  H54  1  0.14073899  0.66751963  0.90479741  1.0
  H  H55  1  0.14073521  0.83247688  0.09519966  1.0
  H  H56  1  0.98179231  0.36441559  0.06472837  1.0
  H  H57  1  0.98179020  0.13558010  0.93526734  1.0
  H  H58  1  0.01820045  0.63558221  0.93526640  1.0
  H  H59  1  0.01820321  0.86441602  0.06473002  1.0
  H  H60  1  0.14339228  0.36231149  0.06678483  1.0
  H  H61  1  0.14339017  0.13768241  0.93320763  1.0
  H  H62  1  0.85659983  0.63768744  0.93320918  1.0
  H  H63  1  0.85660389  0.86231430  0.06679081  1.0
  H  H64  1  0.32643881  0.45215130  0.10524131  1.0
  H  H65  1  0.32643825  0.04784442  0.89475585  1.0
  H  H66  1  0.67357415  0.54792716  0.89475801  1.0
  H  H67  1  0.67357602  0.95207464  0.10524491  1.0
  H  H68  1  0.34983339  0.52880654  0.17532250  1.0
  H  H69  1  0.34983358  0.97118882  0.82467436  1.0
  H  H70  1  0.65017632  0.47126118  0.82468642  1.0
  H  H71  1  0.65017873  0.02874097  0.17531583  1.0
  H  H72  1  0.25453801  0.47273624  0.17525797  1.0
  H  H73  1  0.25453894  0.02726063  0.82473893  1.0
  H  H74  1  0.74546648  0.52733466  0.82473701  1.0
  H  H75  1  0.74546816  0.97266599  0.17526568  1.0
  H  H76  1  0.50187145  0.26145350  0.29460187  1.0
  H  H77  1  0.50187100  0.23854396  0.70539611  1.0
  H  H78  1  0.49811087  0.73860499  0.70540628  1.0
  H  H79  1  0.49811132  0.76139385  0.29459268  1.0
  H  H80  1  0.40350338  0.28976716  0.33887462  1.0
  H  H81  1  0.40350242  0.21022975  0.66112470  1.0
  H  H82  1  0.59647634  0.71029580  0.66112662  1.0
  H  H83  1  0.59647469  0.78970251  0.33887418  1.0
  H  H84  1  0.49437340  0.35288441  0.35145828  1.0
  H  H85  1  0.49437258  0.14711361  0.64853884  1.0
  H  H86  1  0.50560762  0.64717573  0.64854582  1.0
  H  H87  1  0.50560518  0.85282199  0.35145438  1.0
  H  H88  1  0.42944817  0.65247553  0.33753642  1.0
  H  H89  1  0.42944894  0.84752274  0.66246244  1.0
  H  H90  1  0.57054720  0.34758814  0.66247125  1.0
  H  H91  1  0.57054577  0.15241055  0.33753035  1.0
  H  H92  1  0.40146461  0.59871524  0.25611493  1.0
  H  H93  1  0.40146445  0.90128245  0.74388381  1.0
  H  H94  1  0.59854314  0.40135013  0.74389160  1.0
  H  H95  1  0.59854460  0.09865029  0.25611032  1.0
  H  H96  1  0.48735715  0.56626982  0.29930666  1.0
  H  H97  1  0.48735703  0.93372846  0.70069268  1.0
  H  H98  1  0.51265387  0.43380308  0.70070226  1.0
  H  H99  1  0.51265463  0.06619558  0.29929836  1.0
  H  H100  1  0.25886681  0.33241962  0.32593709  1.0
  H  H101  1  0.25886590  0.16757958  0.67406121  1.0
  H  H102  1  0.74113312  0.66762552  0.67406515  1.0
  H  H103  1  0.74113338  0.83237392  0.32593490  1.0
  H  H104  1  0.16768370  0.38481671  0.36587000  1.0
  H  H105  1  0.16768362  0.11518075  0.63412798  1.0
  H  H106  1  0.83232731  0.61524467  0.63413870  1.0
  H  H107  1  0.83232739  0.88475477  0.36586135  1.0
  H  H108  1  0.25534427  0.36237015  0.41433580  1.0
  H  H109  1  0.25534426  0.13762731  0.58566217  1.0
  H  H110  1  0.74466739  0.63768421  0.58566721  1.0
  H  H111  1  0.74466870  0.86231408  0.41433262  1.0
  H  H112  1  0.58656755  0.86303572  0.56481344  1.0
  H  H113  1  0.58657115  0.63696666  0.43518958  1.0
  H  H114  1  0.41344085  0.13695453  0.43520704  1.0
  H  H115  1  0.41344508  0.36304645  0.56479403  1.0
  H  H116  1  0.74877442  0.86483074  0.56437139  1.0
  H  H117  1  0.74877737  0.63517341  0.43563390  1.0
  H  H118  1  0.25123724  0.13516192  0.43565487  1.0
  H  H119  1  0.25124016  0.36484314  0.56434890  1.0
  H  H120  1  0.87060299  0.83324148  0.59477957  1.0
  H  H121  1  0.87060204  0.66676558  0.40522724  1.0
  H  H122  1  0.12941324  0.16676063  0.40522958  1.0
  H  H123  1  0.12941223  0.33324619  0.59477598  1.0
  H  H124  1  0.03232943  0.83501295  0.59281203  1.0
  H  H125  1  0.03232848  0.66499348  0.40719175  1.0
  H  H126  1  0.96768614  0.16499140  0.40719366  1.0
  H  H127  1  0.96768449  0.33501540  0.59281043  1.0
  C  C128  1  0.41497985  0.13377885  0.06051942  1.0
  C  C129  1  0.41498191  0.36621569  0.93947656  1.0
  C  C130  1  0.58500639  0.86623551  0.93949785  1.0
  C  C131  1  0.58500824  0.63376742  0.06050382  1.0
  C  C132  1  0.39710245  0.08537276  0.10889998  1.0
  C  C133  1  0.39710650  0.41462120  0.89109540  1.0
  C  C134  1  0.60289096  0.91463109  0.89110998  1.0
  C  C135  1  0.60289343  0.58537009  0.10889040  1.0
  C  C136  1  0.35881546  0.12200720  0.17007707  1.0
  C  C137  1  0.35881840  0.37798965  0.82991885  1.0
  C  C138  1  0.64118121  0.87798695  0.82993687  1.0
  C  C139  1  0.64118348  0.62201365  0.17006339  1.0
  C  C140  1  0.34220541  0.08114093  0.21824584  1.0
  C  C141  1  0.34220710  0.41885883  0.78175208  1.0
  C  C142  1  0.65778865  0.91884148  0.78175668  1.0
  C  C143  1  0.65779153  0.58115853  0.21824250  1.0
  C  C144  1  0.36442086  0.00246102  0.20703186  1.0
  C  C145  1  0.36442239  0.49753878  0.79296752  1.0
  C  C146  1  0.63557190  0.99751945  0.79296013  1.0
  C  C147  1  0.63557428  0.50247997  0.20703895  1.0
  C  C148  1  0.40269985  0.96632669  0.14572548  1.0
  C  C149  1  0.40270396  0.53367043  0.85427316  1.0
  C  C150  1  0.59729030  0.03366292  0.85426290  1.0
  C  C151  1  0.59729205  0.46633687  0.14573648  1.0
  C  C152  1  0.41814963  0.00681652  0.09673129  1.0
  C  C153  1  0.41815547  0.49317803  0.90326517  1.0
  C  C154  1  0.58183987  0.99318533  0.90326522  1.0
  C  C155  1  0.58184250  0.50681525  0.09673407  1.0
  C  C156  1  0.34797883  0.95926935  0.25858699  1.0
  C  C157  1  0.34797928  0.54073125  0.74141327  1.0
  C  C158  1  0.65201523  0.04070819  0.74140202  1.0
  C  C159  1  0.65201543  0.45929219  0.25859796  1.0
  C  C160  1  0.35260812  0.99613692  0.32674044  1.0
  C  C161  1  0.35260879  0.50386483  0.67325956  1.0
  C  C162  1  0.64738725  0.00384350  0.67324864  1.0
  C  C163  1  0.64738723  0.49615688  0.32675134  1.0
  C  C164  1  0.33871534  0.95530731  0.37553471  1.0
  C  C165  1  0.33871670  0.54469618  0.62446610  1.0
  C  C166  1  0.66127937  0.04467599  0.62445491  1.0
  C  C167  1  0.66127931  0.45532439  0.37554507  1.0
  C  C168  1  0.31976952  0.87606513  0.35726248  1.0
  C  C169  1  0.31977201  0.62393838  0.64273930  1.0
  C  C170  1  0.68022780  0.12391760  0.64272751  1.0
  C  C171  1  0.68022792  0.37608279  0.35727295  1.0
  C  C172  1  0.31381876  0.83892706  0.28957104  1.0
  C  C173  1  0.31382103  0.66107530  0.71043101  1.0
  C  C174  1  0.68618182  0.16105225  0.71042073  1.0
  C  C175  1  0.68618216  0.33894814  0.28957974  1.0
  C  C176  1  0.32768545  0.88001783  0.24108661  1.0
  C  C177  1  0.32768638  0.61998337  0.75891474  1.0
  C  C178  1  0.67231382  0.11996029  0.75890300  1.0
  C  C179  1  0.67231420  0.38004010  0.24109747  1.0
  C  C180  1  0.31101270  0.83061345  0.40875518  1.0
  C  C181  1  0.31101393  0.66939064  0.59124671  1.0
  C  C182  1  0.68899115  0.16937626  0.59123807  1.0
  C  C183  1  0.68899122  0.33062412  0.40876191  1.0
  C  C184  1  0.59070149  0.24999844  0.99999907  1.0
  C  C185  1  0.40928866  0.75000120  0.00000138  1.0
  C  C186  1  0.68779496  0.24999785  0.99999847  1.0
  C  C187  1  0.31219519  0.75000002  0.00000019  1.0
  C  C188  1  0.73435010  0.29790468  0.05202580  1.0
  C  C189  1  0.73435046  0.20209160  0.94797050  1.0
  C  C190  1  0.26564136  0.70209943  0.94796823  1.0
  C  C191  1  0.26563904  0.79789941  0.05203074  1.0
  C  C192  1  0.82493594  0.29684337  0.05269140  1.0
  C  C193  1  0.82493630  0.20315289  0.94730393  1.0
  C  C194  1  0.17505551  0.70316128  0.94730079  1.0
  C  C195  1  0.17505320  0.79683638  0.05269650  1.0
  C  C196  1  0.87250079  0.24999841  0.99999761  1.0
  C  C197  1  0.12749017  0.74999882  0.99999829  1.0
  C  C198  1  0.96898014  0.24999784  0.99999799  1.0
  C  C199  1  0.03101147  0.74999825  0.99999867  1.0
  C  C200  1  0.01642783  0.31351009  0.03694420  1.0
  C  C201  1  0.01642688  0.18648559  0.96305102  1.0
  C  C202  1  0.98356362  0.68648715  0.96305143  1.0
  C  C203  1  0.98356588  0.81351110  0.03694645  1.0
  C  C204  1  0.10710429  0.31321293  0.03768553  1.0
  C  C205  1  0.10710399  0.18678158  0.96230850  1.0
  C  C206  1  0.89288716  0.68678546  0.96231032  1.0
  C  C207  1  0.89288942  0.81321513  0.03768946  1.0
  C  C208  1  0.15339787  0.24999724  0.99999691  1.0
  C  C209  1  0.84659424  0.75000118  0.00000040  1.0
  C  C210  1  0.25054480  0.24999609  0.99999669  1.0
  C  C211  1  0.74944601  0.75000293  0.00000170  1.0
  C  C212  1  0.32327424  0.47003372  0.15971246  1.0
  C  C213  1  0.32327513  0.02996201  0.84028519  1.0
  C  C214  1  0.67673221  0.53003553  0.84028658  1.0
  C  C215  1  0.67673327  0.96996628  0.15971633  1.0
  C  C216  1  0.37203775  0.41463638  0.19014882  1.0
  C  C217  1  0.37203928  0.08536051  0.80984954  1.0
  C  C218  1  0.62795826  0.58542071  0.80984647  1.0
  C  C219  1  0.62795870  0.91458167  0.19015655  1.0
  C  C220  1  0.37917964  0.41216124  0.25842315  1.0
  C  C221  1  0.37918001  0.08783623  0.74157531  1.0
  C  C222  1  0.62082290  0.58790107  0.74157409  1.0
  C  C223  1  0.62082318  0.91209957  0.25842812  1.0
  C  C224  1  0.42846735  0.34581029  0.25863123  1.0
  C  C225  1  0.42846892  0.15418660  0.74136712  1.0
  C  C226  1  0.57152215  0.65424629  0.74136784  1.0
  C  C227  1  0.57152254  0.84575434  0.25863388  1.0
  C  C228  1  0.45835076  0.31062813  0.31358889  1.0
  C  C229  1  0.45835108  0.18936875  0.68640898  1.0
  C  C230  1  0.54163157  0.68943197  0.68641327  1.0
  C  C231  1  0.54163059  0.81056690  0.31358667  1.0
  C  C232  1  0.42302082  0.59415554  0.30580672  1.0
  C  C233  1  0.42302011  0.90584274  0.69419262  1.0
  C  C234  1  0.57698628  0.40590638  0.69420014  1.0
  C  C235  1  0.57698699  0.09409288  0.30580157  1.0
  C  C236  1  0.36103867  0.54783539  0.33617525  1.0
  C  C237  1  0.36103795  0.95216347  0.66382421  1.0
  C  C238  1  0.63897039  0.45222187  0.66382831  1.0
  C  C239  1  0.63897045  0.04777741  0.33617388  1.0
  C  C240  1  0.34303163  0.46723148  0.31600468  1.0
  C  C241  1  0.34303092  0.03276716  0.68399449  1.0
  C  C242  1  0.65697742  0.53282739  0.68399337  1.0
  C  C243  1  0.65697683  0.96717152  0.31600900  1.0
  C  C244  1  0.28352744  0.45229661  0.36290721  1.0
  C  C245  1  0.28352682  0.04770203  0.63709196  1.0
  C  C246  1  0.71648617  0.54775132  0.63709023  1.0
  C  C247  1  0.71648615  0.95224759  0.36291165  1.0
  C  C248  1  0.23903939  0.37944308  0.36788423  1.0
  C  C249  1  0.23903866  0.12055497  0.63211435  1.0
  C  C250  1  0.76097097  0.62060549  0.63211672  1.0
  C  C251  1  0.76097170  0.87939339  0.36788370  1.0
  C  C252  1  0.48029825  0.75000117  0.50000054  1.0
  C  C253  1  0.51971863  0.24999961  0.49999964  1.0
  C  C254  1  0.57741715  0.75000118  0.50000102  1.0
  C  C255  1  0.42259843  0.25000019  0.50000023  1.0
  C  C256  1  0.62355390  0.81372470  0.53683426  1.0
  C  C257  1  0.62355605  0.68627884  0.46316898  1.0
  C  C258  1  0.37645776  0.18627232  0.46317926  1.0
  C  C259  1  0.37646018  0.31372982  0.53682251  1.0
  C  C260  1  0.71419516  0.81387218  0.53655300  1.0
  C  C261  1  0.71419666  0.68613195  0.46345132  1.0
  C  C262  1  0.28581715  0.18612488  0.46346294  1.0
  C  C263  1  0.28581892  0.31387901  0.53654012  1.0
  C  C264  1  0.76159361  0.75000293  0.50000232  1.0
  C  C265  1  0.23842001  0.25000253  0.50000164  1.0
  C  C266  1  0.85793996  0.75000351  0.50000243  1.0
  C  C267  1  0.14207431  0.25000312  0.50000272  1.0
  C  C268  1  0.90522282  0.79728143  0.55258772  1.0
  C  C269  1  0.90522302  0.70272619  0.44741774  1.0
  C  C270  1  0.09479211  0.20272351  0.44741905  1.0
  C  C271  1  0.09479126  0.29728331  0.55258651  1.0
  C  C272  1  0.99585495  0.79803058  0.55228715  1.0
  C  C273  1  0.99585515  0.70197644  0.44771723  1.0
  C  C274  1  0.00415932  0.20197490  0.44771779  1.0
  C  C275  1  0.00415847  0.29803189  0.55228630  1.0
  C  C276  1  0.04196001  0.75000351  0.50000243  1.0
  C  C277  1  0.95805427  0.25000311  0.50000224  1.0
  C  C278  1  0.13914344  0.75000408  0.50000206  1.0
  C  C279  1  0.86086953  0.25000194  0.50000105  1.0
  N  N280  1  0.41466794  0.35436207  0.15197914  1.0
  N  N281  1  0.41466993  0.14563367  0.84801900  1.0
  N  N282  1  0.58531178  0.64568296  0.84801775  1.0
  N  N283  1  0.58531175  0.85432000  0.15198538  1.0
  N  N284  1  0.44911165  0.31459655  0.19425132  1.0
  N  N285  1  0.44911432  0.18539919  0.80574682  1.0
  N  N286  1  0.55086350  0.68544852  0.80574752  1.0
  N  N287  1  0.55086344  0.81455325  0.19425394  1.0
  N  N288  1  0.31525898  0.57964874  0.39118050  1.0
  N  N289  1  0.31525910  0.92035070  0.60881906  1.0
  N  N290  1  0.68475464  0.42039824  0.60882742  1.0
  N  N291  1  0.68475582  0.07960102  0.39117429  1.0
  N  N292  1  0.26904002  0.52129308  0.40626049  1.0
  N  N293  1  0.26903942  0.97870578  0.59373896  1.0
  N  N294  1  0.73097947  0.47875039  0.59374435  1.0
  N  N295  1  0.73098007  0.02124829  0.40625677  1.0
  O  O296  1  0.42774532  0.20542323  0.08731228  1.0
  O  O297  1  0.42774495  0.29457075  0.91268407  1.0
  O  O298  1  0.57220963  0.79459466  0.91270856  1.0
  O  O299  1  0.57221260  0.70540772  0.08729398  1.0
  O  O300  1  0.41516265  0.10580936  0.99782764  1.0
  O  O301  1  0.41516420  0.39418520  0.00216882  1.0
  O  O302  1  0.58484966  0.89420499  0.00218915  1.0
  O  O303  1  0.58484877  0.60579908  0.99781226  1.0
  O  O304  1  0.30467969  0.86702328  0.46969520  1.0
  O  O305  1  0.30468047  0.63298023  0.53030658  1.0
  O  O306  1  0.69532545  0.13297043  0.53029686  1.0
  O  O307  1  0.69532468  0.36703053  0.46970323  1.0
  O  O308  1  0.31278865  0.75689716  0.38931995  1.0
  O  O309  1  0.31278841  0.74310693  0.61068194  1.0
  O  O310  1  0.68722106  0.24309261  0.61067670  1.0
  O  O311  1  0.68722390  0.25690776  0.38932279  1.0
  O  O312  1  0.55125194  0.30066548  0.04452045  1.0
  O  O313  1  0.55125294  0.19933083  0.95547731  1.0
  O  O314  1  0.44873821  0.69932509  0.95548750  1.0
  O  O315  1  0.44873656  0.80067786  0.04451515  1.0
  O  O316  1  0.28990256  0.29908584  0.04574666  1.0
  O  O317  1  0.28990226  0.20090577  0.95424634  1.0
  O  O318  1  0.71008693  0.70092339  0.95424445  1.0
  O  O319  1  0.71008919  0.79908305  0.04575982  1.0
  O  O320  1  0.44139342  0.69352219  0.46139769  1.0
  O  O321  1  0.44139323  0.80648014  0.53860241  1.0
  O  O322  1  0.55862281  0.30647581  0.53860729  1.0
  O  O323  1  0.55862299  0.19352398  0.46139210  1.0
  O  O324  1  0.17809605  0.69579462  0.45860517  1.0
  O  O325  1  0.17809457  0.80421468  0.54139868  1.0
  O  O326  1  0.82191561  0.30421083  0.54139831  1.0
  O  O327  1  0.82191775  0.19579246  0.45860318  1.0
