# generated using pymatgen
data_Zn2H17C28N3O10
_symmetry_space_group_name_H-M   'P 1'
_cell_length_a   9.72686128
_cell_length_b   11.12930558
_cell_length_c   14.22828105
_cell_angle_alpha   93.64853914
_cell_angle_beta   98.66177233
_cell_angle_gamma   91.23645012
_symmetry_Int_Tables_number   1
_chemical_formula_structural   Zn2H17C28N3O10
_chemical_formula_sum   'Zn2 H17 C28 N3 O10'
_cell_volume   1518.84541890
_cell_formula_units_Z   1
loop_
 _symmetry_equiv_pos_site_id
 _symmetry_equiv_pos_as_xyz
  1  'x, y, z'
loop_
 _atom_site_type_symbol
 _atom_site_label
 _atom_site_symmetry_multiplicity
 _atom_site_fract_x
 _atom_site_fract_y
 _atom_site_fract_z
 _atom_site_occupancy
  Zn  Zn0  1  0.86355057  0.49377671  0.52586247  1.0
  Zn  Zn1  1  0.13419178  0.49867231  0.48546395  1.0
  H  H2  1  0.24837051  0.25025292  0.08493253  1.0
  H  H3  1  0.07887349  0.51897878  0.17615944  1.0
  H  H4  1  0.79835732  0.51736114  0.87371911  1.0
  H  H5  1  0.04771599  0.27605928  0.96058565  1.0
  H  H6  1  0.94959923  0.35222798  0.80350161  1.0
  H  H7  1  0.34847631  0.49877615  0.77303552  1.0
  H  H8  1  0.48847845  0.29150509  0.15243909  1.0
  H  H9  1  0.55008280  0.48727858  0.81135370  1.0
  H  H10  1  0.98653079  0.52970083  0.00287551  1.0
  H  H11  1  0.19216270  0.11151829  0.50091684  1.0
  H  H12  1  0.87281585  0.08560728  0.47549906  1.0
  H  H13  1  0.18347087  0.88728569  0.47116972  1.0
  H  H14  1  0.90164734  0.90075905  0.54420350  1.0
  H  H15  1  0.61579643  0.33735295  0.43981456  1.0
  H  H16  1  0.60642956  0.58057680  0.52979837  1.0
  H  H17  1  0.36595267  0.38616628  0.37238641  1.0
  H  H18  1  0.39872994  0.53236814  0.55349192  1.0
  C  C19  1  0.99466473  0.72875992  0.51315793  1.0
  C  C20  1  0.08795711  0.47504243  0.68596380  1.0
  C  C21  1  0.98046215  0.26157842  0.49332894  1.0
  C  C22  1  0.93670105  0.48015975  0.31733463  1.0
  C  C23  1  0.14586924  0.43093574  0.78090705  1.0
  C  C24  1  0.88062862  0.46704372  0.21245137  1.0
  C  C25  1  0.11383230  0.32508805  0.91952559  1.0
  C  C26  1  0.05897144  0.36731698  0.83319970  1.0
  C  C27  1  0.28628259  0.44922873  0.81597782  1.0
  C  C28  1  0.34565813  0.40774761  0.90432160  1.0
  C  C29  1  0.25631651  0.34548989  0.95739237  1.0
  C  C30  1  0.49170036  0.42721700  0.94294316  1.0
  C  C31  1  0.54204836  0.39727526  0.03753246  1.0
  C  C32  1  0.45025720  0.32963352  0.08547818  1.0
  C  C33  1  0.31438361  0.30382563  0.04677721  1.0
  C  C34  1  0.58713292  0.47139285  0.88544304  1.0
  C  C35  1  0.72541481  0.48878153  0.91978547  1.0
  C  C36  1  0.77741340  0.47378123  0.01720276  1.0
  C  C37  1  0.68458191  0.43274925  0.07883150  1.0
  C  C38  1  0.91892049  0.50198042  0.05264224  1.0
  C  C39  1  0.97034886  0.49670514  0.14775159  1.0
  C  C40  1  0.74223926  0.43543621  0.17696906  1.0
  C  C41  1  0.09204032  0.06258933  0.49411335  1.0
  C  C42  1  0.97647463  0.12833578  0.48642267  1.0
  C  C43  1  0.09296906  0.93212848  0.49247733  1.0
  C  C44  1  0.99160189  0.86189303  0.51765168  1.0
  C  C45  1  0.56998598  0.42053967  0.46427437  1.0
  C  C46  1  0.41804567  0.43348443  0.43835123  1.0
  N  N47  1  0.65149707  0.50077982  0.51338905  1.0
  N  N48  1  0.34478663  0.49406585  0.49063857  1.0
  N  N49  1  0.65153394  0.40570795  0.24747702  1.0
  O  O50  1  0.89115906  0.67521813  0.54046028  1.0
  O  O51  1  0.09702815  0.67727471  0.48289997  1.0
  O  O52  1  0.95605918  0.46629637  0.66165415  1.0
  O  O53  1  0.17389350  0.51548180  0.63545343  1.0
  O  O54  1  0.86342019  0.31119581  0.49560107  1.0
  O  O55  1  0.09740120  0.31754876  0.49770853  1.0
  O  O56  1  0.85045415  0.50395655  0.37384903  1.0
  O  O57  1  0.06735732  0.46959551  0.34049185  1.0
  O  O58  1  0.56375764  0.47940833  0.26510239  1.0
  O  O59  1  0.66555999  0.30590818  0.28123342  1.0
