# generated using pymatgen
data_AlH27C45(SO4)6
_symmetry_space_group_name_H-M   'P 1'
_cell_length_a   4.30924073
_cell_length_b   23.31129989
_cell_length_c   23.33920225
_cell_angle_alpha   60.13697365
_cell_angle_beta   88.33813282
_cell_angle_gamma   88.64894270
_symmetry_Int_Tables_number   1
_chemical_formula_structural   AlH27C45(SO4)6
_chemical_formula_sum   'Al1 H27 C45 S6 O24'
_cell_volume   2032.23918979
_cell_formula_units_Z   1
loop_
 _symmetry_equiv_pos_site_id
 _symmetry_equiv_pos_as_xyz
  1  'x, y, z'
loop_
 _atom_site_type_symbol
 _atom_site_label
 _atom_site_symmetry_multiplicity
 _atom_site_fract_x
 _atom_site_fract_y
 _atom_site_fract_z
 _atom_site_occupancy
  Al  Al0  1  0.84827764  0.50030531  0.50073485  1.0
  H  H1  1  0.49570060  0.33545935  0.67030343  1.0
  H  H2  1  0.57973682  0.21632568  0.74252766  1.0
  H  H3  1  0.27713954  0.97724324  0.84801558  1.0
  H  H4  1  0.36331014  0.73664786  0.18546941  1.0
  H  H5  1  0.77226408  0.75387697  0.11524402  1.0
  H  H6  1  0.81655922  0.82102535  0.99474162  1.0
  H  H7  1  0.57128814  0.88816144  0.90161990  1.0
  H  H8  1  0.50917413  0.49560024  0.33500265  1.0
  H  H9  1  0.58922325  0.54206822  0.21570734  1.0
  H  H10  1  0.28642988  0.67608789  0.97768197  1.0
  H  H11  1  0.30933103  0.58219200  0.73570790  1.0
  H  H12  1  0.74252082  0.62906276  0.75293855  1.0
  H  H13  1  0.79688509  0.68225074  0.82007079  1.0
  H  H14  1  0.54823211  0.71107624  0.88773385  1.0
  H  H15  1  0.50741820  0.66901955  0.49629316  1.0
  H  H16  1  0.58658069  0.74114851  0.54334516  1.0
  H  H17  1  0.26335941  0.84893501  0.67821795  1.0
  H  H18  1  0.38669944  0.18441255  0.57997113  1.0
  H  H19  1  0.79358142  0.11527179  0.63132082  1.0
  H  H20  1  0.83752365  0.99448278  0.68452827  1.0
  H  H21  1  0.55813429  0.90163547  0.71111246  1.0
  H  H22  1  0.77378140  0.45115681  0.69382688  1.0
  H  H23  1  0.84758644  0.35864997  0.44939828  1.0
  H  H24  1  0.81596891  0.69276335  0.36022974  1.0
  H  H25  1  0.62727320  0.86848043  0.55549495  1.0
  H  H26  1  0.63928570  0.08149730  0.86684222  1.0
  H  H27  1  0.67298297  0.55309622  0.08126403  1.0
  C  C28  1  0.36016955  0.40175219  0.54239095  1.0
  C  C29  1  0.33808803  0.54255273  0.55722054  1.0
  C  C30  1  0.36052512  0.55723165  0.40223130  1.0
  C  C31  1  0.47573989  0.30218976  0.65039479  1.0
  C  C32  1  0.51811203  0.23450346  0.69158870  1.0
  C  C33  1  0.38118085  0.07569753  0.77145165  1.0
  C  C34  1  0.39923829  0.00687878  0.80105332  1.0
  C  C35  1  0.37318080  0.65763720  0.28554080  1.0
  C  C36  1  0.40628006  0.68387648  0.21743310  1.0
  C  C37  1  0.66387118  0.73671160  0.08493832  1.0
  C  C38  1  0.68739529  0.77495564  0.01663460  1.0
  C  C39  1  0.40668511  0.32836131  0.58367038  1.0
  C  C40  1  0.48496818  0.19045658  0.66764744  1.0
  C  C41  1  0.51521517  0.11743300  0.70819069  1.0
  C  C42  1  0.55834756  0.97587368  0.77066852  1.0
  C  C43  1  0.56581346  0.90303331  0.80279728  1.0
  C  C44  1  0.56780046  0.86405059  0.87185047  1.0
  C  C45  1  0.48180526  0.54874068  0.30203294  1.0
  C  C46  1  0.52191948  0.57503374  0.23422800  1.0
  C  C47  1  0.38581155  0.65413486  0.07577746  1.0
  C  C48  1  0.40208767  0.69335093  0.00704528  1.0
  C  C49  1  0.32705894  0.56031969  0.65689221  1.0
  C  C50  1  0.36036061  0.60186745  0.68326020  1.0
  C  C51  1  0.63680527  0.67762217  0.73642636  1.0
  C  C52  1  0.66556986  0.70754315  0.77460607  1.0
  C  C53  1  0.40553675  0.58940134  0.32874129  1.0
  C  C54  1  0.47977841  0.64297423  0.19057835  1.0
  C  C55  1  0.51020303  0.67538571  0.11755914  1.0
  C  C56  1  0.55191279  0.75437990  0.97595502  1.0
  C  C57  1  0.56126247  0.79486958  0.90316683  1.0
  C  C58  1  0.55462156  0.76485265  0.86399438  1.0
  C  C59  1  0.46629800  0.64991783  0.54902762  1.0
  C  C60  1  0.50657253  0.69104661  0.57550891  1.0
  C  C61  1  0.35624087  0.77178407  0.65546103  1.0
  C  C62  1  0.37778542  0.80127553  0.69462179  1.0
  C  C63  1  0.38593937  0.28477652  0.55889496  1.0
  C  C64  1  0.42063088  0.21675314  0.60046129  1.0
  C  C65  1  0.67855506  0.08487637  0.67909460  1.0
  C  C66  1  0.70226259  0.01651117  0.70903569  1.0
  C  C67  1  0.37470093  0.58416212  0.58908485  1.0
  C  C68  1  0.44867696  0.66795530  0.64293286  1.0
  C  C69  1  0.48096604  0.70796682  0.67577872  1.0
  C  C70  1  0.53306475  0.77014710  0.75462985  1.0
  C  C71  1  0.55208863  0.80258213  0.79492238  1.0
  C  C72  1  0.56003894  0.87171216  0.76487985  1.0
  S  S73  1  0.21718677  0.47758411  0.71419285  1.0
  S  S74  1  0.29711303  0.31126244  0.47517367  1.0
  S  S75  1  0.26705376  0.71474558  0.31266523  1.0
  S  S76  1  0.16767433  0.82252857  0.57890370  1.0
  S  S77  1  0.18009291  0.10355357  0.82122773  1.0
  S  S78  1  0.20236648  0.57652225  0.10348016  1.0
  O  O79  1  0.57631146  0.56488485  0.43393793  1.0
  O  O80  1  0.58230404  0.43381484  0.50273361  1.0
  O  O81  1  0.56094412  0.50266410  0.56470921  1.0
  O  O82  1  0.11548113  0.52346468  0.42565696  1.0
  O  O83  1  0.09388253  0.55270562  0.52426904  1.0
  O  O84  1  0.10863194  0.42478950  0.55280490  1.0
  O  O85  1  0.48789803  0.43376319  0.72861358  1.0
  O  O86  1  0.06157145  0.47714973  0.76964755  1.0
  O  O87  1  0.00158108  0.45975291  0.67372241  1.0
  O  O88  1  0.57177017  0.34006587  0.43280035  1.0
  O  O89  1  0.15673334  0.25715550  0.47300728  1.0
  O  O90  1  0.07217676  0.37031541  0.45686354  1.0
  O  O91  1  0.53380916  0.72811729  0.34131419  1.0
  O  O92  1  0.11983368  0.77099718  0.25904025  1.0
  O  O93  1  0.04411541  0.67404660  0.37190845  1.0
  O  O94  1  0.43464376  0.86636808  0.53191968  1.0
  O  O95  1  0.04107345  0.78510997  0.55173841  1.0
  O  O96  1  0.94675289  0.86581581  0.58910960  1.0
  O  O97  1  0.43842583  0.10712628  0.86467408  1.0
  O  O98  1  0.04451891  0.16812820  0.78304778  1.0
  O  O99  1  0.96382448  0.05097826  0.86492878  1.0
  O  O100  1  0.47382728  0.52969044  0.10685608  1.0
  O  O101  1  0.06259775  0.55027760  0.16803610  1.0
  O  O102  1  0.99323740  0.58511809  0.05096732  1.0
