# generated using pymatgen
data_Zn4H9C24O13F3
_symmetry_space_group_name_H-M   'P 1'
_cell_length_a   14.32965398
_cell_length_b   15.65666439
_cell_length_c   16.46303395
_cell_angle_alpha   67.69397055
_cell_angle_beta   66.22121860
_cell_angle_gamma   64.25278775
_symmetry_Int_Tables_number   1
_chemical_formula_structural   Zn4H9C24O13F3
_chemical_formula_sum   'Zn8 H18 C48 O26 F6'
_cell_volume   2949.34482533
_cell_formula_units_Z   2
loop_
 _symmetry_equiv_pos_site_id
 _symmetry_equiv_pos_as_xyz
  1  'x, y, z'
loop_
 _atom_site_type_symbol
 _atom_site_label
 _atom_site_symmetry_multiplicity
 _atom_site_fract_x
 _atom_site_fract_y
 _atom_site_fract_z
 _atom_site_occupancy
  Zn  Zn0  1  0.86465086  0.15452809  0.99630861  1.0
  Zn  Zn1  1  0.03727212  0.94966868  0.08267409  1.0
  Zn  Zn2  1  0.90840063  0.94136075  0.97340866  1.0
  Zn  Zn3  1  0.79106749  0.98461418  0.16894484  1.0
  Zn  Zn4  1  0.47178236  0.37124034  0.53994356  1.0
  Zn  Zn5  1  0.25936683  0.54257568  0.63969864  1.0
  Zn  Zn6  1  0.37129243  0.57085119  0.42665478  1.0
  Zn  Zn7  1  0.50556208  0.54588180  0.55778819  1.0
  H  H8  1  0.45924900  0.20587121  0.80313634  1.0
  H  H9  1  0.12077055  0.28566412  0.82871802  1.0
  H  H10  1  0.26417868  0.04816067  0.03144064  1.0
  H  H11  1  0.80792619  0.22485089  0.49948513  1.0
  H  H12  1  0.69742354  0.30282227  0.75623890  1.0
  H  H13  1  0.96050906  0.03473079  0.71183111  1.0
  H  H14  1  0.27890631  0.43268889  0.30039113  1.0
  H  H15  1  0.61669616  0.27277488  0.28164429  1.0
  H  H16  1  0.47109714  0.25551880  0.10573889  1.0
  H  H17  1  0.50999206  0.60416887  0.76258588  1.0
  H  H18  1  0.16370866  0.74523751  0.81897706  1.0
  H  H19  1  0.33554614  0.76644337  0.97019214  1.0
  H  H20  1  0.98262070  0.79542229  0.61742895  1.0
  H  H21  1  0.10975788  0.77724007  0.33556688  1.0
  H  H22  1  0.79741669  0.98740184  0.42626198  1.0
  H  H23  1  0.71064413  0.47981035  0.24389809  1.0
  H  H24  1  0.65779820  0.75365992  0.29044541  1.0
  H  H25  1  0.89866795  0.66324062  0.04942349  1.0
  C  C26  1  0.36788311  0.12531631  0.92251307  1.0
  C  C27  1  0.38080790  0.19609934  0.84061654  1.0
  C  C28  1  0.29073020  0.25477606  0.80736519  1.0
  C  C29  1  0.19066142  0.24036047  0.85465683  1.0
  C  C30  1  0.18215157  0.16398822  0.93414079  1.0
  C  C31  1  0.27114653  0.10676758  0.96927049  1.0
  C  C32  1  0.08192768  0.13590336  0.98172263  1.0
  C  C33  1  0.30833448  0.33102988  0.71911287  1.0
  C  C34  1  0.89560801  0.12805804  0.59836323  1.0
  C  C35  1  0.81581865  0.20993171  0.56697954  1.0
  C  C36  1  0.74393533  0.27267089  0.62464629  1.0
  C  C37  1  0.75294544  0.25322018  0.71217992  1.0
  C  C38  1  0.82943158  0.16600442  0.74404841  1.0
  C  C39  1  0.90172532  0.10292191  0.68675160  1.0
  C  C40  1  0.83492164  0.13023657  0.84098503  1.0
  C  C41  1  0.65323252  0.35529421  0.59162220  1.0
  C  C42  1  0.36803016  0.34654301  0.20022609  1.0
  C  C43  1  0.35641702  0.38376369  0.26914990  1.0
  C  C44  1  0.44681667  0.35538909  0.29892821  1.0
  C  C45  1  0.54722553  0.29397638  0.25767895  1.0
  C  C46  1  0.55640429  0.25986370  0.18680055  1.0
  C  C47  1  0.46598980  0.28447991  0.15855766  1.0
  C  C48  1  0.66089764  0.18920234  0.14445200  1.0
  C  C49  1  0.43292310  0.39272395  0.37540517  1.0
  C  C50  1  0.43074135  0.68090117  0.86978705  1.0
  C  C51  1  0.43381804  0.64729329  0.80171893  1.0
  C  C52  1  0.33649840  0.66971323  0.78445659  1.0
  C  C53  1  0.23908065  0.72713228  0.83298157  1.0
  C  C54  1  0.23955821  0.76372936  0.89835938  1.0
  C  C55  1  0.33570219  0.73921581  0.91836128  1.0
  C  C56  1  0.13824059  0.83175349  0.94602398  1.0
  C  C57  1  0.34276034  0.63190002  0.71090658  1.0
  C  C58  1  0.88505220  0.89736412  0.52674662  1.0
  C  C59  1  0.97505081  0.82070413  0.54826862  1.0
  C  C60  1  0.05628014  0.77730218  0.47846431  1.0
  C  C61  1  0.04603589  0.81055042  0.38972101  1.0
  C  C62  1  0.95225171  0.88482467  0.37137803  1.0
  C  C63  1  0.87044211  0.92927953  0.44034253  1.0
  C  C64  1  0.93795917  0.91585097  0.27833919  1.0
  C  C65  1  0.15434267  0.69430434  0.49827923  1.0
  C  C66  1  0.81359863  0.56314020  0.14523671  1.0
  C  C67  1  0.73089164  0.54583120  0.22389955  1.0
  C  C68  1  0.67491866  0.61520454  0.27621903  1.0
  C  C69  1  0.70084399  0.69999320  0.24948777  1.0
  C  C70  1  0.77907527  0.71838120  0.16637683  1.0
  C  C71  1  0.83715962  0.64926184  0.11369818  1.0
  C  C72  1  0.79836010  0.81393798  0.13122939  1.0
  C  C73  1  0.58182472  0.60085216  0.35830404  1.0
  O  O74  1  0.89973412  0.01264362  0.05233667  1.0
  O  O75  1  0.08908885  0.05935785  0.04815178  1.0
  O  O76  1  0.99867665  0.18800250  0.95265251  1.0
  O  O77  1  0.23595419  0.41550991  0.71242448  1.0
  O  O78  1  0.39766977  0.30259832  0.65897216  1.0
  O  O79  1  0.85393331  0.03806440  0.87274460  1.0
  O  O80  1  0.82180785  0.19043505  0.88253804  1.0
  O  O81  1  0.61135245  0.43315604  0.61981614  1.0
  O  O82  1  0.62304949  0.34121642  0.53575327  1.0
  O  O83  1  0.66176792  0.10109088  0.17116166  1.0
  O  O84  1  0.73682349  0.22162336  0.08690626  1.0
  O  O85  1  0.35857843  0.47452155  0.38435738  1.0
  O  O86  1  0.49512701  0.34006633  0.42714542  1.0
  O  O87  1  0.05682031  0.86467481  0.91581724  1.0
  O  O88  1  0.14192592  0.85248608  0.01249836  1.0
  O  O89  1  0.42862476  0.62842595  0.64383533  1.0
  O  O90  1  0.26483256  0.60611383  0.72107138  1.0
  O  O91  1  0.84273215  0.96691936  0.27077403  1.0
  O  O92  1  0.02191702  0.88826153  0.21351889  1.0
  O  O93  1  0.23722800  0.67954563  0.42887323  1.0
  O  O94  1  0.14731652  0.64535367  0.58132263  1.0
  O  O95  1  0.76487533  0.86467146  0.18879264  1.0
  O  O96  1  0.84573912  0.83729368  0.04584354  1.0
  O  O97  1  0.51052281  0.58507260  0.34362503  1.0
  O  O98  1  0.58118156  0.60678963  0.43365848  1.0
  O  O99  1  0.39793347  0.50854334  0.54667087  1.0
  F  F100  1  0.45418635  0.07073061  0.95692738  1.0
  F  F101  1  0.96781504  0.06820279  0.54183598  1.0
  F  F102  1  0.27994405  0.37114883  0.17257388  1.0
  F  F103  1  0.52460126  0.65695432  0.88855818  1.0
  F  F104  1  0.80731690  0.94221044  0.59335098  1.0
  F  F105  1  0.87155425  0.49410170  0.09612275  1.0
