# generated using pymatgen
data_Zr3H8C20(N3O8)2
_symmetry_space_group_name_H-M   'P 1'
_cell_length_a   17.17816089
_cell_length_b   17.18337434
_cell_length_c   32.01545533
_cell_angle_alpha   89.89360240
_cell_angle_beta   90.04354888
_cell_angle_gamma   89.94018855
_symmetry_Int_Tables_number   1
_chemical_formula_structural   Zr3H8C20(N3O8)2
_chemical_formula_sum   'Zr12 H32 C80 N24 O64'
_cell_volume   9450.25850767
_cell_formula_units_Z   4
loop_
 _symmetry_equiv_pos_site_id
 _symmetry_equiv_pos_as_xyz
  1  'x, y, z'
loop_
 _atom_site_type_symbol
 _atom_site_label
 _atom_site_symmetry_multiplicity
 _atom_site_fract_x
 _atom_site_fract_y
 _atom_site_fract_z
 _atom_site_occupancy
  Zr  Zr0  1  0.09582605  0.94383345  0.54695437  1.0
  Zr  Zr1  1  0.08670746  0.95189719  0.43593591  1.0
  Zr  Zr2  1  0.95019877  0.08852292  0.55190121  1.0
  Zr  Zr3  1  0.94182639  0.10105458  0.44110984  1.0
  Zr  Zr4  1  0.12235693  0.12404010  0.49461755  1.0
  Zr  Zr5  1  0.91501578  0.91750616  0.49389990  1.0
  Zr  Zr6  1  0.60083729  0.60721491  0.04826511  1.0
  Zr  Zr7  1  0.58991782  0.59488778  0.93752462  1.0
  Zr  Zr8  1  0.45687288  0.45927852  0.05280843  1.0
  Zr  Zr9  1  0.44226260  0.45131961  0.94204010  1.0
  Zr  Zr10  1  0.41905605  0.63150992  0.99576091  1.0
  Zr  Zr11  1  0.62664897  0.42373408  0.99456080  1.0
  H  H12  1  0.05648493  0.82428614  0.49335442  1.0
  H  H13  1  0.09578519  0.10565353  0.40651796  1.0
  H  H14  1  0.82343853  0.07138688  0.49496744  1.0
  H  H15  1  0.10214925  0.09707316  0.58360155  1.0
  H  H16  1  0.10771693  0.97710835  0.35213199  1.0
  H  H17  1  0.00403851  0.03407992  0.36819553  1.0
  H  H18  1  0.85843561  0.22977955  0.44144093  1.0
  H  H19  1  0.80885474  0.16274121  0.57629166  1.0
  H  H20  1  0.92680661  0.05829451  0.63282581  1.0
  H  H21  1  0.03112591  0.00702099  0.61998494  1.0
  H  H22  1  0.22721504  0.86152533  0.54303301  1.0
  H  H23  1  0.18471710  0.85486403  0.48408175  1.0
  H  H24  1  0.87471313  0.22715757  0.56970714  1.0
  H  H25  1  0.05474714  0.91608398  0.62886181  1.0
  H  H26  1  0.17191587  0.80977850  0.43930045  1.0
  H  H27  1  0.91392772  0.06004218  0.35963176  1.0
  H  H28  1  0.71846269  0.57731447  0.99372485  1.0
  H  H29  1  0.43700421  0.60611410  0.90743185  1.0
  H  H30  1  0.47260535  0.33245229  0.99573663  1.0
  H  H31  1  0.44575207  0.61049870  0.08439908  1.0
  H  H32  1  0.55912157  0.62408346  0.85462055  1.0
  H  H33  1  0.50948198  0.51592884  0.86905647  1.0
  H  H34  1  0.31401019  0.36744322  0.94241698  1.0
  H  H35  1  0.38302111  0.31776101  0.07717167  1.0
  H  H36  1  0.48695817  0.43546772  0.13363572  1.0
  H  H37  1  0.53843443  0.54129364  0.12105366  1.0
  H  H38  1  0.68543145  0.73467888  0.04959267  1.0
  H  H39  1  0.73013127  0.66527671  0.91435996  1.0
  H  H40  1  0.31870186  0.38369554  0.07024467  1.0
  H  H41  1  0.62885470  0.56568164  0.12949524  1.0
  H  H42  1  0.66858629  0.73404688  0.92038253  1.0
  H  H43  1  0.48492254  0.42607000  0.86029234  1.0
  C  C44  1  0.25003561  0.05146609  0.55898757  1.0
  C  C45  1  0.97776052  0.79780288  0.42371455  1.0
  C  C46  1  0.24487044  0.05731794  0.42730303  1.0
  C  C47  1  0.97827091  0.79588128  0.56381795  1.0
  C  C48  1  0.79622341  0.97700533  0.56621197  1.0
  C  C49  1  0.05546073  0.25426144  0.43163128  1.0
  C  C50  1  0.79398740  0.97774788  0.42549653  1.0
  C  C51  1  0.05515470  0.24967469  0.56047651  1.0
  C  C52  1  0.03720754  0.45853012  0.61960932  1.0
  C  C53  1  0.02403992  0.52072505  0.68130234  1.0
  C  C54  1  0.00275420  0.58541093  0.62081556  1.0
  C  C55  1  0.58439593  0.00088378  0.62158191  1.0
  C  C56  1  0.51948365  0.02181429  0.68185787  1.0
  C  C57  1  0.45738306  0.03490251  0.62000449  1.0
  C  C58  1  0.58253985  0.00026558  0.36961864  1.0
  C  C59  1  0.45581899  0.03555399  0.37059426  1.0
  C  C60  1  0.51818754  0.02078420  0.30904951  1.0
  C  C61  1  0.03830201  0.46072111  0.37012481  1.0
  C  C62  1  0.02182231  0.52090186  0.30796841  1.0
  C  C63  1  0.00102349  0.58678896  0.36790510  1.0
  C  C64  1  0.50794091  0.96728485  0.87106006  1.0
  C  C65  1  0.54293534  0.09393149  0.86890347  1.0
  C  C66  1  0.52236714  0.02789525  0.80894484  1.0
  C  C67  1  0.48716659  0.76033318  0.05879718  1.0
  C  C68  1  0.74598598  0.48417639  0.92383567  1.0
  C  C69  1  0.48674953  0.75765029  0.92941191  1.0
  C  C70  1  0.74694899  0.48181739  0.06379436  1.0
  C  C71  1  0.56761443  0.30452425  0.06661388  1.0
  C  C72  1  0.28926802  0.56515720  0.93229553  1.0
  C  C73  1  0.56569174  0.30448367  0.92532208  1.0
  C  C74  1  0.29337766  0.56179914  0.06093813  1.0
  C  C75  1  0.08374298  0.54431590  0.87048560  1.0
  C  C76  1  0.02484456  0.52277708  0.80848233  1.0
  C  C77  1  0.95803023  0.50592418  0.86854884  1.0
  C  C78  1  0.50446883  0.96695777  0.11972476  1.0
  C  C79  1  0.52026579  0.02679787  0.18196226  1.0
  C  C80  1  0.54173619  0.09287801  0.12205371  1.0
  C  C81  1  0.08428847  0.53781272  0.11922679  1.0
  C  C82  1  0.95788635  0.50197662  0.12023699  1.0
  C  C83  1  0.02304091  0.51949969  0.18083295  1.0
  C  C84  1  0.56925188  0.22771158  0.08522286  1.0
  C  C85  1  0.55942873  0.16442405  0.10144288  1.0
  C  C86  1  0.48290817  0.83623699  0.07826797  1.0
  C  C87  1  0.48928364  0.89776015  0.09668506  1.0
  C  C88  1  0.21359451  0.56925617  0.91241270  1.0
  C  C89  1  0.15250272  0.56153000  0.89362587  1.0
  C  C90  1  0.82280751  0.48126374  0.90530229  1.0
  C  C91  1  0.88634961  0.48968928  0.88919033  1.0
  C  C92  1  0.21624561  0.56241107  0.07911501  1.0
  C  C93  1  0.15420154  0.55396155  0.09682208  1.0
  C  C94  1  0.82336735  0.47809697  0.08273902  1.0
  C  C95  1  0.88674187  0.48609143  0.09910775  1.0
  C  C96  1  0.55967307  0.16526823  0.88954434  1.0
  C  C97  1  0.56846984  0.22848643  0.90589576  1.0
  C  C98  1  0.49342641  0.89735139  0.89384631  1.0
  C  C99  1  0.48582738  0.83498390  0.91139270  1.0
  C  C100  1  0.02383697  0.51932900  0.22543524  1.0
  C  C101  1  0.02331707  0.51940317  0.26338671  1.0
  C  C102  1  0.51789420  0.02294487  0.26444972  1.0
  C  C103  1  0.51865091  0.02457565  0.22651357  1.0
  C  C104  1  0.51912826  0.02438133  0.72643018  1.0
  C  C105  1  0.52042051  0.02593957  0.76436048  1.0
  C  C106  1  0.02673279  0.52139519  0.76386262  1.0
  C  C107  1  0.02618604  0.52033528  0.72590960  1.0
  C  C108  1  0.98374743  0.65822077  0.38853583  1.0
  C  C109  1  0.97481350  0.72151375  0.40478066  1.0
  C  C110  1  0.06005356  0.33012079  0.41199457  1.0
  C  C111  1  0.05360305  0.39147754  0.39329297  1.0
  C  C112  1  0.97644158  0.71966117  0.58314692  1.0
  C  C113  1  0.98569496  0.65655650  0.59971038  1.0
  C  C114  1  0.05100269  0.38826099  0.59712624  1.0
  C  C115  1  0.05759745  0.32624390  0.57920302  1.0
  C  C116  1  0.71732848  0.97485004  0.40673565  1.0
  C  C117  1  0.65370839  0.98352122  0.39067705  1.0
  C  C118  1  0.32230646  0.05798940  0.40951711  1.0
  C  C119  1  0.38527243  0.05037398  0.39266247  1.0
  C  C120  1  0.65585507  0.98416888  0.60074156  1.0
  C  C121  1  0.71935095  0.97498718  0.58469738  1.0
  C  C122  1  0.32567705  0.05445722  0.57882907  1.0
  C  C123  1  0.38734500  0.04846005  0.59724534  1.0
  N  N124  1  0.04222674  0.45398346  0.66160311  1.0
  N  N125  1  0.00348118  0.58823085  0.66291031  1.0
  N  N126  1  0.01833105  0.52235855  0.59726977  1.0
  N  N127  1  0.58719910  0.00158816  0.66366925  1.0
  N  N128  1  0.45272971  0.03968315  0.66199460  1.0
  N  N129  1  0.52151194  0.01641340  0.59785104  1.0
  N  N130  1  0.51950925  0.01683559  0.39305235  1.0
  N  N131  1  0.45149323  0.03981108  0.32855306  1.0
  N  N132  1  0.58543795  0.99997099  0.32750500  1.0
  N  N133  1  0.04228447  0.45519829  0.32814474  1.0
  N  N134  1  0.99997024  0.58836805  0.32580602  1.0
  N  N135  1  0.01895516  0.52490137  0.39195862  1.0
  N  N136  1  0.52662201  0.03143990  0.89291447  1.0
  N  N137  1  0.54307619  0.09561666  0.82675097  1.0
  N  N138  1  0.50355404  0.96171430  0.82909625  1.0
  N  N139  1  0.08995111  0.54535978  0.82845183  1.0
  N  N140  1  0.95731206  0.50152649  0.82649191  1.0
  N  N141  1  0.01929982  0.52620571  0.89242899  1.0
  N  N142  1  0.49998572  0.96132129  0.16169514  1.0
  N  N143  1  0.54211034  0.09442018  0.16414448  1.0
  N  N144  1  0.52425471  0.03119363  0.09793779  1.0
  N  N145  1  0.02047894  0.52001392  0.09676546  1.0
  N  N146  1  0.95565425  0.49941294  0.16233909  1.0
  N  N147  1  0.08935209  0.53982636  0.16126195  1.0
  O  O148  1  0.21225280  0.98941887  0.56726188  1.0
  O  O149  1  0.22858028  0.10812491  0.53624456  1.0
  O  O150  1  0.03811128  0.83665510  0.41374778  1.0
  O  O151  1  0.92378670  0.81777259  0.44867920  1.0
  O  O152  1  0.20304527  0.00054450  0.41533578  1.0
  O  O153  1  0.22580112  0.11161101  0.45233757  1.0
  O  O154  1  0.03531478  0.83782829  0.57571469  1.0
  O  O155  1  0.92665601  0.81295785  0.53685065  1.0
  O  O156  1  0.17623484  0.85574364  0.53017849  1.0
  O  O157  1  0.07459509  0.96406213  0.61658677  1.0
  O  O158  1  0.18079978  0.86097067  0.45128268  1.0
  O  O159  1  0.06567363  0.97268893  0.37221123  1.0
  O  O160  1  0.12305281  0.00399177  0.49253696  1.0
  O  O161  1  0.04325110  0.87921162  0.49330205  1.0
  O  O162  1  0.83701878  0.03514741  0.57820686  1.0
  O  O163  1  0.81530967  0.92507228  0.54022756  1.0
  O  O164  1  0.99321469  0.21791040  0.42283131  1.0
  O  O165  1  0.11126947  0.23156981  0.45490203  1.0
  O  O166  1  0.83672080  0.03242935  0.41223011  1.0
  O  O167  1  0.81048243  0.92816355  0.45394049  1.0
  O  O168  1  0.99278430  0.21219400  0.56856818  1.0
  O  O169  1  0.11256128  0.22669713  0.53887494  1.0
  O  O170  1  0.85007345  0.18089394  0.55775887  1.0
  O  O171  1  0.97248694  0.07109279  0.61627217  1.0
  O  O172  1  0.85206624  0.17458943  0.44688661  1.0
  O  O173  1  0.96252160  0.07856346  0.37182456  1.0
  O  O174  1  0.87639396  0.05144840  0.49692191  1.0
  O  O175  1  0.00267539  0.12711002  0.49661754  1.0
  O  O176  1  0.97677472  0.97507790  0.53972136  1.0
  O  O177  1  0.07292104  0.08422070  0.43174946  1.0
  O  O178  1  0.07990842  0.07517450  0.55830565  1.0
  O  O179  1  0.97280632  0.97921357  0.44899695  1.0
  O  O180  1  0.54959931  0.72378175  0.06714203  1.0
  O  O181  1  0.43071023  0.73772798  0.03606882  1.0
  O  O182  1  0.70657031  0.54373542  0.91302370  1.0
  O  O183  1  0.72581469  0.43078552  0.94900096  1.0
  O  O184  1  0.54695580  0.71797666  0.91934015  1.0
  O  O185  1  0.43047643  0.73606021  0.95215283  1.0
  O  O186  1  0.70416387  0.53609437  0.07749303  1.0
  O  O187  1  0.73086849  0.43325912  0.03494463  1.0
  O  O188  1  0.69126214  0.67968327  0.04351714  1.0
  O  O189  1  0.58019267  0.58512596  0.11770357  1.0
  O  O190  1  0.69071393  0.68711658  0.93297953  1.0
  O  O191  1  0.57073043  0.58070074  0.87303530  1.0
  O  O192  1  0.53912674  0.63458797  0.99326941  1.0
  O  O193  1  0.66529733  0.55785983  0.99287026  1.0
  O  O194  1  0.51028689  0.34611245  0.07897202  1.0
  O  O195  1  0.61901941  0.32297608  0.04011362  1.0
  O  O196  1  0.32588588  0.50287065  0.92366820  1.0
  O  O197  1  0.31162546  0.62095279  0.95545988  1.0
  O  O198  1  0.51121630  0.34781334  0.91216226  1.0
  O  O199  1  0.61487471  0.31952742  0.95402888  1.0
  O  O200  1  0.33224080  0.50035224  0.06935776  1.0
  O  O201  1  0.31566999  0.61966466  0.03941161  1.0
  O  O202  1  0.36471411  0.35843757  0.05827919  1.0
  O  O203  1  0.47393987  0.48097257  0.11693000  1.0
  O  O204  1  0.36941223  0.36121690  0.94729847  1.0
  O  O205  1  0.46571909  0.47437656  0.87249454  1.0
  O  O206  1  0.49246692  0.38538933  0.99741721  1.0
  O  O207  1  0.41693349  0.51191690  0.99729203  1.0
  O  O208  1  0.56951841  0.48582640  0.03946730  1.0
  O  O209  1  0.45929844  0.58359512  0.93255726  1.0
  O  O210  1  0.46823179  0.58906381  0.05905252  1.0
  O  O211  1  0.56443095  0.48188559  0.94930469  1.0
