# generated using pymatgen
data_Zn4H64C86N20O9
_symmetry_space_group_name_H-M   'P 1'
_cell_length_a   20.26915207
_cell_length_b   20.32786274
_cell_length_c   20.72896320
_cell_angle_alpha   108.30911366
_cell_angle_beta   112.91285675
_cell_angle_gamma   106.21319706
_symmetry_Int_Tables_number   1
_chemical_formula_structural   Zn4H64C86N20O9
_chemical_formula_sum   'Zn4 H64 C86 N20 O9'
_cell_volume   6634.91605998
_cell_formula_units_Z   1
loop_
 _symmetry_equiv_pos_site_id
 _symmetry_equiv_pos_as_xyz
  1  'x, y, z'
loop_
 _atom_site_type_symbol
 _atom_site_label
 _atom_site_symmetry_multiplicity
 _atom_site_fract_x
 _atom_site_fract_y
 _atom_site_fract_z
 _atom_site_occupancy
  Zn  Zn0  1  0.41114738  0.51723995  0.39700312  1.0
  Zn  Zn1  1  0.60846151  0.49601503  0.61527103  1.0
  Zn  Zn2  1  0.51356795  0.41478468  0.41539575  1.0
  Zn  Zn3  1  0.52692242  0.62151212  0.65100010  1.0
  H  H4  1  0.24574377  0.38707495  0.22124792  1.0
  H  H5  1  0.78056651  0.49698142  0.66033134  1.0
  H  H6  1  0.75653453  0.61320854  0.61060330  1.0
  H  H7  1  0.45376322  0.58120363  0.29998482  1.0
  H  H8  1  0.50025046  0.78843613  0.56027427  1.0
  H  H9  1  0.67168626  0.43387880  0.41017504  1.0
  H  H10  1  0.93292569  0.56342110  0.42571946  1.0
  H  H11  1  0.63807084  0.45893545  0.76466129  1.0
  H  H12  1  0.09690043  0.67216824  0.53399541  1.0
  H  H13  1  0.08155884  0.65633489  0.65936691  1.0
  H  H14  1  0.13008199  0.53732351  0.63443249  1.0
  H  H15  1  0.33688652  0.35856121  0.85768209  1.0
  H  H16  1  0.40947833  0.30718331  0.96580843  1.0
  H  H17  1  0.38298496  0.49905004  0.98875148  1.0
  H  H18  1  0.53035704  0.56852380  0.99624872  1.0
  H  H19  1  0.55658794  0.37525153  0.97350463  1.0
  H  H20  1  0.31646416  0.15243646  0.37265959  1.0
  H  H21  1  0.35950140  0.27523964  0.37292593  1.0
  H  H22  1  0.27783643  0.02742812  0.37716874  1.0
  H  H23  1  0.17955677  0.80195637  0.36998926  1.0
  H  H24  1  0.22096375  0.69688242  0.36341294  1.0
  H  H25  1  0.38058942  0.27515951  0.61680453  1.0
  H  H26  1  0.34521099  0.14985356  0.62104001  1.0
  H  H27  1  0.46710026  0.87324777  0.53716071  1.0
  H  H28  1  0.77404965  0.86237230  0.65902984  1.0
  H  H29  1  0.90591799  0.98259285  0.75777685  1.0
  H  H30  1  0.04276894  0.08136592  0.99900485  1.0
  H  H31  1  0.14280172  0.19383960  0.13616730  1.0
  H  H32  1  0.87840497  0.72689636  0.74456824  1.0
  H  H33  1  0.19729083  0.16283120  0.91671713  1.0
  H  H34  1  0.00815779  0.84767886  0.84526526  1.0
  H  H35  1  0.30050007  0.27198264  0.05554980  1.0
  H  H36  1  0.47735001  0.38203695  0.63023186  1.0
  H  H37  1  0.25045903  0.45279123  0.38302471  1.0
  H  H38  1  0.48217486  0.56783957  0.76286104  1.0
  H  H39  1  0.58549789  0.41544479  0.20557963  1.0
  H  H40  1  0.49333320  0.34322609  0.18277715  1.0
  H  H41  1  0.56986995  0.28227056  0.24908329  1.0
  H  H42  1  0.58493622  0.28521429  0.17059518  1.0
  H  H43  1  0.66182206  0.35391670  0.27135758  1.0
  H  H44  1  0.68492976  0.83715659  0.71319308  1.0
  H  H45  1  0.86735856  0.43064699  0.32173340  1.0
  H  H46  1  0.86358494  0.35983725  0.35560948  1.0
  H  H47  1  0.89553117  0.28883197  0.25712076  1.0
  H  H48  1  0.80738513  0.29842445  0.20741081  1.0
  H  H49  1  0.90109417  0.36079931  0.22495970  1.0
  H  H50  1  0.05439595  0.39390032  0.57056593  1.0
  H  H51  1  0.98546200  0.33740603  0.46546313  1.0
  H  H52  1  0.88127158  0.26454058  0.48907042  1.0
  H  H53  1  0.97103140  0.25553831  0.53347790  1.0
  H  H54  1  0.95078510  0.32145067  0.59381910  1.0
  H  H55  1  0.63765514  0.58774039  0.16133490  1.0
  H  H56  1  0.46028210  0.01189626  0.47339452  1.0
  H  H57  1  0.52479093  0.98082439  0.52896125  1.0
  H  H58  1  0.59741132  0.12443204  0.57687020  1.0
  H  H59  1  0.52367267  0.13864719  0.59804718  1.0
  H  H60  1  0.58875939  0.10794048  0.65341939  1.0
  H  H61  1  0.34692018  0.64135348  0.67099787  1.0
  H  H62  1  0.29990613  0.14555822  0.13608314  1.0
  H  H63  1  0.31663170  0.17097139  0.23359820  1.0
  H  H64  1  0.44692333  0.16246354  0.27694345  1.0
  H  H65  1  0.36487493  0.07267791  0.19315404  1.0
  H  H66  1  0.43148662  0.13786466  0.17995151  1.0
  H  H67  1  0.27298274  0.52738507  0.28776619  1.0
  C  C68  1  0.28992773  0.36546649  0.23667542  1.0
  C  C69  1  0.54938201  0.49748877  0.78208693  1.0
  C  C70  1  0.39464380  0.29737155  0.49862511  1.0
  C  C71  1  0.28137297  0.53333301  0.50510550  1.0
  C  C72  1  0.34551871  0.64033155  0.38982228  1.0
  C  C73  1  0.74085767  0.47647212  0.59730386  1.0
  C  C74  1  0.54409274  0.47088962  0.31473816  1.0
  C  C75  1  0.66760523  0.71709559  0.65605727  1.0
  C  C76  1  0.72045755  0.63999693  0.62303542  1.0
  C  C77  1  0.48512349  0.54750294  0.31386162  1.0
  C  C78  1  0.45497776  0.73533286  0.50449800  1.0
  C  C79  1  0.60375921  0.49138244  0.75699126  1.0
  C  C80  1  0.68501507  0.44390104  0.46936175  1.0
  C  C81  1  0.37775046  0.71939844  0.44743081  1.0
  C  C82  1  0.76060565  0.47699138  0.53942173  1.0
  C  C83  1  0.50460161  0.49977677  0.26596827  1.0
  C  C84  1  0.73782884  0.71878652  0.65508517  1.0
  C  C85  1  0.99417890  0.47915029  0.52662272  1.0
  C  C86  1  0.00109993  0.48848895  0.45552149  1.0
  C  C87  1  0.21191283  0.53636146  0.50164096  1.0
  C  C88  1  0.83621857  0.50669788  0.54671323  1.0
  C  C89  1  0.08468582  0.54173463  0.58787053  1.0
  C  C90  1  0.39661495  0.31192554  0.43712533  1.0
  C  C91  1  0.09292358  0.54958052  0.51736789  1.0
  C  C92  1  0.05910536  0.60815961  0.60143037  1.0
  C  C93  1  0.96726261  0.54583099  0.54017427  1.0
  C  C94  1  0.06676177  0.61715090  0.53198735  1.0
  C  C95  1  0.97632100  0.55614389  0.47103111  1.0
  C  C96  1  0.15712002  0.54574672  0.50748382  1.0
  C  C97  1  0.89856866  0.53313110  0.54722548  1.0
  C  C98  1  0.43649714  0.36524846  0.97202541  1.0
  C  C99  1  0.39609221  0.39402600  0.91277129  1.0
  C  C100  1  0.52340089  0.46417621  0.82331934  1.0
  C  C101  1  0.36000336  0.57620555  0.57451565  1.0
  C  C102  1  0.48362118  0.48005142  0.18703945  1.0
  C  C103  1  0.51794951  0.40281241  0.97675299  1.0
  C  C104  1  0.47875542  0.43302660  0.91743209  1.0
  C  C105  1  0.54590120  0.48146046  0.04775491  1.0
  C  C106  1  0.46177208  0.44354143  0.04496846  1.0
  C  C107  1  0.50341719  0.51077133  0.99061355  1.0
  C  C108  1  0.42182591  0.47195950  0.98466407  1.0
  C  C109  1  0.49635090  0.44007269  0.85928545  1.0
  C  C110  1  0.46358686  0.45730467  0.11706282  1.0
  C  C111  1  0.34724976  0.77671386  0.45048569  1.0
  C  C112  1  0.45620443  0.36712820  0.56833185  1.0
  C  C113  1  0.40315858  0.85613601  0.50160931  1.0
  C  C114  1  0.38047950  0.91526281  0.50799416  1.0
  C  C115  1  0.29813143  0.89604443  0.45940597  1.0
  C  C116  1  0.24229458  0.81644279  0.40805359  1.0
  C  C117  1  0.26530504  0.75784460  0.40423505  1.0
  C  C118  1  0.29849157  0.08203947  0.42838747  1.0
  C  C119  1  0.32007168  0.15207120  0.42648064  1.0
  C  C120  1  0.30975837  0.08114850  0.49958548  1.0
  C  C121  1  0.35337372  0.22356581  0.49499332  1.0
  C  C122  1  0.35726346  0.22106055  0.56360851  1.0
  C  C123  1  0.29387619  0.49274180  0.44601651  1.0
  C  C124  1  0.33695508  0.15125909  0.56631995  1.0
  C  C125  1  0.22893289  0.23918985  0.10524445  1.0
  C  C126  1  0.24361126  0.23036838  0.04275243  1.0
  C  C127  1  0.18641082  0.16981382  0.96544523  1.0
  C  C128  1  0.11538686  0.11468473  0.95076654  1.0
  C  C129  1  0.09927131  0.12384877  0.01222506  1.0
  C  C130  1  0.15494173  0.18639281  0.08815727  1.0
  C  C131  1  0.89907470  0.92593895  0.75338583  1.0
  C  C132  1  0.82565685  0.85888962  0.69910634  1.0
  C  C133  1  0.96424087  0.92207527  0.80787312  1.0
  C  C134  1  0.52336025  0.54639849  0.75514037  1.0
  C  C135  1  0.81639971  0.78669657  0.69670235  1.0
  C  C136  1  0.88474102  0.78255886  0.74624170  1.0
  C  C137  1  0.95704358  0.84945790  0.80237206  1.0
  C  C138  1  0.36276625  0.30252228  0.23917381  1.0
  C  C139  1  0.29024966  0.29973700  0.18804062  1.0
  C  C140  1  0.55904387  0.37558083  0.22416211  1.0
  C  C141  1  0.59624145  0.32110336  0.22955456  1.0
  C  C142  1  0.64596655  0.77486977  0.69024995  1.0
  C  C143  1  0.89085289  0.38891436  0.32899015  1.0
  C  C144  1  0.87281933  0.33077427  0.25000891  1.0
  C  C145  1  0.98977175  0.36078574  0.52353703  1.0
  C  C146  1  0.94555946  0.29675154  0.53567888  1.0
  C  C147  1  0.62233665  0.52584052  0.12494188  1.0
  C  C148  1  0.49448713  0.01807024  0.53328254  1.0
  C  C149  1  0.55462671  0.10233266  0.59417115  1.0
  C  C150  1  0.38974494  0.62824356  0.65546257  1.0
  C  C151  1  0.34683248  0.17324461  0.19951283  1.0
  C  C152  1  0.40095048  0.13449912  0.21333625  1.0
  C  C153  1  0.27033177  0.58297366  0.31617041  1.0
  N  N154  1  0.35706067  0.40447054  0.31027958  1.0
  N  N155  1  0.66014987  0.44674017  0.56441116  1.0
  N  N156  1  0.54587395  0.49800372  0.38397430  1.0
  N  N157  1  0.61504502  0.64235516  0.62755588  1.0
  N  N158  1  0.64662606  0.59563061  0.60771668  1.0
  N  N159  1  0.50835106  0.54514000  0.38310734  1.0
  N  N160  1  0.46962899  0.67361507  0.48445345  1.0
  N  N161  1  0.62564558  0.42649429  0.48457053  1.0
  N  N162  1  0.27497147  0.95230549  0.44964478  1.0
  N  N163  1  0.30962654  0.01723825  0.51250659  1.0
  N  N164  1  0.05873285  0.05022962  0.87347366  1.0
  N  N165  1  0.60853258  0.53252080  0.71750740  1.0
  N  N166  1  0.03243072  0.98790476  0.87682001  1.0
  N  N167  1  0.45607016  0.38394139  0.46871406  1.0
  N  N168  1  0.41347313  0.56215678  0.55541309  1.0
  N  N169  1  0.49277720  0.41776762  0.54945278  1.0
  N  N170  1  0.37363579  0.51192662  0.47752079  1.0
  N  N171  1  0.55818795  0.56626173  0.71632371  1.0
  N  N172  1  0.40156211  0.36440845  0.31164974  1.0
  N  N173  1  0.40381448  0.61651148  0.41439081  1.0
  O  O174  1  0.57549171  0.42093720  0.30350576  1.0
  O  O175  1  0.58506483  0.75551463  0.69562165  1.0
  O  O176  1  0.97745265  0.43130260  0.38244017  1.0
  O  O177  1  0.95371822  0.41280713  0.52712034  1.0
  O  O178  1  0.66594323  0.49772425  0.15116605  1.0
  O  O179  1  0.43833331  0.99203979  0.55720248  1.0
  O  O180  1  0.46271682  0.65876017  0.70846334  1.0
  O  O181  1  0.39701069  0.25463974  0.22672611  1.0
  O  O182  1  0.20778934  0.58789354  0.28381937  1.0
