# generated using pymatgen
data_MnH14C21N4O5
_symmetry_space_group_name_H-M   'P 1'
_cell_length_a   13.72405141
_cell_length_b   13.72417285
_cell_length_c   16.67797381
_cell_angle_alpha   91.95513587
_cell_angle_beta   91.95411514
_cell_angle_gamma   119.47715853
_symmetry_Int_Tables_number   1
_chemical_formula_structural   MnH14C21N4O5
_chemical_formula_sum   'Mn4 H56 C84 N16 O20'
_cell_volume   2728.40908177
_cell_formula_units_Z   4
loop_
 _symmetry_equiv_pos_site_id
 _symmetry_equiv_pos_as_xyz
  1  'x, y, z'
loop_
 _atom_site_type_symbol
 _atom_site_label
 _atom_site_symmetry_multiplicity
 _atom_site_fract_x
 _atom_site_fract_y
 _atom_site_fract_z
 _atom_site_occupancy
  Mn  Mn0  1  0.98087658  0.31920912  0.03628839  1.0
  Mn  Mn1  1  0.68078640  0.01909696  0.46371673  1.0
  Mn  Mn2  1  0.01910574  0.68079576  0.96371094  1.0
  Mn  Mn3  1  0.31920696  0.98088606  0.53629005  1.0
  H  H4  1  0.04022436  0.83395659  0.14064699  1.0
  H  H5  1  0.16605766  0.95977644  0.35934825  1.0
  H  H6  1  0.95978647  0.16605425  0.85934080  1.0
  H  H7  1  0.83395491  0.04022922  0.64065802  1.0
  H  H8  1  0.75237588  0.23178164  0.12352160  1.0
  H  H9  1  0.76820837  0.24760219  0.37648695  1.0
  H  H10  1  0.24761736  0.76822323  0.87647926  1.0
  H  H11  1  0.23177655  0.75237998  0.62352135  1.0
  H  H12  1  0.62636869  0.06846076  0.20317198  1.0
  H  H13  1  0.93153658  0.37362810  0.29684608  1.0
  H  H14  1  0.37363879  0.93153902  0.79683575  1.0
  H  H15  1  0.06844577  0.62635326  0.70315792  1.0
  H  H16  1  0.68224240  0.92281646  0.23140254  1.0
  H  H17  1  0.07718478  0.31775931  0.26860318  1.0
  H  H18  1  0.31775856  0.07717160  0.76860284  1.0
  H  H19  1  0.92280431  0.68223128  0.73140011  1.0
  H  H20  1  0.87466741  0.70573792  0.22382913  1.0
  H  H21  1  0.29426653  0.12533742  0.27617012  1.0
  H  H22  1  0.12534785  0.29428631  0.77616161  1.0
  H  H23  1  0.70572853  0.87466075  0.72382819  1.0
  H  H24  1  0.17408208  0.00387352  0.07412720  1.0
  H  H25  1  0.99613729  0.82591829  0.42586371  1.0
  H  H26  1  0.82592623  0.99614402  0.92586192  1.0
  H  H27  1  0.00387601  0.17408147  0.57414541  1.0
  H  H28  1  0.28030373  0.17912144  0.00018979  1.0
  H  H29  1  0.82090439  0.71969106  0.49981452  1.0
  H  H30  1  0.71969419  0.82090023  0.99980813  1.0
  H  H31  1  0.17910893  0.28030283  0.50019442  1.0
  H  H32  1  0.20046156  0.30799508  0.98529061  1.0
  H  H33  1  0.69204056  0.79953697  0.51472244  1.0
  H  H34  1  0.79953534  0.69202157  0.01470593  1.0
  H  H35  1  0.30796806  0.20045187  0.48528919  1.0
  H  H36  1  0.66780543  0.30442152  0.88043170  1.0
  H  H37  1  0.69556614  0.33218530  0.61956411  1.0
  H  H38  1  0.33218498  0.69557324  0.11957475  1.0
  H  H39  1  0.30441366  0.66778782  0.38042097  1.0
  H  H40  1  0.51810005  0.22675856  0.76780643  1.0
  H  H41  1  0.77323580  0.48189437  0.73218366  1.0
  H  H42  1  0.48190056  0.77322873  0.23218992  1.0
  H  H43  1  0.22674513  0.51808545  0.26780227  1.0
  H  H44  1  0.60476720  0.97380511  0.70704777  1.0
  H  H45  1  0.02618663  0.39524184  0.79294462  1.0
  H  H46  1  0.39525076  0.02620398  0.29294858  1.0
  H  H47  1  0.97379736  0.60477229  0.20705144  1.0
  H  H48  1  0.75820871  0.05476614  0.81629144  1.0
  H  H49  1  0.94523802  0.24179977  0.68370469  1.0
  H  H50  1  0.24181074  0.94523710  0.18370238  1.0
  H  H51  1  0.05477509  0.75820254  0.31630090  1.0
  H  H52  1  0.07915105  0.48473221  0.92777248  1.0
  H  H53  1  0.51524910  0.92082265  0.57222599  1.0
  H  H54  1  0.92083186  0.51527683  0.07223059  1.0
  H  H55  1  0.48474139  0.07916629  0.42777310  1.0
  H  H56  1  0.15489820  0.51562736  0.00616118  1.0
  H  H57  1  0.48433818  0.84508515  0.49383119  1.0
  H  H58  1  0.84508304  0.48438421  0.99384191  1.0
  H  H59  1  0.51564398  0.15490464  0.50616767  1.0
  C  C60  1  0.77254137  0.16607290  0.13640108  1.0
  C  C61  1  0.83392610  0.22745066  0.36360273  1.0
  C  C62  1  0.22744647  0.83392693  0.86360065  1.0
  C  C63  1  0.16606753  0.77253736  0.63640722  1.0
  C  C64  1  0.70268384  0.07462665  0.18078336  1.0
  C  C65  1  0.92538088  0.29730972  0.31922660  1.0
  C  C66  1  0.29730804  0.92536223  0.81922476  1.0
  C  C67  1  0.07460831  0.70267665  0.68077957  1.0
  C  C68  1  0.73276775  0.99406432  0.19586821  1.0
  C  C69  1  0.00593578  0.26722267  0.30414448  1.0
  C  C70  1  0.26723781  0.00593889  0.80413057  1.0
  C  C71  1  0.99405121  0.73276368  0.69586402  1.0
  C  C72  1  0.83245385  0.00575794  0.16585529  1.0
  C  C73  1  0.99423747  0.16752911  0.33415068  1.0
  C  C74  1  0.16757258  0.99425203  0.83413595  1.0
  C  C75  1  0.00576419  0.83246480  0.66585730  1.0
  C  C76  1  0.89881850  0.10107643  0.12173053  1.0
  C  C77  1  0.89891999  0.10116628  0.37827754  1.0
  C  C78  1  0.10120559  0.89893612  0.87825232  1.0
  C  C79  1  0.10108601  0.89882759  0.62173476  1.0
  C  C80  1  0.87158142  0.92759892  0.17631418  1.0
  C  C81  1  0.07241159  0.12842702  0.32368406  1.0
  C  C82  1  0.12842448  0.07240348  0.82368040  1.0
  C  C83  1  0.92759108  0.87157191  0.67632590  1.0
  C  C84  1  0.97245600  0.94591088  0.14493747  1.0
  C  C85  1  0.05410104  0.02754265  0.35505809  1.0
  C  C86  1  0.02754878  0.05409658  0.85505303  1.0
  C  C87  1  0.94590496  0.97245711  0.64495260  1.0
  C  C88  1  0.88907585  0.78576519  0.20334176  1.0
  C  C89  1  0.21424056  0.11092229  0.29665721  1.0
  C  C90  1  0.11093537  0.21424646  0.79664906  1.0
  C  C91  1  0.78575768  0.88907501  0.70334596  1.0
  C  C92  1  0.04227400  0.04133855  0.10159470  1.0
  C  C93  1  0.95867346  0.95772234  0.39840698  1.0
  C  C94  1  0.95773565  0.95866552  0.89840004  1.0
  C  C95  1  0.04133659  0.04227825  0.60160445  1.0
  C  C96  1  0.14384249  0.06357092  0.06835517  1.0
  C  C97  1  0.93643512  0.85614499  0.43164906  1.0
  C  C98  1  0.85618114  0.93646428  0.93162717  1.0
  C  C99  1  0.06357826  0.14385644  0.56836250  1.0
  C  C100  1  0.20197306  0.15970412  0.02703130  1.0
  C  C101  1  0.84031607  0.79802313  0.47297332  1.0
  C  C102  1  0.79804165  0.84032934  0.97295910  1.0
  C  C103  1  0.15969910  0.20197158  0.52703870  1.0
  C  C104  1  0.15774613  0.23205356  0.01826652  1.0
  C  C105  1  0.76796686  0.84224724  0.48174309  1.0
  C  C106  1  0.84225040  0.76796229  0.98172398  1.0
  C  C107  1  0.23204281  0.15774077  0.51826855  1.0
  C  C108  1  0.00337481  0.11909557  0.08986462  1.0
  C  C109  1  0.88091054  0.99660685  0.41013970  1.0
  C  C110  1  0.99662309  0.88090685  0.91012791  1.0
  C  C111  1  0.11909629  0.00338869  0.58987328  1.0
  C  C112  1  0.81724287  0.23727036  0.91713365  1.0
  C  C113  1  0.76271972  0.18275192  0.58286314  1.0
  C  C114  1  0.18276970  0.76273530  0.08287262  1.0
  C  C115  1  0.23727359  0.81721611  0.41712760  1.0
  C  C116  1  0.72205328  0.18464229  0.85492697  1.0
  C  C117  1  0.81535994  0.27795682  0.64508418  1.0
  C  C118  1  0.27794538  0.81534838  0.14506583  1.0
  C  C119  1  0.18465057  0.72204464  0.35492250  1.0
  C  C120  1  0.65269089  0.23157347  0.84250038  1.0
  C  C121  1  0.76842724  0.34732832  0.65750107  1.0
  C  C122  1  0.34729228  0.76841387  0.15748944  1.0
  C  C123  1  0.23157162  0.65267906  0.34250063  1.0
  C  C124  1  0.56966551  0.18835761  0.78050449  1.0
  C  C125  1  0.81165243  0.43034831  0.71950518  1.0
  C  C126  1  0.43032174  0.81162470  0.21948470  1.0
  C  C127  1  0.18834277  0.56965316  0.28050043  1.0
  C  C128  1  0.55326138  0.09620835  0.73111997  1.0
  C  C129  1  0.90378833  0.44674589  0.76888552  1.0
  C  C130  1  0.44673930  0.90378489  0.26886577  1.0
  C  C131  1  0.09619666  0.55325558  0.23112098  1.0
  C  C132  1  0.61933236  0.04604522  0.74560983  1.0
  C  C133  1  0.95395957  0.38070288  0.75439650  1.0
  C  C134  1  0.38066564  0.95395141  0.25437234  1.0
  C  C135  1  0.04603871  0.61933292  0.24561685  1.0
  C  C136  1  0.70392699  0.09082671  0.80652312  1.0
  C  C137  1  0.90919194  0.29609784  0.69348961  1.0
  C  C138  1  0.29606778  0.90915899  0.19346161  1.0
  C  C139  1  0.09082614  0.70392199  0.30652806  1.0
  C  C140  1  0.46845043  0.05558184  0.66185098  1.0
  C  C141  1  0.94440088  0.53154428  0.83814504  1.0
  C  C142  1  0.53156677  0.94442134  0.33815116  1.0
  C  C143  1  0.05556014  0.46843806  0.16184095  1.0
  N  N144  1  0.86751416  0.17895633  0.10800200  1.0
  N  N145  1  0.82103765  0.13246712  0.39200431  1.0
  N  N146  1  0.13248319  0.82106708  0.89198696  1.0
  N  N147  1  0.17896150  0.86752175  0.60800523  1.0
  N  N148  1  0.06112053  0.21175108  0.04801504  1.0
  N  N149  1  0.78826927  0.93887361  0.45199635  1.0
  N  N150  1  0.93887606  0.78827230  0.95197809  1.0
  N  N151  1  0.21173797  0.06111689  0.54801828  1.0
  N  N152  1  0.82055028  0.82710987  0.21286961  1.0
  N  N153  1  0.17289950  0.17945970  0.28712767  1.0
  N  N154  1  0.17946241  0.17288413  0.78712552  1.0
  N  N155  1  0.82709938  0.82053592  0.71287548  1.0
  N  N156  1  0.98229492  0.85428080  0.16357871  1.0
  N  N157  1  0.14572903  0.01770197  0.33642077  1.0
  N  N158  1  0.01771620  0.14573506  0.83641044  1.0
  N  N159  1  0.85427531  0.98230032  0.66358695  1.0
  O  O160  1  0.82952322  0.31737984  0.96474423  1.0
  O  O161  1  0.68260684  0.17046017  0.53525382  1.0
  O  O162  1  0.17045979  0.68261912  0.03526213  1.0
  O  O163  1  0.31737756  0.82953124  0.46475175  1.0
  O  O164  1  0.88666208  0.19991322  0.92178821  1.0
  O  O165  1  0.80009306  0.11333948  0.57821029  1.0
  O  O166  1  0.11336033  0.80009594  0.07819808  1.0
  O  O167  1  0.19994114  0.88665689  0.42180416  1.0
  O  O168  1  0.42313509  0.11313464  0.64235368  1.0
  O  O169  1  0.88685685  0.57686250  0.85762967  1.0
  O  O170  1  0.57688338  0.88685773  0.35763557  1.0
  O  O171  1  0.11312632  0.42313072  0.14235913  1.0
  O  O172  1  0.44189835  0.96205067  0.62306426  1.0
  O  O173  1  0.03792256  0.55808438  0.87693928  1.0
  O  O174  1  0.55809605  0.03795504  0.37693486  1.0
  O  O175  1  0.96202536  0.44191290  0.12306715  1.0
  O  O176  1  0.10887553  0.45165246  0.96824094  1.0
  O  O177  1  0.54831834  0.89110508  0.53174375  1.0
  O  O178  1  0.89111448  0.54835323  0.03176104  1.0
  O  O179  1  0.45166946  0.10888136  0.46825398  1.0
