# generated using pymatgen
data_Zn2H14C28N5ClO14
_symmetry_space_group_name_H-M   'P 1'
_cell_length_a   9.74994895
_cell_length_b   11.16061131
_cell_length_c   13.44757948
_cell_angle_alpha   92.23129486
_cell_angle_beta   95.25622687
_cell_angle_gamma   95.70211145
_symmetry_Int_Tables_number   1
_chemical_formula_structural   Zn2H14C28N5ClO14
_chemical_formula_sum   'Zn2 H14 C28 N5 Cl1 O14'
_cell_volume   1448.23548475
_cell_formula_units_Z   1
loop_
 _symmetry_equiv_pos_site_id
 _symmetry_equiv_pos_as_xyz
  1  'x, y, z'
loop_
 _atom_site_type_symbol
 _atom_site_label
 _atom_site_symmetry_multiplicity
 _atom_site_fract_x
 _atom_site_fract_y
 _atom_site_fract_z
 _atom_site_occupancy
  Zn  Zn0  1  0.86587364  0.47622013  0.53501080  1.0
  Zn  Zn1  1  0.13933596  0.49761767  0.48053215  1.0
  H  H2  1  0.22485324  0.49755922  0.16364851  1.0
  H  H3  1  0.68585624  0.49315275  0.24072108  1.0
  H  H4  1  0.03876013  0.31765454  0.17800422  1.0
  H  H5  1  0.71929861  0.22725135  0.88579272  1.0
  H  H6  1  0.04570828  0.52541839  0.03498299  1.0
  H  H7  1  0.95348407  0.51706730  0.85432628  1.0
  H  H8  1  0.49533395  0.28608264  0.82787636  1.0
  H  H9  1  0.92126998  0.24072374  0.01141730  1.0
  H  H10  1  0.20367783  0.12182511  0.54417319  1.0
  H  H11  1  0.88667091  0.07237548  0.49537961  1.0
  H  H12  1  0.90201416  0.87829576  0.48672684  1.0
  H  H13  1  0.59941386  0.31749417  0.46699867  1.0
  H  H14  1  0.62498262  0.54982308  0.57884165  1.0
  H  H15  1  0.34831319  0.32866044  0.47386395  1.0
  C  C16  1  0.00781855  0.71772938  0.51519562  1.0
  C  C17  1  0.08715963  0.47895686  0.69603190  1.0
  C  C18  1  0.99381267  0.25390068  0.50288421  1.0
  C  C19  1  0.93356239  0.45905473  0.31727076  1.0
  C  C20  1  0.14212117  0.46518661  0.80279883  1.0
  C  C21  1  0.86540187  0.41031102  0.21728361  1.0
  C  C22  1  0.10795693  0.49772362  0.97660696  1.0
  C  C23  1  0.05715228  0.49405673  0.87771731  1.0
  C  C24  1  0.27422542  0.43304047  0.83045677  1.0
  C  C25  1  0.32843257  0.42561479  0.93171748  1.0
  C  C26  1  0.24222256  0.46553444  0.00473934  1.0
  C  C27  1  0.46158182  0.38504512  0.96576954  1.0
  C  C28  1  0.51604320  0.40718101  0.06770170  1.0
  C  C29  1  0.42333558  0.44611441  0.13563779  1.0
  C  C30  1  0.29211404  0.47258960  0.10738546  1.0
  C  C31  1  0.53939533  0.31746747  0.90252723  1.0
  C  C32  1  0.66588021  0.28261152  0.93522806  1.0
  C  C33  1  0.73166788  0.32005264  0.03170287  1.0
  C  C34  1  0.65818818  0.38709019  0.09822152  1.0
  C  C35  1  0.86803046  0.29411896  0.06244181  1.0
  C  C36  1  0.93397728  0.33745361  0.15381553  1.0
  C  C37  1  0.73044071  0.43377066  0.18947631  1.0
  C  C38  1  0.10469448  0.06633843  0.52973920  1.0
  C  C39  1  0.98971214  0.12132492  0.50759207  1.0
  C  C40  1  0.10774254  0.93730397  0.53741517  1.0
  C  C41  1  0.00282817  0.85045979  0.51268374  1.0
  C  C42  1  0.56756174  0.39950774  0.50144544  1.0
  C  C43  1  0.41849013  0.41161889  0.48897006  1.0
  N  N44  1  0.66131658  0.47546164  0.54739287  1.0
  N  N45  1  0.35390172  0.50678854  0.48894484  1.0
  N  N46  1  0.24610492  0.90211384  0.57387405  1.0
  N  N47  1  0.36291873  0.41322499  0.74861436  1.0
  N  N48  1  0.45698393  0.44706977  0.24477231  1.0
  Cl  Cl49  1  0.43968013  0.64721884  0.51198870  1.0
  O  O50  1  0.90804207  0.66079933  0.55376621  1.0
  O  O51  1  0.10636741  0.67397219  0.47554455  1.0
  O  O52  1  0.95763037  0.45144461  0.67546731  1.0
  O  O53  1  0.17294374  0.51918498  0.63732010  1.0
  O  O54  1  0.87672540  0.29655502  0.50005588  1.0
  O  O55  1  0.11133565  0.31543388  0.50288002  1.0
  O  O56  1  0.85537741  0.49762258  0.37941563  1.0
  O  O57  1  0.06451116  0.45600895  0.33393216  1.0
  O  O58  1  0.34531044  0.94545282  0.53056351  1.0
  O  O59  1  0.25324177  0.83527342  0.64472905  1.0
  O  O60  1  0.46098120  0.49036171  0.74130527  1.0
  O  O61  1  0.33455516  0.31972622  0.69468352  1.0
  O  O62  1  0.47228949  0.34882266  0.28235529  1.0
  O  O63  1  0.46307232  0.54513948  0.29200361  1.0
