# generated using pymatgen
data_AlH7C12SNClO5
_symmetry_space_group_name_H-M   'P 1'
_cell_length_a   6.63890718
_cell_length_b   12.59102207
_cell_length_c   15.36773245
_cell_angle_alpha   70.72658791
_cell_angle_beta   79.79992325
_cell_angle_gamma   76.25283911
_symmetry_Int_Tables_number   1
_chemical_formula_structural   AlH7C12SNClO5
_chemical_formula_sum   'Al2 H14 C24 S2 N2 Cl2 O10'
_cell_volume   1171.02904739
_cell_formula_units_Z   2
loop_
 _symmetry_equiv_pos_site_id
 _symmetry_equiv_pos_as_xyz
  1  'x, y, z'
loop_
 _atom_site_type_symbol
 _atom_site_label
 _atom_site_symmetry_multiplicity
 _atom_site_fract_x
 _atom_site_fract_y
 _atom_site_fract_z
 _atom_site_occupancy
  Al  Al0  1  0.50012269  0.99988354  0.49984908  1.0
  Al  Al1  1  0.00004368  0.99990176  0.49997436  1.0
  H  H2  1  0.81479465  0.92456895  0.41701242  1.0
  H  H3  1  0.18559997  0.07517206  0.58280927  1.0
  H  H4  1  0.01824290  0.84805649  0.76386865  1.0
  H  H5  1  0.11210189  0.68968973  0.90889059  1.0
  H  H6  1  0.63286760  0.52842383  0.88344196  1.0
  H  H7  1  0.36658935  0.47184179  0.11680998  1.0
  H  H8  1  0.88774247  0.31046420  0.09116964  1.0
  H  H9  1  0.98181881  0.15197929  0.23609670  1.0
  H  H10  1  0.43014121  0.59917838  0.76411818  1.0
  H  H11  1  0.55835953  0.66989958  0.65562971  1.0
  H  H12  1  0.36688356  0.75117216  0.71460623  1.0
  H  H13  1  0.63323413  0.24910728  0.28532922  1.0
  H  H14  1  0.44173120  0.33017020  0.34449458  1.0
  H  H15  1  0.56934042  0.40108988  0.23593637  1.0
  C  C16  1  0.33691968  0.81264603  0.48146204  1.0
  C  C17  1  0.26095063  0.12613106  0.34484099  1.0
  C  C18  1  0.66308181  0.18722137  0.51833507  1.0
  C  C19  1  0.73903937  0.87379094  0.65505539  1.0
  C  C20  1  0.77374965  0.77761620  0.74245366  1.0
  C  C21  1  0.93427328  0.77734414  0.79165643  1.0
  C  C22  1  0.98723925  0.69012457  0.87137020  1.0
  C  C23  1  0.87750734  0.59934783  0.90353060  1.0
  C  C24  1  0.71548102  0.59992333  0.85594114  1.0
  C  C25  1  0.66084683  0.68702496  0.77470598  1.0
  C  C26  1  0.28412479  0.40026144  0.14426475  1.0
  C  C27  1  0.12209507  0.40089324  0.09665303  1.0
  C  C28  1  0.01254753  0.31004656  0.12872444  1.0
  C  C29  1  0.06563269  0.22275336  0.20837294  1.0
  C  C30  1  0.22615757  0.22245031  0.25755206  1.0
  C  C31  1  0.33895852  0.31307259  0.22541303  1.0
  C  C32  1  0.40718986  0.36649677  0.54584659  1.0
  C  C33  1  0.59323815  0.63332955  0.45421365  1.0
  C  C34  1  0.59694796  0.30848368  0.51431889  1.0
  C  C35  1  0.40331537  0.69136160  0.48562096  1.0
  C  C36  1  0.59471805  0.51478568  0.47603003  1.0
  C  C37  1  0.40582607  0.48501955  0.52416286  1.0
  C  C38  1  0.49420961  0.67623352  0.72513491  1.0
  C  C39  1  0.50563735  0.32394021  0.27492458  1.0
  S  S40  1  0.77358014  0.39855473  0.45808269  1.0
  S  S41  1  0.22683702  0.60124232  0.54198121  1.0
  N  N42  1  0.91789947  0.50355376  0.98266282  1.0
  N  N43  1  0.08165891  0.49670931  0.01756478  1.0
  Cl  Cl44  1  0.19812266  0.30730299  0.60600969  1.0
  Cl  Cl45  1  0.80224105  0.69255891  0.39398707  1.0
  O  O46  1  0.47690539  0.87295195  0.46207942  1.0
  O  O47  1  0.11885118  0.06583312  0.37675413  1.0
  O  O48  1  0.85823508  0.15251397  0.50042753  1.0
  O  O49  1  0.57379614  0.89100546  0.61699114  1.0
  O  O50  1  0.52293195  0.12707078  0.53741130  1.0
  O  O51  1  0.88100733  0.93417765  0.62317605  1.0
  O  O52  1  0.14181004  0.84723100  0.49958899  1.0
  O  O53  1  0.42648698  0.10872384  0.38274765  1.0
  O  O54  1  0.77869884  0.98103291  0.45026182  1.0
  O  O55  1  0.22160569  0.01866001  0.54961207  1.0
