# generated using pymatgen
data_Zn4H12C44O21F8
_symmetry_space_group_name_H-M   'P 1'
_cell_length_a   23.70314170
_cell_length_b   23.70323914
_cell_length_c   23.70192293
_cell_angle_alpha   65.80011062
_cell_angle_beta   72.83800069
_cell_angle_gamma   107.15949860
_symmetry_Int_Tables_number   1
_chemical_formula_structural   Zn4H12C44O21F8
_chemical_formula_sum   'Zn8 H24 C88 O42 F16'
_cell_volume   10198.19453511
_cell_formula_units_Z   2
loop_
 _symmetry_equiv_pos_site_id
 _symmetry_equiv_pos_as_xyz
  1  'x, y, z'
loop_
 _atom_site_type_symbol
 _atom_site_label
 _atom_site_symmetry_multiplicity
 _atom_site_fract_x
 _atom_site_fract_y
 _atom_site_fract_z
 _atom_site_occupancy
  Zn  Zn0  1  0.06000121  0.10038616  0.45564096  1.0
  Zn  Zn1  1  0.06000242  0.95961861  0.48435884  1.0
  Zn  Zn2  1  0.93999544  0.95563100  0.60039505  1.0
  Zn  Zn3  1  0.94000754  0.98436746  0.45961227  1.0
  Zn  Zn4  1  0.94397541  0.39961704  0.04038577  1.0
  Zn  Zn5  1  0.05603253  0.54039350  0.89960671  1.0
  Zn  Zn6  1  0.94398193  0.54436317  0.01563506  1.0
  Zn  Zn7  1  0.05601965  0.51563415  0.04437086  1.0
  H  H8  1  0.92149996  0.26873549  0.96370769  1.0
  H  H9  1  0.07851506  0.46374105  0.76870434  1.0
  H  H10  1  0.92772870  0.03175084  0.72990614  1.0
  H  H11  1  0.07219549  0.22985147  0.53177853  1.0
  H  H12  1  0.07849926  0.61480428  0.15276964  1.0
  H  H13  1  0.92148576  0.65277260  0.11477076  1.0
  H  H14  1  0.07221510  0.84233679  0.39601590  1.0
  H  H15  1  0.92776014  0.89599791  0.34237352  1.0
  H  H16  1  0.73836680  0.27014780  0.15765079  1.0
  H  H17  1  0.73836088  0.46825217  0.10399635  1.0
  H  H18  1  0.26755575  0.03627579  0.38521777  1.0
  H  H19  1  0.26756766  0.23127108  0.34723423  1.0
  H  H20  1  0.26164976  0.65765438  0.77012004  1.0
  H  H21  1  0.26163326  0.60397948  0.96825112  1.0
  H  H22  1  0.73246214  0.88524006  0.53626022  1.0
  H  H23  1  0.73242447  0.84722551  0.73128664  1.0
  H  H24  1  0.83667611  0.10446055  0.35181124  1.0
  H  H25  1  0.04375716  0.39553686  0.26779973  1.0
  H  H26  1  0.95623990  0.18846824  0.14820427  1.0
  H  H27  1  0.16333251  0.31152939  0.23220888  1.0
  H  H28  1  0.83666497  0.73220204  0.81154142  1.0
  H  H29  1  0.04374487  0.64820535  0.68845735  1.0
  H  H30  1  0.95625447  0.76777624  0.89554984  1.0
  H  H31  1  0.16333220  0.85179303  0.60444836  1.0
  C  C32  1  0.18490683  0.09244978  0.40754770  1.0
  C  C33  1  0.00000360  0.86269567  0.63731378  1.0
  C  C34  1  0.99996452  0.08960285  0.58964438  1.0
  C  C35  1  0.81509682  0.90755303  0.59245055  1.0
  C  C36  1  0.00000513  0.13731542  0.36268852  1.0
  C  C37  1  0.99999551  0.91037013  0.41038860  1.0
  C  C38  1  0.00000588  0.40755478  0.90753989  1.0
  C  C39  1  0.00001283  0.63731400  0.86268464  1.0
  C  C40  1  0.82075829  0.41039628  0.08961809  1.0
  C  C41  1  0.99999262  0.59245125  0.09245608  1.0
  C  C42  1  0.99999567  0.36268878  0.13731260  1.0
  C  C43  1  0.17924648  0.58961756  0.91038173  1.0
  C  C44  1  0.00000315  0.19554106  0.30446547  1.0
  C  C45  1  0.99999248  0.30446050  0.19554247  1.0
  C  C46  1  0.95718588  0.17944384  0.27680539  1.0
  C  C47  1  0.04375702  0.32056191  0.22225464  1.0
  C  C48  1  0.95624006  0.23398480  0.22319611  1.0
  C  C49  1  0.04282125  0.26601682  0.27774236  1.0
  C  C50  1  0.99999643  0.80446165  0.69554293  1.0
  C  C51  1  0.00000611  0.69553711  0.80445475  1.0
  C  C52  1  0.95717628  0.77773658  0.76602314  1.0
  C  C53  1  0.04376229  0.72319878  0.73397506  1.0
  C  C54  1  0.95624491  0.72225076  0.82056440  1.0
  C  C55  1  0.04281823  0.77680944  0.67943322  1.0
  C  C56  1  0.00000888  0.37012083  0.87009180  1.0
  C  C57  1  0.95581576  0.29778945  0.90762180  1.0
  C  C58  1  0.95680294  0.26405109  0.87192040  1.0
  C  C59  1  0.00000662  0.29914895  0.79908960  1.0
  C  C60  1  0.04321272  0.37197386  0.76399901  1.0
  C  C61  1  0.04420036  0.40765964  0.79775497  1.0
  C  C62  1  0.99999745  0.26387172  0.76382203  1.0
  C  C63  1  0.99997911  0.23321818  0.73322142  1.0
  C  C64  1  0.99996503  0.19793409  0.69796103  1.0
  C  C65  1  0.95963263  0.12438639  0.73382723  1.0
  C  C66  1  0.95907240  0.08856039  0.70022665  1.0
  C  C67  1  0.99995862  0.12704115  0.62707934  1.0
  C  C68  1  0.04084823  0.20018373  0.58859101  1.0
  C  C69  1  0.04029763  0.23378576  0.62441267  1.0
  C  C70  1  0.99999242  0.62990480  0.12988573  1.0
  C  C71  1  0.04418053  0.63656978  0.15802818  1.0
  C  C72  1  0.04319050  0.67128808  0.19275524  1.0
  C  C73  1  0.99998483  0.70091012  0.20086221  1.0
  C  C74  1  0.95678552  0.69278865  0.17123890  1.0
  C  C75  1  0.95580095  0.65804465  0.13653866  1.0
  C  C76  1  0.99998480  0.73617796  0.23613040  1.0
  C  C77  1  0.99998935  0.76679347  0.26677279  1.0
  C  C78  1  0.99998906  0.80205492  0.30204954  1.0
  C  C79  1  0.04031600  0.80652138  0.33527071  1.0
  C  C80  1  0.04087186  0.84067133  0.37054836  1.0
  C  C81  1  0.99998875  0.87292928  0.37295718  1.0
  C  C82  1  0.95910188  0.87052695  0.34069897  1.0
  C  C83  1  0.95965945  0.83526789  0.30653067  1.0
  C  C84  1  0.74588802  0.37296146  0.12706071  1.0
  C  C85  1  0.71122793  0.29981914  0.15932415  1.0
  C  C86  1  0.64180328  0.26621353  0.19348743  1.0
  C  C87  1  0.60411046  0.30206620  0.19796586  1.0
  C  C88  1  0.64180064  0.37561502  0.16474073  1.0
  C  C89  1  0.71122666  0.41144197  0.12946730  1.0
  C  C90  1  0.53356353  0.26678492  0.23324174  1.0
  C  C91  1  0.47231104  0.23614076  0.26387457  1.0
  C  C92  1  0.40176914  0.20086374  0.29914005  1.0
  C  C93  1  0.36403196  0.12804241  0.32875688  1.0
  C  C94  1  0.29459017  0.09235471  0.36345407  1.0
  C  C95  1  0.25979274  0.12988970  0.37010974  1.0
  C  C96  1  0.29459592  0.20221714  0.34197415  1.0
  C  C97  1  0.36403633  0.23595740  0.30724731  1.0
  C  C98  1  0.25411865  0.62705547  0.87294573  1.0
  C  C99  1  0.28878301  0.65932416  0.79979647  1.0
  C  C100  1  0.35820902  0.69348455  0.76619414  1.0
  C  C101  1  0.39589628  0.69795743  0.80205557  1.0
  C  C102  1  0.35820060  0.66473059  0.87560806  1.0
  C  C103  1  0.28877581  0.62945534  0.91143401  1.0
  C  C104  1  0.46644327  0.73323508  0.76677397  1.0
  C  C105  1  0.52769605  0.76387034  0.73613578  1.0
  C  C106  1  0.59823832  0.79914060  0.70086068  1.0
  C  C107  1  0.63598088  0.82876832  0.62803054  1.0
  C  C108  1  0.70542230  0.86346993  0.59234667  1.0
  C  C109  1  0.74021280  0.87011626  0.62988795  1.0
  C  C110  1  0.70540436  0.84197275  0.70222273  1.0
  C  C111  1  0.63596320  0.80724269  0.73596492  1.0
  C  C112  1  0.91612072  0.10451023  0.29874427  1.0
  C  C113  1  0.09675124  0.39549419  0.18838402  1.0
  C  C114  1  0.90323859  0.21486187  0.20127057  1.0
  C  C115  1  0.08388062  0.28514531  0.31160984  1.0
  C  C116  1  0.91611121  0.81159237  0.78516184  1.0
  C  C117  1  0.09675655  0.70126980  0.71484024  1.0
  C  C118  1  0.90324834  0.68837354  0.89550541  1.0
  C  C119  1  0.08387821  0.79875147  0.60449181  1.0
  O  O120  1  0.00000405  0.00000383  0.50000058  1.0
  O  O121  1  0.15580416  0.12789694  0.41666563  1.0
  O  O122  1  0.05188592  0.89856839  0.57736706  1.0
  O  O123  1  0.96346615  0.02274762  0.62764366  1.0
  O  O124  1  0.15580032  0.02790911  0.42752692  1.0
  O  O125  1  0.03647548  0.12760534  0.52277916  1.0
  O  O126  1  0.94811715  0.87074875  0.65332714  1.0
  O  O127  1  0.84419442  0.91666004  0.62790331  1.0
  O  O128  1  0.94812384  0.07737365  0.39855858  1.0
  O  O129  1  0.84420626  0.92754061  0.52790170  1.0
  O  O130  1  0.05188232  0.15332370  0.37075266  1.0
  O  O131  1  0.03649695  0.90887201  0.44074600  1.0
  O  O132  1  0.96350187  0.94073499  0.40888418  1.0
  O  O133  1  0.00000250  0.49999945  0.99999990  1.0
  O  O134  1  0.95544115  0.37210640  0.97209142  1.0
  O  O135  1  0.02407876  0.60144153  0.84667381  1.0
  O  O136  1  0.84961982  0.47725117  0.05925566  1.0
  O  O137  1  0.04456679  0.47210037  0.87210213  1.0
  O  O138  1  0.84961597  0.37239624  0.09111782  1.0
  O  O139  1  0.97593956  0.62925460  0.92262787  1.0
  O  O140  1  0.95543331  0.58332724  0.07247060  1.0
  O  O141  1  0.02406202  0.42262707  0.12925574  1.0
  O  O142  1  0.04455444  0.57246747  0.08333961  1.0
  O  O143  1  0.97592552  0.34667926  0.10144247  1.0
  O  O144  1  0.15038982  0.59111911  0.87237880  1.0
  O  O145  1  0.15037952  0.55925544  0.97724504  1.0
  O  O146  1  0.84890514  0.07347675  0.33962449  1.0
  O  O147  1  0.94169114  0.07574785  0.27595294  1.0
  O  O148  1  0.08691482  0.42651893  0.22457545  1.0
  O  O149  1  0.14829917  0.42426214  0.13403833  1.0
  O  O150  1  0.91307457  0.18851625  0.16040141  1.0
  O  O151  1  0.85168752  0.21764340  0.22407145  1.0
  O  O152  1  0.15109479  0.31148694  0.27542106  1.0
  O  O153  1  0.05830922  0.28237037  0.36594444  1.0
  O  O154  1  0.84889994  0.77541161  0.81150265  1.0
  O  O155  1  0.94167911  0.86591968  0.78239221  1.0
  O  O156  1  0.08691567  0.66040052  0.68849645  1.0
  O  O157  1  0.14831350  0.72406662  0.71761108  1.0
  O  O158  1  0.91308931  0.72455517  0.92654017  1.0
  O  O159  1  0.85170156  0.63403198  0.92427411  1.0
  O  O160  1  0.15109487  0.83961931  0.57345904  1.0
  O  O161  1  0.05830378  0.77597676  0.57572228  1.0
  F  F162  1  0.08532633  0.40763997  0.69413319  1.0
  F  F163  1  0.91467462  0.19419428  0.90757592  1.0
  F  F164  1  0.07980425  0.30426984  0.58819028  1.0
  F  F165  1  0.92014944  0.08817450  0.80431689  1.0
  F  F166  1  0.91466896  0.72053095  0.17768524  1.0
  F  F167  1  0.08531434  0.67775889  0.22049171  1.0
  F  F168  1  0.92016075  0.83199466  0.27554135  1.0
  F  F169  1  0.07981242  0.77553284  0.33198392  1.0
  F  F170  1  0.60752926  0.41182867  0.16801882  1.0
  F  F171  1  0.60753671  0.19572925  0.22447850  1.0
  F  F172  1  0.39823688  0.30581128  0.27951787  1.0
  F  F173  1  0.39822313  0.09237920  0.32230570  1.0
  F  F174  1  0.39246427  0.66800241  0.91182994  1.0
  F  F175  1  0.39248062  0.72448231  0.69570601  1.0
  F  F176  1  0.60175262  0.77949987  0.80582779  1.0
  F  F177  1  0.60179415  0.82232358  0.59236011  1.0
