# generated using pymatgen
data_Al3H8C30NO14
_symmetry_space_group_name_H-M   'P 1'
_cell_length_a   12.27922445
_cell_length_b   12.32846632
_cell_length_c   27.06885366
_cell_angle_alpha   89.61007021
_cell_angle_beta   82.25617087
_cell_angle_gamma   119.27862101
_symmetry_Int_Tables_number   1
_chemical_formula_structural   Al3H8C30NO14
_chemical_formula_sum   'Al6 H16 C60 N2 O28'
_cell_volume   3529.15729650
_cell_formula_units_Z   2
loop_
 _symmetry_equiv_pos_site_id
 _symmetry_equiv_pos_as_xyz
  1  'x, y, z'
loop_
 _atom_site_type_symbol
 _atom_site_label
 _atom_site_symmetry_multiplicity
 _atom_site_fract_x
 _atom_site_fract_y
 _atom_site_fract_z
 _atom_site_occupancy
  Al  Al0  1  0.18507016  0.59804690  0.48747178  1.0
  Al  Al1  1  0.91754574  0.59027984  0.50222883  1.0
  Al  Al2  1  0.91787089  0.34615104  0.50360304  1.0
  Al  Al3  1  0.15431706  0.08076244  0.01977022  1.0
  Al  Al4  1  0.41992105  0.33663909  0.00473509  1.0
  Al  Al5  1  0.42518576  0.09520315  0.00283896  1.0
  H  H6  1  0.82544219  0.54140142  0.28277886  1.0
  H  H7  1  0.07997347  0.12070192  0.84902974  1.0
  H  H8  1  0.98924982  0.04480605  0.80482126  1.0
  H  H9  1  0.02988169  0.11334980  0.67687647  1.0
  H  H10  1  0.04756148  0.03836009  0.72517718  1.0
  H  H11  1  0.96363091  0.77279923  0.72657812  1.0
  H  H12  1  0.00182845  0.80647339  0.81484463  1.0
  H  H13  1  0.40375975  0.98600996  0.76454134  1.0
  H  H14  1  0.52959142  0.15812767  0.31788946  1.0
  H  H15  1  0.26962068  0.53758598  0.69866161  1.0
  H  H16  1  0.31033520  0.54135446  0.78717156  1.0
  H  H17  1  0.36593619  0.95272412  0.67634963  1.0
  H  H18  1  0.79787627  0.52415847  0.19330030  1.0
  H  H19  1  0.50202216  0.14095838  0.22842177  1.0
  H  H20  1  0.39017102  0.71037609  0.50625192  1.0
  H  H21  1  0.94694469  0.99590282  0.00344286  1.0
  C  C22  1  0.09910999  0.72104943  0.41850673  1.0
  C  C23  1  0.19933077  0.32849925  0.18294585  1.0
  C  C24  1  0.18074801  0.33656827  0.23237871  1.0
  C  C25  1  0.76571813  0.39674956  0.44634335  1.0
  C  C26  1  0.16390564  0.34167216  0.27807582  1.0
  C  C27  1  0.14394167  0.34845890  0.32754231  1.0
  C  C28  1  0.12412999  0.35536176  0.37273041  1.0
  C  C29  1  0.21901230  0.88841034  0.13132544  1.0
  C  C30  1  0.19933110  0.86108913  0.17654663  1.0
  C  C31  1  0.17809537  0.83476339  0.22615178  1.0
  C  C32  1  0.15855855  0.81460752  0.27209115  1.0
  C  C33  1  0.57273390  0.22821397  0.24054227  1.0
  C  C34  1  0.13826271  0.79113807  0.32185233  1.0
  C  C35  1  0.12002963  0.76798569  0.36732613  1.0
  C  C36  1  0.62405033  0.32030167  0.87414778  1.0
  C  C37  1  0.09628559  0.37988587  0.42325377  1.0
  C  C38  1  0.64608696  0.33147902  0.82822605  1.0
  C  C39  1  0.66762668  0.34252744  0.77803118  1.0
  C  C40  1  0.68463234  0.35129901  0.73182280  1.0
  C  C41  1  0.70614662  0.36209834  0.68161977  1.0
  C  C42  1  0.72808273  0.37299097  0.63569788  1.0
  C  C43  1  0.11710077  0.34717940  0.61045835  1.0
  C  C44  1  0.58790395  0.23776901  0.29047436  1.0
  C  C45  1  0.23115337  0.45190526  0.72277886  1.0
  C  C46  1  0.25340492  0.45395284  0.77132462  1.0
  C  C47  1  0.12481639  0.22483840  0.78308928  1.0
  C  C48  1  0.10571474  0.22249714  0.73246185  1.0
  C  C49  1  0.09436579  0.74086387  0.55873416  1.0
  C  C50  1  0.15700206  0.33655785  0.70288973  1.0
  C  C51  1  0.19940058  0.34099950  0.80216055  1.0
  C  C52  1  0.21611746  0.34030335  0.85250841  1.0
  C  C53  1  0.13463805  0.33803510  0.65328770  1.0
  C  C54  1  0.22479894  0.33045388  0.89656545  1.0
  C  C55  1  0.67926068  0.35087703  0.30627779  1.0
  C  C56  1  0.12064583  0.80162593  0.60424048  1.0
  C  C57  1  0.05966279  0.82059558  0.73516512  1.0
  C  C58  1  0.08078786  0.83872568  0.78423720  1.0
  C  C59  1  0.30778451  0.93976397  0.75594316  1.0
  C  C60  1  0.28683257  0.92169860  0.70681995  1.0
  C  C61  1  0.77667602  0.39571796  0.58300338  1.0
  C  C62  1  0.16243506  0.86058907  0.69568856  1.0
  C  C63  1  0.20513790  0.89763212  0.79545523  1.0
  C  C64  1  0.22488718  0.91442137  0.84574247  1.0
  C  C65  1  0.14017634  0.83265485  0.64623357  1.0
  C  C66  1  0.64839243  0.33134966  0.20489934  1.0
  C  C67  1  0.23817192  0.92859925  0.88948074  1.0
  C  C68  1  0.24046718  0.29255057  0.08725031  1.0
  C  C69  1  0.56619589  0.28497409  0.06407640  1.0
  C  C70  1  0.24258646  0.94448141  0.08154896  1.0
  C  C71  1  0.24212092  0.30175226  0.94512885  1.0
  C  C72  1  0.57267650  0.29496801  0.92654499  1.0
  C  C73  1  0.09672969  0.38246578  0.56357289  1.0
  C  C74  1  0.25421560  0.96636132  0.93933892  1.0
  C  C75  1  0.71664860  0.37144128  0.40020403  1.0
  C  C76  1  0.75471057  0.45413925  0.27066220  1.0
  C  C77  1  0.63092122  0.32074074  0.15414417  1.0
  C  C78  1  0.73954460  0.44454251  0.22072138  1.0
  C  C79  1  0.69747933  0.36108756  0.35694853  1.0
  C  C80  1  0.61264781  0.30951351  0.11079202  1.0
  C  C81  1  0.21653336  0.31922801  0.13784006  1.0
  N  N82  1  0.07418763  0.11329061  0.81192496  1.0
  N  N83  1  0.03255029  0.10849475  0.71420875  1.0
  O  O84  1  0.17894053  0.47722067  0.43919049  1.0
  O  O85  1  0.54051202  0.17949173  0.04730173  1.0
  O  O86  1  0.34599325  0.96637640  0.05348958  1.0
  O  O87  1  0.17872558  0.69329002  0.43052864  1.0
  O  O88  1  0.16857380  0.98228407  0.96354643  1.0
  O  O89  1  0.16104506  0.19578138  0.96695585  1.0
  O  O90  1  0.34144672  0.38352544  0.96217353  1.0
  O  O91  1  0.54225386  0.37220874  0.94610855  1.0
  O  O92  1  0.55546530  0.19436663  0.94832699  1.0
  O  O93  1  0.35738774  0.98577570  0.95431028  1.0
  O  O94  1  0.33548666  0.17195939  0.00859141  1.0
  O  O95  1  0.79644943  0.49692582  0.56104431  1.0
  O  O96  1  0.99927412  0.70745020  0.44674126  1.0
  O  O97  1  0.79227746  0.50292799  0.46284856  1.0
  O  O98  1  0.78609062  0.31573631  0.46672743  1.0
  O  O99  1  0.98568236  0.30166319  0.44718009  1.0
  O  O100  1  0.17167850  0.49383738  0.54567982  1.0
  O  O101  1  0.17502997  0.71502095  0.53671498  1.0
  O  O102  1  0.98684072  0.71281252  0.54548097  1.0
  O  O103  1  0.80166571  0.31473889  0.56344603  1.0
  O  O104  1  0.00197660  0.30066971  0.54400173  1.0
  O  O105  1  0.00430015  0.51073739  0.49786317  1.0
  O  O106  1  0.16217286  0.97211918  0.07050129  1.0
  O  O107  1  0.16136339  0.18861646  0.07426693  1.0
  O  O108  1  0.34388033  0.37602273  0.06026880  1.0
  O  O109  1  0.54743843  0.36704052  0.04346839  1.0
  O  O110  1  0.35008107  0.67889331  0.47719072  1.0
  O  O111  1  0.98938499  0.99546818  0.03093829  1.0
