# generated using pymatgen
data_ZnH3(CO)4
_symmetry_space_group_name_H-M   'P 1'
_cell_length_a   6.85726832
_cell_length_b   15.15005264
_cell_length_c   15.15249399
_cell_angle_alpha   117.73600960
_cell_angle_beta   98.67070031
_cell_angle_gamma   98.69944445
_symmetry_Int_Tables_number   1
_chemical_formula_structural   ZnH3(CO)4
_chemical_formula_sum   'Zn6 H18 C24 O24'
_cell_volume   1332.54110032
_cell_formula_units_Z   6
loop_
 _symmetry_equiv_pos_site_id
 _symmetry_equiv_pos_as_xyz
  1  'x, y, z'
loop_
 _atom_site_type_symbol
 _atom_site_label
 _atom_site_symmetry_multiplicity
 _atom_site_fract_x
 _atom_site_fract_y
 _atom_site_fract_z
 _atom_site_occupancy
  Zn  Zn0  1  0.37999611  0.67635822  0.41628480  1.0
  Zn  Zn1  1  0.70341946  0.73990348  0.32346459  1.0
  Zn  Zn2  1  0.96353350  0.58367146  0.26000631  1.0
  Zn  Zn3  1  0.62000227  0.32364277  0.58372033  1.0
  Zn  Zn4  1  0.29657582  0.26009176  0.67653402  1.0
  Zn  Zn5  1  0.03647403  0.41632651  0.73999349  1.0
  H  H6  1  0.70065540  0.54243402  0.56772524  1.0
  H  H7  1  0.15811889  0.02516776  0.45754698  1.0
  H  H8  1  0.13288184  0.43231181  0.97479843  1.0
  H  H9  1  0.29933524  0.45756033  0.43226786  1.0
  H  H10  1  0.84187492  0.97483091  0.54245120  1.0
  H  H11  1  0.86713198  0.56770164  0.02520760  1.0
  H  H12  1  0.24932774  0.73641183  0.59125564  1.0
  H  H13  1  0.51238346  0.85470696  0.26332679  1.0
  H  H14  1  0.65757308  0.40871850  0.14532133  1.0
  H  H15  1  0.75065911  0.26358990  0.40874329  1.0
  H  H16  1  0.48761565  0.14529481  0.73667603  1.0
  H  H17  1  0.34242204  0.59128150  0.85467819  1.0
  H  H18  1  0.10128949  0.74111102  0.50561952  1.0
  H  H19  1  0.35979688  0.76436830  0.25880792  1.0
  H  H20  1  0.59546028  0.49445888  0.23564332  1.0
  H  H21  1  0.89869410  0.25888703  0.49437650  1.0
  H  H22  1  0.64019468  0.23563329  0.74119473  1.0
  H  H23  1  0.40454506  0.50554444  0.76435566  1.0
  C  C24  1  0.76439095  0.62028954  0.44798123  1.0
  C  C25  1  0.14415171  0.82768820  0.37955917  1.0
  C  C26  1  0.31636075  0.55193456  0.17223565  1.0
  C  C27  1  0.23560069  0.37971488  0.55201576  1.0
  C  C28  1  0.85585639  0.17231455  0.62044001  1.0
  C  C29  1  0.68365490  0.44807029  0.82776178  1.0
  C  C30  1  0.88825498  0.55781822  0.47175626  1.0
  C  C31  1  0.33046143  0.91391409  0.44209028  1.0
  C  C32  1  0.41644506  0.52821145  0.08604798  1.0
  C  C33  1  0.11173493  0.44217226  0.52824222  1.0
  C  C34  1  0.66953666  0.08607760  0.55790864  1.0
  C  C35  1  0.58354129  0.47178448  0.91394978  1.0
  C  C36  1  0.83330837  0.52400922  0.53843246  1.0
  C  C37  1  0.30923094  0.01437657  0.47599237  1.0
  C  C38  1  0.29482193  0.46158534  0.98561666  1.0
  C  C39  1  0.16668647  0.47598110  0.46156123  1.0
  C  C40  1  0.69075426  0.98561366  0.52400278  1.0
  C  C41  1  0.70519785  0.53841729  0.01438240  1.0
  C  C42  1  0.05964405  0.53293386  0.43100491  1.0
  C  C43  1  0.52680132  0.89809149  0.46698278  1.0
  C  C44  1  0.62868675  0.56897139  0.10187503  1.0
  C  C45  1  0.94036037  0.46706183  0.56898490  1.0
  C  C46  1  0.47320381  0.10191609  0.53302046  1.0
  C  C47  1  0.37133898  0.43103384  0.89813048  1.0
  O  O48  1  0.59250882  0.62135757  0.46949265  1.0
  O  O49  1  0.97116521  0.84807170  0.37844605  1.0
  O  O50  1  0.12294849  0.53043885  0.15185106  1.0
  O  O51  1  0.40749465  0.37863889  0.53050642  1.0
  O  O52  1  0.02883266  0.15192463  0.62155674  1.0
  O  O53  1  0.87706187  0.46955712  0.84814751  1.0
  O  O54  1  0.84166684  0.67198519  0.40786138  1.0
  O  O55  1  0.16972670  0.73592662  0.32779790  1.0
  O  O56  1  0.43376265  0.59203351  0.26403992  1.0
  O  O57  1  0.15833510  0.32801266  0.59214215  1.0
  O  O58  1  0.83027119  0.26407550  0.67219911  1.0
  O  O59  1  0.56625256  0.40797561  0.73597025  1.0
  O  O60  1  0.12653238  0.56032661  0.36555247  1.0
  O  O61  1  0.56634434  0.80529852  0.43962584  1.0
  O  O62  1  0.76100339  0.63444055  0.19463060  1.0
  O  O63  1  0.87346825  0.43967300  0.63444666  1.0
  O  O64  1  0.43365274  0.19470076  0.56037835  1.0
  O  O65  1  0.23901399  0.36556475  0.80537884  1.0
  O  O66  1  0.24589681  0.76480468  0.54522705  1.0
  O  O67  1  0.48061550  0.78030865  0.23502662  1.0
  O  O68  1  0.70033596  0.45478577  0.21969594  1.0
  O  O69  1  0.75409005  0.23519745  0.45477152  1.0
  O  O70  1  0.51938427  0.21969456  0.76497611  1.0
  O  O71  1  0.29965641  0.54521520  0.78030300  1.0
