# generated using pymatgen
data_Zn3H14C26(NO3)4
_symmetry_space_group_name_H-M   'P 1'
_cell_length_a   15.27148249
_cell_length_b   15.27149140
_cell_length_c   22.40607086
_cell_angle_alpha   90.00003671
_cell_angle_beta   89.99999104
_cell_angle_gamma   89.99932553
_symmetry_Int_Tables_number   1
_chemical_formula_structural   Zn3H14C26(NO3)4
_chemical_formula_sum   'Zn12 H56 C104 N16 O48'
_cell_volume   5225.50605802
_cell_formula_units_Z   4
loop_
 _symmetry_equiv_pos_site_id
 _symmetry_equiv_pos_as_xyz
  1  'x, y, z'
loop_
 _atom_site_type_symbol
 _atom_site_label
 _atom_site_symmetry_multiplicity
 _atom_site_fract_x
 _atom_site_fract_y
 _atom_site_fract_z
 _atom_site_occupancy
  Zn  Zn0  1  0.24299565  0.66866369  0.14514348  1.0
  Zn  Zn1  1  0.75700400  0.33133694  0.64514358  1.0
  Zn  Zn2  1  0.16866211  0.25701159  0.39513769  1.0
  Zn  Zn3  1  0.83133814  0.74298863  0.89513796  1.0
  Zn  Zn4  1  0.25701099  0.16866200  0.10486187  1.0
  Zn  Zn5  1  0.74298867  0.83133794  0.60486175  1.0
  Zn  Zn6  1  0.33133618  0.75700524  0.85485605  1.0
  Zn  Zn7  1  0.66866408  0.24299559  0.35485661  1.0
  Zn  Zn8  1  0.27690169  0.72309884  0.00000068  1.0
  Zn  Zn9  1  0.72309997  0.27689969  0.50000032  1.0
  Zn  Zn10  1  0.22310956  0.22310947  0.24999978  1.0
  Zn  Zn11  1  0.77689007  0.77689061  0.74999963  1.0
  H  H12  1  0.00854570  0.74650789  0.95884530  1.0
  H  H13  1  0.96714301  0.62799935  0.13077322  1.0
  H  H14  1  0.80683969  0.62144624  0.10708991  1.0
  H  H15  1  0.67472410  0.63252582  0.08513158  1.0
  H  H16  1  0.52103167  0.64632431  0.04875842  1.0
  H  H17  1  0.62317438  0.73528071  0.87993227  1.0
  H  H18  1  0.43883576  0.79446752  0.08619875  1.0
  H  H19  1  0.99145520  0.25349174  0.45884627  1.0
  H  H20  1  0.03285730  0.37199996  0.63077431  1.0
  H  H21  1  0.19316063  0.37855240  0.60709054  1.0
  H  H22  1  0.32527557  0.36747607  0.58513130  1.0
  H  H23  1  0.47896866  0.35367689  0.54875811  1.0
  H  H24  1  0.37682588  0.26471688  0.37993243  1.0
  H  H25  1  0.56116521  0.20553307  0.58619570  1.0
  H  H26  1  0.24652549  0.49146686  0.20885296  1.0
  H  H27  1  0.12798664  0.53285980  0.38077245  1.0
  H  H28  1  0.12143492  0.69316637  0.35709408  1.0
  H  H29  1  0.13252410  0.82529288  0.33513310  1.0
  H  H30  1  0.14632998  0.97898177  0.29875281  1.0
  H  H31  1  0.23528856  0.87681891  0.12993247  1.0
  H  H32  1  0.29448537  0.06118385  0.33618398  1.0
  H  H33  1  0.75347350  0.50853449  0.70885448  1.0
  H  H34  1  0.87201493  0.46714171  0.88077260  1.0
  H  H35  1  0.87856534  0.30683512  0.85709371  1.0
  H  H36  1  0.86747355  0.17470924  0.83513357  1.0
  H  H37  1  0.85366964  0.02102032  0.79875411  1.0
  H  H38  1  0.76471240  0.12318106  0.62993248  1.0
  H  H39  1  0.70551686  0.93881632  0.83618524  1.0
  H  H40  1  0.49146647  0.24652606  0.29114621  1.0
  H  H41  1  0.53286002  0.12798590  0.11922715  1.0
  H  H42  1  0.69316604  0.12143486  0.14290599  1.0
  H  H43  1  0.82529329  0.13252403  0.16486655  1.0
  H  H44  1  0.97898228  0.14632992  0.20124598  1.0
  H  H45  1  0.87682073  0.23528917  0.37006721  1.0
  H  H46  1  0.06118381  0.29448521  0.16381513  1.0
  H  H47  1  0.50853315  0.75347406  0.79114653  1.0
  H  H48  1  0.46714029  0.87201405  0.61922752  1.0
  H  H49  1  0.30683427  0.87856512  0.64290594  1.0
  H  H50  1  0.17470701  0.86747400  0.66486517  1.0
  H  H51  1  0.02101867  0.85366881  0.70124460  1.0
  H  H52  1  0.12317887  0.76471365  0.87006668  1.0
  H  H53  1  0.93881649  0.70551414  0.66381493  1.0
  H  H54  1  0.25349307  0.99145524  0.04115566  1.0
  H  H55  1  0.37200054  0.03285439  0.86922700  1.0
  H  H56  1  0.37855299  0.19315894  0.89290901  1.0
  H  H57  1  0.36747601  0.32527578  0.91486782  1.0
  H  H58  1  0.35367749  0.47896813  0.95124148  1.0
  H  H59  1  0.26471891  0.37682500  0.12006717  1.0
  H  H60  1  0.20553160  0.56116659  0.91380210  1.0
  H  H61  1  0.74650726  0.00854464  0.54115518  1.0
  H  H62  1  0.62799841  0.96714515  0.36922654  1.0
  H  H63  1  0.62144792  0.80684062  0.39290848  1.0
  H  H64  1  0.63252424  0.67472446  0.41486768  1.0
  H  H65  1  0.64632144  0.52103148  0.45124127  1.0
  H  H66  1  0.73528206  0.62317496  0.62006696  1.0
  H  H67  1  0.79446669  0.43883364  0.41380496  1.0
  C  C68  1  0.96603574  0.71845196  0.99286816  1.0
  C  C69  1  0.99995939  0.68795921  0.04691738  1.0
  C  C70  1  0.94164960  0.65257075  0.08853646  1.0
  C  C71  1  0.85280822  0.64912301  0.07514634  1.0
  C  C72  1  0.82345332  0.68082013  0.02002513  1.0
  C  C73  1  0.73017424  0.68026015  0.00187603  1.0
  C  C74  1  0.66182345  0.65523420  0.03994250  1.0
  C  C75  1  0.57606553  0.66238789  0.01977788  1.0
  C  C76  1  0.55970207  0.69238943  0.96177482  1.0
  C  C77  1  0.63168449  0.71259003  0.92573905  1.0
  C  C78  1  0.09679361  0.69284945  0.05904941  1.0
  C  C79  1  0.46695721  0.70831965  0.94144195  1.0
  C  C80  1  0.39282147  0.75537731  0.11363328  1.0
  C  C81  1  0.03396383  0.28154769  0.49286881  1.0
  C  C82  1  0.00004225  0.31204003  0.54691800  1.0
  C  C83  1  0.05835072  0.34742852  0.58853709  1.0
  C  C84  1  0.14719211  0.35087625  0.57514696  1.0
  C  C85  1  0.17654701  0.31917973  0.52002529  1.0
  C  C86  1  0.26982610  0.31973970  0.50187574  1.0
  C  C87  1  0.33817688  0.34476634  0.53994176  1.0
  C  C88  1  0.42393546  0.33761263  0.51977758  1.0
  C  C89  1  0.44029817  0.30761019  0.46177454  1.0
  C  C90  1  0.36831510  0.28740891  0.42573921  1.0
  C  C91  1  0.90320672  0.30714980  0.55904949  1.0
  C  C92  1  0.53304237  0.29167865  0.44144209  1.0
  C  C93  1  0.60717885  0.24462264  0.61363023  1.0
  C  C94  1  0.21845658  0.53397436  0.24287410  1.0
  C  C95  1  0.18796137  0.50005318  0.29692284  1.0
  C  C96  1  0.15256367  0.55835813  0.33853881  1.0
  C  C97  1  0.14911620  0.64719950  0.32514782  1.0
  C  C98  1  0.18082154  0.67655660  0.27002883  1.0
  C  C99  1  0.18025654  0.76983302  0.25187752  1.0
  C  C100  1  0.15523564  0.83818996  0.28994222  1.0
  C  C101  1  0.16238769  0.92394512  0.26977494  1.0
  C  C102  1  0.19239123  0.94030220  0.21177235  1.0
  C  C103  1  0.21259599  0.86831760  0.17574103  1.0
  C  C104  1  0.19285275  0.40321652  0.30905346  1.0
  C  C105  1  0.20832168  0.03304558  0.19143704  1.0
  C  C106  1  0.25538673  0.10718746  0.36361986  1.0
  C  C107  1  0.78154174  0.46602703  0.74287426  1.0
  C  C108  1  0.81203890  0.49994825  0.79692346  1.0
  C  C109  1  0.84743659  0.44164334  0.83853940  1.0
  C  C110  1  0.85088341  0.35280065  0.82514703  1.0
  C  C111  1  0.81917678  0.32344481  0.77002892  1.0
  C  C112  1  0.81974178  0.23016772  0.75187802  1.0
  C  C113  1  0.84476267  0.16181278  0.78994313  1.0
  C  C114  1  0.83761063  0.07605694  0.76977581  1.0
  C  C115  1  0.80760841  0.05969720  0.71177234  1.0
  C  C116  1  0.78740432  0.13168372  0.67574105  1.0
  C  C117  1  0.80714817  0.59678493  0.80905412  1.0
  C  C118  1  0.79167731  0.96695575  0.69143787  1.0
  C  C119  1  0.74461418  0.89281142  0.86362020  1.0
  C  C120  1  0.53397397  0.21845650  0.25712596  1.0
  C  C121  1  0.50005276  0.18796129  0.20307676  1.0
  C  C122  1  0.55835773  0.15256294  0.16146035  1.0
  C  C123  1  0.64719915  0.14911613  0.17485225  1.0
  C  C124  1  0.67655695  0.18082212  0.22997125  1.0
  C  C125  1  0.76983408  0.18025648  0.24812213  1.0
  C  C126  1  0.83818908  0.15523624  0.21005699  1.0
  C  C127  1  0.92394496  0.16238763  0.23022429  1.0
  C  C128  1  0.94030337  0.19239118  0.28822688  1.0
  C  C129  1  0.86831809  0.21259593  0.32425819  1.0
  C  C130  1  0.40321603  0.19285266  0.19094568  1.0
  C  C131  1  0.03304558  0.20832228  0.30856249  1.0
  C  C132  1  0.10718809  0.25538658  0.13637925  1.0
  C  C133  1  0.46602500  0.78154294  0.75712584  1.0
  C  C134  1  0.49994753  0.81203810  0.70307710  1.0
  C  C135  1  0.44164258  0.84743640  0.66146071  1.0
  C  C136  1  0.35279984  0.85088388  0.67485218  1.0
  C  C137  1  0.32344334  0.81917794  0.72997027  1.0
  C  C138  1  0.23016621  0.81974295  0.74812161  1.0
  C  C139  1  0.16180990  0.84476315  0.71005604  1.0
  C  C140  1  0.07605468  0.83761113  0.73022290  1.0
  C  C141  1  0.05969691  0.80760829  0.78822637  1.0
  C  C142  1  0.13168152  0.78740553  0.82425811  1.0
  C  C143  1  0.59678427  0.80714736  0.69094601  1.0
  C  C144  1  0.96695404  0.79167786  0.80856099  1.0
  C  C145  1  0.89281222  0.74461274  0.63637952  1.0
  C  C146  1  0.28154904  0.03396377  0.00713253  1.0
  C  C147  1  0.31204191  0.00004070  0.95308329  1.0
  C  C148  1  0.34743106  0.05834912  0.91146422  1.0
  C  C149  1  0.35087683  0.14719111  0.92485347  1.0
  C  C150  1  0.31917966  0.17654668  0.97997514  1.0
  C  C151  1  0.31974029  0.26982572  0.99812382  1.0
  C  C152  1  0.34476628  0.33817644  0.96005736  1.0
  C  C153  1  0.33761257  0.42393498  0.98022201  1.0
  C  C154  1  0.30761091  0.44029788  0.03822508  1.0
  C  C155  1  0.28740962  0.36831487  0.07426039  1.0
  C  C156  1  0.30715167  0.90320529  0.94095195  1.0
  C  C157  1  0.29168067  0.53304204  0.05855798  1.0
  C  C158  1  0.24462184  0.60718085  0.88636758  1.0
  C  C159  1  0.71845130  0.96603543  0.50713246  1.0
  C  C160  1  0.68795833  0.99995892  0.45308283  1.0
  C  C161  1  0.65256984  0.94165046  0.41146330  1.0
  C  C162  1  0.64912341  0.85280783  0.42485296  1.0
  C  C163  1  0.68081991  0.82345297  0.47997417  1.0
  C  C164  1  0.68025928  0.73017394  0.49812325  1.0
  C  C165  1  0.65523331  0.66182319  0.46005721  1.0
  C  C166  1  0.66238635  0.57606467  0.48022182  1.0
  C  C167  1  0.69238812  0.55970200  0.53822529  1.0
  C  C168  1  0.71259070  0.63168505  0.57426018  1.0
  C  C169  1  0.69285053  0.09679366  0.44095155  1.0
  C  C170  1  0.70831901  0.46695787  0.55855770  1.0
  C  C171  1  0.75537711  0.39282002  0.38637042  1.0
  N  N172  1  0.88056797  0.71464275  0.97994622  1.0
  N  N173  1  0.71400985  0.70759201  0.94575416  1.0
  N  N174  1  0.11943161  0.28535690  0.47994641  1.0
  N  N175  1  0.28599104  0.29240695  0.44575478  1.0
  N  N176  1  0.21464898  0.61944147  0.22995307  1.0
  N  N177  1  0.20759106  0.78599497  0.19575880  1.0
  N  N178  1  0.78534934  0.38056122  0.72995275  1.0
  N  N179  1  0.79240727  0.21400703  0.69575885  1.0
  N  N180  1  0.61944114  0.21464891  0.27004656  1.0
  N  N181  1  0.78599409  0.20759166  0.30424085  1.0
  N  N182  1  0.38055914  0.78535054  0.77004645  1.0
  N  N183  1  0.21400552  0.79240848  0.80424032  1.0
  N  N184  1  0.28535825  0.11943150  0.02005360  1.0
  N  N185  1  0.29240766  0.28599019  0.05424526  1.0
  N  N186  1  0.71464209  0.88056902  0.52005350  1.0
  N  N187  1  0.70759267  0.71400970  0.55424509  1.0
  O  O188  1  0.14356358  0.72871729  0.01943605  1.0
  O  O189  1  0.12144235  0.66010727  0.10862525  1.0
  O  O190  1  0.41242021  0.71757646  0.98338148  1.0
  O  O191  1  0.45264882  0.71311885  0.88552362  1.0
  O  O192  1  0.31498560  0.74538987  0.08981384  1.0
  O  O193  1  0.41391390  0.72481962  0.16262446  1.0
  O  O194  1  0.85643741  0.27128191  0.51943611  1.0
  O  O195  1  0.87855797  0.33989202  0.60862579  1.0
  O  O196  1  0.58757937  0.28242123  0.48338162  1.0
  O  O197  1  0.54735143  0.28688136  0.38552332  1.0
  O  O198  1  0.68501603  0.25460875  0.58981258  1.0
  O  O199  1  0.58608706  0.27517841  0.66262277  1.0
  O  O200  1  0.22873102  0.35644548  0.26944588  1.0
  O  O201  1  0.16009379  0.37856361  0.35862440  1.0
  O  O202  1  0.21758961  0.08758442  0.23337569  1.0
  O  O203  1  0.21311485  0.04735389  0.13551872  1.0
  O  O204  1  0.24539969  0.18502862  0.33980668  1.0
  O  O205  1  0.22482335  0.08608560  0.41260792  1.0
  O  O206  1  0.77126861  0.64355724  0.76944746  1.0
  O  O207  1  0.83990712  0.62143658  0.85862507  1.0
  O  O208  1  0.78241133  0.91241695  0.73337604  1.0
  O  O209  1  0.78688415  0.95264674  0.63551998  1.0
  O  O210  1  0.75460058  0.81497089  0.83980700  1.0
  O  O211  1  0.77517821  0.91391202  0.91260916  1.0
  O  O212  1  0.35644498  0.22873223  0.23055282  1.0
  O  O213  1  0.37856374  0.16009305  0.14137518  1.0
  O  O214  1  0.08758444  0.21759019  0.26662386  1.0
  O  O215  1  0.04735457  0.21311481  0.36448037  1.0
  O  O216  1  0.18502866  0.24539955  0.16019243  1.0
  O  O217  1  0.08608554  0.22482320  0.08739118  1.0
  O  O218  1  0.64355596  0.77126783  0.73055312  1.0
  O  O219  1  0.62143526  0.83990627  0.64137508  1.0
  O  O220  1  0.91241519  0.78241056  0.76662325  1.0
  O  O221  1  0.95264635  0.78688538  0.86447976  1.0
  O  O222  1  0.81497099  0.75460044  0.66019227  1.0
  O  O223  1  0.91391478  0.77517607  0.58739146  1.0
  O  O224  1  0.27128509  0.85643668  0.98056621  1.0
  O  O225  1  0.33989324  0.87855653  0.89137609  1.0
  O  O226  1  0.28242323  0.58757898  0.01661802  1.0
  O  O227  1  0.28688144  0.54735045  0.11447631  1.0
  O  O228  1  0.25460862  0.68501603  0.91018703  1.0
  O  O229  1  0.27517958  0.58608906  0.83737638  1.0
  O  O230  1  0.72871907  0.14356231  0.48056404  1.0
  O  O231  1  0.66010766  0.12144303  0.39137571  1.0
  O  O232  1  0.71757645  0.41242088  0.51661816  1.0
  O  O233  1  0.71311822  0.45264950  0.61447647  1.0
  O  O234  1  0.74539097  0.31498290  0.41018806  1.0
  O  O235  1  0.72482200  0.41391111  0.33737790  1.0
