# generated using pymatgen
data_Hf3H16C25O16
_symmetry_space_group_name_H-M   'P 1'
_cell_length_a   9.28079035
_cell_length_b   17.75216302
_cell_length_c   28.99555081
_cell_angle_alpha   93.57610820
_cell_angle_beta   96.76337299
_cell_angle_gamma   91.00751447
_symmetry_Int_Tables_number   1
_chemical_formula_structural   Hf3H16C25O16
_chemical_formula_sum   'Hf6 H32 C50 O32'
_cell_volume   4733.15669537
_cell_formula_units_Z   2
loop_
 _symmetry_equiv_pos_site_id
 _symmetry_equiv_pos_as_xyz
  1  'x, y, z'
loop_
 _atom_site_type_symbol
 _atom_site_label
 _atom_site_symmetry_multiplicity
 _atom_site_fract_x
 _atom_site_fract_y
 _atom_site_fract_z
 _atom_site_occupancy
  Hf  Hf0  1  0.03352118  0.88626711  0.04652445  1.0
  Hf  Hf1  1  0.97328092  0.10377997  0.95645411  1.0
  Hf  Hf2  1  0.87574387  0.05489147  0.06038041  1.0
  Hf  Hf3  1  0.13677114  0.92845934  0.93858466  1.0
  Hf  Hf4  1  0.76208180  0.93589713  0.95979409  1.0
  Hf  Hf5  1  0.25617747  0.05114964  0.03992796  1.0
  H  H6  1  0.95145294  0.81186007  0.95749790  1.0
  H  H7  1  0.68543931  0.09078096  0.97988388  1.0
  H  H8  1  0.26721687  0.07756986  0.94589306  1.0
  H  H9  1  0.13495118  0.00587654  0.11745592  1.0
  H  H10  1  0.46498889  0.92678340  0.97042738  1.0
  H  H11  1  0.97510905  0.19574866  0.08743904  1.0
  H  H12  1  0.30450970  0.15495346  0.10745258  1.0
  H  H13  1  0.71819052  0.81723341  0.89046052  1.0
  H  H14  1  0.88667195  0.85717337  0.88575701  1.0
  H  H15  1  0.41668996  0.95371072  0.91325668  1.0
  H  H16  1  0.53962480  0.10025764  0.03202715  1.0
  H  H17  1  0.62839357  0.96913932  0.88187324  1.0
  H  H18  1  0.84061755  0.15494316  0.87551226  1.0
  H  H19  1  0.20823130  0.79512967  0.09919792  1.0
  H  H20  1  0.46362242  0.99221619  0.09333268  1.0
  H  H21  1  0.05185527  0.86688525  0.85342674  1.0
  H  H22  1  0.76689304  0.19231910  0.91853272  1.0
  H  H23  1  0.64880327  0.11462440  0.09816400  1.0
  H  H24  1  0.51591013  0.94188299  0.02682013  1.0
  H  H25  1  0.49849841  0.03088473  0.99689422  1.0
  H  H26  1  0.92443273  0.16843429  0.13471379  1.0
  H  H27  1  0.09903972  0.83384670  0.13220599  1.0
  H  H28  1  0.76384490  0.50772207  0.01319140  1.0
  H  H29  1  0.22431062  0.48872477  0.98807259  1.0
  H  H30  1  0.13803490  0.94553575  0.28942789  1.0
  H  H31  1  0.94811873  0.96547233  0.41823470  1.0
  H  H32  1  0.67137918  0.94816794  0.28748573  1.0
  H  H33  1  0.30004879  0.05370852  0.71393671  1.0
  H  H34  1  0.02697604  0.03448178  0.58245893  1.0
  H  H35  1  0.83310296  0.05711188  0.71044826  1.0
  H  H36  1  0.75237069  0.00096251  0.49831021  1.0
  H  H37  1  0.21978814  0.99897131  0.50252672  1.0
  C  C38  1  0.75864799  0.77787314  0.01046831  1.0
  C  C39  1  0.21687311  0.76804151  0.99134227  1.0
  C  C40  1  0.87570411  0.94528307  0.14213502  1.0
  C  C41  1  0.85399024  0.25672839  0.01603093  1.0
  C  C42  1  0.22449801  0.21968367  0.99521046  1.0
  C  C43  1  0.08925046  0.05141457  0.85811998  1.0
  C  C44  1  0.56622289  0.56952195  0.00378128  1.0
  C  C45  1  0.41119779  0.56436701  0.99622881  1.0
  C  C46  1  0.34236530  0.49310133  0.99320423  1.0
  C  C47  1  0.42224811  0.42677738  0.99687327  1.0
  C  C48  1  0.57717423  0.43209099  0.00366260  1.0
  C  C49  1  0.64583438  0.50357835  0.00739417  1.0
  C  C50  1  0.90289186  0.94543938  0.28335041  1.0
  C  C51  1  0.04308992  0.94810623  0.30816865  1.0
  C  C52  1  0.05973929  0.95585389  0.35705463  1.0
  C  C53  1  0.93548333  0.95940596  0.38039165  1.0
  C  C54  1  0.79530777  0.95655815  0.35593636  1.0
  C  C55  1  0.77902460  0.94954844  0.30707708  1.0
  C  C56  1  0.06809360  0.05701462  0.71731766  1.0
  C  C57  1  0.19291266  0.05228503  0.69402138  1.0
  C  C58  1  0.17809404  0.04444839  0.64515388  1.0
  C  C59  1  0.03846361  0.04130108  0.62027880  1.0
  C  C60  1  0.91350472  0.04548395  0.64322013  1.0
  C  C61  1  0.92869153  0.05413793  0.69202182  1.0
  C  C62  1  0.54352312  0.98610138  0.45748105  1.0
  C  C63  1  0.39047931  0.98556052  0.45864955  1.0
  C  C64  1  0.33670484  0.99940535  0.50157095  1.0
  C  C65  1  0.42865453  0.01388551  0.54335651  1.0
  C  C66  1  0.58167805  0.01449682  0.54213400  1.0
  C  C67  1  0.63545286  0.00052560  0.49924410  1.0
  C  C68  1  0.68152847  0.02820302  0.58240169  1.0
  C  C69  1  0.77961055  0.03820772  0.61425074  1.0
  C  C70  1  0.29308528  0.03674798  0.61724054  1.0
  C  C71  1  0.36510593  0.02711941  0.58483636  1.0
  C  C72  1  0.29096837  0.97224464  0.41821348  1.0
  C  C73  1  0.19395192  0.96272750  0.38596627  1.0
  C  C74  1  0.68068543  0.96374570  0.38397220  1.0
  C  C75  1  0.60757529  0.97305857  0.41610753  1.0
  C  C76  1  0.27924499  0.69392504  0.99100055  1.0
  C  C77  1  0.33368997  0.63207347  0.99295883  1.0
  C  C78  1  0.66478043  0.36783751  0.00687826  1.0
  C  C79  1  0.75037507  0.31659502  0.01021434  1.0
  C  C80  1  0.28906730  0.29423608  0.99451830  1.0
  C  C81  1  0.35000432  0.35568777  0.99500206  1.0
  C  C82  1  0.69257438  0.70399512  0.01059932  1.0
  C  C83  1  0.63689441  0.64101101  0.00768886  1.0
  C  C84  1  0.08055275  0.06116849  0.76667539  1.0
  C  C85  1  0.08718116  0.06121675  0.80887862  1.0
  C  C86  1  0.88682109  0.94134945  0.23395474  1.0
  C  C87  1  0.87363334  0.94060309  0.19162315  1.0
  O  O88  1  0.17046403  0.84303902  0.11062930  1.0
  O  O89  1  0.86874150  0.79374920  0.04057081  1.0
  O  O90  1  0.92293476  0.88949827  0.11957476  1.0
  O  O91  1  0.22130869  0.80630197  0.95659184  1.0
  O  O92  1  0.83435230  0.00792880  0.12565149  1.0
  O  O93  1  0.15992777  0.78739954  0.02882495  1.0
  O  O94  1  0.70274136  0.81961395  0.97918371  1.0
  O  O95  1  0.85477076  0.94941304  0.03067983  1.0
  O  O96  1  0.96504326  0.86356721  0.97040687  1.0
  O  O97  1  0.08960765  0.99703709  0.08553366  1.0
  O  O98  1  0.16601849  0.94408666  0.01068229  1.0
  O  O99  1  0.34889114  0.92645157  0.93055907  1.0
  O  O100  1  0.55423068  0.94229470  0.99516773  1.0
  O  O101  1  0.93966658  0.99152473  0.93792131  1.0
  O  O102  1  0.77347095  0.06243746  0.98684247  1.0
  O  O103  1  0.03368688  0.09170697  0.02452896  1.0
  O  O104  1  0.19403464  0.05308652  0.96159279  1.0
  O  O105  1  0.68549140  0.10827204  0.06816021  1.0
  O  O106  1  0.93877566  0.25893081  0.05322808  1.0
  O  O107  1  0.84801810  0.20686385  0.98153926  1.0
  O  O108  1  0.40533874  0.97090911  0.06532417  1.0
  O  O109  1  0.12392527  0.20021854  0.96195779  1.0
  O  O110  1  0.97722235  0.15201180  0.10899644  1.0
  O  O111  1  0.31770894  0.10090626  0.10349696  1.0
  O  O112  1  0.45993856  0.08141514  0.00641688  1.0
  O  O113  1  0.27414384  0.18004122  0.02779724  1.0
  O  O114  1  0.79089737  0.14449318  0.90244330  1.0
  O  O115  1  0.02777907  0.85501713  0.88391594  1.0
  O  O116  1  0.03698390  0.10419291  0.88284611  1.0
  O  O117  1  0.14135618  0.99024386  0.87200713  1.0
  O  O118  1  0.77143400  0.86521614  0.89326057  1.0
  O  O119  1  0.60820151  0.98069083  0.91364536  1.0
