# generated using pymatgen
data_CoH26(C7N)6
_symmetry_space_group_name_H-M   'P 1'
_cell_length_a   9.34987753
_cell_length_b   19.10451012
_cell_length_c   19.10193465
_cell_angle_alpha   117.38337040
_cell_angle_beta   99.38067098
_cell_angle_gamma   99.37699982
_symmetry_Int_Tables_number   1
_chemical_formula_structural   CoH26(C7N)6
_chemical_formula_sum   'Co3 H78 C126 N18'
_cell_volume   2876.91448554
_cell_formula_units_Z   3
loop_
 _symmetry_equiv_pos_site_id
 _symmetry_equiv_pos_as_xyz
  1  'x, y, z'
loop_
 _atom_site_type_symbol
 _atom_site_label
 _atom_site_symmetry_multiplicity
 _atom_site_fract_x
 _atom_site_fract_y
 _atom_site_fract_z
 _atom_site_occupancy
  Co  Co0  1  0.49999991  0.49999661  0.50000037  1.0
  Co  Co1  1  0.00000132  0.00000435  0.50000241  1.0
  Co  Co2  1  0.99999397  0.49999870  0.99999673  1.0
  H  H3  1  0.06964651  0.20529864  0.23149470  1.0
  H  H4  1  0.86365644  0.02600924  0.79480157  1.0
  H  H5  1  0.83797734  0.76869154  0.97389756  1.0
  H  H6  1  0.93035275  0.79469544  0.76850714  1.0
  H  H7  1  0.13634820  0.97399838  0.20520401  1.0
  H  H8  1  0.16201408  0.23131152  0.02610347  1.0
  H  H9  1  0.93263824  0.35650743  0.50255011  1.0
  H  H10  1  0.57581625  0.14601114  0.64347200  1.0
  H  H11  1  0.43061604  0.49752461  0.85432145  1.0
  H  H12  1  0.06736155  0.64348717  0.49745226  1.0
  H  H13  1  0.42418948  0.85399926  0.35653514  1.0
  H  H14  1  0.56938061  0.50247237  0.14567226  1.0
  H  H15  1  0.90642551  0.42636681  0.65793007  1.0
  H  H16  1  0.47961659  0.23157314  0.57366696  1.0
  H  H17  1  0.24872590  0.34229404  0.76855777  1.0
  H  H18  1  0.09357579  0.57362914  0.34207181  1.0
  H  H19  1  0.52038909  0.76843643  0.42633874  1.0
  H  H20  1  0.75127028  0.65770476  0.23143532  1.0
  H  H21  1  0.95939031  0.60100141  0.78448489  1.0
  H  H22  1  0.35849301  0.18334675  0.39899566  1.0
  H  H23  1  0.17533451  0.21559408  0.81663512  1.0
  H  H24  1  0.04061333  0.39899312  0.21551005  1.0
  H  H25  1  0.64150493  0.81665296  0.60100875  1.0
  H  H26  1  0.82466172  0.78440464  0.18336033  1.0
  H  H27  1  0.06355985  0.60091533  0.91387404  1.0
  H  H28  1  0.46301633  0.31273135  0.39900661  1.0
  H  H29  1  0.14977472  0.08610364  0.68722355  1.0
  H  H30  1  0.93644127  0.39907854  0.08612086  1.0
  H  H31  1  0.53698968  0.68726962  0.60099968  1.0
  H  H32  1  0.85022806  0.91389866  0.31277059  1.0
  H  H33  1  0.67782260  0.43147347  0.87406248  1.0
  H  H34  1  0.24652032  0.44251162  0.56835746  1.0
  H  H35  1  0.80388092  0.12606504  0.55765152  1.0
  H  H36  1  0.32217753  0.56852141  0.12593159  1.0
  H  H37  1  0.75348926  0.55749167  0.43164931  1.0
  H  H38  1  0.19612182  0.87393613  0.44234149  1.0
  H  H39  1  0.55759526  0.42411833  0.74304356  1.0
  H  H40  1  0.13352725  0.31899433  0.57586029  1.0
  H  H41  1  0.81484103  0.25712701  0.68128573  1.0
  H  H42  1  0.44240391  0.57587807  0.25695142  1.0
  H  H43  1  0.86647734  0.68100969  0.42414660  1.0
  H  H44  1  0.18515419  0.74287148  0.31871011  1.0
  H  H45  1  0.56280527  0.59913971  0.81093485  1.0
  H  H46  1  0.96346875  0.21192214  0.40095437  1.0
  H  H47  1  0.75274782  0.18903828  0.78837218  1.0
  H  H48  1  0.43720051  0.40085499  0.18906639  1.0
  H  H49  1  0.03653844  0.78808603  0.59905360  1.0
  H  H50  1  0.24724841  0.81096044  0.21162328  1.0
  H  H51  1  0.33572397  0.65483955  0.76868788  1.0
  H  H52  1  0.68082218  0.11388355  0.34516713  1.0
  H  H53  1  0.56762131  0.23114944  0.88619344  1.0
  H  H54  1  0.66428133  0.34515545  0.23131427  1.0
  H  H55  1  0.31918493  0.88612359  0.65483736  1.0
  H  H56  1  0.43237331  0.76884750  0.11379840  1.0
  H  H57  1  0.64027608  0.22738495  0.28094328  1.0
  H  H58  1  0.41231322  0.05351402  0.77266548  1.0
  H  H59  1  0.35919823  0.71909847  0.94653152  1.0
  H  H60  1  0.35972114  0.77260633  0.71905944  1.0
  H  H61  1  0.58769089  0.94649276  0.22733987  1.0
  H  H62  1  0.64079197  0.28090178  0.05346118  1.0
  H  H63  1  0.79573003  0.14293515  0.20344562  1.0
  H  H64  1  0.65201600  0.06030534  0.85712899  1.0
  H  H65  1  0.59196529  0.79665539  0.93956047  1.0
  H  H66  1  0.20427018  0.85705771  0.79655500  1.0
  H  H67  1  0.34798754  0.93969917  0.14287532  1.0
  H  H68  1  0.40802809  0.20334700  0.06043865  1.0
  H  H69  1  0.18594782  0.35170729  0.33898835  1.0
  H  H70  1  0.83398762  0.98729717  0.64842650  1.0
  H  H71  1  0.84702348  0.66111239  0.01272721  1.0
  H  H72  1  0.81404997  0.64828656  0.66101510  1.0
  H  H73  1  0.16601958  0.01271285  0.35157964  1.0
  H  H74  1  0.15296581  0.33888806  0.98726998  1.0
  H  H75  1  0.03104251  0.43480108  0.41709119  1.0
  H  H76  1  0.59615397  0.98236184  0.56528365  1.0
  H  H77  1  0.61424403  0.58298966  0.01779483  1.0
  H  H78  1  0.96895476  0.56519011  0.58291389  1.0
  H  H79  1  0.40385376  0.01764839  0.43472332  1.0
  H  H80  1  0.38574254  0.41700744  0.98219594  1.0
  C  C81  1  0.00092546  0.24201171  0.26544478  1.0
  C  C82  1  0.75835178  0.02332319  0.75808422  1.0
  C  C83  1  0.73536118  0.73469810  0.97664682  1.0
  C  C84  1  0.99907433  0.75798196  0.73455850  1.0
  C  C85  1  0.24165380  0.97668290  0.24192044  1.0
  C  C86  1  0.26463071  0.26530496  0.02335298  1.0
  C  C87  1  0.75360475  0.41577271  0.48271826  1.0
  C  C88  1  0.33756977  0.06696523  0.58427791  1.0
  C  C89  1  0.27109307  0.51738585  0.93324867  1.0
  C  C90  1  0.24639395  0.58422002  0.51728162  1.0
  C  C91  1  0.66243388  0.93304278  0.41572745  1.0
  C  C92  1  0.72890007  0.48261208  0.06674355  1.0
  C  C93  1  0.85980325  0.39453152  0.52826577  1.0
  C  C94  1  0.46494189  0.13375299  0.60551767  1.0
  C  C95  1  0.33186495  0.47186102  0.86651526  1.0
  C  C96  1  0.14019597  0.60546204  0.47173433  1.0
  C  C97  1  0.53506227  0.86625584  0.39448790  1.0
  C  C98  1  0.66813070  0.52813696  0.13347761  1.0
  C  C99  1  0.84579044  0.42922197  0.60619563  1.0
  C  C100  1  0.41620198  0.17700435  0.57085148  1.0
  C  C101  1  0.23980030  0.39400102  0.82314910  1.0
  C  C102  1  0.15421135  0.57077368  0.39380534  1.0
  C  C103  1  0.58380470  0.82300484  0.42915444  1.0
  C  C104  1  0.76019740  0.60599884  0.17684382  1.0
  C  C105  1  0.73054749  0.47148584  0.60818796  1.0
  C  C106  1  0.25876144  0.13672781  0.52858071  1.0
  C  C107  1  0.12245059  0.39200383  0.86335180  1.0
  C  C108  1  0.26945377  0.52850990  0.39181187  1.0
  C  C109  1  0.74124420  0.86327941  0.47142509  1.0
  C  C110  1  0.87754359  0.60799514  0.13664146  1.0
  C  C111  1  0.67958359  0.51134831  0.67703211  1.0
  C  C112  1  0.16806021  0.16569219  0.48864884  1.0
  C  C113  1  0.00287342  0.32311569  0.83441926  1.0
  C  C114  1  0.32042020  0.48864840  0.32296746  1.0
  C  C115  1  0.83194144  0.83431415  0.51135853  1.0
  C  C116  1  0.99711928  0.67688368  0.16557501  1.0
  C  C117  1  0.74927112  0.51228253  0.75317893  1.0
  C  C118  1  0.23696507  0.24085834  0.48767129  1.0
  C  C119  1  0.99652056  0.24697369  0.75922866  1.0
  C  C120  1  0.25073161  0.48771375  0.24681898  1.0
  C  C121  1  0.76303653  0.75914686  0.51233494  1.0
  C  C122  1  0.00347509  0.75302367  0.24076483  1.0
  C  C123  1  0.89386789  0.56218512  0.80217432  1.0
  C  C124  1  0.33175902  0.23986587  0.43775210  1.0
  C  C125  1  0.09205587  0.19791623  0.76015171  1.0
  C  C126  1  0.10613479  0.43781032  0.19782214  1.0
  C  C127  1  0.66824301  0.76013637  0.56225362  1.0
  C  C128  1  0.90794135  0.80208271  0.23984335  1.0
  C  C129  1  0.95176994  0.56232121  0.87409801  1.0
  C  C130  1  0.38969759  0.31161162  0.43759315  1.0
  C  C131  1  0.07786255  0.12593874  0.68839497  1.0
  C  C132  1  0.04823070  0.43767358  0.12589719  1.0
  C  C133  1  0.61030743  0.68839006  0.56241261  1.0
  C  C134  1  0.92213718  0.87406177  0.31159921  1.0
  C  C135  1  0.73694326  0.46823474  0.85228295  1.0
  C  C136  1  0.26887229  0.38396272  0.53164070  1.0
  C  C137  1  0.88486246  0.14783350  0.61615736  1.0
  C  C138  1  0.26305591  0.53176137  0.14771234  1.0
  C  C139  1  0.73113325  0.61603948  0.46836559  1.0
  C  C140  1  0.11513776  0.85216671  0.38383591  1.0
  C  C141  1  0.67030688  0.46425758  0.77942759  1.0
  C  C142  1  0.20610964  0.31515388  0.53568098  1.0
  C  C143  1  0.89122159  0.22073131  0.68500496  1.0
  C  C144  1  0.32969130  0.53573830  0.22056809  1.0
  C  C145  1  0.79389448  0.68485075  0.46432652  1.0
  C  C146  1  0.10877511  0.77926773  0.31498897  1.0
  C  C147  1  0.56494857  0.55000753  0.67914823  1.0
  C  C148  1  0.01485857  0.12917964  0.44996351  1.0
  C  C149  1  0.88621457  0.32086886  0.87096681  1.0
  C  C150  1  0.43505569  0.44998827  0.32085104  1.0
  C  C151  1  0.98514507  0.87082714  0.55004307  1.0
  C  C152  1  0.11377663  0.67913038  0.12902672  1.0
  C  C153  1  0.51551611  0.59203186  0.75158943  1.0
  C  C154  1  0.92336119  0.15962573  0.40798667  1.0
  C  C155  1  0.76456303  0.24836311  0.84057223  1.0
  C  C156  1  0.48448766  0.40796392  0.24841105  1.0
  C  C157  1  0.07664443  0.84038087  0.59201973  1.0
  C  C158  1  0.23543163  0.75163465  0.15942104  1.0
  C  C159  1  0.40166603  0.62083078  0.73052108  1.0
  C  C160  1  0.78078267  0.10972758  0.37915927  1.0
  C  C161  1  0.67163637  0.26936922  0.89036870  1.0
  C  C162  1  0.59833726  0.37916561  0.26948001  1.0
  C  C163  1  0.21922140  0.89027868  0.62084434  1.0
  C  C164  1  0.32835776  0.73062832  0.10962374  1.0
  C  C165  1  0.38173356  0.59687439  0.64528516  1.0
  C  C166  1  0.78490521  0.04841521  0.40306793  1.0
  C  C167  1  0.73661377  0.35462017  0.95157801  1.0
  C  C168  1  0.61826670  0.40312021  0.35471598  1.0
  C  C169  1  0.21509986  0.95159097  0.59693560  1.0
  C  C170  1  0.26337736  0.64537793  0.04841438  1.0
  C  C171  1  0.72996605  0.38725667  0.39896365  1.0
  C  C172  1  0.34252090  0.01173483  0.61279060  1.0
  C  C173  1  0.33111609  0.60112685  0.98844255  1.0
  C  C174  1  0.27003264  0.61273452  0.60103776  1.0
  C  C175  1  0.65748369  0.98827165  0.38721384  1.0
  C  C176  1  0.66887605  0.39887148  0.01154945  1.0
  C  C177  1  0.82492222  0.33686332  0.35411092  1.0
  C  C178  1  0.48779111  0.01729309  0.66321416  1.0
  C  C179  1  0.47089461  0.64597698  0.98289191  1.0
  C  C180  1  0.17507500  0.66312735  0.64589241  1.0
  C  C181  1  0.51221348  0.98271309  0.33679059  1.0
  C  C182  1  0.52909458  0.35402304  0.01710117  1.0
  C  C183  1  0.76012763  0.25439730  0.29329842  1.0
  C  C184  1  0.50524613  0.03887457  0.74567239  1.0
  C  C185  1  0.46676130  0.70678278  0.96120935  1.0
  C  C186  1  0.23987163  0.74559463  0.70670556  1.0
  C  C187  1  0.49475589  0.96112919  0.25433179  1.0
  C  C188  1  0.53323098  0.29321865  0.03878636  1.0
  C  C189  1  0.84740374  0.20723682  0.24946138  1.0
  C  C190  1  0.63956100  0.04211279  0.79284674  1.0
  C  C191  1  0.59776108  0.75064913  0.95786153  1.0
  C  C192  1  0.15259600  0.79275542  0.75054107  1.0
  C  C193  1  0.36044002  0.95789107  0.20715753  1.0
  C  C194  1  0.40223077  0.24935311  0.04213684  1.0
  C  C195  1  0.06652389  0.32386253  0.32585770  1.0
  C  C196  1  0.74232616  0.00198177  0.67624046  1.0
  C  C197  1  0.74068843  0.67424926  0.99806018  1.0
  C  C198  1  0.93347495  0.67613115  0.67414803  1.0
  C  C199  1  0.25767847  0.99802614  0.32376480  1.0
  C  C200  1  0.25930186  0.32575173  0.00193632  1.0
  C  C201  1  0.97941897  0.37082710  0.37025553  1.0
  C  C202  1  0.60837491  0.99946968  0.62926084  1.0
  C  C203  1  0.60929466  0.62983602  0.00066789  1.0
  C  C204  1  0.02057883  0.62916431  0.62975038  1.0
  C  C205  1  0.39162920  0.00053771  0.37074390  1.0
  C  C206  1  0.39069401  0.37016256  0.99932559  1.0
  N  N207  1  0.67520007  0.46355674  0.53246182  1.0
  N  N208  1  0.21140648  0.06892436  0.53649961  1.0
  N  N209  1  0.14279933  0.46767695  0.93117499  1.0
  N  N210  1  0.32479763  0.53643700  0.46753723  1.0
  N  N211  1  0.78860015  0.93108308  0.46350579  1.0
  N  N212  1  0.85719485  0.53232202  0.06881827  1.0
  N  N213  1  0.48373108  0.55389651  0.61427602  1.0
  N  N214  1  0.92983156  0.06039760  0.44604428  1.0
  N  N215  1  0.86961038  0.38568201  0.93966025  1.0
  N  N216  1  0.51626919  0.44609963  0.38572359  1.0
  N  N217  1  0.07017150  0.93960844  0.55395972  1.0
  N  N218  1  0.13038228  0.61431654  0.06033258  1.0
  N  N219  1  0.87564165  0.51628844  0.89923355  1.0
  N  N220  1  0.35960650  0.38278838  0.48358117  1.0
  N  N221  1  0.97654834  0.10083039  0.61726613  1.0
  N  N222  1  0.12435600  0.48370723  0.10076130  1.0
  N  N223  1  0.64040056  0.61721333  0.51642647  1.0
  N  N224  1  0.02345696  0.89917288  0.38272775  1.0
