# generated using pymatgen
data_Zn6H33C62Cl3O26
_symmetry_space_group_name_H-M   'P 1'
_cell_length_a   18.40617188
_cell_length_b   18.65954983
_cell_length_c   18.79220706
_cell_angle_alpha   109.47255804
_cell_angle_beta   108.74010976
_cell_angle_gamma   108.79755377
_symmetry_Int_Tables_number   1
_chemical_formula_structural   Zn6H33C62Cl3O26
_chemical_formula_sum   'Zn6 H33 C62 Cl3 O26'
_cell_volume   5052.47528801
_cell_formula_units_Z   1
loop_
 _symmetry_equiv_pos_site_id
 _symmetry_equiv_pos_as_xyz
  1  'x, y, z'
loop_
 _atom_site_type_symbol
 _atom_site_label
 _atom_site_symmetry_multiplicity
 _atom_site_fract_x
 _atom_site_fract_y
 _atom_site_fract_z
 _atom_site_occupancy
  Zn  Zn0  1  0.94232375  0.50505603  0.94877238  1.0
  Zn  Zn1  1  0.07211230  0.50464574  0.06696191  1.0
  Zn  Zn2  1  0.48878860  0.05765744  0.05928298  1.0
  Zn  Zn3  1  0.50603439  0.94120510  0.94254342  1.0
  Zn  Zn4  1  0.06848629  0.06472997  0.50643769  1.0
  Zn  Zn5  1  0.93878001  0.93471717  0.49698850  1.0
  H  H6  1  0.10078877  0.75807876  0.98443519  1.0
  H  H7  1  0.84168015  0.17184662  0.57143927  1.0
  H  H8  1  0.91843582  0.36410945  0.70172054  1.0
  H  H9  1  0.83393579  0.27457755  0.69214329  1.0
  H  H10  1  0.75016775  0.14506488  0.01010842  1.0
  H  H11  1  0.55490780  0.30627880  0.98857982  1.0
  H  H12  1  0.62357092  0.36226443  0.10244154  1.0
  H  H13  1  0.66584876  0.41640458  0.97634172  1.0
  H  H14  1  0.73390400  0.47112761  0.09030489  1.0
  H  H15  1  0.19350918  0.77522615  0.30459656  1.0
  H  H16  1  0.19304415  0.90251818  0.40269194  1.0
  H  H17  1  0.84265268  0.73239638  0.23510035  1.0
  H  H18  1  0.86170209  0.79050954  0.17848688  1.0
  H  H19  1  0.84392246  0.60835348  0.12817660  1.0
  H  H20  1  0.86582386  0.66775419  0.07367033  1.0
  H  H21  1  0.62189067  0.83717545  0.11148068  1.0
  H  H22  1  0.72444140  0.83859601  0.23569363  1.0
  H  H23  1  0.86485163  0.18190997  0.42289320  1.0
  H  H24  1  0.92860401  0.17991858  0.36868395  1.0
  H  H25  1  0.75139349  0.17928747  0.30225261  1.0
  H  H26  1  0.32538671  0.53559561  0.93528620  1.0
  H  H27  1  0.81652176  0.18052302  0.24940669  1.0
  H  H28  1  0.35456972  0.95865212  0.70624911  1.0
  H  H29  1  0.23469058  0.96404737  0.60364777  1.0
  H  H30  1  0.08398698  0.97756255  0.80422593  1.0
  H  H31  1  0.03275022  0.86196837  0.74071619  1.0
  H  H32  1  0.15812723  0.86301553  0.84737501  1.0
  H  H33  1  0.45783718  0.81286294  0.05060776  1.0
  H  H34  1  0.22933966  0.89083128  0.01895484  1.0
  H  H35  1  0.11725353  0.29667573  0.92058730  1.0
  H  H36  1  0.92622710  0.26177828  0.58113945  1.0
  H  H37  1  0.92378240  0.31051345  0.02547817  1.0
  H  H38  1  0.47464336  0.62209396  0.01017123  1.0
  C  C39  1  0.01746533  0.37868487  0.91028894  1.0
  C  C40  1  0.23902025  0.67397473  0.96999445  1.0
  C  C41  1  0.16197294  0.67849232  0.96705775  1.0
  C  C42  1  0.15953407  0.75575837  0.98557177  1.0
  C  C43  1  0.23288259  0.83123035  0.00851262  1.0
  C  C44  1  0.31006653  0.83036302  0.01753778  1.0
  C  C45  1  0.96587991  0.28777869  0.75337162  1.0
  C  C46  1  0.01786854  0.31324823  0.83915523  1.0
  C  C47  1  0.07474009  0.27808050  0.85458842  1.0
  C  C48  1  0.07815588  0.22081245  0.78688812  1.0
  C  C49  1  0.02610520  0.19571944  0.70012313  1.0
  C  C50  1  0.09180920  0.60880817  0.96606000  1.0
  C  C51  1  0.97046737  0.23108182  0.68647782  1.0
  C  C52  1  0.90226829  0.23370586  0.61720006  1.0
  C  C53  1  0.89739177  0.29829384  0.69322359  1.0
  C  C54  1  0.73303245  0.34823103  0.02211677  1.0
  C  C55  1  0.80338793  0.34091049  0.01405807  1.0
  C  C56  1  0.81046286  0.26725142  0.01513372  1.0
  C  C57  1  0.74479005  0.20279094  0.01506844  1.0
  C  C58  1  0.67469223  0.21202439  0.02323716  1.0
  C  C59  1  0.67217267  0.28783918  0.02970013  1.0
  C  C60  1  0.62263806  0.33832787  0.04005532  1.0
  C  C61  1  0.05111522  0.63350299  0.14987579  1.0
  C  C62  1  0.69212778  0.40721936  0.03201495  1.0
  C  C63  1  0.97983728  0.71716905  0.19841491  1.0
  C  C64  1  0.05575945  0.70972385  0.21408729  1.0
  C  C65  1  0.13253163  0.77810940  0.28991008  1.0
  C  C66  1  0.13214528  0.84984976  0.34553673  1.0
  C  C67  1  0.05406972  0.85443956  0.33071722  1.0
  C  C68  1  0.97853783  0.78591522  0.25618165  1.0
  C  C69  1  0.88084646  0.75029599  0.20352835  1.0
  C  C70  1  0.88254779  0.67260095  0.13728229  1.0
  C  C71  1  0.61521571  0.97807520  0.09793000  1.0
  C  C72  1  0.86851779  0.40322463  0.00501755  1.0
  C  C73  1  0.38148190  0.90588653  0.02733255  1.0
  C  C74  1  0.37434151  0.95965042  0.85696507  1.0
  C  C75  1  0.60690341  0.14092830  0.02205475  1.0
  C  C76  1  0.08648995  0.95568081  0.60429432  1.0
  C  C77  1  0.02614742  0.13146716  0.62659117  1.0
  C  C78  1  0.86826273  0.97967296  0.38307288  1.0
  C  C79  1  0.04705645  0.92247756  0.39299159  1.0
  C  C80  1  0.74837209  0.05354540  0.24194245  1.0
  C  C81  1  0.68001678  0.97678814  0.16870512  1.0
  C  C82  1  0.67428088  0.89905517  0.16738424  1.0
  C  C83  1  0.24474522  0.59591083  0.94057081  1.0
  C  C84  1  0.73265336  0.89977358  0.23737885  1.0
  C  C85  1  0.80330787  0.97790401  0.31006556  1.0
  C  C86  1  0.80996437  0.05411085  0.30914849  1.0
  C  C87  1  0.86195680  0.15231218  0.36008986  1.0
  C  C88  1  0.79131133  0.15166344  0.28437034  1.0
  C  C89  1  0.22031698  0.93786249  0.79357596  1.0
  C  C90  1  0.29601099  0.94733881  0.78732532  1.0
  C  C91  1  0.29732894  0.95246039  0.71464227  1.0
  C  C92  1  0.22916441  0.95417198  0.65607123  1.0
  C  C93  1  0.15310623  0.94485284  0.66318931  1.0
  C  C94  1  0.32396459  0.59680970  0.95886216  1.0
  C  C95  1  0.14966810  0.93378683  0.73193529  1.0
  C  C96  1  0.09498018  0.92264787  0.77688710  1.0
  C  C97  1  0.17328775  0.92378896  0.84488679  1.0
  C  C98  1  0.40176576  0.67671840  0.00430996  1.0
  C  C99  1  0.39800309  0.75302253  0.02251563  1.0
  C  C100  1  0.31707948  0.75281318  0.00360718  1.0
  Cl  Cl101  1  0.15166522  0.49614812  0.87171122  1.0
  Cl  Cl102  1  0.22089452  0.00778975  0.95313873  1.0
  Cl  Cl103  1  0.14897088  0.17898812  0.81034153  1.0
  O  O104  1  0.96221782  0.40473005  0.88834223  1.0
  O  O105  1  0.58998242  0.92372725  0.01978109  1.0
  O  O106  1  0.40265897  0.98386320  0.07882798  1.0
  O  O107  1  0.41500129  0.88713492  0.97903430  1.0
  O  O108  1  0.39697077  0.01332554  0.93274015  1.0
  O  O109  1  0.41351082  0.91668289  0.83598267  1.0
  O  O110  1  0.56976233  0.16156762  0.06732594  1.0
  O  O111  1  0.59037926  0.06420198  0.97590418  1.0
  O  O112  1  0.11540903  0.01442699  0.58569963  1.0
  O  O113  1  0.00475420  0.90598646  0.57650572  1.0
  O  O114  1  0.08119629  0.16074986  0.60210476  1.0
  O  O115  1  0.07355825  0.40623999  0.98841062  1.0
  O  O116  1  0.96941595  0.05320875  0.59318909  1.0
  O  O117  1  0.94701537  0.03945335  0.42022737  1.0
  O  O118  1  0.84066247  0.92126365  0.40428001  1.0
  O  O119  1  0.10161278  0.00325663  0.42657618  1.0
  O  O120  1  0.98448983  0.89427617  0.40843650  1.0
  O  O121  1  0.01078331  0.58541554  0.92034838  1.0
  O  O122  1  0.11932761  0.58233539  0.01786114  1.0
  O  O123  1  0.99151484  0.60044427  0.07315341  1.0
  O  O124  1  0.10366095  0.60375800  0.17278577  1.0
  O  O125  1  0.84297814  0.43615477  0.95830681  1.0
  O  O126  1  0.94787092  0.41832288  0.04302403  1.0
  O  O127  1  0.58950797  0.03332708  0.12002802  1.0
  O  O128  1  0.87885711  0.25496728  0.01342776  1.0
  O  O129  1  0.48207931  0.68036868  0.02715121  1.0
