# generated using pymatgen
data_Zn4H46C69N16O
_symmetry_space_group_name_H-M   'P 1'
_cell_length_a   16.93624229
_cell_length_b   17.09766904
_cell_length_c   18.72329732
_cell_angle_alpha   106.79114792
_cell_angle_beta   115.24311966
_cell_angle_gamma   101.69536517
_symmetry_Int_Tables_number   1
_chemical_formula_structural   Zn4H46C69N16O
_chemical_formula_sum   'Zn4 H46 C69 N16 O1'
_cell_volume   4349.68859435
_cell_formula_units_Z   1
loop_
 _symmetry_equiv_pos_site_id
 _symmetry_equiv_pos_as_xyz
  1  'x, y, z'
loop_
 _atom_site_type_symbol
 _atom_site_label
 _atom_site_symmetry_multiplicity
 _atom_site_fract_x
 _atom_site_fract_y
 _atom_site_fract_z
 _atom_site_occupancy
  Zn  Zn0  1  0.60444561  0.09476863  0.99817093  1.0
  Zn  Zn1  1  0.39153807  0.88912555  0.00555680  1.0
  Zn  Zn2  1  0.61942214  0.98562934  0.11695791  1.0
  Zn  Zn3  1  0.37435672  0.99762258  0.88498594  1.0
  H  H4  1  0.65710377  0.98048559  0.86761600  1.0
  H  H5  1  0.33994003  0.01700324  0.13131199  1.0
  H  H6  1  0.83315157  0.11744372  0.29185337  1.0
  H  H7  1  0.14102568  0.95567556  0.79121393  1.0
  H  H8  1  0.17044398  0.81984524  0.95782904  1.0
  H  H9  1  0.81721364  0.26607017  0.13767192  1.0
  H  H10  1  0.32271110  0.15343010  0.98045450  1.0
  H  H11  1  0.64460968  0.14570099  0.27920737  1.0
  H  H12  1  0.33999018  0.07169273  0.46901154  1.0
  H  H13  1  0.34086832  0.04503112  0.59095872  1.0
  H  H14  1  0.60698494  0.26350407  0.77041859  1.0
  H  H15  1  0.39083445  0.71187254  0.88376629  1.0
  H  H16  1  0.60624930  0.29020022  0.64792037  1.0
  H  H17  1  0.63091999  0.23061280  0.53844617  1.0
  H  H18  1  0.63851111  0.19818133  0.40602690  1.0
  H  H19  1  0.33578897  0.10769638  0.25156610  1.0
  H  H20  1  0.32864746  0.14134814  0.38455764  1.0
  H  H21  1  0.23564243  0.44440189  0.62905827  1.0
  H  H22  1  0.34199725  0.58170516  0.76143382  1.0
  H  H23  1  0.30324816  0.72838771  0.60479436  1.0
  H  H24  1  0.19547844  0.59140311  0.47313008  1.0
  H  H25  1  0.14615982  0.45596413  0.36681557  1.0
  H  H26  1  0.67396855  0.83604783  0.19278811  1.0
  H  H27  1  0.00031872  0.33509467  0.24115968  1.0
  H  H28  1  0.93319131  0.26215942  0.41618422  1.0
  H  H29  1  0.07865499  0.38247909  0.54145966  1.0
  H  H30  1  0.38350634  0.59346538  0.08552109  1.0
  H  H31  1  0.68424772  0.70513204  0.19672948  1.0
  H  H32  1  0.30786246  0.43850065  0.05776057  1.0
  H  H33  1  0.69667428  0.56622564  0.20317160  1.0
  H  H34  1  0.31789135  0.29379617  0.04349900  1.0
  H  H35  1  0.61874823  0.40799579  0.15701577  1.0
  H  H36  1  0.02859117  0.80136729  0.93137570  1.0
  H  H37  1  0.32924558  0.04933291  0.71497594  1.0
  H  H38  1  0.91337781  0.76211529  0.97561858  1.0
  H  H39  1  0.82120630  0.91097971  0.73841596  1.0
  H  H40  1  0.78291761  0.78790936  0.99190291  1.0
  H  H41  1  0.72389676  0.90044437  0.80497009  1.0
  H  H42  1  0.36987667  0.70880091  0.04344848  1.0
  H  H43  1  0.63317212  0.17665375  0.86331289  1.0
  H  H44  1  0.37556361  0.85922156  0.72777276  1.0
  H  H45  1  0.67259493  0.83086922  0.02154703  1.0
  H  H46  1  0.62798900  0.27234479  0.13377116  1.0
  H  H47  1  0.90861051  0.00386323  0.71342503  1.0
  H  H48  1  0.85271460  0.89347279  0.62903517  1.0
  H  H49  1  0.95729035  0.96886186  0.64713285  1.0
  C  C50  1  0.65350584  0.95071739  0.91066855  1.0
  C  C51  1  0.37103054  0.74949900  0.77247727  1.0
  C  C52  1  0.52510342  0.73826173  0.12610715  1.0
  C  C53  1  0.47951934  0.12627222  0.75995798  1.0
  C  C54  1  0.55385304  0.23044489  0.09028675  1.0
  C  C55  1  0.41517214  0.04070307  0.15633115  1.0
  C  C56  1  0.81429048  0.14346514  0.24300163  1.0
  C  C57  1  0.16383303  0.92583088  0.83626603  1.0
  C  C58  1  0.17832557  0.85640318  0.92097642  1.0
  C  C59  1  0.80689663  0.21844859  0.16388976  1.0
  C  C60  1  0.39828514  0.16970955  0.01261560  1.0
  C  C61  1  0.39124728  0.76008796  0.85667832  1.0
  C  C62  1  0.57054742  0.10577906  0.23198641  1.0
  C  C63  1  0.47324931  0.25145196  0.07258082  1.0
  C  C64  1  0.49061034  0.10472862  0.23872589  1.0
  C  C65  1  0.86519766  0.22138895  0.24587244  1.0
  C  C66  1  0.11127635  0.87828391  0.86212344  1.0
  C  C67  1  0.39788593  0.11559948  0.53519797  1.0
  C  C68  1  0.39856207  0.10024488  0.60427057  1.0
  C  C69  1  0.47527554  0.15052495  0.69011284  1.0
  C  C70  1  0.54844467  0.22063049  0.70408323  1.0
  C  C71  1  0.54783669  0.23580788  0.63471866  1.0
  C  C72  1  0.59817651  0.81668255  0.15351866  1.0
  C  C73  1  0.47393911  0.18178644  0.54815054  1.0
  C  C74  1  0.56572596  0.20507930  0.47578645  1.0
  C  C75  1  0.56990721  0.18622635  0.40038617  1.0
  C  C76  1  0.48740454  0.14531108  0.31727291  1.0
  C  C77  1  0.40118656  0.13451926  0.31430020  1.0
  C  C78  1  0.39704997  0.15326253  0.38970154  1.0
  C  C79  1  0.47884339  0.18411501  0.47194415  1.0
  C  C80  1  0.24950504  0.50682173  0.62340532  1.0
  C  C81  1  0.31024728  0.58463721  0.69835647  1.0
  C  C82  1  0.32762600  0.66697105  0.69442508  1.0
  C  C83  1  0.40443365  0.07551933  0.76172193  1.0
  C  C84  1  0.28965341  0.66626514  0.61098347  1.0
  C  C85  1  0.22890172  0.58845328  0.53609448  1.0
  C  C86  1  0.20348125  0.50734525  0.54082751  1.0
  C  C87  1  0.09944146  0.41392524  0.37821640  1.0
  C  C88  1  0.01694471  0.34577990  0.30715031  1.0
  C  C89  1  0.95492937  0.28987746  0.31895623  1.0
  C  C90  1  0.98081108  0.30328533  0.40489716  1.0
  C  C91  1  0.06321622  0.37109797  0.47569717  1.0
  C  C92  1  0.12381397  0.42918653  0.46428361  1.0
  C  C93  1  0.53192787  0.65875467  0.13829660  1.0
  C  C94  1  0.44337826  0.75226814  0.07813154  1.0
  C  C95  1  0.46949668  0.33936758  0.09694057  1.0
  C  C96  1  0.37603780  0.43172500  0.07953219  1.0
  C  C97  1  0.38187576  0.35079349  0.07160437  1.0
  C  C98  1  0.55034897  0.41397685  0.13635413  1.0
  C  C99  1  0.54664046  0.49760542  0.14445476  1.0
  C  C100  1  0.45718201  0.50693438  0.11275829  1.0
  C  C101  1  0.45245535  0.58812186  0.11135691  1.0
  C  C102  1  0.62092390  0.64989451  0.17387458  1.0
  C  C103  1  0.62810042  0.57228564  0.17738933  1.0
  C  C104  1  0.01481100  0.86203152  0.84341622  1.0
  C  C105  1  0.55913697  0.14152847  0.83794164  1.0
  C  C106  1  0.74626445  0.85025698  0.90221259  1.0
  C  C107  1  0.87172559  0.79250477  0.93832397  1.0
  C  C108  1  0.79848838  0.80667416  0.94700255  1.0
  C  C109  1  0.76456241  0.86953411  0.84222269  1.0
  C  C110  1  0.84064600  0.85767504  0.83340357  1.0
  C  C111  1  0.89831925  0.82188936  0.88533587  1.0
  C  C112  1  0.98333720  0.82472287  0.88786910  1.0
  C  C113  1  0.95147073  0.88964822  0.78522881  1.0
  C  C114  1  0.86711909  0.88696727  0.78034864  1.0
  C  C115  1  0.38319229  0.83515202  0.77709944  1.0
  C  C116  1  0.66233998  0.87498748  0.98969873  1.0
  C  C117  1  0.68580635  0.88487004  0.92826182  1.0
  C  C118  1  0.92087636  0.94801896  0.67868758  1.0
  N  N119  1  0.61589482  0.97807981  0.95892993  1.0
  N  N120  1  0.44861213  0.00602008  0.10644058  1.0
  N  N121  1  0.73300821  0.09809844  0.16583877  1.0
  N  N122  1  0.25379725  0.93174517  0.87678392  1.0
  N  N123  1  0.26254128  0.88825551  0.92937032  1.0
  N  N124  1  0.72798264  0.14489603  0.11658602  1.0
  N  N125  1  0.43248476  0.10656840  0.99524276  1.0
  N  N126  1  0.54399008  0.04592074  0.15287371  1.0
  N  N127  1  0.41148669  0.84460748  0.90570617  1.0
  N  N128  1  0.56262309  0.87228658  0.12443078  1.0
  N  N129  1  0.43674785  0.06201218  0.83450630  1.0
  N  N130  1  0.46613144  0.83199360  0.07746044  1.0
  N  N131  1  0.53322853  0.10286724  0.88199771  1.0
  N  N132  1  0.40648903  0.89073833  0.85683993  1.0
  N  N133  1  0.62118149  0.93154760  0.00754431  1.0
  N  N134  1  0.52815900  0.14402413  0.04294108  1.0
  O  O135  1  0.98171438  0.92035675  0.73763906  1.0
