# generated using pymatgen
data_ZnH27C37(NO)4
_symmetry_space_group_name_H-M   'P 1'
_cell_length_a   10.91981450
_cell_length_b   18.32448041
_cell_length_c   19.21872275
_cell_angle_alpha   89.06479033
_cell_angle_beta   89.09693804
_cell_angle_gamma   88.87801278
_symmetry_Int_Tables_number   1
_chemical_formula_structural   ZnH27C37(NO)4
_chemical_formula_sum   'Zn2 H54 C74 N8 O8'
_cell_volume   3843.95687930
_cell_formula_units_Z   2
loop_
 _symmetry_equiv_pos_site_id
 _symmetry_equiv_pos_as_xyz
  1  'x, y, z'
loop_
 _atom_site_type_symbol
 _atom_site_label
 _atom_site_symmetry_multiplicity
 _atom_site_fract_x
 _atom_site_fract_y
 _atom_site_fract_z
 _atom_site_occupancy
  Zn  Zn0  1  0.48549289  0.57781640  0.49743668  1.0
  Zn  Zn1  1  0.48176700  0.42398645  0.49626825  1.0
  H  H2  1  0.74141211  0.16879348  0.59052545  1.0
  H  H3  1  0.22922854  0.82383338  0.40585692  1.0
  H  H4  1  0.74816697  0.40103687  0.62284045  1.0
  H  H5  1  0.19987644  0.59193443  0.37678907  1.0
  H  H6  1  0.97076098  0.30508186  0.46028241  1.0
  H  H7  1  0.01663750  0.69350642  0.55111218  1.0
  H  H8  1  0.89420032  0.18237110  0.49307800  1.0
  H  H9  1  0.09776013  0.81406657  0.51313176  1.0
  H  H10  1  0.10092609  0.38908558  0.54017816  1.0
  H  H11  1  0.86567764  0.60859556  0.46743764  1.0
  H  H12  1  0.45015578  0.40739285  0.72966607  1.0
  H  H13  1  0.57913951  0.61955873  0.28952149  1.0
  H  H14  1  0.48609665  0.41409499  0.85693719  1.0
  H  H15  1  0.64766706  0.62107736  0.16526361  1.0
  H  H16  1  0.75185144  0.58078854  0.81915059  1.0
  H  H17  1  0.50089263  0.40701898  0.14155496  1.0
  H  H18  1  0.39244063  0.83428080  0.60089450  1.0
  H  H19  1  0.60425064  0.16839149  0.40045446  1.0
  H  H20  1  0.58158415  0.82868010  0.40149263  1.0
  H  H21  1  0.37761053  0.17365201  0.58725021  1.0
  H  H22  1  0.57119879  0.69265565  0.40850077  1.0
  H  H23  1  0.38047689  0.30922957  0.57826847  1.0
  H  H24  1  0.67192517  0.93089100  0.45479137  1.0
  H  H25  1  0.30689049  0.07093585  0.54015210  1.0
  H  H26  1  0.67268007  0.06548794  0.45205243  1.0
  H  H27  1  0.30708233  0.93639195  0.54399685  1.0
  H  H28  1  0.39667811  0.69391611  0.79465842  1.0
  H  H29  1  0.32706717  0.73094881  0.87060428  1.0
  H  H30  1  0.45432243  0.77487468  0.83080946  1.0
  H  H31  1  0.52147191  0.70409477  0.93750066  1.0
  H  H32  1  0.59120115  0.66814121  0.86207269  1.0
  H  H33  1  0.43425028  0.57141180  0.85824847  1.0
  H  H34  1  0.35988787  0.60698514  0.93198861  1.0
  H  H35  1  0.94239199  0.42628188  0.20273490  1.0
  H  H36  1  0.02839779  0.39795583  0.12854097  1.0
  H  H37  1  0.06228714  0.48131961  0.16903364  1.0
  H  H38  1  0.94245875  0.50633957  0.05985102  1.0
  H  H39  1  0.85701858  0.53409919  0.13360396  1.0
  H  H40  1  0.74435163  0.41689048  0.13455135  1.0
  H  H41  1  0.83063441  0.38712290  0.06237270  1.0
  H  H42  1  0.23207673  0.64066431  0.15177055  1.0
  H  H43  1  0.18478946  0.66468412  0.06638975  1.0
  H  H44  1  0.11658122  0.58991506  0.11106097  1.0
  H  H45  1  0.27116019  0.54390585  0.02269813  1.0
  H  H46  1  0.31792455  0.52045467  0.10750069  1.0
  H  H47  1  0.45378765  0.62785012  0.10860692  1.0
  H  H48  1  0.40639348  0.65479682  0.02543303  1.0
  H  H49  1  0.60599919  0.32931281  0.90977521  1.0
  H  H50  1  0.70572486  0.32724763  0.83608731  1.0
  H  H51  1  0.69634883  0.25015933  0.89266482  1.0
  H  H52  1  0.88695828  0.31512867  0.91763618  1.0
  H  H53  1  0.78515170  0.32042370  0.98926276  1.0
  H  H54  1  0.82376779  0.44038850  0.87800302  1.0
  H  H55  1  0.89825525  0.43626847  0.95834156  1.0
  C  C56  1  0.47510387  0.51257673  0.36254002  1.0
  C  C57  1  0.53292744  0.49498825  0.62897407  1.0
  C  C58  1  0.72009527  0.49963002  0.48683947  1.0
  C  C59  1  0.24854736  0.49674858  0.51164516  1.0
  C  C60  1  0.73596312  0.28449934  0.61207915  1.0
  C  C61  1  0.22234740  0.70818413  0.38509939  1.0
  C  C62  1  0.78090698  0.35362051  0.59420025  1.0
  C  C63  1  0.17686439  0.64031502  0.40676893  1.0
  C  C64  1  0.86566502  0.36157120  0.53924612  1.0
  C  C65  1  0.10286001  0.63484101  0.46664689  1.0
  C  C66  1  0.90581976  0.29907335  0.50358013  1.0
  C  C67  1  0.07446607  0.69796171  0.50444969  1.0
  C  C68  1  0.86189520  0.23008453  0.52175791  1.0
  C  C69  1  0.12041288  0.76552057  0.48304660  1.0
  C  C70  1  0.77687345  0.22214043  0.57581049  1.0
  C  C71  1  0.19400211  0.77133092  0.42349263  1.0
  C  C72  1  0.04769145  0.43711766  0.52394714  1.0
  C  C73  1  0.91915065  0.56081510  0.48398867  1.0
  C  C74  1  0.11167210  0.50068293  0.50761304  1.0
  C  C75  1  0.85536103  0.49684189  0.49853488  1.0
  C  C76  1  0.04642137  0.56449104  0.48752185  1.0
  C  C77  1  0.92026444  0.43320362  0.52037993  1.0
  C  C78  1  0.51462223  0.44599557  0.74993123  1.0
  C  C79  1  0.56471863  0.57262416  0.25690072  1.0
  C  C80  1  0.53657269  0.44910622  0.82075822  1.0
  C  C81  1  0.60209354  0.57339613  0.18736379  1.0
  C  C82  1  0.62000520  0.49854048  0.84716104  1.0
  C  C83  1  0.57833977  0.51423735  0.14459603  1.0
  C  C84  1  0.68436929  0.54313998  0.80023090  1.0
  C  C85  1  0.52069512  0.45331697  0.17415360  1.0
  C  C86  1  0.65927835  0.54256658  0.72858314  1.0
  C  C87  1  0.48643866  0.45093499  0.24485146  1.0
  C  C88  1  0.57160245  0.49422169  0.70330627  1.0
  C  C89  1  0.50703070  0.51205552  0.28671189  1.0
  C  C90  1  0.53378569  0.55413461  0.95344928  1.0
  C  C91  1  0.69849930  0.47319208  0.03896949  1.0
  C  C92  1  0.52316042  0.55897752  0.02629778  1.0
  C  C93  1  0.70939807  0.46830071  0.96580594  1.0
  C  C94  1  0.60291337  0.51624591  0.06810689  1.0
  C  C95  1  0.62455432  0.50735837  0.92418775  1.0
  C  C96  1  0.43037443  0.72951775  0.55602514  1.0
  C  C97  1  0.55516184  0.27289088  0.44229236  1.0
  C  C98  1  0.43252479  0.80563471  0.55661105  1.0
  C  C99  1  0.55446724  0.19674370  0.44176026  1.0
  C  C100  1  0.48798179  0.84368454  0.50106129  1.0
  C  C101  1  0.48950326  0.15848559  0.49368479  1.0
  C  C102  1  0.53989519  0.80234065  0.44696152  1.0
  C  C103  1  0.42606606  0.19977751  0.54394292  1.0
  C  C104  1  0.53407363  0.72664887  0.45010472  1.0
  C  C105  1  0.42845463  0.27547107  0.53999501  1.0
  C  C106  1  0.59119429  0.96152580  0.47278842  1.0
  C  C107  1  0.38794590  0.04045158  0.52246371  1.0
  C  C108  1  0.59144290  0.03737883  0.47120311  1.0
  C  C109  1  0.38798381  0.96465398  0.52455317  1.0
  C  C110  1  0.48968300  0.07809908  0.49573147  1.0
  C  C111  1  0.48939720  0.92402018  0.49955890  1.0
  C  C112  1  0.72550144  0.59168593  0.68398577  1.0
  C  C113  1  0.42854593  0.38618797  0.27025171  1.0
  C  C114  1  0.45047233  0.59976059  0.90705233  1.0
  C  C115  1  0.50214832  0.67538146  0.88904833  1.0
  C  C116  1  0.41553893  0.72132175  0.84373699  1.0
  C  C117  1  0.79053144  0.43602815  0.08656404  1.0
  C  C118  1  0.89562935  0.48570866  0.10724429  1.0
  C  C119  1  0.98720729  0.44581837  0.15445766  1.0
  C  C120  1  0.42358672  0.60651514  0.05879891  1.0
  C  C121  1  0.30203474  0.56719520  0.07180194  1.0
  C  C122  1  0.20326073  0.61824424  0.10199265  1.0
  C  C123  1  0.81206579  0.42312173  0.93275905  1.0
  C  C124  1  0.79878097  0.33934502  0.93511446  1.0
  C  C125  1  0.69630771  0.31012958  0.89094962  1.0
  C  C126  1  0.37179729  0.69223917  0.61328025  1.0
  C  C127  1  0.62926451  0.30989236  0.39109166  1.0
  C  C128  1  0.64568169  0.27621509  0.66601342  1.0
  C  C129  1  0.29782832  0.71383798  0.32398109  1.0
  N  N130  1  0.48057156  0.69041834  0.50336230  1.0
  N  N131  1  0.49167864  0.31182666  0.49047250  1.0
  N  N132  1  0.78554399  0.63249131  0.65160544  1.0
  N  N133  1  0.38194023  0.33104358  0.28498725  1.0
  N  N134  1  0.32122406  0.66776019  0.66193955  1.0
  N  N135  1  0.69578498  0.33364148  0.34878435  1.0
  N  N136  1  0.56982584  0.26718341  0.70872212  1.0
  N  N137  1  0.36008216  0.71991382  0.27424741  1.0
  O  O138  1  0.46328060  0.57462045  0.39136884  1.0
  O  O139  1  0.49863446  0.43501364  0.60394169  1.0
  O  O140  1  0.46485750  0.45090276  0.39289485  1.0
  O  O141  1  0.53707222  0.55634343  0.59729618  1.0
  O  O142  1  0.67049266  0.56166261  0.47408385  1.0
  O  O143  1  0.29742418  0.43313837  0.50906882  1.0
  O  O144  1  0.66462251  0.43920019  0.49058374  1.0
  O  O145  1  0.30543475  0.55634247  0.51645031  1.0
