# generated using pymatgen
data_Zn4H28C32Cl2O13
_symmetry_space_group_name_H-M   'P 1'
_cell_length_a   17.96578754
_cell_length_b   18.49354266
_cell_length_c   19.47664493
_cell_angle_alpha   63.70698650
_cell_angle_beta   63.73895943
_cell_angle_gamma   89.91338732
_symmetry_Int_Tables_number   1
_chemical_formula_structural   Zn4H28C32Cl2O13
_chemical_formula_sum   'Zn8 H56 C64 Cl4 O26'
_cell_volume   5048.32745988
_cell_formula_units_Z   2
loop_
 _symmetry_equiv_pos_site_id
 _symmetry_equiv_pos_as_xyz
  1  'x, y, z'
loop_
 _atom_site_type_symbol
 _atom_site_label
 _atom_site_symmetry_multiplicity
 _atom_site_fract_x
 _atom_site_fract_y
 _atom_site_fract_z
 _atom_site_occupancy
  Zn  Zn0  1  0.94554317  0.53275416  0.92311205  1.0
  Zn  Zn1  1  0.97127512  0.38294836  0.06838927  1.0
  Zn  Zn2  1  0.96943906  0.55878211  0.06225847  1.0
  Zn  Zn3  1  0.13090599  0.54310005  0.91283192  1.0
  Zn  Zn4  1  0.56094163  0.96848160  0.06226276  1.0
  Zn  Zn5  1  0.53619875  0.95156842  0.91897767  1.0
  Zn  Zn6  1  0.54514380  0.12583681  0.91450453  1.0
  Zn  Zn7  1  0.37835692  0.97141240  0.06759844  1.0
  H  H8  1  0.22344986  0.82942125  0.34733319  1.0
  H  H9  1  0.47313802  0.83832196  0.32379821  1.0
  H  H10  1  0.27846613  0.68064615  0.63568726  1.0
  H  H11  1  0.02855595  0.66968244  0.65973566  1.0
  H  H12  1  0.68346872  0.27619846  0.63894626  1.0
  H  H13  1  0.67940655  0.03702515  0.65430513  1.0
  H  H14  1  0.83529369  0.23361901  0.34360724  1.0
  H  H15  1  0.83913563  0.47283980  0.32819735  1.0
  H  H16  1  0.89827338  0.80025046  0.88412580  1.0
  H  H17  1  0.88148318  0.78490744  0.98672154  1.0
  H  H18  1  0.79483690  0.87975080  0.98077990  1.0
  H  H19  1  0.80936754  0.89170168  0.88005735  1.0
  H  H20  1  0.67560115  0.76634006  0.12469802  1.0
  H  H21  1  0.60247115  0.70087543  0.12656394  1.0
  H  H22  1  0.76108595  0.67022723  0.12830625  1.0
  H  H23  1  0.68909073  0.60729822  0.12625220  1.0
  H  H24  1  0.79609105  0.70826635  0.88066408  1.0
  H  H25  1  0.71225051  0.62799030  0.97933617  1.0
  H  H26  1  0.62174996  0.71894365  0.98141895  1.0
  H  H27  1  0.70476082  0.79823867  0.88103198  1.0
  H  H28  1  0.21498458  0.30697236  0.87635124  1.0
  H  H29  1  0.13247626  0.22882417  0.98003176  1.0
  H  H30  1  0.22229562  0.13729844  0.97911085  1.0
  H  H31  1  0.30479719  0.21642696  0.87617734  1.0
  H  H32  1  0.20753141  0.12188180  0.11965235  1.0
  H  H33  1  0.28028469  0.18786297  0.11750952  1.0
  H  H34  1  0.11932302  0.21514263  0.11984901  1.0
  H  H35  1  0.19369794  0.28163096  0.11539773  1.0
  H  H36  1  0.32106847  0.40421205  0.86890116  1.0
  H  H37  1  0.31234801  0.39529860  0.96591837  1.0
  H  H38  1  0.40049565  0.30223815  0.96863000  1.0
  H  H39  1  0.41036822  0.31234829  0.87080562  1.0
  H  H40  1  0.90549817  0.27232586  0.91709409  1.0
  H  H41  1  0.86830971  0.35632103  0.86329576  1.0
  H  H42  1  0.78219913  0.26557467  0.85903147  1.0
  H  H43  1  0.81882708  0.18180350  0.91406039  1.0
  H  H44  1  0.65315838  0.30403751  0.94527356  1.0
  H  H45  1  0.59628823  0.24679306  0.06137114  1.0
  H  H46  1  0.73849608  0.39375021  0.95187635  1.0
  H  H47  1  0.68264604  0.33433720  0.06792785  1.0
  H  H48  1  0.82620655  0.18838026  0.08460226  1.0
  H  H49  1  0.73581831  0.21444252  0.14588638  1.0
  H  H50  1  0.64794812  0.12514897  0.14185014  1.0
  H  H51  1  0.73817443  0.09840941  0.08141236  1.0
  H  H52  1  0.17925244  0.81255861  0.90588079  1.0
  H  H53  1  0.27222810  0.78497060  0.84914957  1.0
  H  H54  1  0.35416337  0.88000899  0.85258603  1.0
  H  H55  1  0.26032736  0.90381206  0.91347382  1.0
  H  H56  1  0.40628696  0.76067238  0.93116574  1.0
  H  H57  1  0.35300740  0.70357923  0.04722291  1.0
  H  H58  1  0.31993359  0.66533828  0.93174513  1.0
  H  H59  1  0.26500741  0.61081235  0.04781073  1.0
  H  H60  1  0.09856447  0.73456050  0.07341307  1.0
  H  H61  1  0.13089860  0.65018056  0.13204744  1.0
  H  H62  1  0.21989042  0.73926364  0.13516892  1.0
  H  H63  1  0.18362309  0.82285704  0.08111381  1.0
  C  C64  1  0.85752696  0.35899123  0.00328011  1.0
  C  C65  1  0.89214036  0.39836732  0.22896469  1.0
  C  C66  1  0.85499911  0.63649218  0.99775087  1.0
  C  C67  1  0.14891203  0.64585561  0.98677033  1.0
  C  C68  1  0.10953535  0.62014772  0.75483224  1.0
  C  C69  1  0.14998083  0.36917322  0.98762594  1.0
  C  C70  1  0.63994330  0.85948297  0.99470417  1.0
  C  C71  1  0.62781058  0.11138880  0.75361297  1.0
  C  C72  1  0.64553333  0.14081011  0.99509923  1.0
  C  C73  1  0.36677629  0.14617235  0.98917798  1.0
  C  C74  1  0.39333351  0.88797323  0.22841971  1.0
  C  C75  1  0.35936220  0.86861123  0.99195231  1.0
  C  C76  1  0.26308963  0.81302774  0.37842336  1.0
  C  C77  1  0.40401531  0.81771067  0.36585385  1.0
  C  C78  1  0.36768213  0.77217956  0.45586118  1.0
  C  C79  1  0.27707262  0.74407003  0.51225726  1.0
  C  C80  1  0.23866622  0.69681677  0.60478282  1.0
  C  C81  1  0.09766754  0.69098035  0.61767947  1.0
  C  C82  1  0.13386150  0.73710601  0.52765741  1.0
  C  C83  1  0.22446893  0.76564581  0.47104508  1.0
  C  C84  1  0.35124378  0.83843116  0.32675309  1.0
  C  C85  1  0.15056499  0.67061028  0.65665509  1.0
  C  C86  1  0.70094549  0.23947937  0.60582487  1.0
  C  C87  1  0.69895765  0.10438912  0.61394760  1.0
  C  C88  1  0.74405358  0.14205640  0.52364376  1.0
  C  C89  1  0.77052222  0.23043128  0.46944865  1.0
  C  C90  1  0.81766518  0.27033516  0.37672476  1.0
  C  C91  1  0.81962628  0.40548715  0.36855493  1.0
  C  C92  1  0.77378622  0.36777022  0.45884792  1.0
  C  C93  1  0.74751481  0.27936098  0.51307029  1.0
  C  C94  1  0.67730041  0.15364369  0.65532920  1.0
  C  C95  1  0.84192383  0.35617466  0.32726458  1.0
  C  C96  1  0.84857391  0.78374604  0.95112338  1.0
  C  C97  1  0.79021842  0.84546378  0.94844411  1.0
  C  C98  1  0.69607864  0.79780612  0.99547577  1.0
  C  C99  1  0.67018653  0.73338359  0.09145537  1.0
  C  C100  1  0.72776985  0.67087017  0.09254853  1.0
  C  C101  1  0.79467562  0.69429135  0.99741315  1.0
  C  C102  1  0.74839136  0.69199131  0.94812828  1.0
  C  C103  1  0.68871915  0.75226808  0.94839143  1.0
  C  C104  1  0.19979589  0.26250357  0.94401550  1.0
  C  C105  1  0.25941918  0.20169076  0.94391787  1.0
  C  C106  1  0.31010643  0.20781055  0.98877718  1.0
  C  C107  1  0.24526092  0.18602312  0.08389914  1.0
  C  C108  1  0.18696746  0.24779831  0.08329696  1.0
  C  C109  1  0.21050464  0.31119954  0.98779998  1.0
  C  C110  1  0.30451966  0.35891451  0.93664273  1.0
  C  C111  1  0.36337900  0.29763006  0.93790565  1.0
  C  C112  1  0.84746266  0.29351885  0.91991766  1.0
  C  C113  1  0.78998064  0.23347997  0.91739512  1.0
  C  C114  1  0.70068793  0.19793881  0.00091503  1.0
  C  C115  1  0.66082166  0.27132545  0.00359179  1.0
  C  C116  1  0.71801657  0.33040897  0.00743024  1.0
  C  C117  1  0.79798211  0.29839836  0.00553999  1.0
  C  C118  1  0.76952882  0.21093092  0.08503766  1.0
  C  C119  1  0.71138767  0.15151355  0.08255234  1.0
  C  C120  1  0.23546455  0.79066945  0.90829526  1.0
  C  C121  1  0.29047456  0.85244912  0.91141463  1.0
  C  C122  1  0.30102275  0.80714295  0.99397834  1.0
  C  C123  1  0.34284196  0.73485722  0.99020893  1.0
  C  C124  1  0.28526183  0.67278181  0.98993969  1.0
  C  C125  1  0.20532602  0.70378477  0.99072033  1.0
  C  C126  1  0.15512295  0.71215224  0.07347137  1.0
  C  C127  1  0.21244869  0.77163958  0.07658937  1.0
  Cl  Cl128  1  0.06688734  0.76070722  0.48263096  1.0
  Cl  Cl129  1  0.43451841  0.74867532  0.50108521  1.0
  Cl  Cl130  1  0.74766237  0.42990298  0.50736506  1.0
  Cl  Cl131  1  0.76912351  0.07988729  0.47514775  1.0
  O  O132  1  0.00604323  0.50401176  0.99073939  1.0
  O  O133  1  0.87559838  0.43538528  0.94583114  1.0
  O  O134  1  0.91338624  0.35217937  0.19389727  1.0
  O  O135  1  0.89055247  0.62829819  0.04401794  1.0
  O  O136  1  0.88638829  0.32941424  0.05673016  1.0
  O  O137  1  0.86680642  0.60179292  0.95119211  1.0
  O  O138  1  0.90945279  0.47761980  0.18863815  1.0
  O  O139  1  0.06855117  0.63021775  0.03675436  1.0
  O  O140  1  0.15881918  0.60365940  0.78809018  1.0
  O  O141  1  0.18541529  0.61866386  0.93310649  1.0
  O  O142  1  0.02795798  0.59796203  0.79671937  1.0
  O  O143  1  0.07037108  0.33457065  0.04097302  1.0
  O  O144  1  0.18254548  0.44679652  0.93420819  1.0
  O  O145  1  0.50349785  0.00498909  0.99180469  1.0
  O  O146  1  0.63861095  0.89857136  0.03519811  1.0
  O  O147  1  0.61107150  0.03209801  0.79394673  1.0
  O  O148  1  0.62313548  0.17524093  0.93647684  1.0
  O  O149  1  0.59874175  0.86808149  0.95362628  1.0
  O  O150  1  0.62680050  0.06308856  0.04814072  1.0
  O  O151  1  0.60644200  0.15747338  0.78879684  1.0
  O  O152  1  0.44685150  0.17619548  0.93613874  1.0
  O  O153  1  0.34544520  0.91154240  0.19405459  1.0
  O  O154  1  0.32939496  0.06904963  0.04207109  1.0
  O  O155  1  0.47475839  0.90224540  0.18742709  1.0
  O  O156  1  0.43711978  0.89389876  0.93026405  1.0
  O  O157  1  0.32723392  0.89087668  0.05026060  1.0
