# generated using pymatgen
data_ZnH12C19BrNO6
_symmetry_space_group_name_H-M   'P 1'
_cell_length_a   11.24183082
_cell_length_b   16.40227446
_cell_length_c   17.78849663
_cell_angle_alpha   95.19378219
_cell_angle_beta   90.44626832
_cell_angle_gamma   92.19034664
_symmetry_Int_Tables_number   1
_chemical_formula_structural   ZnH12C19BrNO6
_chemical_formula_sum   'Zn2 H24 C38 Br2 N2 O12'
_cell_volume   3263.98693422
_cell_formula_units_Z   2
loop_
 _symmetry_equiv_pos_site_id
 _symmetry_equiv_pos_as_xyz
  1  'x, y, z'
loop_
 _atom_site_type_symbol
 _atom_site_label
 _atom_site_symmetry_multiplicity
 _atom_site_fract_x
 _atom_site_fract_y
 _atom_site_fract_z
 _atom_site_occupancy
  Zn  Zn0  1  0.49519840  0.41416321  0.49692897  1.0
  Zn  Zn1  1  0.50467009  0.58537228  0.50308108  1.0
  H  H2  1  0.38014093  0.71276438  0.42668644  1.0
  H  H3  1  0.38344171  0.86385080  0.42798132  1.0
  H  H4  1  0.66233702  0.86920933  0.60002748  1.0
  H  H5  1  0.64590073  0.72054688  0.58906152  1.0
  H  H6  1  0.33971288  0.13055282  0.39851211  1.0
  H  H7  1  0.61455665  0.13621778  0.57333322  1.0
  H  H8  1  0.61613474  0.28705867  0.57564818  1.0
  H  H9  1  0.35778383  0.27887020  0.40827791  1.0
  H  H10  1  0.50658725  0.61698721  0.26402254  1.0
  H  H11  1  0.50705231  0.61102912  0.12528569  1.0
  H  H12  1  0.49115471  0.34525050  0.11791262  1.0
  H  H13  1  0.49087535  0.35502179  0.25373690  1.0
  H  H14  1  0.50896315  0.65534863  0.88094138  1.0
  H  H15  1  0.49319159  0.38980832  0.87604247  1.0
  H  H16  1  0.49356664  0.38227815  0.73742579  1.0
  H  H17  1  0.50900844  0.64408242  0.74485817  1.0
  H  H18  1  0.89915243  0.68799688  0.55724613  1.0
  H  H19  1  0.89643320  0.68232159  0.45664288  1.0
  H  H20  1  0.12100263  0.68267238  0.45591585  1.0
  H  H21  1  0.12366290  0.68809279  0.55646219  1.0
  H  H22  1  0.65530569  0.96908824  0.59560196  1.0
  H  H23  1  0.34459908  0.03099557  0.40469296  1.0
  H  H24  1  0.49116649  0.35350484  0.02977572  1.0
  H  H25  1  0.50901127  0.64782456  0.97023067  1.0
  C  C26  1  0.49702374  0.48917944  0.35253984  1.0
  C  C27  1  0.26470881  0.50293233  0.49952730  1.0
  C  C28  1  0.50268272  0.50578262  0.64729376  1.0
  C  C29  1  0.73559996  0.50275484  0.50058795  1.0
  C  C30  1  0.44121216  0.75114875  0.46385087  1.0
  C  C31  1  0.44341229  0.83586216  0.46500792  1.0
  C  C32  1  0.52290167  0.88435007  0.51407855  1.0
  C  C33  1  0.59666861  0.84018624  0.55946380  1.0
  C  C34  1  0.58920799  0.75527421  0.55467526  1.0
  C  C35  1  0.53255048  0.97411113  0.52019129  1.0
  C  C36  1  0.46731746  0.02571046  0.47990789  1.0
  C  C37  1  0.40471009  0.15951508  0.43955592  1.0
  C  C38  1  0.47708005  0.11552730  0.48589298  1.0
  C  C39  1  0.55520634  0.16401116  0.53579198  1.0
  C  C40  1  0.55681562  0.24875995  0.53727669  1.0
  C  C41  1  0.41273359  0.24440888  0.44390515  1.0
  C  C42  1  0.49770875  0.48646877  0.26834465  1.0
  C  C43  1  0.50273057  0.55782912  0.23062253  1.0
  C  C44  1  0.50315630  0.55440028  0.15226581  1.0
  C  C45  1  0.49861890  0.47852067  0.10708626  1.0
  C  C46  1  0.49427286  0.40720335  0.14670754  1.0
  C  C47  1  0.49382801  0.41087480  0.22490851  1.0
  C  C48  1  0.49816339  0.46983946  0.02414794  1.0
  C  C49  1  0.50205519  0.53151323  0.97594935  1.0
  C  C50  1  0.50588749  0.59318503  0.85256860  1.0
  C  C51  1  0.50161674  0.52243687  0.89300954  1.0
  C  C52  1  0.49708934  0.44608980  0.84859203  1.0
  C  C53  1  0.49748605  0.44170522  0.77032399  1.0
  C  C54  1  0.50233677  0.51240082  0.73163280  1.0
  C  C55  1  0.50619429  0.58853821  0.77417379  1.0
  C  C56  1  0.86904717  0.49522416  0.49978606  1.0
  C  C57  1  0.13042666  0.49538745  0.49958088  1.0
  C  C58  1  0.94171329  0.56616442  0.50239544  1.0
  C  C59  1  0.05883240  0.42161337  0.49738967  1.0
  C  C60  1  0.06554337  0.56625378  0.50197450  1.0
  C  C61  1  0.93249182  0.42145903  0.49672443  1.0
  C  C62  1  0.93836347  0.65868326  0.50578454  1.0
  C  C63  1  0.07889009  0.65879973  0.50536543  1.0
  Br  Br64  1  0.13086119  0.31787378  0.49645589  1.0
  Br  Br65  1  0.84898290  0.31742087  0.49055530  1.0
  N  N66  1  0.51251851  0.71095423  0.50765753  1.0
  N  N67  1  0.48747402  0.28879205  0.49218503  1.0
  O  O68  1  0.49225387  0.42082126  0.38110253  1.0
  O  O69  1  0.50153697  0.55994972  0.38943999  1.0
  O  O70  1  0.31188680  0.57493244  0.50181549  1.0
  O  O71  1  0.32077086  0.43714799  0.49717398  1.0
  O  O72  1  0.50615024  0.57280984  0.61546863  1.0
  O  O73  1  0.49922056  0.43403540  0.61355117  1.0
  O  O74  1  0.67217439  0.43694364  0.49791831  1.0
  O  O75  1  0.69648947  0.57480980  0.50388624  1.0
  O  O76  1  0.61486216  0.01100800  0.57108150  1.0
  O  O77  1  0.38513415  0.98888714  0.42894891  1.0
  O  O78  1  0.49318395  0.39071384  0.99020350  1.0
  O  O79  1  0.50691381  0.61069150  0.00986519  1.0
