# generated using pymatgen
data_ZnH14C17N2O3
_symmetry_space_group_name_H-M   'P 1'
_cell_length_a   7.48908525
_cell_length_b   22.46849023
_cell_length_c   24.35287992
_cell_angle_alpha   89.99918371
_cell_angle_beta   83.01412678
_cell_angle_gamma   89.99920736
_symmetry_Int_Tables_number   1
_chemical_formula_structural   ZnH14C17N2O3
_chemical_formula_sum   'Zn8 H112 C136 N16 O24'
_cell_volume   4067.39955359
_cell_formula_units_Z   8
loop_
 _symmetry_equiv_pos_site_id
 _symmetry_equiv_pos_as_xyz
  1  'x, y, z'
loop_
 _atom_site_type_symbol
 _atom_site_label
 _atom_site_symmetry_multiplicity
 _atom_site_fract_x
 _atom_site_fract_y
 _atom_site_fract_z
 _atom_site_occupancy
  Zn  Zn0  1  0.29518641  0.70747075  0.39670724  1.0
  Zn  Zn1  1  0.70481856  0.20746651  0.10329651  1.0
  Zn  Zn2  1  0.70482337  0.29253290  0.60329089  1.0
  Zn  Zn3  1  0.29516678  0.79253269  0.89670820  1.0
  Zn  Zn4  1  0.17338456  0.83595728  0.15382755  1.0
  Zn  Zn5  1  0.82660791  0.33595719  0.34616632  1.0
  Zn  Zn6  1  0.82660917  0.16404548  0.84616866  1.0
  Zn  Zn7  1  0.17338848  0.66404111  0.65383062  1.0
  H  H8  1  0.89988034  0.58514103  0.35490195  1.0
  H  H9  1  0.10013315  0.08513982  0.14510433  1.0
  H  H10  1  0.10011175  0.41486261  0.64510212  1.0
  H  H11  1  0.89989049  0.91485270  0.85491756  1.0
  H  H12  1  0.12428202  0.54778888  0.27765701  1.0
  H  H13  1  0.87572631  0.04778825  0.22234500  1.0
  H  H14  1  0.87570217  0.45220899  0.72234280  1.0
  H  H15  1  0.12432812  0.95219937  0.77767954  1.0
  H  H16  1  0.07045499  0.56411483  0.18032714  1.0
  H  H17  1  0.92954862  0.06411291  0.31967687  1.0
  H  H18  1  0.92954000  0.43588214  0.81967108  1.0
  H  H19  1  0.07050040  0.93587338  0.68034868  1.0
  H  H20  1  0.79188949  0.61606120  0.15946842  1.0
  H  H21  1  0.20810931  0.11606048  0.34054041  1.0
  H  H22  1  0.20811607  0.38394378  0.84053478  1.0
  H  H23  1  0.79192129  0.88394005  0.65947508  1.0
  H  H24  1  0.56643408  0.65043770  0.23716230  1.0
  H  H25  1  0.43356750  0.15043537  0.26284559  1.0
  H  H26  1  0.43358233  0.34957084  0.76283807  1.0
  H  H27  1  0.56644003  0.84956828  0.73717602  1.0
  H  H28  1  0.05480112  0.67794911  0.50640516  1.0
  H  H29  1  0.94522124  0.17794977  0.99360173  1.0
  H  H30  1  0.94520888  0.32204964  0.49358722  1.0
  H  H31  1  0.05477208  0.82204631  0.00640517  1.0
  H  H32  1  0.92947646  0.58808489  0.55361776  1.0
  H  H33  1  0.07053882  0.08808629  0.94638151  1.0
  H  H34  1  0.07054708  0.41191119  0.44637211  1.0
  H  H35  1  0.92944523  0.91190846  0.05362201  1.0
  H  H36  1  0.15614934  0.48675654  0.40926811  1.0
  H  H37  1  0.84383884  0.98675140  0.09072517  1.0
  H  H38  1  0.84387036  0.51324399  0.59071655  1.0
  H  H39  1  0.15612901  0.01324423  0.90928012  1.0
  H  H40  1  0.27411527  0.58191429  0.36903999  1.0
  H  H41  1  0.72587845  0.08190730  0.13095961  1.0
  H  H42  1  0.72588551  0.41809114  0.63094777  1.0
  H  H43  1  0.27411093  0.91809190  0.86904496  1.0
  H  H44  1  0.89958903  0.91695679  0.30262838  1.0
  H  H45  1  0.10042493  0.41695744  0.19735672  1.0
  H  H46  1  0.10041539  0.08304152  0.69736952  1.0
  H  H47  1  0.89959041  0.58304532  0.80263670  1.0
  H  H48  1  0.66226142  0.95712058  0.37428719  1.0
  H  H49  1  0.33773893  0.45712214  0.12569827  1.0
  H  H50  1  0.33773765  0.04287594  0.62571007  1.0
  H  H51  1  0.66227495  0.54288507  0.87429808  1.0
  H  H52  1  0.37676990  0.99680014  0.34586358  1.0
  H  H53  1  0.62323292  0.49679994  0.15412374  1.0
  H  H54  1  0.62323580  0.00319995  0.65413592  1.0
  H  H55  1  0.37677003  0.50321261  0.84587709  1.0
  H  H56  1  0.32873177  0.99688424  0.24669679  1.0
  H  H57  1  0.67128299  0.49688007  0.25329423  1.0
  H  H58  1  0.67126981  0.00311718  0.75330490  1.0
  H  H59  1  0.32871316  0.50312892  0.74670888  1.0
  H  H60  1  0.56923500  0.95675916  0.17559922  1.0
  H  H61  1  0.43076790  0.45675766  0.32439026  1.0
  H  H62  1  0.43076122  0.04324449  0.82440225  1.0
  H  H63  1  0.56922705  0.54324999  0.67560919  1.0
  H  H64  1  0.41450071  0.82952544  0.04532687  1.0
  H  H65  1  0.58548936  0.32951277  0.45466593  1.0
  H  H66  1  0.58551028  0.17048399  0.95467450  1.0
  H  H67  1  0.41449518  0.67047441  0.54532484  1.0
  H  H68  1  0.55697822  0.89837215  0.97466139  1.0
  H  H69  1  0.44298007  0.39836142  0.52532959  1.0
  H  H70  1  0.44299807  0.10163684  0.02533417  1.0
  H  H71  1  0.55697361  0.60162621  0.47466017  1.0
  H  H72  1  0.34662495  0.04380719  0.08172844  1.0
  H  H73  1  0.65335673  0.54379877  0.41827206  1.0
  H  H74  1  0.65337261  0.95620447  0.91827297  1.0
  H  H75  1  0.34661534  0.45619242  0.58172858  1.0
  H  H76  1  0.21337543  0.96731274  0.14764508  1.0
  H  H77  1  0.78662548  0.46730830  0.35235090  1.0
  H  H78  1  0.78662755  0.03269980  0.85235533  1.0
  H  H79  1  0.21338965  0.53268823  0.64764788  1.0
  H  H80  1  0.93508342  0.76869215  0.42237020  1.0
  H  H81  1  0.06490455  0.26868101  0.07763168  1.0
  H  H82  1  0.06489945  0.23130170  0.57762884  1.0
  H  H83  1  0.93508501  0.73131996  0.92236837  1.0
  H  H84  1  0.67999964  0.79863594  0.37273605  1.0
  H  H85  1  0.31998727  0.29862287  0.12726424  1.0
  H  H86  1  0.31998461  0.20135791  0.62726212  1.0
  H  H87  1  0.68000911  0.70137989  0.87273311  1.0
  H  H88  1  0.98620787  0.73252515  0.22227204  1.0
  H  H89  1  0.01377045  0.23253252  0.27773638  1.0
  H  H90  1  0.01380192  0.26747494  0.77772567  1.0
  H  H91  1  0.98622855  0.76747113  0.72226253  1.0
  H  H92  1  0.22075709  0.70072370  0.28003242  1.0
  H  H93  1  0.77922786  0.20072845  0.21997455  1.0
  H  H94  1  0.77925264  0.29927817  0.71996694  1.0
  H  H95  1  0.22076706  0.79927475  0.78002573  1.0
  H  H96  1  0.81219984  0.76809437  0.17792798  1.0
  H  H97  1  0.18779489  0.26809403  0.32207326  1.0
  H  H98  1  0.18778712  0.23190127  0.82206969  1.0
  H  H99  1  0.81220550  0.73190339  0.67792436  1.0
  H  H100  1  0.55819191  0.79463339  0.12840533  1.0
  H  H101  1  0.44181136  0.29463379  0.37159240  1.0
  H  H102  1  0.44180316  0.20536269  0.87159083  1.0
  H  H103  1  0.55819046  0.70536630  0.62840312  1.0
  H  H104  1  0.23834036  0.84273237  0.27244214  1.0
  H  H105  1  0.76165597  0.34273753  0.22754986  1.0
  H  H106  1  0.76166689  0.15726193  0.72755196  1.0
  H  H107  1  0.23834853  0.65726389  0.77244598  1.0
  H  H108  1  0.47371416  0.81330039  0.33074609  1.0
  H  H109  1  0.52626956  0.31330174  0.16925289  1.0
  H  H110  1  0.52628225  0.18669614  0.66925044  1.0
  H  H111  1  0.47372957  0.68670057  0.83074273  1.0
  H  H112  1  0.46750028  0.76108408  0.45650435  1.0
  H  H113  1  0.53250547  0.26107845  0.04349661  1.0
  H  H114  1  0.53249187  0.23892001  0.54349807  1.0
  H  H115  1  0.46749749  0.73891852  0.95650421  1.0
  H  H116  1  0.14599041  0.73844778  0.11147636  1.0
  H  H117  1  0.85400959  0.23844825  0.38852180  1.0
  H  H118  1  0.85401535  0.26155231  0.88852149  1.0
  H  H119  1  0.14600033  0.76154917  0.61147263  1.0
  C  C120  1  0.59034921  0.64313324  0.34722353  1.0
  C  C121  1  0.40965676  0.14313004  0.15278184  1.0
  C  C122  1  0.40965125  0.35687308  0.65277245  1.0
  C  C123  1  0.59035758  0.85686649  0.84723708  1.0
  C  C124  1  0.71986144  0.61942098  0.30046091  1.0
  C  C125  1  0.28012928  0.11941944  0.19954487  1.0
  C  C126  1  0.28012673  0.38058044  0.69954001  1.0
  C  C127  1  0.71989714  0.88057531  0.80047446  1.0
  C  C128  1  0.87692733  0.59046799  0.31184521  1.0
  C  C129  1  0.12307116  0.09046868  0.18816151  1.0
  C  C130  1  0.12306480  0.40953388  0.68815762  1.0
  C  C131  1  0.87696325  0.90952206  0.81185961  1.0
  C  C132  1  0.00230476  0.57043917  0.26880999  1.0
  C  C133  1  0.99768912  0.07044140  0.23119633  1.0
  C  C134  1  0.99767665  0.42955736  0.73119198  1.0
  C  C135  1  0.00235860  0.92954800  0.76882803  1.0
  C  C136  1  0.97181254  0.57965783  0.21388767  1.0
  C  C137  1  0.02818772  0.07966056  0.28611872  1.0
  C  C138  1  0.02817827  0.42033780  0.78611480  1.0
  C  C139  1  0.97185323  0.92032618  0.71390710  1.0
  C  C140  1  0.81534452  0.60853962  0.20225894  1.0
  C  C141  1  0.18465331  0.10853967  0.29774757  1.0
  C  C142  1  0.18465439  0.39146181  0.79774243  1.0
  C  C143  1  0.81538388  0.89145330  0.70227140  1.0
  C  C144  1  0.68913136  0.62791471  0.24538502  1.0
  C  C145  1  0.31086442  0.12791529  0.25462089  1.0
  C  C146  1  0.31086753  0.37208716  0.75461677  1.0
  C  C147  1  0.68915395  0.87208480  0.74539830  1.0
  C  C148  1  0.07257512  0.63476341  0.48584394  1.0
  C  C149  1  0.92743661  0.13476309  0.01415970  1.0
  C  C150  1  0.92742827  0.36523756  0.51414578  1.0
  C  C151  1  0.07255408  0.86523477  0.98584565  1.0
  C  C152  1  0.00153434  0.58357569  0.51216133  1.0
  C  C153  1  0.99846506  0.08357619  0.98783607  1.0
  C  C154  1  0.99847725  0.41642484  0.48782483  1.0
  C  C155  1  0.00151090  0.91642122  0.01216813  1.0
  C  C156  1  0.03267692  0.52800110  0.48624886  1.0
  C  C157  1  0.96731362  0.02800060  0.01374621  1.0
  C  C158  1  0.96734002  0.47199854  0.51373794  1.0
  C  C159  1  0.03263551  0.97199637  0.98625684  1.0
  C  C160  1  0.13027062  0.52764034  0.43312854  1.0
  C  C161  1  0.86972531  0.02763813  0.06686635  1.0
  C  C162  1  0.86973967  0.47236109  0.56685643  1.0
  C  C163  1  0.13024661  0.97236062  0.93313799  1.0
  C  C164  1  0.19598405  0.58076721  0.40981651  1.0
  C  C165  1  0.80401241  0.08076183  0.09018260  1.0
  C  C166  1  0.80401142  0.41923599  0.59016938  1.0
  C  C167  1  0.19597152  0.91923825  0.90982379  1.0
  C  C168  1  0.88552351  0.90876799  0.19192188  1.0
  C  C169  1  0.11447043  0.40877220  0.30806771  1.0
  C  C170  1  0.11447948  0.09123077  0.80807812  1.0
  C  C171  1  0.88553273  0.59123011  0.69192777  1.0
  C  C172  1  0.74771870  0.93482535  0.23506266  1.0
  C  C173  1  0.25228638  0.43482470  0.26492621  1.0
  C  C174  1  0.25228706  0.06517696  0.76493520  1.0
  C  C175  1  0.74771946  0.56517983  0.73506959  1.0
  C  C176  1  0.77440205  0.93497840  0.29104728  1.0
  C  C177  1  0.22560722  0.43498275  0.20893734  1.0
  C  C178  1  0.22559704  0.06501901  0.70894915  1.0
  C  C179  1  0.77440543  0.56502401  0.79105618  1.0
  C  C180  1  0.64148023  0.95736576  0.33072426  1.0
  C  C181  1  0.35853354  0.45736565  0.16926115  1.0
  C  C182  1  0.35852282  0.04263344  0.66927410  1.0
  C  C183  1  0.64148573  0.54264066  0.83073461  1.0
  C  C184  1  0.48108161  0.97958536  0.31478550  1.0
  C  C185  1  0.51893386  0.47957983  0.18520408  1.0
  C  C186  1  0.51892674  0.02041650  0.68521473  1.0
  C  C187  1  0.48107847  0.52042783  0.81479766  1.0
  C  C188  1  0.45394894  0.97966508  0.25899059  1.0
  C  C189  1  0.54605979  0.47966345  0.24099963  1.0
  C  C190  1  0.54605534  0.02033456  0.74101102  1.0
  C  C191  1  0.45394042  0.52034420  0.75900293  1.0
  C  C192  1  0.58740803  0.95762399  0.21931599  1.0
  C  C193  1  0.41259615  0.45762236  0.28067426  1.0
  C  C194  1  0.41259227  0.04237654  0.78068411  1.0
  C  C195  1  0.58740285  0.54238306  0.71932465  1.0
  C  C196  1  0.40558568  0.87752908  0.05211622  1.0
  C  C197  1  0.59438903  0.37751959  0.44787976  1.0
  C  C198  1  0.59440253  0.12248080  0.94788387  1.0
  C  C199  1  0.40559136  0.62247070  0.55211403  1.0
  C  C200  1  0.48551993  0.91677928  0.01253267  1.0
  C  C201  1  0.51444811  0.41676866  0.48745891  1.0
  C  C202  1  0.51445781  0.08322882  0.98746038  1.0
  C  C203  1  0.48551489  0.58322075  0.51253300  1.0
  C  C204  1  0.46314158  0.97825870  0.02118219  1.0
  C  C205  1  0.53683073  0.47824899  0.47881297  1.0
  C  C206  1  0.53686284  0.02175074  0.97881571  1.0
  C  C207  1  0.46311609  0.52174175  0.52118031  1.0
  C  C208  1  0.36625602  0.99682097  0.07137141  1.0
  C  C209  1  0.63372096  0.49681071  0.42862417  1.0
  C  C210  1  0.63373237  0.00318980  0.92862416  1.0
  C  C211  1  0.36625258  0.50317914  0.57137313  1.0
  C  C212  1  0.29196193  0.95447355  0.10882402  1.0
  C  C213  1  0.70802471  0.45446575  0.39117097  1.0
  C  C214  1  0.70803712  0.04553900  0.89117365  1.0
  C  C215  1  0.29195954  0.54552811  0.60882720  1.0
  C  C216  1  0.93972741  0.76118686  0.37794851  1.0
  C  C217  1  0.06027424  0.26117506  0.12205424  1.0
  C  C218  1  0.06026890  0.23881100  0.62205049  1.0
  C  C219  1  0.93973416  0.73882414  0.87794476  1.0
  C  C220  1  0.79896482  0.77889442  0.34952213  1.0
  C  C221  1  0.20102541  0.27888777  0.15048077  1.0
  C  C222  1  0.20102207  0.22110210  0.65047718  1.0
  C  C223  1  0.79897758  0.72111632  0.84951923  1.0
  C  C224  1  0.81123381  0.76934680  0.29218425  1.0
  C  C225  1  0.18875945  0.26934110  0.20781908  1.0
  C  C226  1  0.18876656  0.23065062  0.70781420  1.0
  C  C227  1  0.81123952  0.73065499  0.79218065  1.0
  C  C228  1  0.96690089  0.74120056  0.26661474  1.0
  C  C229  1  0.03308126  0.24120229  0.23339057  1.0
  C  C230  1  0.03310493  0.25880176  0.73338147  1.0
  C  C231  1  0.96691104  0.75879868  0.76660815  1.0
  C  C232  1  0.09967878  0.72371693  0.29817137  1.0
  C  C233  1  0.90030539  0.22371873  0.20183328  1.0
  C  C234  1  0.90032974  0.27628761  0.70182434  1.0
  C  C235  1  0.09969236  0.77628225  0.79816321  1.0
  C  C236  1  0.66507764  0.78683988  0.25996580  1.0
  C  C237  1  0.33492857  0.28683523  0.24003317  1.0
  C  C238  1  0.33493223  0.21316065  0.74002986  1.0
  C  C239  1  0.66507449  0.71316129  0.75996518  1.0
  C  C240  1  0.68641097  0.78217152  0.20199140  1.0
  C  C241  1  0.31358600  0.28217453  0.29800795  1.0
  C  C242  1  0.31358278  0.21782367  0.79800440  1.0
  C  C243  1  0.68641569  0.71782556  0.70199087  1.0
  C  C244  1  0.54429407  0.79780418  0.17343093  1.0
  C  C245  1  0.45569559  0.29780565  0.32656846  1.0
  C  C246  1  0.45569156  0.20219101  0.82656637  1.0
  C  C247  1  0.54431153  0.70219221  0.67342894  1.0
  C  C248  1  0.36661933  0.82452717  0.25402328  1.0
  C  C249  1  0.63337874  0.32453219  0.24597589  1.0
  C  C250  1  0.63338771  0.17546758  0.74597617  1.0
  C  C251  1  0.36661770  0.67546924  0.75401982  1.0
  C  C252  1  0.50056705  0.80883842  0.28591593  1.0
  C  C253  1  0.49943027  0.30883832  0.21408305  1.0
  C  C254  1  0.49943605  0.19115900  0.71408119  1.0
  C  C255  1  0.50057017  0.69116355  0.78591334  1.0
  N  N256  1  0.17037790  0.63368162  0.43565483  1.0
  N  N257  1  0.82963521  0.13367875  0.06434878  1.0
  N  N258  1  0.82963625  0.36631891  0.56433453  1.0
  N  N259  1  0.17035010  0.86631823  0.93565675  1.0
  N  N260  1  0.30882479  0.89560982  0.09929029  1.0
  N  N261  1  0.69116794  0.39560150  0.40070854  1.0
  N  N262  1  0.69117813  0.10440140  0.90071136  1.0
  N  N263  1  0.30882707  0.60439147  0.59928926  1.0
  N  N264  1  0.08812246  0.73401985  0.35299082  1.0
  N  N265  1  0.91187614  0.23401399  0.14701279  1.0
  N  N266  1  0.91188203  0.26598113  0.64700502  1.0
  N  N267  1  0.08812555  0.76598654  0.85298602  1.0
  N  N268  1  0.38587348  0.81804959  0.19860938  1.0
  N  N269  1  0.61412222  0.31804895  0.30138789  1.0
  N  N270  1  0.61412291  0.18194961  0.80138756  1.0
  N  N271  1  0.38588369  0.68195070  0.69860626  1.0
  O  O272  1  0.44788670  0.66888529  0.33304893  1.0
  O  O273  1  0.55211555  0.16888256  0.16695828  1.0
  O  O274  1  0.55211377  0.33112013  0.66694664  1.0
  O  O275  1  0.44790719  0.83111486  0.83305214  1.0
  O  O276  1  0.62381754  0.63765756  0.39627861  1.0
  O  O277  1  0.37619807  0.13765527  0.10372609  1.0
  O  O278  1  0.37618023  0.36235499  0.60371746  1.0
  O  O279  1  0.62378255  0.86235060  0.89629643  1.0
  O  O280  1  0.37714015  0.77371594  0.43352549  1.0
  O  O281  1  0.62285426  0.27371309  0.06647857  1.0
  O  O282  1  0.62285336  0.22628549  0.56647648  1.0
  O  O283  1  0.37715276  0.72628210  0.93352129  1.0
  O  O284  1  0.02247141  0.88345927  0.21034977  1.0
  O  O285  1  0.97753154  0.38346337  0.28963984  1.0
  O  O286  1  0.97753421  0.11654126  0.78965179  1.0
  O  O287  1  0.02247841  0.61653806  0.71035376  1.0
  O  O288  1  0.86313910  0.91147978  0.14177113  1.0
  O  O289  1  0.13684523  0.41148757  0.35822121  1.0
  O  O290  1  0.13684505  0.08851542  0.85822951  1.0
  O  O291  1  0.86314711  0.58851163  0.64177628  1.0
  O  O292  1  0.06240769  0.77022749  0.12350688  1.0
  O  O293  1  0.93759656  0.27022599  0.37648950  1.0
  O  O294  1  0.93759295  0.22977393  0.87648458  1.0
  O  O295  1  0.06241878  0.72976965  0.62350393  1.0
