# generated using pymatgen
data_Zn4H34(C9O2)7
_symmetry_space_group_name_H-M   'P 1'
_cell_length_a   15.21007546
_cell_length_b   15.23201592
_cell_length_c   17.73907075
_cell_angle_alpha   80.32877071
_cell_angle_beta   81.42409675
_cell_angle_gamma   89.76018500
_symmetry_Int_Tables_number   1
_chemical_formula_structural   Zn4H34(C9O2)7
_chemical_formula_sum   'Zn4 H34 C63 O14'
_cell_volume   4005.16568213
_cell_formula_units_Z   1
loop_
 _symmetry_equiv_pos_site_id
 _symmetry_equiv_pos_as_xyz
  1  'x, y, z'
loop_
 _atom_site_type_symbol
 _atom_site_label
 _atom_site_symmetry_multiplicity
 _atom_site_fract_x
 _atom_site_fract_y
 _atom_site_fract_z
 _atom_site_occupancy
  Zn  Zn0  1  0.55488443  0.56614156  0.56667914  1.0
  Zn  Zn1  1  0.59329939  0.44296813  0.44047423  1.0
  Zn  Zn2  1  0.42990660  0.58845878  0.43686131  1.0
  Zn  Zn3  1  0.41435277  0.40646493  0.55393096  1.0
  H  H4  1  0.71837603  0.67958573  0.06474610  1.0
  H  H5  1  0.00638217  0.33048229  0.46397309  1.0
  H  H6  1  0.16962579  0.34124684  0.46691530  1.0
  H  H7  1  0.14440963  0.61333904  0.50100641  1.0
  H  H8  1  0.68662864  0.65393824  0.93946540  1.0
  H  H9  1  0.33351578  0.26614318  0.93253367  1.0
  H  H10  1  0.35293908  0.30973865  0.78955985  1.0
  H  H11  1  0.52544996  0.52633786  0.80105372  1.0
  H  H12  1  0.44012838  0.37840736  0.13705954  1.0
  H  H13  1  0.60112612  0.57983889  0.86052467  1.0
  H  H14  1  0.46823183  0.19602010  0.10801283  1.0
  H  H15  1  0.38587521  0.14179911  0.51898593  1.0
  H  H16  1  0.37957092  0.06337842  0.18026980  1.0
  H  H17  1  0.21459845  0.06072653  0.18780007  1.0
  H  H18  1  0.13925923  0.19174453  0.12309209  1.0
  H  H19  1  0.22850110  0.32365363  0.05056562  1.0
  H  H20  1  0.35910872  0.58546463  0.13116837  1.0
  H  H21  1  0.20679728  0.53251518  0.19223344  1.0
  H  H22  1  0.18574553  0.40720960  0.30386617  1.0
  H  H23  1  0.31846450  0.33690679  0.35465622  1.0
  H  H24  1  0.47034018  0.38945704  0.29277184  1.0
  H  H25  1  0.92803261  0.69263056  0.64407750  1.0
  H  H26  1  0.67017765  0.17139951  0.46482640  1.0
  H  H27  1  0.98357363  0.83880145  0.66471559  1.0
  H  H28  1  0.08493975  0.93381378  0.55954737  1.0
  H  H29  1  0.13065732  0.88140727  0.43392594  1.0
  H  H30  1  0.07513374  0.73541597  0.41384619  1.0
  H  H31  1  0.67698558  0.65519999  0.28187001  1.0
  H  H32  1  0.31380805  0.99298936  0.52796225  1.0
  H  H33  1  0.68456375  0.00689628  0.47378347  1.0
  H  H34  1  0.32767186  0.83054169  0.52444763  1.0
  H  H35  1  0.61286463  0.85544497  0.49742214  1.0
  H  H36  1  0.85888886  0.39749018  0.47522712  1.0
  H  H37  1  0.82612079  0.65750605  0.53747719  1.0
  C  C38  1  0.51842560  0.26274798  0.49150162  1.0
  C  C39  1  0.58516252  0.56496310  0.92329460  1.0
  C  C40  1  0.63284008  0.60678555  0.96688140  1.0
  C  C41  1  0.47912589  0.73712229  0.51027347  1.0
  C  C42  1  0.61327334  0.59108794  0.04929167  1.0
  C  C43  1  0.54150224  0.53130127  0.08717857  1.0
  C  C44  1  0.66324638  0.63451445  0.09315444  1.0
  C  C45  1  0.64426487  0.62072757  0.17320397  1.0
  C  C46  1  0.51407749  0.52776595  0.16858116  1.0
  C  C47  1  0.52660800  0.16509833  0.49257565  1.0
  C  C48  1  0.47170104  0.83444207  0.51158670  1.0
  C  C49  1  0.38556594  0.34760275  0.82476947  1.0
  C  C50  1  0.37908408  0.96297695  0.51992218  1.0
  C  C51  1  0.38643281  0.87319277  0.51883120  1.0
  C  C52  1  0.54799258  0.88654515  0.50281602  1.0
  C  C53  1  0.73587628  0.51646534  0.50918269  1.0
  C  C54  1  0.54244755  0.97995549  0.49838345  1.0
  C  C55  1  0.45614940  0.01872138  0.50916658  1.0
  C  C56  1  0.45059389  0.11150050  0.50814880  1.0
  C  C57  1  0.61170540  0.12734617  0.47825636  1.0
  C  C58  1  0.61927216  0.03663666  0.48283159  1.0
  C  C59  1  0.83378817  0.52606856  0.50662918  1.0
  C  C60  1  0.48387732  0.46989070  0.83188878  1.0
  C  C61  1  0.16527731  0.47929923  0.48266090  1.0
  C  C62  1  0.03685557  0.39199885  0.47271968  1.0
  C  C63  1  0.12681050  0.39784129  0.47356115  1.0
  C  C64  1  0.11298725  0.55212674  0.49313078  1.0
  C  C65  1  0.26262025  0.48558363  0.48442999  1.0
  C  C66  1  0.01947641  0.54672891  0.49706195  1.0
  C  C67  1  0.98107102  0.46493988  0.48514039  1.0
  C  C68  1  0.88821970  0.45774223  0.48747914  1.0
  C  C69  1  0.87085563  0.60498946  0.52235491  1.0
  C  C70  1  0.96200084  0.61772515  0.51532565  1.0
  C  C71  1  0.47390659  0.44779489  0.91315707  1.0
  C  C72  1  0.54672353  0.55488050  0.29716283  1.0
  C  C73  1  0.45339293  0.44829575  0.70238571  1.0
  C  C74  1  0.44050656  0.42176252  0.78806227  1.0
  C  C75  1  0.56804578  0.56857239  0.21031767  1.0
  C  C76  1  0.37487478  0.32393789  0.90409101  1.0
  C  C77  1  0.35436631  0.26843377  0.07416740  1.0
  C  C78  1  0.39602433  0.19477697  0.11146684  1.0
  C  C79  1  0.34606232  0.12032852  0.15199040  1.0
  C  C80  1  0.25364689  0.11882793  0.15620737  1.0
  C  C81  1  0.21146405  0.19212976  0.11965336  1.0
  C  C82  1  0.41715112  0.37320172  0.95016750  1.0
  C  C83  1  0.26146111  0.26621865  0.07868770  1.0
  C  C84  1  0.42496807  0.49126385  0.20773246  1.0
  C  C85  1  0.34971019  0.53080379  0.18015745  1.0
  C  C86  1  0.26434466  0.50085559  0.21448738  1.0
  C  C87  1  0.25257982  0.43075596  0.27720375  1.0
  C  C88  1  0.32689274  0.39161012  0.30565859  1.0
  C  C89  1  0.41258531  0.42162653  0.27133134  1.0
  C  C90  1  0.99788628  0.70391318  0.52767935  1.0
  C  C91  1  0.97222719  0.73441200  0.59798815  1.0
  C  C92  1  0.00356632  0.81644257  0.60949497  1.0
  C  C93  1  0.51933015  0.49812755  0.95878964  1.0
  C  C94  1  0.06072524  0.86958822  0.55066448  1.0
  C  C95  1  0.08656502  0.84004904  0.48037837  1.0
  C  C96  1  0.05568806  0.75779774  0.46908757  1.0
  C  C97  1  0.69938317  0.66569876  0.21808011  1.0
  C  C98  1  0.50125074  0.47740108  0.04074722  1.0
  C  C99  1  0.44843881  0.39965499  0.07481288  1.0
  C  C100  1  0.40762128  0.34845174  0.03270812  1.0
  O  O101  1  0.49799423  0.50184952  0.49888893  1.0
  O  O102  1  0.59427074  0.49653223  0.33127687  1.0
  O  O103  1  0.40960732  0.40328817  0.66515266  1.0
  O  O104  1  0.48564349  0.60082129  0.32756716  1.0
  O  O105  1  0.50722589  0.51362791  0.67321280  1.0
  O  O106  1  0.76534897  0.71238679  0.18949372  1.0
  O  O107  1  0.68587670  0.56399231  0.54981367  1.0
  O  O108  1  0.29784334  0.41657514  0.51831261  1.0
  O  O109  1  0.58274190  0.31285349  0.45305878  1.0
  O  O110  1  0.42518050  0.70361660  0.47368886  1.0
  O  O111  1  0.44781366  0.28863780  0.52916339  1.0
  O  O112  1  0.53868361  0.69574533  0.54498565  1.0
  O  O113  1  0.70995822  0.46100301  0.47003572  1.0
  O  O114  1  0.30232347  0.55904494  0.45286793  1.0
