# generated using pymatgen
data_Zn4H20C31O16
_symmetry_space_group_name_H-M   'P 1'
_cell_length_a   10.89712964
_cell_length_b   10.92540744
_cell_length_c   17.89876371
_cell_angle_alpha   107.41149059
_cell_angle_beta   92.87747109
_cell_angle_gamma   99.66563270
_symmetry_Int_Tables_number   1
_chemical_formula_structural   Zn4H20C31O16
_chemical_formula_sum   'Zn4 H20 C31 O16'
_cell_volume   1992.98428391
_cell_formula_units_Z   1
loop_
 _symmetry_equiv_pos_site_id
 _symmetry_equiv_pos_as_xyz
  1  'x, y, z'
loop_
 _atom_site_type_symbol
 _atom_site_label
 _atom_site_symmetry_multiplicity
 _atom_site_fract_x
 _atom_site_fract_y
 _atom_site_fract_z
 _atom_site_occupancy
  Zn  Zn0  1  0.56941196  0.85674420  0.43293061  1.0
  Zn  Zn1  1  0.62825337  0.14780095  0.55476917  1.0
  Zn  Zn2  1  0.40776300  0.93518722  0.58005141  1.0
  Zn  Zn3  1  0.38179119  0.04356659  0.42964506  1.0
  H  H4  1  0.32666580  0.69530836  0.91556276  1.0
  H  H5  1  0.56596793  0.47638491  0.42972104  1.0
  H  H6  1  0.29929007  0.29504817  0.86834789  1.0
  H  H7  1  0.31176802  0.14717672  0.79240857  1.0
  H  H8  1  0.24223613  0.27021379  0.76803501  1.0
  H  H9  1  0.61774180  0.92283600  0.77953937  1.0
  H  H10  1  0.72405928  0.95508329  0.86642500  1.0
  H  H11  1  0.77428577  0.89273556  0.77062777  1.0
  H  H12  1  0.55093793  0.68044054  0.19778937  1.0
  H  H13  1  0.74205888  0.78531869  0.14063883  1.0
  H  H14  1  0.87179083  0.70126998  0.13107116  1.0
  H  H15  1  0.81073106  0.23081878  0.95106628  1.0
  H  H16  1  0.81654782  0.76213148  0.22573675  1.0
  H  H17  1  0.42568536  0.52701577  0.57883967  1.0
  H  H18  1  0.00041029  0.95618682  0.57791561  1.0
  H  H19  1  0.00219765  0.04285751  0.42851191  1.0
  H  H20  1  0.79272605  0.41032015  0.06597588  1.0
  H  H21  1  0.27669830  0.84497318  0.03556892  1.0
  H  H22  1  0.29973927  0.93710908  0.18257429  1.0
  H  H23  1  0.41986550  0.50747881  0.84963914  1.0
  C  C24  1  0.51810831  0.31934093  0.48348912  1.0
  C  C25  1  0.65662198  0.53004782  0.07495387  1.0
  C  C26  1  0.71320192  0.43042258  0.03527650  1.0
  C  C27  1  0.47787861  0.67599364  0.52069298  1.0
  C  C28  1  0.67245079  0.35412942  0.95593908  1.0
  C  C29  1  0.57210220  0.38584333  0.91482419  1.0
  C  C30  1  0.73376983  0.25148115  0.91840135  1.0
  C  C31  1  0.69935672  0.17998891  0.84031233  1.0
  C  C32  1  0.53404152  0.30336426  0.83573561  1.0
  C  C33  1  0.47250120  0.54479786  0.52961812  1.0
  C  C34  1  0.52179761  0.45383833  0.47877212  1.0
  C  C35  1  0.34963680  0.86115904  0.15258346  1.0
  C  C36  1  0.03555742  0.98467190  0.52839119  1.0
  C  C37  1  0.96228892  0.01623177  0.47757604  1.0
  C  C38  1  0.82584711  0.01409626  0.48244435  1.0
  C  C39  1  0.17000709  0.98561974  0.51917858  1.0
  C  C40  1  0.56587088  0.13746897  0.71215370  1.0
  C  C41  1  0.43923993  0.86110928  0.28517041  1.0
  C  C42  1  0.42720957  0.81180742  0.19761348  1.0
  C  C43  1  0.59831346  0.20608491  0.79894905  1.0
  C  C44  1  0.33802494  0.81060151  0.07169827  1.0
  C  C45  1  0.31458991  0.25280652  0.80625768  1.0
  C  C46  1  0.49388640  0.71660708  0.16089840  1.0
  C  C47  1  0.71615844  0.95671496  0.80511144  1.0
  C  C48  1  0.78865177  0.71861701  0.16231686  1.0
  C  C49  1  0.48628800  0.66496563  0.07798278  1.0
  C  C50  1  0.40308335  0.71159127  0.03307957  1.0
  C  C51  1  0.55346390  0.56443191  0.03731763  1.0
  C  C52  1  0.51904398  0.49807090  0.95515098  1.0
  C  C53  1  0.43743357  0.55072621  0.91312174  1.0
  C  C54  1  0.38528543  0.65539154  0.94991050  1.0
  O  O55  1  0.49599736  0.99681876  0.50065707  1.0
  O  O56  1  0.63269215  0.18814864  0.66896588  1.0
  O  O57  1  0.37717676  0.94907656  0.31749429  1.0
  O  O58  1  0.47741032  0.03783352  0.68974027  1.0
  O  O59  1  0.51134177  0.81201581  0.32175993  1.0
  O  O60  1  0.43312206  0.31578931  0.78994112  1.0
  O  O61  1  0.76388012  0.08555194  0.80120421  1.0
  O  O62  1  0.70503016  0.59665462  0.15232647  1.0
  O  O63  1  0.75320138  0.91115233  0.43872543  1.0
  O  O64  1  0.21315799  0.02040614  0.46206009  1.0
  O  O65  1  0.60194162  0.30676619  0.53128948  1.0
  O  O66  1  0.42185582  0.75350618  0.56949405  1.0
  O  O67  1  0.43282185  0.23053812  0.43810337  1.0
  O  O68  1  0.53774538  0.70065742  0.46568106  1.0
  O  O69  1  0.79576951  0.11545001  0.52856329  1.0
  O  O70  1  0.23097685  0.95110921  0.56994443  1.0
