# generated using pymatgen
data_Al6H84C84N16O43
_symmetry_space_group_name_H-M   'P 1'
_cell_length_a   13.30167807
_cell_length_b   13.57541558
_cell_length_c   28.14652308
_cell_angle_alpha   89.12948315
_cell_angle_beta   89.60260401
_cell_angle_gamma   61.55146039
_symmetry_Int_Tables_number   1
_chemical_formula_structural   Al6H84C84N16O43
_chemical_formula_sum   'Al6 H84 C84 N16 O43'
_cell_volume   4468.31963586
_cell_formula_units_Z   1
loop_
 _symmetry_equiv_pos_site_id
 _symmetry_equiv_pos_as_xyz
  1  'x, y, z'
loop_
 _atom_site_type_symbol
 _atom_site_label
 _atom_site_symmetry_multiplicity
 _atom_site_fract_x
 _atom_site_fract_y
 _atom_site_fract_z
 _atom_site_occupancy
  Al  Al0  1  0.58588833  0.59053634  0.50141712  1.0
  Al  Al1  1  0.35206622  0.57712430  0.49884426  1.0
  Al  Al2  1  0.57151544  0.36131982  0.50031888  1.0
  Al  Al3  1  0.08929447  0.06697554  0.99906525  1.0
  Al  Al4  1  0.09692355  0.29976297  0.99941866  1.0
  Al  Al5  1  0.32075300  0.08849667  0.99854569  1.0
  H  H6  1  0.20939244  0.50875210  0.21454573  1.0
  H  H7  1  0.14991808  0.92391249  0.28926464  1.0
  H  H8  1  0.41780213  0.45724119  0.26163431  1.0
  H  H9  1  0.52210017  0.28030242  0.71488583  1.0
  H  H10  1  0.27404207  0.23563951  0.69293226  1.0
  H  H11  1  0.41944179  0.17318734  0.70875975  1.0
  H  H12  1  0.35102212  0.16041594  0.78511126  1.0
  H  H13  1  0.21139327  0.26660083  0.77221082  1.0
  H  H14  1  0.15479001  0.44638285  0.71040967  1.0
  H  H15  1  0.53062231  0.25862921  0.21089549  1.0
  H  H16  1  0.14385731  0.45390532  0.79035261  1.0
  H  H17  1  0.00373991  0.16931454  0.22178429  1.0
  H  H18  1  0.79382740  0.48175533  0.78921353  1.0
  H  H19  1  0.01982861  0.21534637  0.69518119  1.0
  H  H20  1  0.98887183  0.36672985  0.77402071  1.0
  H  H21  1  0.05349103  0.21839393  0.77564510  1.0
  H  H22  1  0.47981797  0.14553893  0.28601247  1.0
  H  H23  1  0.89821578  0.14033078  0.70593841  1.0
  H  H24  1  0.76338487  0.22532822  0.79276526  1.0
  H  H25  1  0.66184966  0.44018430  0.71796568  1.0
  H  H26  1  0.19247569  0.83571752  0.79961837  1.0
  H  H27  1  0.17479961  0.99928013  0.68791467  1.0
  H  H28  1  0.69416156  0.52065061  0.27873403  1.0
  H  H29  1  0.15115305  0.01274587  0.76962179  1.0
  H  H30  1  0.27457301  0.19119372  0.23798760  1.0
  H  H31  1  0.25214788  0.06185347  0.76777808  1.0
  H  H32  1  0.30750944  0.69406391  0.72202559  1.0
  H  H33  1  0.72788434  0.23319981  0.28749012  1.0
  H  H34  1  0.98120291  0.29704954  0.30500026  1.0
  H  H35  1  0.05068280  0.10150324  0.30679622  1.0
  H  H36  1  0.93183023  0.15281551  0.33774531  1.0
  H  H37  1  0.12095963  0.24298913  0.22804812  1.0
  H  H38  1  0.03465890  0.32837774  0.18835110  1.0
  H  H39  1  0.83985468  0.48415065  0.28553760  1.0
  H  H40  1  0.63286837  0.48967913  0.19309710  1.0
  H  H41  1  0.66302491  0.59454753  0.19343165  1.0
  H  H42  1  0.70623338  0.29232751  0.15360095  1.0
  H  H43  1  0.51326134  0.84493791  0.20873417  1.0
  H  H44  1  0.07395586  0.40324209  0.27613349  1.0
  H  H45  1  0.14025117  0.38199792  0.32902758  1.0
  H  H46  1  0.28980927  0.00963853  0.34983031  1.0
  H  H47  1  0.25437198  0.09679878  0.30350802  1.0
  H  H48  1  0.43699233  0.02754161  0.23696255  1.0
  H  H49  1  0.39949058  0.01784225  0.18194323  1.0
  H  H50  1  0.64110199  0.37192650  0.26624178  1.0
  H  H51  1  0.16235552  0.03565685  0.21497329  1.0
  H  H52  1  0.30042315  0.70283518  0.18826302  1.0
  H  H53  1  0.35360936  0.62497830  0.26471040  1.0
  H  H54  1  0.49338099  0.55424564  0.26619195  1.0
  H  H55  1  0.47551551  0.67108794  0.15810530  1.0
  H  H56  1  0.04451245  0.95544997  0.21769164  1.0
  H  H57  1  0.11018080  0.94288987  0.16637797  1.0
  H  H58  1  0.59331324  0.17396379  0.77029212  1.0
  H  H59  1  0.50646019  0.15248942  0.80807822  1.0
  H  H60  1  0.17320828  0.62516195  0.72997459  1.0
  H  H61  1  0.85903155  0.47311084  0.20491747  1.0
  H  H62  1  0.19602037  0.57974624  0.67410407  1.0
  H  H63  1  0.30883801  0.52366802  0.80544325  1.0
  H  H64  1  0.37241536  0.50968546  0.71601426  1.0
  H  H65  1  0.48836407  0.36294743  0.84208060  1.0
  H  H66  1  0.83094389  0.50703810  0.70273766  1.0
  H  H67  1  0.97508177  0.38106363  0.65580857  1.0
  H  H68  1  0.70539689  0.23634092  0.67813672  1.0
  H  H69  1  0.61531160  0.41464558  0.79364053  1.0
  H  H70  1  0.61780696  0.52697909  0.81225419  1.0
  H  H71  1  0.95505331  0.09636200  0.82531562  1.0
  H  H72  1  0.51265646  0.71012547  0.28718919  1.0
  H  H73  1  0.91416367  0.03828038  0.78467382  1.0
  H  H74  1  0.09170363  0.90454360  0.72722115  1.0
  H  H75  1  0.13281191  0.81969179  0.68153791  1.0
  H  H76  1  0.39196933  0.96324809  0.67382591  1.0
  H  H77  1  0.47807990  0.63438055  0.74309724  1.0
  H  H78  1  0.59201864  0.63648463  0.71998010  1.0
  H  H79  1  0.53402445  0.77382446  0.65928918  1.0
  H  H80  1  0.53606959  0.79195189  0.82614633  1.0
  H  H81  1  0.37215802  0.70041244  0.83390427  1.0
  H  H82  1  0.42497515  0.99323811  0.74491770  1.0
  H  H83  1  0.43506642  0.90667026  0.29450720  1.0
  H  H84  1  0.55731366  0.90013266  0.75538016  1.0
  H  H85  1  0.88443024  0.11100839  0.24366530  1.0
  H  H86  1  0.78134602  0.11419895  0.20987663  1.0
  H  H87  1  0.19585347  0.77827072  0.28605210  1.0
  H  H88  1  0.67905416  0.68903652  0.47357452  1.0
  H  H89  1  0.98577868  0.97986742  0.97133491  1.0
  C  C90  1  0.38354546  0.71380018  0.43358081  1.0
  C  C91  1  0.36532671  0.35480907  0.34654362  1.0
  C  C92  1  0.72921403  0.30281200  0.26772457  1.0
  C  C93  1  0.39669212  0.39803456  0.43461407  1.0
  C  C94  1  0.93394483  0.26074649  0.28635785  1.0
  C  C95  1  0.96367058  0.25725087  0.23259455  1.0
  C  C96  1  0.91229314  0.28788612  0.11169231  1.0
  C  C97  1  0.80468512  0.34409879  0.29342624  1.0
  C  C98  1  0.77394794  0.26516067  0.21687664  1.0
  C  C99  1  0.85233621  0.31914159  0.20288173  1.0
  C  C100  1  0.79636345  0.44566769  0.21520224  1.0
  C  C101  1  0.37261987  0.37077776  0.38866102  1.0
  C  C102  1  0.78168447  0.45674608  0.27015050  1.0
  C  C103  1  0.88160470  0.30287752  0.15294046  1.0
  C  C104  1  0.77643042  0.35834689  0.34352668  1.0
  C  C105  1  0.70073171  0.40161188  0.43194224  1.0
  C  C106  1  0.74984678  0.37284844  0.38524054  1.0
  C  C107  1  0.43250436  0.72116317  0.27135025  1.0
  C  C108  1  0.34518430  0.92993453  0.28633104  1.0
  C  C109  1  0.32513832  0.96295360  0.23203137  1.0
  C  C110  1  0.31893142  0.90359515  0.11157000  1.0
  C  C111  1  0.33193507  0.82323774  0.29579582  1.0
  C  C112  1  0.30539713  0.25140680  0.24409838  1.0
  C  C113  1  0.43899700  0.75146742  0.21761700  1.0
  C  C114  1  0.32659443  0.86170656  0.20432631  1.0
  C  C115  1  0.21886184  0.84864721  0.22008318  1.0
  C  C116  1  0.21615138  0.84451988  0.27497134  1.0
  C  C117  1  0.38427171  0.70874625  0.56611102  1.0
  C  C118  1  0.32360087  0.88326086  0.15389443  1.0
  C  C119  1  0.34001809  0.79788778  0.34638295  1.0
  C  C120  1  0.35407501  0.77023787  0.38807670  1.0
  C  C121  1  0.44488954  0.34996881  0.72997786  1.0
  C  C122  1  0.33499553  0.24421679  0.71627033  1.0
  C  C123  1  0.33289148  0.31419415  0.20205218  1.0
  C  C124  1  0.30218696  0.24389932  0.76878479  1.0
  C  C125  1  0.29994466  0.29951219  0.88898367  1.0
  C  C126  1  0.33890270  0.35379273  0.70462215  1.0
  C  C127  1  0.44265994  0.31839868  0.78429544  1.0
  C  C128  1  0.32137091  0.33140418  0.79660729  1.0
  C  C129  1  0.38819556  0.40419745  0.56535357  1.0
  C  C130  1  0.22592204  0.44908130  0.77977195  1.0
  C  C131  1  0.22794177  0.45506044  0.72383009  1.0
  C  C132  1  0.31100383  0.31569106  0.84710095  1.0
  C  C133  1  0.35038425  0.36589597  0.65393813  1.0
  C  C134  1  0.41933646  0.22534511  0.26937164  1.0
  C  C135  1  0.36126514  0.37824761  0.61164088  1.0
  C  C136  1  0.74799715  0.42865810  0.72522075  1.0
  C  C137  1  0.95975996  0.29674188  0.71064181  1.0
  C  C138  1  0.97681115  0.29474960  0.76460411  1.0
  C  C139  1  0.92221290  0.28675593  0.88420778  1.0
  C  C140  1  0.83605352  0.31874528  0.70046501  1.0
  C  C141  1  0.71236079  0.38425693  0.56529952  1.0
  C  C142  1  0.76722110  0.41913067  0.78001984  1.0
  C  C143  1  0.87154184  0.30295327  0.79211294  1.0
  C  C144  1  0.84541814  0.20845916  0.77622509  1.0
  C  C145  1  0.35541489  0.33835024  0.29784385  1.0
  C  C146  1  0.82797107  0.21610149  0.72186058  1.0
  C  C147  1  0.89572215  0.29491154  0.84254639  1.0
  C  C148  1  0.80941013  0.33039345  0.65023263  1.0
  C  C149  1  0.77448796  0.34841674  0.60951020  1.0
  C  C150  1  0.26194514  0.78409121  0.72910687  1.0
  C  C151  1  0.25845637  0.96624893  0.70566437  1.0
  C  C152  1  0.23964636  0.98984196  0.75943893  1.0
  C  C153  1  0.23955337  0.36649827  0.27143486  1.0
  C  C154  1  0.31253421  0.92563506  0.88113720  1.0
  C  C155  1  0.32366150  0.83758462  0.69913892  1.0
  C  C156  1  0.44820580  0.28717469  0.22859417  1.0
  C  C157  1  0.27716846  0.79887870  0.78229206  1.0
  C  C158  1  0.32296323  0.88496458  0.78857127  1.0
  C  C159  1  0.44771482  0.84061166  0.76860494  1.0
  C  C160  1  0.45131902  0.78754028  0.71805183  1.0
  C  C161  1  0.31932178  0.90950674  0.83857014  1.0
  C  C162  1  0.33020077  0.80535578  0.64995464  1.0
  C  C163  1  0.34698196  0.76963814  0.60970551  1.0
  C  C164  1  0.96658100  0.25860407  0.06597767  1.0
  C  C165  1  0.26943837  0.42769969  0.23023122  1.0
  C  C166  1  0.27428969  0.26089789  0.06597184  1.0
  C  C167  1  0.38394912  0.39982272  0.25552427  1.0
  C  C168  1  0.29251453  0.95151694  0.06438766  1.0
  C  C169  1  0.96884243  0.26319228  0.93136904  1.0
  C  C170  1  0.27641620  0.26932543  0.93512987  1.0
  C  C171  1  0.28618489  0.96519627  0.92912491  1.0
  C  C172  1  0.30159425  0.28504513  0.11205486  1.0
  C  C173  1  0.31795964  0.29858466  0.15352946  1.0
  N  N174  1  0.96332620  0.14790901  0.30408818  1.0
  N  N175  1  0.22403574  0.56036260  0.70831304  1.0
  N  N176  1  0.66693494  0.44256157  0.80850751  1.0
  N  N177  1  0.93946267  0.09764685  0.78965242  1.0
  N  N178  1  0.14189500  0.82324722  0.71742456  1.0
  N  N179  1  0.50549376  0.66762018  0.71636050  1.0
  N  N180  1  0.47611886  0.93199071  0.76861586  1.0
  N  N181  1  0.83955048  0.14284728  0.21250941  1.0
  N  N182  1  0.03940669  0.30650605  0.22359018  1.0
  N  N183  1  0.69531022  0.51130020  0.18658973  1.0
  N  N184  1  0.13389482  0.41329008  0.29535806  1.0
  N  N185  1  0.26307446  0.02178654  0.31530626  1.0
  N  N186  1  0.42081376  0.97851572  0.21447225  1.0
  N  N187  1  0.42431687  0.62016247  0.28098618  1.0
  N  N188  1  0.11755634  0.94783009  0.20234845  1.0
  N  N189  1  0.53194177  0.20775629  0.79573863  1.0
  O  O190  1  0.67554612  0.49775741  0.44701069  1.0
  O  O191  1  0.34801354  0.17032353  0.04633329  1.0
  O  O192  1  0.36565879  0.97665129  0.04512325  1.0
  O  O193  1  0.47778903  0.69396753  0.45194763  1.0
  O  O194  1  0.19007408  0.98338855  0.94505520  1.0
  O  O195  1  0.98746885  0.17068867  0.95008557  1.0
  O  O196  1  0.99211928  0.33620891  0.94995898  1.0
  O  O197  1  0.18152446  0.33644915  0.95466590  1.0
  O  O198  1  0.34979652  0.17420993  0.95237393  1.0
  O  O199  1  0.36121942  0.98261892  0.95091293  1.0
  O  O200  1  0.17028951  0.15203352  0.99894953  1.0
  O  O201  1  0.31713173  0.49841962  0.54651587  1.0
  O  O202  1  0.31152588  0.68416171  0.45074276  1.0
  O  O203  1  0.32486069  0.49153689  0.45256271  1.0
  O  O204  1  0.49220347  0.32794159  0.45362841  1.0
  O  O205  1  0.68327025  0.32691465  0.45386790  1.0
  O  O206  1  0.68862390  0.47999800  0.54933731  1.0
  O  O207  1  0.48645220  0.67764930  0.55377874  1.0
  O  O208  1  0.31141814  0.68835124  0.54415594  1.0
  O  O209  1  0.67719954  0.30464696  0.18625194  1.0
  O  O210  1  0.53719497  0.76152524  0.20865333  1.0
  O  O211  1  0.22159810  0.06130151  0.22352926  1.0
  O  O212  1  0.48379155  0.33405354  0.54722911  1.0
  O  O213  1  0.22293978  0.75003099  0.20117690  1.0
  O  O214  1  0.44618711  0.66174873  0.18891356  1.0
  O  O215  1  0.22866284  0.54008896  0.80199515  1.0
  O  O216  1  0.45260877  0.44855335  0.72211784  1.0
  O  O217  1  0.45956697  0.39926137  0.81123782  1.0
  O  O218  1  0.75046911  0.52484120  0.70541817  1.0
  O  O219  1  0.98217350  0.38258806  0.69030552  1.0
  O  O220  1  0.72073560  0.22051996  0.71211867  1.0
  O  O221  1  0.31594329  0.02184408  0.68400424  1.0
  O  O222  1  0.51411988  0.82317946  0.68678954  1.0
  O  O223  1  0.68263589  0.31501144  0.54724909  1.0
  O  O224  1  0.53014062  0.75378510  0.79793496  1.0
  O  O225  1  0.34951421  0.69069977  0.80215569  1.0
  O  O226  1  0.50273606  0.50895949  0.50012187  1.0
  O  O227  1  0.19791754  0.96932375  0.04747834  1.0
  O  O228  1  0.99743825  0.16069574  0.05160691  1.0
  O  O229  1  0.98308407  0.33435642  0.04431990  1.0
  O  O230  1  0.17633564  0.32908529  0.04860048  1.0
  O  O231  1  0.66408718  0.66377452  0.50377929  1.0
  O  O232  1  0.02045948  0.98470125  0.00064018  1.0
