# generated using pymatgen
data_Zn2H14C19N2O9
_symmetry_space_group_name_H-M   'P 1'
_cell_length_a   9.94189977
_cell_length_b   11.10646592
_cell_length_c   14.47345691
_cell_angle_alpha   90.59801232
_cell_angle_beta   94.31396678
_cell_angle_gamma   90.74283349
_symmetry_Int_Tables_number   1
_chemical_formula_structural   Zn2H14C19N2O9
_chemical_formula_sum   'Zn2 H14 C19 N2 O9'
_cell_volume   1593.38385891
_cell_formula_units_Z   1
loop_
 _symmetry_equiv_pos_site_id
 _symmetry_equiv_pos_as_xyz
  1  'x, y, z'
loop_
 _atom_site_type_symbol
 _atom_site_label
 _atom_site_symmetry_multiplicity
 _atom_site_fract_x
 _atom_site_fract_y
 _atom_site_fract_z
 _atom_site_occupancy
  Zn  Zn0  1  0.36346329  0.49340685  0.48172954  1.0
  Zn  Zn1  1  0.64742474  0.49900725  0.50403108  1.0
  H  H2  1  0.70703671  0.10934365  0.52928825  1.0
  H  H3  1  0.06754926  0.70184433  0.70334548  1.0
  H  H4  1  0.99096441  0.80477784  0.62336366  1.0
  H  H5  1  0.80845638  0.84416341  0.73330637  1.0
  H  H6  1  0.97161466  0.87789968  0.78656522  1.0
  H  H7  1  0.88705744  0.74237737  0.81358297  1.0
  H  H8  1  0.41283281  0.09056526  0.44690093  1.0
  H  H9  1  0.70744531  0.88664663  0.49949535  1.0
  H  H10  1  0.40297807  0.90037773  0.52377761  1.0
  H  H11  1  0.09650891  0.36392544  0.39036709  1.0
  H  H12  1  0.12515036  0.56100251  0.52531730  1.0
  H  H13  1  0.85345258  0.38146335  0.40844026  1.0
  H  H14  1  0.85350056  0.57377393  0.68909511  1.0
  H  H15  1  0.78158636  0.67815524  0.60647975  1.0
  C  C16  1  0.50464043  0.72885282  0.50749845  1.0
  C  C17  1  0.51208175  0.26427179  0.47927196  1.0
  C  C18  1  0.52065188  0.50850025  0.31376493  1.0
  C  C19  1  0.49510976  0.48091926  0.77294833  1.0
  C  C20  1  0.49822353  0.48553994  0.85789021  1.0
  C  C21  1  0.50320457  0.49139519  0.95070410  1.0
  C  C22  1  0.50959810  0.49728436  0.03616829  1.0
  C  C23  1  0.51564333  0.50291839  0.12900093  1.0
  C  C24  1  0.87626169  0.64190263  0.63790178  1.0
  C  C25  1  0.97029240  0.74039472  0.67808495  1.0
  C  C26  1  0.90567801  0.80482748  0.75736399  1.0
  C  C27  1  0.52053106  0.50730186  0.21398479  1.0
  C  C28  1  0.61298653  0.06270613  0.50549034  1.0
  C  C29  1  0.50771364  0.13104945  0.47549160  1.0
  C  C30  1  0.61144342  0.93209841  0.50545764  1.0
  C  C31  1  0.50110809  0.86188856  0.51313114  1.0
  C  C32  1  0.06675688  0.43276349  0.43935758  1.0
  C  C33  1  0.92295255  0.43870254  0.45181298  1.0
  C  C34  1  0.49742316  0.48086941  0.67323999  1.0
  N  N35  1  0.16064537  0.49899135  0.48053886  1.0
  N  N36  1  0.86272363  0.50479345  0.51041034  1.0
  O  O37  1  0.39320076  0.67282055  0.51486158  1.0
  O  O38  1  0.61766913  0.67931437  0.49516001  1.0
  O  O39  1  0.38719512  0.45906849  0.62566006  1.0
  O  O40  1  0.61229378  0.50431597  0.64312126  1.0
  O  O41  1  0.40056246  0.31640511  0.45687933  1.0
  O  O42  1  0.62401197  0.31696160  0.50481637  1.0
  O  O43  1  0.40787121  0.52948464  0.34646023  1.0
  O  O44  1  0.63282408  0.48774911  0.35902490  1.0
  O  O45  1  0.94479902  0.58097496  0.56428216  1.0
