# generated using pymatgen
data_Zn2H9C41N2Cl6(O4F3)2
_symmetry_space_group_name_H-M   'P 1'
_cell_length_a   11.02595599
_cell_length_b   13.88451156
_cell_length_c   26.27483155
_cell_angle_alpha   89.62188688
_cell_angle_beta   88.30390364
_cell_angle_gamma   89.67418390
_symmetry_Int_Tables_number   1
_chemical_formula_structural   Zn2H9C41N2Cl6(O4F3)2
_chemical_formula_sum   'Zn4 H18 C82 N4 Cl12 O16 F12'
_cell_volume   4020.50378557
_cell_formula_units_Z   2
loop_
 _symmetry_equiv_pos_site_id
 _symmetry_equiv_pos_as_xyz
  1  'x, y, z'
loop_
 _atom_site_type_symbol
 _atom_site_label
 _atom_site_symmetry_multiplicity
 _atom_site_fract_x
 _atom_site_fract_y
 _atom_site_fract_z
 _atom_site_occupancy
  Zn  Zn0  1  0.52087787  0.39471478  0.50214429  1.0
  Zn  Zn1  1  0.51856460  0.59646545  0.50316127  1.0
  Zn  Zn2  1  0.47712562  0.60704345  0.08099271  1.0
  Zn  Zn3  1  0.47823983  0.40495858  0.08627413  1.0
  H  H4  1  0.37314570  0.24552624  0.55211121  1.0
  H  H5  1  0.66872478  0.24047526  0.45068887  1.0
  H  H6  1  0.65976516  0.74577052  0.45218953  1.0
  H  H7  1  0.36545620  0.74978063  0.55421812  1.0
  H  H8  1  0.66078933  0.41316521  0.18627158  1.0
  H  H9  1  0.67126726  0.35840326  0.37310230  1.0
  H  H10  1  0.49974990  0.64074792  0.66081078  1.0
  H  H11  1  0.51018053  0.33161031  0.66686236  1.0
  H  H12  1  0.50178428  0.34812046  0.92579076  1.0
  H  H13  1  0.48901838  0.65716939  0.91905766  1.0
  H  H14  1  0.79492376  0.58520152  0.59215139  1.0
  H  H15  1  0.24684059  0.57798115  0.58688438  1.0
  H  H16  1  0.34816484  0.76210498  0.02543087  1.0
  H  H17  1  0.61000058  0.75374026  0.13551164  1.0
  H  H18  1  0.61958428  0.24892539  0.13869974  1.0
  H  H19  1  0.34913391  0.25694435  0.03208321  1.0
  H  H20  1  0.75072171  0.41076701  0.00340904  1.0
  H  H21  1  0.20255648  0.41036225  0.99606430  1.0
  C  C22  1  0.50672261  0.48393984  0.60202289  1.0
  C  C23  1  0.28446504  0.49925324  0.50139854  1.0
  C  C24  1  0.52495369  0.49437441  0.40349746  1.0
  C  C25  1  0.75535723  0.50709076  0.50488931  1.0
  C  C26  1  0.49032593  0.50756378  0.98421445  1.0
  C  C27  1  0.24266193  0.49584227  0.08115794  1.0
  C  C28  1  0.47706289  0.51993384  0.18221608  1.0
  C  C29  1  0.71350774  0.50144701  0.08560708  1.0
  C  C30  1  0.43652872  0.20043088  0.53023705  1.0
  C  C31  1  0.43070261  0.09959992  0.53191401  1.0
  C  C32  1  0.34330096  0.04728272  0.56222810  1.0
  C  C33  1  0.60304797  0.19784960  0.47278784  1.0
  C  C34  1  0.60489403  0.09693618  0.47166214  1.0
  C  C35  1  0.69091297  0.04209867  0.44196173  1.0
  C  C36  1  0.59613108  0.79062923  0.47406582  1.0
  C  C37  1  0.60089657  0.89136966  0.47214524  1.0
  C  C38  1  0.68859113  0.94347582  0.44198624  1.0
  C  C39  1  0.43018473  0.79276387  0.53183675  1.0
  C  C40  1  0.42730824  0.89373027  0.53268680  1.0
  C  C41  1  0.34162711  0.94854918  0.56261514  1.0
  C  C42  1  0.51665098  0.04631125  0.50186725  1.0
  C  C43  1  0.51483727  0.94452524  0.50219260  1.0
  C  C44  1  0.49213809  0.51835951  0.23906989  1.0
  C  C45  1  0.57826503  0.45264496  0.25954362  1.0
  C  C46  1  0.42404267  0.57671214  0.27170567  1.0
  C  C47  1  0.66120250  0.40180087  0.22724459  1.0
  C  C48  1  0.74684748  0.34046021  0.24678168  1.0
  C  C49  1  0.51307629  0.50092798  0.34650544  1.0
  C  C50  1  0.43456240  0.56810320  0.32558925  1.0
  C  C51  1  0.58615494  0.44127945  0.31355536  1.0
  C  C52  1  0.66932608  0.37225481  0.33239275  1.0
  C  C53  1  0.74777929  0.32240559  0.30009895  1.0
  C  C54  1  0.50119946  0.57507384  0.68354882  1.0
  C  C55  1  0.49977157  0.57932691  0.73672238  1.0
  C  C56  1  0.49622049  0.66867442  0.76343272  1.0
  C  C57  1  0.50686905  0.39991464  0.68694620  1.0
  C  C58  1  0.50494663  0.40208359  0.74028631  1.0
  C  C59  1  0.50646161  0.31650928  0.77086950  1.0
  C  C60  1  0.49954352  0.41367741  0.90296064  1.0
  C  C61  1  0.50134395  0.40913638  0.84969469  1.0
  C  C62  1  0.50492417  0.31987475  0.82284813  1.0
  C  C63  1  0.49272776  0.58877876  0.89908648  1.0
  C  C64  1  0.49555677  0.58634510  0.84583518  1.0
  C  C65  1  0.49414351  0.67202716  0.81537824  1.0
  C  C66  1  0.50463738  0.48602394  0.65903313  1.0
  C  C67  1  0.50139759  0.49241430  0.76614861  1.0
  C  C68  1  0.49469270  0.50297132  0.92724837  1.0
  C  C69  1  0.49946296  0.49588109  0.82012055  1.0
  C  C70  1  0.89194303  0.50722135  0.50437708  1.0
  C  C71  1  0.95492766  0.54314042  0.54696585  1.0
  C  C72  1  0.95658715  0.47385311  0.46193743  1.0
  C  C73  1  0.89358238  0.58179756  0.59050807  1.0
  C  C74  1  0.95681696  0.61827301  0.63059200  1.0
  C  C75  1  0.14823340  0.50208232  0.50254243  1.0
  C  C76  1  0.08553842  0.46959983  0.46131089  1.0
  C  C77  1  0.08494798  0.54113566  0.54572086  1.0
  C  C78  1  0.14795029  0.57848727  0.58747069  1.0
  C  C79  1  0.08604936  0.61709857  0.62899424  1.0
  C  C80  1  0.40592317  0.80432868  0.04963616  1.0
  C  C81  1  0.40401993  0.90528367  0.04892035  1.0
  C  C82  1  0.32674421  0.96122324  0.01730306  1.0
  C  C83  1  0.55439618  0.79957593  0.11165370  1.0
  C  C84  1  0.55995372  0.90027849  0.11361267  1.0
  C  C85  1  0.63824183  0.95125283  0.14629173  1.0
  C  C86  1  0.55996927  0.20703192  0.11511828  1.0
  C  C87  1  0.56269491  0.10600794  0.11544131  1.0
  C  C88  1  0.63964758  0.04991118  0.14714752  1.0
  C  C89  1  0.40856181  0.21142744  0.05440384  1.0
  C  C90  1  0.40563842  0.11079367  0.05124975  1.0
  C  C91  1  0.32731056  0.05987123  0.01846812  1.0
  C  C92  1  0.48283309  0.95470898  0.08167803  1.0
  C  C93  1  0.48393615  0.05646358  0.08270361  1.0
  C  C94  1  0.84978855  0.49820691  0.08452361  1.0
  C  C95  1  0.91281758  0.45436856  0.04261498  1.0
  C  C96  1  0.91294326  0.53675956  0.12409410  1.0
  C  C97  1  0.84961044  0.41175349  0.00236521  1.0
  C  C98  1  0.91139506  0.36975896  0.96174494  1.0
  C  C99  1  0.10613640  0.49519751  0.08206601  1.0
  C  C100  1  0.04193432  0.53362712  0.12343777  1.0
  C  C101  1  0.04282975  0.45381197  0.04098643  1.0
  C  C102  1  0.10390661  0.41162929  0.99833165  1.0
  C  C103  1  0.04060495  0.37010833  0.95965742  1.0
  N  N104  1  0.52073693  0.24640660  0.50135433  1.0
  N  N105  1  0.51291878  0.74449201  0.50330262  1.0
  N  N106  1  0.47909836  0.75484011  0.08040147  1.0
  N  N107  1  0.48398440  0.25653783  0.08551988  1.0
  Cl  Cl108  1  0.34392284  0.64032597  0.36389603  1.0
  Cl  Cl109  1  0.32451785  0.66072385  0.24815397  1.0
  Cl  Cl110  1  0.85357775  0.28839176  0.20617995  1.0
  Cl  Cl111  1  0.84695704  0.23892238  0.32447138  1.0
  Cl  Cl112  1  0.16365860  0.42559037  0.40867930  1.0
  Cl  Cl113  1  0.88245207  0.44113574  0.40810149  1.0
  Cl  Cl114  1  0.87778019  0.66581452  0.68225019  1.0
  Cl  Cl115  1  0.16660967  0.66416680  0.67820839  1.0
  Cl  Cl116  1  0.11660760  0.57437827  0.17545684  1.0
  Cl  Cl117  1  0.83500474  0.58813434  0.17498924  1.0
  Cl  Cl118  1  0.83092120  0.31720318  0.91409309  1.0
  Cl  Cl119  1  0.11978922  0.31836517  0.90919600  1.0
  O  O120  1  0.52138202  0.40275128  0.58055378  1.0
  O  O121  1  0.49379391  0.56480227  0.57921997  1.0
  O  O122  1  0.33635981  0.57992392  0.49432090  1.0
  O  O123  1  0.33497653  0.41827066  0.50838748  1.0
  O  O124  1  0.54930582  0.57179873  0.42629195  1.0
  O  O125  1  0.51052300  0.41188916  0.42422695  1.0
  O  O126  1  0.70390981  0.42603944  0.50074240  1.0
  O  O127  1  0.70325881  0.58848711  0.51007647  1.0
  O  O128  1  0.47172218  0.58999841  0.00393171  1.0
  O  O129  1  0.50522569  0.42883757  0.00872244  1.0
  O  O130  1  0.29517493  0.41418537  0.07743292  1.0
  O  O131  1  0.29382761  0.57715631  0.08371046  1.0
  O  O132  1  0.44999408  0.43988379  0.16242274  1.0
  O  O133  1  0.49529207  0.59878396  0.15856474  1.0
  O  O134  1  0.66373879  0.58065950  0.07435720  1.0
  O  O135  1  0.66045254  0.42254960  0.09708410  1.0
  F  F136  1  0.25828786  0.90115142  0.59158149  1.0
  F  F137  1  0.26161015  0.09714786  0.59085559  1.0
  F  F138  1  0.77063513  0.89357641  0.41356071  1.0
  F  F139  1  0.77567138  0.08930351  0.41375077  1.0
  F  F140  1  0.49043392  0.75835377  0.83922555  1.0
  F  F141  1  0.49454925  0.75168523  0.73593840  1.0
  F  F142  1  0.50665549  0.23673546  0.85026762  1.0
  F  F143  1  0.50950824  0.23006997  0.74709591  1.0
  F  F144  1  0.25299761  0.11093049  0.98857405  1.0
  F  F145  1  0.25196875  0.91485102  0.98616397  1.0
  F  F146  1  0.71395406  0.09576496  0.17857058  1.0
  F  F147  1  0.71136662  0.90041336  0.17681930  1.0
