# generated using pymatgen
data_ZnH11C16I2NO5
_symmetry_space_group_name_H-M   'P 1'
_cell_length_a   9.70186396
_cell_length_b   10.96698016
_cell_length_c   16.17269484
_cell_angle_alpha   91.16600482
_cell_angle_beta   90.86659889
_cell_angle_gamma   90.46287282
_symmetry_Int_Tables_number   1
_chemical_formula_structural   ZnH11C16I2NO5
_chemical_formula_sum   'Zn2 H22 C32 I4 N2 O10'
_cell_volume   1720.16351891
_cell_formula_units_Z   2
loop_
 _symmetry_equiv_pos_site_id
 _symmetry_equiv_pos_as_xyz
  1  'x, y, z'
loop_
 _atom_site_type_symbol
 _atom_site_label
 _atom_site_symmetry_multiplicity
 _atom_site_fract_x
 _atom_site_fract_y
 _atom_site_fract_z
 _atom_site_occupancy
  Zn  Zn0  1  0.35366507  0.49916371  0.49697985  1.0
  Zn  Zn1  1  0.64549840  0.50323731  0.50180375  1.0
  H  H2  1  0.67081990  0.64740003  0.05417150  1.0
  H  H3  1  0.33029399  0.35227961  0.94400608  1.0
  H  H4  1  0.70141206  0.88023631  0.45564666  1.0
  H  H5  1  0.29543412  0.12303184  0.54171303  1.0
  H  H6  1  0.71144191  0.10978770  0.45613339  1.0
  H  H7  1  0.28563238  0.89324556  0.54160201  1.0
  H  H8  1  0.85516471  0.37374359  0.40755055  1.0
  H  H9  1  0.14420350  0.62352792  0.59435538  1.0
  H  H10  1  0.19010865  0.39264467  0.26950190  1.0
  H  H11  1  0.01927733  0.43951773  0.29315964  1.0
  H  H12  1  0.11578444  0.17368231  0.27979971  1.0
  H  H13  1  0.94578271  0.21971859  0.30215273  1.0
  H  H14  1  0.92766027  0.32137895  0.16285548  1.0
  H  H15  1  0.96541203  0.16438758  0.15099253  1.0
  H  H16  1  0.09799976  0.27534360  0.14031788  1.0
  H  H17  1  0.81350573  0.83103476  0.59866831  1.0
  H  H18  1  0.98256495  0.79797010  0.56333295  1.0
  H  H19  1  0.88817757  0.78774247  0.74366600  1.0
  H  H20  1  0.05679162  0.75486926  0.71030215  1.0
  H  H21  1  0.08215376  0.96998834  0.65789192  1.0
  H  H22  1  0.04330657  0.97154898  0.76465954  1.0
  H  H23  1  0.91242854  0.00355766  0.69066546  1.0
  C  C24  1  0.48870895  0.73772203  0.49928894  1.0
  C  C25  1  0.50834470  0.26546099  0.49859335  1.0
  C  C26  1  0.61892081  0.06135413  0.47496721  1.0
  C  C27  1  0.37824906  0.94179998  0.52304424  1.0
  C  C28  1  0.50388865  0.12907242  0.49907912  1.0
  C  C29  1  0.49331819  0.87406630  0.49906354  1.0
  C  C30  1  0.92109995  0.43155603  0.44716658  1.0
  C  C31  1  0.07820739  0.57172169  0.55110247  1.0
  C  C32  1  0.06515445  0.43048423  0.44220677  1.0
  C  C33  1  0.93406624  0.57844155  0.55244548  1.0
  C  C34  1  0.48775898  0.50168391  0.66116321  1.0
  C  C35  1  0.51428873  0.50039147  0.33693586  1.0
  C  C36  1  0.37341071  0.53020677  0.02568452  1.0
  C  C37  1  0.62786951  0.46943068  0.97257730  1.0
  C  C38  1  0.46981904  0.61283039  0.97244330  1.0
  C  C39  1  0.53127247  0.38686507  0.02576023  1.0
  C  C40  1  0.49254607  0.50010146  0.75079819  1.0
  C  C41  1  0.50900995  0.50012921  0.24732195  1.0
  C  C42  1  0.40592662  0.41793457  0.96890034  1.0
  C  C43  1  0.59517387  0.58172432  0.02929494  1.0
  C  C44  1  0.50085774  0.49888956  0.91315107  1.0
  C  C45  1  0.50030221  0.50077606  0.08499455  1.0
  C  C46  1  0.49754074  0.49866239  0.82601537  1.0
  C  C47  1  0.50345686  0.50097032  0.17208754  1.0
  C  C48  1  0.61360768  0.93459937  0.47495185  1.0
  C  C49  1  0.38354126  0.06856593  0.52314549  1.0
  C  C50  1  0.09503390  0.36616477  0.30101866  1.0
  C  C51  1  0.03897663  0.24486049  0.26812068  1.0
  C  C52  1  0.00577372  0.25181964  0.17552347  1.0
  C  C53  1  0.90728572  0.77861896  0.61183195  1.0
  C  C54  1  0.96538714  0.81056016  0.69719771  1.0
  C  C55  1  0.00279858  0.94635792  0.70289665  1.0
  I  I56  1  0.42530291  0.78907495  0.93122865  1.0
  I  I57  1  0.57539876  0.21068808  0.06730494  1.0
  I  I58  1  0.17497590  0.57478993  0.06630398  1.0
  I  I59  1  0.82679655  0.42500751  0.93300162  1.0
  N  N60  1  0.14085527  0.49907349  0.49613335  1.0
  N  N61  1  0.85837138  0.50515627  0.50144093  1.0
  O  O62  1  0.37075313  0.68614105  0.50047564  1.0
  O  O63  1  0.62520471  0.31698628  0.48958006  1.0
  O  O64  1  0.60459815  0.68381537  0.49834853  1.0
  O  O65  1  0.39372698  0.31976990  0.50727003  1.0
  O  O66  1  0.36968398  0.51361813  0.62736430  1.0
  O  O67  1  0.63317688  0.50125135  0.37080647  1.0
  O  O68  1  0.60326862  0.49076279  0.62572084  1.0
  O  O69  1  0.39785959  0.49983105  0.37215408  1.0
  O  O70  1  0.13513284  0.36123674  0.38847694  1.0
  O  O71  1  0.86327414  0.65139101  0.60344798  1.0
