# generated using pymatgen
data_Al2H8C16S2NClO10
_symmetry_space_group_name_H-M   'P 1'
_cell_length_a   6.71621822
_cell_length_b   11.12541333
_cell_length_c   12.31266846
_cell_angle_alpha   113.80839140
_cell_angle_beta   93.92448642
_cell_angle_gamma   107.16695297
_symmetry_Int_Tables_number   1
_chemical_formula_structural   Al2H8C16S2NClO10
_chemical_formula_sum   'Al2 H8 C16 S2 N1 Cl1 O10'
_cell_volume   785.48253645
_cell_formula_units_Z   1
loop_
 _symmetry_equiv_pos_site_id
 _symmetry_equiv_pos_as_xyz
  1  'x, y, z'
loop_
 _atom_site_type_symbol
 _atom_site_label
 _atom_site_symmetry_multiplicity
 _atom_site_fract_x
 _atom_site_fract_y
 _atom_site_fract_z
 _atom_site_occupancy
  Al  Al0  1  0.50222435  0.00135548  0.50280749  1.0
  Al  Al1  1  0.00461671  0.00221654  0.49994486  1.0
  H  H2  1  0.22166019  0.92345810  0.59992630  1.0
  H  H3  1  0.76634616  0.06076685  0.38829251  1.0
  H  H4  1  0.17050142  0.41831874  0.56294274  1.0
  H  H5  1  0.70780116  0.33787609  0.41798055  1.0
  H  H6  1  0.30320629  0.65715672  0.57004139  1.0
  H  H7  1  0.63159905  0.34375942  0.82385647  1.0
  H  H8  1  0.51563291  0.60649750  0.15079758  1.0
  H  H9  1  0.49411883  0.75743655  0.26210700  1.0
  C  C10  1  0.86293120  0.17182822  0.71047596  1.0
  C  C11  1  0.64668822  0.77878581  0.50984387  1.0
  C  C12  1  0.14540375  0.83265921  0.28942254  1.0
  C  C13  1  0.36230739  0.22292157  0.48964972  1.0
  C  C14  1  0.57836825  0.63299095  0.49907236  1.0
  C  C15  1  0.43332919  0.36446804  0.49170726  1.0
  C  C16  1  0.68969409  0.53985486  0.45307783  1.0
  C  C17  1  0.31654494  0.45345241  0.53325279  1.0
  C  C18  1  0.61910573  0.40809272  0.45188401  1.0
  C  C19  1  0.39083590  0.58602692  0.53748861  1.0
  C  C20  1  0.22326630  0.62940115  0.13298551  1.0
  C  C21  1  0.79513255  0.37619491  0.87099440  1.0
  C  C22  1  0.08968701  0.70767602  0.17572848  1.0
  C  C23  1  0.92502406  0.29962959  0.82637043  1.0
  C  C24  1  0.90380101  0.49659539  0.98107727  1.0
  C  C25  1  0.11317260  0.50884480  0.02020670  1.0
  S  S26  1  0.83892409  0.63452798  0.07863956  1.0
  S  S27  1  0.17926488  0.37355851  0.91848976  1.0
  N  N28  1  0.42177514  0.65970790  0.19219069  1.0
  Cl  Cl29  1  0.90863516  0.57662836  0.38993278  1.0
  O  O30  1  0.66321604  0.11515337  0.66380216  1.0
  O  O31  1  0.84358699  0.84115493  0.51933354  1.0
  O  O32  1  0.00084010  0.87957612  0.33294914  1.0
  O  O33  1  0.50495766  0.16941914  0.49190745  1.0
  O  O34  1  0.34555187  0.88959610  0.34078760  1.0
  O  O35  1  0.16540124  0.16720657  0.48607314  1.0
  O  O36  1  0.00899615  0.12941780  0.66589326  1.0
  O  O37  1  0.50108607  0.83091591  0.51055945  1.0
  O  O38  1  0.25053183  0.98421921  0.56005252  1.0
  O  O39  1  0.75239212  0.01556346  0.44155618  1.0
