# generated using pymatgen
data_Zr3H12C26S5N2O21
_symmetry_space_group_name_H-M   'P 1'
_cell_length_a   16.45027495
_cell_length_b   16.48320336
_cell_length_c   16.48201377
_cell_angle_alpha   88.47653069
_cell_angle_beta   60.22755063
_cell_angle_gamma   60.23565292
_symmetry_Int_Tables_number   1
_chemical_formula_structural   Zr3H12C26S5N2O21
_chemical_formula_sum   'Zr6 H24 C52 S10 N4 O42'
_cell_volume   3220.84621625
_cell_formula_units_Z   2
loop_
 _symmetry_equiv_pos_site_id
 _symmetry_equiv_pos_as_xyz
  1  'x, y, z'
loop_
 _atom_site_type_symbol
 _atom_site_label
 _atom_site_symmetry_multiplicity
 _atom_site_fract_x
 _atom_site_fract_y
 _atom_site_fract_z
 _atom_site_occupancy
  Zr  Zr0  1  0.50992088  0.09886746  0.59992850  1.0
  Zr  Zr1  1  0.49547293  0.89455872  0.39570222  1.0
  Zr  Zr2  1  0.29232684  0.10203100  0.60353201  1.0
  Zr  Zr3  1  0.71301557  0.89113766  0.39251470  1.0
  Zr  Zr4  1  0.50259610  0.10608428  0.38850508  1.0
  Zr  Zr5  1  0.50267896  0.88724390  0.60732697  1.0
  H  H6  1  0.34226926  0.24558220  0.57684472  1.0
  H  H7  1  0.66301427  0.91783291  0.24893121  1.0
  H  H8  1  0.33050394  0.91392590  0.58631562  1.0
  H  H9  1  0.67487388  0.90832699  0.58060817  1.0
  H  H10  1  0.30375395  0.35106364  0.82947509  1.0
  H  H11  1  0.70199652  0.66447460  0.14356595  1.0
  H  H12  1  0.51848410  0.54311202  0.67324325  1.0
  H  H13  1  0.51284246  0.43781414  0.30957673  1.0
  H  H14  1  0.49017685  0.18612696  0.05774273  1.0
  H  H15  1  0.48606652  0.82182131  0.95164872  1.0
  H  H16  1  0.89200299  0.18627800  0.93785336  1.0
  H  H17  1  0.11361932  0.82340118  0.07446567  1.0
  H  H18  1  0.89124908  0.42118600  0.67242063  1.0
  H  H19  1  0.11336934  0.55708024  0.30910545  1.0
  H  H20  1  0.24148371  0.82869350  0.31671860  1.0
  H  H21  1  0.76387358  0.17810292  0.66586816  1.0
  H  H22  1  0.84417988  0.50309968  0.92231692  1.0
  H  H23  1  0.72300588  0.57311232  0.02957018  1.0
  H  H24  1  0.05950389  0.27968731  0.83764677  1.0
  H  H25  1  0.92368163  0.36906209  0.94009944  1.0
  H  H26  1  0.16235572  0.57221869  0.99061660  1.0
  H  H27  1  0.28335617  0.46485274  0.92018792  1.0
  H  H28  1  0.94609689  0.65907243  0.21319677  1.0
  H  H29  1  0.08168733  0.55625338  0.12480470  1.0
  C  C30  1  0.51767685  0.26195630  0.48435488  1.0
  C  C31  1  0.48728588  0.01034707  0.23273243  1.0
  C  C32  1  0.50242833  0.72422286  0.50394921  1.0
  C  C33  1  0.50254744  0.99090803  0.77042461  1.0
  C  C34  1  0.24847781  0.25684562  0.76616385  1.0
  C  C35  1  0.77583618  0.00020804  0.49226073  1.0
  C  C36  1  0.75708034  0.72857370  0.23751337  1.0
  C  C37  1  0.22943214  0.00238081  0.49449086  1.0
  C  C38  1  0.23026018  0.26558530  0.49451971  1.0
  C  C39  1  0.23042121  0.00076738  0.77492073  1.0
  C  C40  1  0.77486668  0.71989066  0.49408249  1.0
  C  C41  1  0.77480403  0.00058909  0.22924566  1.0
  C  C42  1  0.51326834  0.57409326  0.56295827  1.0
  C  C43  1  0.51601283  0.40783882  0.42094110  1.0
  C  C44  1  0.50829094  0.63281735  0.50085284  1.0
  C  C45  1  0.51928557  0.34985673  0.48383839  1.0
  C  C46  1  0.51422050  0.48947594  0.44980558  1.0
  C  C47  1  0.51653675  0.49178247  0.53342935  1.0
  C  C48  1  0.48789264  0.07435398  0.08734926  1.0
  C  C49  1  0.49125539  0.93212907  0.92071657  1.0
  C  C50  1  0.48521158  0.01113591  0.14504088  1.0
  C  C51  1  0.49616067  0.99430382  0.86205898  1.0
  C  C52  1  0.48766477  0.96177229  0.00318748  1.0
  C  C53  1  0.48951315  0.04561439  0.00576976  1.0
  C  C54  1  0.02416855  0.07221149  0.91777605  1.0
  C  C55  1  0.98142118  0.93612232  0.09325014  1.0
  C  C56  1  0.14071961  0.00493821  0.86615342  1.0
  C  C57  1  0.86477368  0.00192470  0.14338701  1.0
  C  C58  1  0.03933160  0.96234778  0.01133158  1.0
  C  C59  1  0.96617828  0.04731023  0.00095463  1.0
  C  C60  1  0.02354580  0.40221292  0.55963201  1.0
  C  C61  1  0.98107923  0.57735655  0.42319762  1.0
  C  C62  1  0.14021341  0.35185422  0.49366263  1.0
  C  C63  1  0.86450971  0.62897191  0.49034035  1.0
  C  C64  1  0.03893249  0.49436545  0.44833139  1.0
  C  C65  1  0.96569277  0.48414864  0.53339938  1.0
  C  C66  1  0.05043983  0.38686783  0.90785766  1.0
  C  C67  1  0.21306249  0.38461808  0.87695692  1.0
  C  C68  1  0.14755788  0.46366998  0.95713101  1.0
  C  C69  1  0.02751705  0.50946749  0.01713212  1.0
  C  C70  1  0.95539562  0.58773517  0.10675279  1.0
  C  C71  1  0.79270967  0.61731298  0.10994456  1.0
  C  C72  1  0.85842216  0.53690312  0.03109600  1.0
  C  C73  1  0.97841014  0.47704880  0.98542026  1.0
  C  C74  1  0.16835127  0.34301562  0.85212616  1.0
  C  C75  1  0.83739230  0.64276013  0.15114551  1.0
  C  C76  1  0.15412993  0.94018535  0.42482994  1.0
  C  C77  1  0.85109900  0.06986867  0.55453151  1.0
  C  C78  1  0.14219440  0.00416441  0.48992050  1.0
  C  C79  1  0.86302557  0.00479129  0.49054374  1.0
  C  C80  1  0.95757319  0.04665181  0.52977968  1.0
  C  C81  1  0.04767506  0.96493220  0.44799086  1.0
  S  S82  1  0.50829094  0.58723183  0.40632153  1.0
  S  S83  1  0.52114295  0.39455264  0.57753640  1.0
  S  S84  1  0.48357058  0.91735719  0.10015909  1.0
  S  S85  1  0.49558363  0.08907739  0.90796533  1.0
  S  S86  1  0.17914976  0.91215795  0.92011720  1.0
  S  S87  1  0.82627737  0.09618782  0.09098157  1.0
  S  S88  1  0.17879915  0.40419888  0.39936623  1.0
  S  S89  1  0.82588895  0.57529324  0.58337196  1.0
  S  S90  1  0.00142095  0.09466777  0.57863431  1.0
  S  S91  1  0.00379723  0.91606682  0.40001740  1.0
  N  N92  1  0.80495083  0.51602914  0.99619057  1.0
  N  N93  1  0.00508387  0.34513989  0.89001294  1.0
  N  N94  1  0.20148586  0.49835213  0.97749653  1.0
  N  N95  1  0.00091115  0.60705199  0.14743486  1.0
  O  O96  1  0.51915188  0.22558473  0.55366396  1.0
  O  O97  1  0.48620941  0.94083521  0.26891116  1.0
  O  O98  1  0.49750290  0.76223486  0.43636927  1.0
  O  O99  1  0.50760522  0.05840169  0.73233876  1.0
  O  O100  1  0.21166199  0.22196615  0.73382847  1.0
  O  O101  1  0.80879290  0.93138923  0.42602811  1.0
  O  O102  1  0.79376614  0.76107427  0.27241709  1.0
  O  O103  1  0.19651950  0.06861721  0.56327380  1.0
  O  O104  1  0.33185093  0.23403582  0.42519256  1.0
  O  O105  1  0.33190004  0.93001416  0.74175674  1.0
  O  O106  1  0.67333545  0.75297569  0.56472650  1.0
  O  O107  1  0.67316382  0.06961132  0.26058208  1.0
  O  O108  1  0.19917886  0.06758891  0.73526977  1.0
  O  O109  1  0.80613019  0.75935128  0.42706719  1.0
  O  O110  1  0.80565108  0.92966379  0.26475293  1.0
  O  O111  1  0.19948269  0.22993120  0.56535697  1.0
  O  O112  1  0.35386126  0.22133701  0.72515995  1.0
  O  O113  1  0.33131126  0.93345488  0.42998145  1.0
  O  O114  1  0.65169350  0.76923416  0.27324325  1.0
  O  O115  1  0.67395598  0.06473687  0.56114886  1.0
  O  O116  1  0.50379042  0.92155015  0.73561006  1.0
  O  O117  1  0.51279992  0.22995761  0.41812473  1.0
  O  O118  1  0.49217559  0.07656503  0.26474171  1.0
  O  O119  1  0.50147308  0.75895253  0.57314117  1.0
  O  O120  1  0.62587349  0.93286283  0.55718315  1.0
  O  O121  1  0.37950552  0.93735206  0.56174770  1.0
  O  O122  1  0.61695005  0.94154177  0.31967667  1.0
  O  O123  1  0.38834366  0.17485675  0.55305811  1.0
  O  O124  1  0.41223897  0.04366409  0.45409356  1.0
  O  O125  1  0.59317576  0.04052270  0.45077946  1.0
  O  O126  1  0.58643324  0.86553251  0.45786876  1.0
  O  O127  1  0.41898086  0.03666317  0.62901456  1.0
  O  O128  1  0.51417855  0.59457826  0.64169125  1.0
  O  O129  1  0.51408893  0.38783443  0.34278109  1.0
  O  O130  1  0.48940248  0.15272250  0.10752457  1.0
  O  O131  1  0.49070360  0.85322690  0.90004590  1.0
  O  O132  1  0.97327616  0.15120548  0.89082317  1.0
  O  O133  1  0.03226896  0.85666686  0.11961564  1.0
  O  O134  1  0.97258334  0.37601911  0.63920684  1.0
  O  O135  1  0.03210462  0.60405275  0.34401580  1.0
  O  O136  1  0.25527810  0.86364676  0.34977556  1.0
  O  O137  1  0.74999277  0.14506455  0.63099711  1.0
