# generated using pymatgen
data_Al2H5C13NO10
_symmetry_space_group_name_H-M   'P 1'
_cell_length_a   6.70827833
_cell_length_b   14.67289589
_cell_length_c   16.82418997
_cell_angle_alpha   86.28004490
_cell_angle_beta   89.99948950
_cell_angle_gamma   89.99959310
_symmetry_Int_Tables_number   1
_chemical_formula_structural   Al2H5C13NO10
_chemical_formula_sum   'Al4 H10 C26 N2 O20'
_cell_volume   1652.51376205
_cell_formula_units_Z   2
loop_
 _symmetry_equiv_pos_site_id
 _symmetry_equiv_pos_as_xyz
  1  'x, y, z'
loop_
 _atom_site_type_symbol
 _atom_site_label
 _atom_site_symmetry_multiplicity
 _atom_site_fract_x
 _atom_site_fract_y
 _atom_site_fract_z
 _atom_site_occupancy
  Al  Al0  1  0.09836319  0.50213767  0.49994757  1.0
  Al  Al1  1  0.59836633  0.49786165  0.50005074  1.0
  Al  Al2  1  0.63703587  0.99968365  0.99958683  1.0
  Al  Al3  1  0.13703093  0.00031198  0.00041373  1.0
  H  H4  1  0.58118813  0.18277751  0.80822165  1.0
  H  H5  1  0.08120620  0.81722506  0.19177970  1.0
  H  H6  1  0.03885831  0.19348628  0.79206679  1.0
  H  H7  1  0.53886750  0.80652382  0.20793588  1.0
  H  H8  1  0.01134007  0.31316272  0.70656528  1.0
  H  H9  1  0.51135970  0.68683375  0.29342916  1.0
  H  H10  1  0.34206108  0.38735067  0.53834558  1.0
  H  H11  1  0.84206175  0.61265394  0.46165367  1.0
  H  H12  1  0.38829695  0.11497470  0.01972717  1.0
  H  H13  1  0.88829968  0.88502496  0.98027254  1.0
  C  C14  1  0.35119210  0.60833901  0.60261881  1.0
  C  C15  1  0.85119473  0.39166161  0.39737864  1.0
  C  C16  1  0.35118703  0.60937013  0.38706693  1.0
  C  C17  1  0.85115806  0.39062799  0.61292754  1.0
  C  C18  1  0.72141794  0.20767814  0.78193121  1.0
  C  C19  1  0.22142241  0.79232312  0.21807263  1.0
  C  C20  1  0.89151960  0.17501142  0.81525344  1.0
  C  C21  1  0.39153621  0.82499820  0.18474981  1.0
  C  C22  1  0.70676912  0.27375894  0.71298448  1.0
  C  C23  1  0.20678801  0.72623879  0.28701227  1.0
  C  C24  1  0.86244091  0.32334997  0.68183361  1.0
  C  C25  1  0.36245095  0.67664743  0.31816082  1.0
  C  C26  1  0.88203112  0.16925915  0.16607435  1.0
  C  C27  1  0.38202578  0.83073426  0.83392716  1.0
  C  C28  1  0.87301737  0.22194327  0.21940417  1.0
  C  C29  1  0.37300958  0.77804898  0.78059500  1.0
  C  C30  1  0.86406164  0.27974664  0.27856673  1.0
  C  C31  1  0.36404267  0.72025173  0.72143306  1.0
  C  C32  1  0.85562180  0.33176367  0.33241083  1.0
  C  C33  1  0.35560634  0.66823757  0.66759673  1.0
  C  C34  1  0.38789026  0.88916436  0.11298140  1.0
  C  C35  1  0.88788351  0.11084186  0.88702187  1.0
  C  C36  1  0.38552624  0.89293218  0.89667334  1.0
  C  C37  1  0.88551010  0.10706195  0.10332757  1.0
  C  C38  1  0.50932680  0.28172022  0.68069495  1.0
  C  C39  1  0.00934958  0.71827859  0.31930486  1.0
  N  N40  1  0.34288643  0.27885593  0.66057748  1.0
  N  N41  1  0.84290449  0.72114028  0.33942477  1.0
  O  O42  1  0.51822089  0.57971085  0.41341923  1.0
  O  O43  1  0.01821862  0.42028249  0.58657103  1.0
  O  O44  1  0.17959859  0.58790567  0.57694503  1.0
  O  O45  1  0.67962120  0.41208774  0.42305599  1.0
  O  O46  1  0.18039793  0.58639777  0.41470618  1.0
  O  O47  1  0.68038859  0.41360706  0.58529720  1.0
  O  O48  1  0.02054894  0.41638624  0.42229971  1.0
  O  O49  1  0.52053558  0.58362324  0.57769349  1.0
  O  O50  1  0.34682524  0.44473325  0.50596474  1.0
  O  O51  1  0.84682909  0.55526693  0.49402974  1.0
  O  O52  1  0.21641232  0.91761999  0.92207753  1.0
  O  O53  1  0.71639864  0.08237719  0.07792633  1.0
  O  O54  1  0.55813824  0.91288665  0.08476640  1.0
  O  O55  1  0.05813397  0.08711594  0.91523561  1.0
  O  O56  1  0.55600320  0.91692802  0.92126611  1.0
  O  O57  1  0.05599221  0.08306673  0.07874069  1.0
  O  O58  1  0.71845691  0.08609403  0.91515963  1.0
  O  O59  1  0.21846091  0.91391201  0.08484422  1.0
  O  O60  1  0.38730718  0.05513671  0.99843096  1.0
  O  O61  1  0.88730832  0.94486304  0.00156755  1.0
