# generated using pymatgen
data_AlH24C45(BrO2)3
_symmetry_space_group_name_H-M   'P 1'
_cell_length_a   3.98208086
_cell_length_b   23.54882650
_cell_length_c   23.59415310
_cell_angle_alpha   119.92620616
_cell_angle_beta   90.11054211
_cell_angle_gamma   92.18720511
_symmetry_Int_Tables_number   1
_chemical_formula_structural   AlH24C45(BrO2)3
_chemical_formula_sum   'Al1 H24 C45 Br3 O6'
_cell_volume   1915.54771219
_cell_formula_units_Z   1
loop_
 _symmetry_equiv_pos_site_id
 _symmetry_equiv_pos_as_xyz
  1  'x, y, z'
loop_
 _atom_site_type_symbol
 _atom_site_label
 _atom_site_symmetry_multiplicity
 _atom_site_fract_x
 _atom_site_fract_y
 _atom_site_fract_z
 _atom_site_occupancy
  Al  Al0  1  0.99779431  0.99960443  0.50006612  1.0
  H  H1  1  0.50547672  0.99854576  0.32197708  1.0
  H  H2  1  0.51014418  0.05401609  0.25706809  1.0
  H  H3  1  0.18495777  0.17939622  0.16179748  1.0
  H  H4  1  0.54717944  0.00111089  0.68642910  1.0
  H  H5  1  0.49102541  0.06485414  0.80603057  1.0
  H  H6  1  0.74482051  0.12506835  0.89292827  1.0
  H  H7  1  0.75142856  0.17929258  0.01188880  1.0
  H  H8  1  0.49229357  0.21144549  0.10587676  1.0
  H  H9  1  0.48002563  0.17760092  0.67629067  1.0
  H  H10  1  0.49062624  0.24286196  0.79623165  1.0
  H  H11  1  0.20080082  0.33564295  0.01722125  1.0
  H  H12  1  0.46807212  0.81397204  0.31530888  1.0
  H  H13  1  0.41002020  0.69308506  0.25891310  1.0
  H  H14  1  0.70867452  0.61144658  0.23407094  1.0
  H  H15  1  0.73175107  0.49214206  0.16922474  1.0
  H  H16  1  0.46538020  0.39377024  0.10568807  1.0
  H  H17  1  0.45285314  0.82163595  0.50124259  1.0
  H  H18  1  0.45622965  0.70116199  0.44534562  1.0
  H  H19  1  0.15131711  0.47569739  0.31458376  1.0
  H  H20  1  0.51627804  0.18554307  0.49931578  1.0
  H  H21  1  0.46583990  0.24074874  0.43428268  1.0
  H  H22  1  0.76474671  0.26901500  0.37608551  1.0
  H  H23  1  0.77354163  0.33391755  0.32111197  1.0
  H  H24  1  0.46448466  0.39342057  0.28765492  1.0
  C  C25  1  0.50907877  0.05234346  0.45192781  1.0
  C  C26  1  0.47528009  0.89873210  0.44779485  1.0
  C  C27  1  0.51009744  0.04788049  0.60061230  1.0
  C  C28  1  0.50198426  0.05185485  0.34643351  1.0
  C  C29  1  0.49778444  0.08323730  0.30987514  1.0
  C  C30  1  0.31773835  0.16260666  0.23988982  1.0
  C  C31  1  0.31931357  0.19937167  0.20853455  1.0
  C  C32  1  0.52653123  0.05414195  0.71075218  1.0
  C  C33  1  0.50031033  0.09068591  0.77843944  1.0
  C  C34  1  0.61554568  0.17072060  0.91993911  1.0
  C  C35  1  0.62029207  0.20152533  0.98772701  1.0
  C  C36  1  0.51011699  0.08825202  0.41478829  1.0
  C  C37  1  0.48078798  0.15174746  0.34004864  1.0
  C  C38  1  0.47048299  0.18646235  0.30224814  1.0
  C  C39  1  0.47876955  0.26180351  0.23661405  1.0
  C  C40  1  0.47970745  0.29838647  0.20085763  1.0
  C  C41  1  0.48462383  0.26476153  0.13228657  1.0
  C  C42  1  0.48917739  0.15326798  0.70522962  1.0
  C  C43  1  0.48718852  0.18986180  0.77301315  1.0
  C  C44  1  0.32705018  0.25871575  0.92268603  1.0
  C  C45  1  0.32730608  0.28970544  0.99063763  1.0
  C  C46  1  0.45769099  0.78892929  0.34366653  1.0
  C  C47  1  0.42992004  0.72076144  0.31219131  1.0
  C  C48  1  0.57658554  0.58162516  0.25116892  1.0
  C  C49  1  0.59001068  0.51390309  0.21423064  1.0
  C  C50  1  0.51178531  0.08514049  0.67338736  1.0
  C  C51  1  0.48205292  0.15957881  0.81152197  1.0
  C  C52  1  0.46913805  0.19717700  0.88391544  1.0
  C  C53  1  0.47551220  0.26250187  0.02495224  1.0
  C  C54  1  0.47812171  0.29826196  0.09719289  1.0
  C  C55  1  0.46892567  0.36690519  0.13219861  1.0
  C  C56  1  0.44894359  0.79310049  0.44797841  1.0
  C  C57  1  0.44346155  0.72504117  0.41624973  1.0
  C  C58  1  0.27051115  0.57301570  0.33347201  1.0
  C  C59  1  0.27969571  0.50502541  0.29659729  1.0
  C  C60  1  0.50916110  0.15673479  0.44602397  1.0
  C  C61  1  0.48529745  0.18762877  0.40900120  1.0
  C  C62  1  0.62908448  0.24968622  0.32948700  1.0
  C  C63  1  0.63471618  0.28659719  0.29840998  1.0
  C  C64  1  0.46057820  0.82567927  0.41205813  1.0
  C  C65  1  0.42573128  0.68706477  0.34760069  1.0
  C  C66  1  0.41773386  0.61444319  0.31219614  1.0
  C  C67  1  0.44255249  0.47388005  0.23672033  1.0
  C  C68  1  0.46135374  0.40179946  0.20059424  1.0
  C  C69  1  0.46901901  0.36685585  0.23435707  1.0
  Br  Br70  1  0.04027215  0.60341544  0.41413671  1.0
  Br  Br71  1  0.08384483  0.07888672  0.19079506  1.0
  Br  Br72  1  0.11233973  0.30806948  0.88941130  1.0
  O  O73  1  0.73617033  0.00654521  0.57178278  1.0
  O  O74  1  0.74824057  0.06459037  0.49303043  1.0
  O  O75  1  0.71564590  0.92817512  0.43559384  1.0
  O  O76  1  0.27960697  0.06110240  0.57183521  1.0
  O  O77  1  0.24683748  0.92692289  0.48931238  1.0
  O  O78  1  0.26614846  0.01031856  0.43862077  1.0
