# generated using pymatgen
data_Zn4H4C24S6O19F4
_symmetry_space_group_name_H-M   'P 1'
_cell_length_a   19.60862711
_cell_length_b   19.68490064
_cell_length_c   33.23365321
_cell_angle_alpha   79.29273994
_cell_angle_beta   79.53027080
_cell_angle_gamma   64.08867472
_symmetry_Int_Tables_number   1
_chemical_formula_structural   Zn4H4C24S6O19F4
_chemical_formula_sum   'Zn16 H16 C96 S24 O76 F16'
_cell_volume   11263.93443285
_cell_formula_units_Z   4
loop_
 _symmetry_equiv_pos_site_id
 _symmetry_equiv_pos_as_xyz
  1  'x, y, z'
loop_
 _atom_site_type_symbol
 _atom_site_label
 _atom_site_symmetry_multiplicity
 _atom_site_fract_x
 _atom_site_fract_y
 _atom_site_fract_z
 _atom_site_occupancy
  Zn  Zn0  1  0.05561924  0.39816547  0.47983008  1.0
  Zn  Zn1  1  0.98633929  0.47977220  0.56118555  1.0
  Zn  Zn2  1  0.05699270  0.56181580  0.48205990  1.0
  Zn  Zn3  1  0.90295893  0.55691104  0.47837947  1.0
  Zn  Zn4  1  0.69167332  0.34895870  0.27301000  1.0
  Zn  Zn5  1  0.68642578  0.19150481  0.26732968  1.0
  Zn  Zn6  1  0.77067655  0.26536671  0.19058192  1.0
  Zn  Zn7  1  0.84871187  0.19500418  0.27029109  1.0
  Zn  Zn8  1  0.26952752  0.76443766  0.68886332  1.0
  Zn  Zn9  1  0.35238682  0.69565321  0.76993635  1.0
  Zn  Zn10  1  0.19155877  0.84655321  0.77173300  1.0
  Zn  Zn11  1  0.18900994  0.69221407  0.76806690  1.0
  Zn  Zn12  1  0.55713549  0.06470466  0.98268602  1.0
  Zn  Zn13  1  0.40073084  0.05743928  0.97634546  1.0
  Zn  Zn14  1  0.55602127  0.90133205  0.98038178  1.0
  Zn  Zn15  1  0.48331573  0.98052424  0.05937584  1.0
  H  H16  1  0.74899076  0.45055687  0.34922983  1.0
  H  H17  1  0.00107089  0.30068697  0.40019355  1.0
  H  H18  1  0.20042926  0.70060591  0.60056825  1.0
  H  H19  1  0.04933282  0.54931902  0.64987232  1.0
  H  H20  1  0.64972972  0.14884625  0.04932294  1.0
  H  H21  1  0.60124414  0.09957763  0.20083668  1.0
  H  H22  1  0.30032380  0.99979915  0.90063146  1.0
  H  H23  1  0.44972118  0.74930903  0.84953023  1.0
  H  H24  1  0.84384482  0.57297221  0.39937547  1.0
  H  H25  1  0.96493993  0.23608835  0.29159172  1.0
  H  H26  1  0.06930367  0.68664180  0.51399264  1.0
  H  H27  1  0.06285420  0.68013024  0.73645679  1.0
  H  H28  1  0.79448754  0.17776112  0.12185076  1.0
  H  H29  1  0.57166148  0.95569366  0.12857675  1.0
  H  H30  1  0.17777475  0.90534207  0.85012305  1.0
  H  H31  1  0.51443302  0.78568919  0.95825472  1.0
  C  C32  1  0.06231086  0.31358361  0.56281639  1.0
  C  C33  1  0.06440212  0.57344133  0.56896571  1.0
  C  C34  1  0.18134413  0.43985865  0.43971381  1.0
  C  C35  1  0.93709357  0.68632475  0.43782613  1.0
  C  C36  1  0.93418819  0.43357091  0.42848707  1.0
  C  C37  1  0.81947082  0.55980331  0.56060271  1.0
  C  C38  1  0.56356283  0.31173681  0.31227647  1.0
  C  C39  1  0.68639571  0.17591518  0.18112804  1.0
  C  C40  1  0.69031509  0.43067144  0.18890978  1.0
  C  C41  1  0.93727119  0.18746884  0.18868593  1.0
  C  C42  1  0.82061475  0.32243908  0.31620659  1.0
  C  C43  1  0.81049462  0.06869380  0.31044137  1.0
  C  C44  1  0.43621016  0.68905778  0.68693590  1.0
  C  C45  1  0.31637017  0.81671425  0.82104505  1.0
  C  C46  1  0.18853812  0.93068749  0.68946364  1.0
  C  C47  1  0.06346801  0.81029783  0.81253614  1.0
  C  C48  1  0.17637601  0.68549812  0.68139807  1.0
  C  C49  1  0.31250080  0.56896265  0.81013598  1.0
  C  C50  1  0.43580393  0.18703515  0.93783764  1.0
  C  C51  1  0.42933874  0.92819454  0.93341287  1.0
  C  C52  1  0.68065406  0.94170658  0.93940511  1.0
  C  C53  1  0.56238233  0.81418164  0.06247204  1.0
  C  C54  1  0.57295822  0.06421836  0.06901868  1.0
  C  C55  1  0.31806042  0.06060942  0.05992424  1.0
  C  C56  1  0.90058900  0.40646979  0.40105349  1.0
  C  C57  1  0.85127665  0.34660534  0.34656223  1.0
  C  C58  1  0.82814284  0.44789683  0.38692262  1.0
  C  C59  1  0.92236053  0.30379785  0.36206177  1.0
  C  C60  1  0.80492490  0.41787338  0.35999459  1.0
  C  C61  1  0.94596166  0.33421950  0.38859628  1.0
  C  C62  1  0.09742266  0.60100683  0.59644211  1.0
  C  C63  1  0.14891639  0.65232831  0.65399680  1.0
  C  C64  1  0.14183662  0.64292959  0.58281084  1.0
  C  C65  1  0.10700494  0.60791793  0.66764083  1.0
  C  C66  1  0.16641479  0.66808606  0.61147589  1.0
  C  C67  1  0.08179899  0.58338972  0.63896582  1.0
  C  C68  1  0.30194947  0.45406641  0.40172941  1.0
  C  C69  1  0.44324836  0.29771042  0.35066309  1.0
  C  C70  1  0.25587508  0.41519220  0.41497815  1.0
  C  C71  1  0.48918842  0.33664143  0.33717912  1.0
  C  C72  1  0.37473267  0.34006025  0.37412012  1.0
  C  C73  1  0.37036003  0.41174044  0.37814411  1.0
  C  C74  1  0.72793826  0.57650855  0.62766762  1.0
  C  C75  1  0.52753239  0.67158418  0.61957294  1.0
  C  C76  1  0.74471988  0.58429321  0.58507067  1.0
  C  C77  1  0.51073991  0.66362012  0.66216756  1.0
  C  C78  1  0.60660876  0.63956737  0.60659942  1.0
  C  C79  1  0.64890799  0.60773781  0.64056244  1.0
  C  C80  1  0.07884301  0.22207716  0.63018472  1.0
  C  C81  1  0.17299852  0.02239328  0.62234184  1.0
  C  C82  1  0.08732167  0.23908828  0.58760624  1.0
  C  C83  1  0.16463116  0.00535539  0.66493000  1.0
  C  C84  1  0.14236348  0.10126381  0.60935729  1.0
  C  C85  1  0.11035359  0.14316724  0.64323210  1.0
  C  C86  1  0.84453049  0.80293285  0.39566807  1.0
  C  C87  1  0.90350699  0.95204815  0.35253160  1.0
  C  C88  1  0.91248391  0.76071553  0.41295755  1.0
  C  C89  1  0.83558316  0.99410280  0.33515454  1.0
  C  C90  1  0.90746196  0.88203524  0.37454350  1.0
  C  C91  1  0.84078529  0.87262379  0.37340410  1.0
  C  C92  1  0.65618066  0.15118045  0.15078768  1.0
  C  C93  1  0.59794571  0.09411170  0.09937234  1.0
  C  C94  1  0.66829008  0.16600877  0.10750541  1.0
  C  C95  1  0.58330468  0.08179598  0.14265188  1.0
  C  C96  1  0.63970474  0.13718522  0.08266968  1.0
  C  C97  1  0.61272895  0.10977732  0.16749217  1.0
  C  C98  1  0.67403457  0.52242802  0.12146261  1.0
  C  C99  1  0.57854957  0.72216800  0.12963680  1.0
  C  C100  1  0.66546914  0.50517978  0.16402993  1.0
  C  C101  1  0.58747629  0.73952360  0.08707743  1.0
  C  C102  1  0.61020097  0.64321751  0.14251136  1.0
  C  C103  1  0.64278213  0.60147222  0.10860037  1.0
  C  C104  1  0.08398778  0.12593839  0.17665882  1.0
  C  C105  1  0.17151796  0.12300874  0.07234815  1.0
  C  C106  1  0.01156994  0.16309451  0.16378985  1.0
  C  C107  1  0.24398026  0.08606293  0.08514001  1.0
  C  C108  1  0.11281019  0.13818812  0.10548165  1.0
  C  C109  1  0.14287768  0.11145441  0.14355263  1.0
  C  C110  1  0.34377458  0.84971744  0.84861946  1.0
  C  C111  1  0.40468063  0.89778107  0.90317026  1.0
  C  C112  1  0.30236608  0.92163686  0.86284293  1.0
  C  C113  1  0.44728147  0.82706961  0.88773705  1.0
  C  C114  1  0.33294200  0.94426498  0.88978840  1.0
  C  C115  1  0.41640618  0.80411168  0.86110438  1.0
  C  C116  1  0.40460366  0.45161416  0.85210416  1.0
  C  C117  1  0.34348122  0.30429351  0.89574587  1.0
  C  C118  1  0.33679802  0.49429793  0.83473769  1.0
  C  C119  1  0.41142142  0.26145071  0.91296804  1.0
  C  C120  1  0.34050229  0.37361815  0.87326073  1.0
  C  C121  1  0.40778545  0.38204996  0.87425414  1.0
  C  C122  1  0.94119162  0.79831829  0.84941791  1.0
  C  C123  1  0.80267196  0.95357070  0.90219103  1.0
  C  C124  1  0.98887231  0.83565182  0.83718501  1.0
  C  C125  1  0.75490102  0.91636772  0.91433880  1.0
  C  C126  1  0.87060915  0.91116483  0.87834950  1.0
  C  C127  1  0.87287293  0.84097562  0.87296994  1.0
  S  S128  1  0.29627429  0.32529670  0.39848205  1.0
  S  S129  1  0.44850474  0.42675824  0.35339970  1.0
  S  S130  1  0.66274868  0.63020569  0.55992953  1.0
  S  S131  1  0.59276288  0.61621722  0.68721389  1.0
  S  S132  1  0.13452519  0.15757110  0.56267004  1.0
  S  S133  1  0.11885852  0.08686126  0.68994442  1.0
  S  S134  1  0.97345048  0.80657134  0.40201363  1.0
  S  S135  1  0.77509554  0.94776561  0.34563571  1.0
  S  S136  1  0.61843753  0.58658319  0.18911265  1.0
  S  S137  1  0.63528067  0.65811662  0.06201197  1.0
  S  S138  1  0.01469429  0.18095696  0.11027568  1.0
  S  S139  1  0.24106146  0.06966281  0.13866140  1.0
  S  S140  1  0.27541732  0.44897395  0.84527322  1.0
  S  S141  1  0.47332995  0.30620551  0.90175407  1.0
  S  S142  1  0.95008677  0.92471407  0.85459836  1.0
  S  S143  1  0.79288297  0.82797569  0.89625358  1.0
  S  S144  1  0.75743258  0.53685119  0.40371987  1.0
  S  S145  1  0.98492024  0.20695549  0.35316061  1.0
  S  S146  1  0.17617787  0.66245612  0.52968529  1.0
  S  S147  1  0.08737109  0.57367928  0.72079310  1.0
  S  S148  1  0.71334958  0.22681537  0.08039787  1.0
  S  S149  1  0.52268066  0.03648375  0.16979135  1.0
  S  S150  1  0.21265764  0.99229283  0.84622735  1.0
  S  S151  1  0.54413491  0.76380517  0.89717560  1.0
  O  O152  1  0.00106703  0.49784911  0.50056107  1.0
  O  O153  1  0.08044277  0.31290653  0.52376593  1.0
  O  O154  1  0.04713577  0.51840474  0.58448686  1.0
  O  O155  1  0.15562737  0.50402475  0.45337876  1.0
  O  O156  1  0.02500339  0.37193231  0.58196140  1.0
  O  O157  1  0.14911999  0.39391197  0.44519478  1.0
  O  O158  1  0.05351839  0.60769028  0.53223014  1.0
  O  O159  1  0.00495650  0.65821665  0.44812345  1.0
  O  O160  1  0.90891487  0.50544258  0.42990011  1.0
  O  O161  1  0.88971766  0.65590590  0.44718234  1.0
  O  O162  1  0.98761990  0.38296161  0.44798050  1.0
  O  O163  1  0.87802952  0.53130496  0.58017060  1.0
  O  O164  1  0.81853008  0.57006779  0.52137485  1.0
  O  O165  1  0.74788547  0.25087786  0.25062678  1.0
  O  O166  1  0.59246875  0.36060894  0.30289866  1.0
  O  O167  1  0.65243630  0.17875914  0.21745186  1.0
  O  O168  1  0.72103966  0.37211978  0.16962124  1.0
  O  O169  1  0.59279383  0.24440155  0.30221799  1.0
  O  O170  1  0.67847843  0.43195972  0.22807288  1.0
  O  O171  1  0.74525433  0.19056005  0.16930202  1.0
  O  O172  1  0.87893802  0.22447213  0.16870604  1.0
  O  O173  1  0.86774205  0.27270345  0.29273629  1.0
  O  O174  1  0.93638216  0.17012026  0.22768556  1.0
  O  O175  1  0.74909818  0.35481684  0.31487917  1.0
  O  O176  1  0.74651562  0.09218118  0.29600163  1.0
  O  O177  1  0.85398429  0.10318206  0.30561342  1.0
  O  O178  1  0.25173478  0.74941920  0.74946777  1.0
  O  O179  1  0.37741380  0.72651351  0.66779995  1.0
  O  O180  1  0.36708494  0.76417075  0.80133448  1.0
  O  O181  1  0.17717919  0.93130936  0.72870317  1.0
  O  O182  1  0.43733755  0.67103605  0.72602403  1.0
  O  O183  1  0.21767186  0.87254238  0.66991627  1.0
  O  O184  1  0.24420718  0.84148251  0.81978377  1.0
  O  O185  1  0.09308082  0.85865954  0.80353650  1.0
  O  O186  1  0.14215139  0.69610713  0.71805602  1.0
  O  O187  1  0.09270100  0.74318125  0.80213878  1.0
  O  O188  1  0.23123346  0.70321163  0.66587100  1.0
  O  O189  1  0.35680847  0.60261515  0.80490427  1.0
  O  O190  1  0.24781930  0.59341254  0.79632792  1.0
  O  O191  1  0.49912443  0.00188643  0.99930465  1.0
  O  O192  1  0.50361421  0.15908682  0.94819961  1.0
  O  O193  1  0.39688191  0.99944747  0.93448022  1.0
  O  O194  1  0.64741947  0.89668231  0.94452918  1.0
  O  O195  1  0.38831080  0.15680040  0.94694123  1.0
  O  O196  1  0.65626762  0.00495512  0.95388993  1.0
  O  O197  1  0.47949617  0.88118538  0.95700265  1.0
  O  O198  1  0.58188691  0.81403383  0.02346534  1.0
  O  O199  1  0.55842552  0.00545521  0.08091139  1.0
  O  O200  1  0.52350353  0.87257827  0.08147824  1.0
  O  O201  1  0.56986694  0.09828628  0.03264877  1.0
  O  O202  1  0.31785431  0.06904716  0.02092767  1.0
  O  O203  1  0.37653220  0.03153126  0.07995523  1.0
  O  O204  1  0.79665824  0.59330429  0.38506407  1.0
  O  O205  1  0.69223707  0.56083487  0.38211985  1.0
  O  O206  1  0.75033200  0.52759095  0.44806377  1.0
  O  O207  1  0.01272200  0.21644652  0.30525604  1.0
  O  O208  1  0.05092344  0.18348393  0.37400546  1.0
  O  O209  1  0.93889516  0.16452414  0.36129611  1.0
  O  O210  1  0.09903492  0.71831346  0.51066551  1.0
  O  O211  1  0.21829528  0.70687027  0.52834924  1.0
  O  O212  1  0.21012119  0.59166065  0.51221726  1.0
  O  O213  1  0.03123311  0.65044530  0.73948794  1.0
  O  O214  1  0.04296566  0.53158655  0.72201610  1.0
  O  O215  1  0.15833148  0.53981289  0.73862038  1.0
  O  O216  1  0.79886075  0.18002185  0.09106768  1.0
  O  O217  1  0.71588361  0.22674988  0.03704800  1.0
  O  O218  1  0.67779190  0.29671774  0.09878332  1.0
  O  O219  1  0.56982729  0.95139803  0.15931647  1.0
  O  O220  1  0.52309426  0.03379174  0.21312273  1.0
  O  O221  1  0.45227400  0.07169620  0.15139788  1.0
  O  O222  1  0.15661491  0.95232946  0.86446025  1.0
  O  O223  1  0.18839745  0.05656291  0.86821046  1.0
  O  O224  1  0.22144731  0.00054943  0.80186583  1.0
  O  O225  1  0.53412498  0.73736281  0.94527220  1.0
  O  O226  1  0.56679961  0.69763900  0.87703072  1.0
  O  O227  1  0.58784209  0.80863058  0.88870332  1.0
  F  F228  1  0.28445535  0.52438840  0.40964114  1.0
  F  F229  1  0.46055971  0.22740244  0.34259121  1.0
  F  F230  1  0.78017621  0.54289398  0.65441608  1.0
  F  F231  1  0.47525914  0.70573541  0.59289061  1.0
  F  F232  1  0.04467190  0.27395819  0.65677857  1.0
  F  F233  1  0.20665325  0.97053208  0.59568697  1.0
  F  F234  1  0.78778857  0.78090171  0.39913966  1.0
  F  F235  1  0.96024599  0.97390980  0.34900702  1.0
  F  F236  1  0.70847501  0.47082640  0.09479841  1.0
  F  F237  1  0.54412628  0.77387600  0.15632649  1.0
  F  F238  1  0.09791050  0.10564337  0.21612020  1.0
  F  F239  1  0.15718263  0.14302688  0.03291887  1.0
  F  F240  1  0.46202858  0.47277054  0.84851675  1.0
  F  F241  1  0.28597149  0.28326561  0.89956856  1.0
  F  F242  1  0.95693806  0.72926405  0.84006340  1.0
  F  F243  1  0.78721986  0.02257681  0.91157853  1.0
