# generated using pymatgen
data_Al2H15C24S2N3O10
_symmetry_space_group_name_H-M   'P 1'
_cell_length_a   6.64789847
_cell_length_b   12.72871397
_cell_length_c   17.68615550
_cell_angle_alpha   88.82584488
_cell_angle_beta   79.87433323
_cell_angle_gamma   75.08093822
_symmetry_Int_Tables_number   1
_chemical_formula_structural   Al2H15C24S2N3O10
_chemical_formula_sum   'Al2 H15 C24 S2 N3 O10'
_cell_volume   1423.13194364
_cell_formula_units_Z   1
loop_
 _symmetry_equiv_pos_site_id
 _symmetry_equiv_pos_as_xyz
  1  'x, y, z'
loop_
 _atom_site_type_symbol
 _atom_site_label
 _atom_site_symmetry_multiplicity
 _atom_site_fract_x
 _atom_site_fract_y
 _atom_site_fract_z
 _atom_site_occupancy
  Al  Al0  1  0.99846950  0.51515663  0.49908955  1.0
  Al  Al1  1  0.49450540  0.51613894  0.50166120  1.0
  H  H2  1  0.33456676  0.38957860  0.45266768  1.0
  H  H3  1  0.67068011  0.59689064  0.58683489  1.0
  H  H4  1  0.82884098  0.53525301  0.72874519  1.0
  H  H5  1  0.73984113  0.53303926  0.87164028  1.0
  H  H6  1  0.40506319  0.41419934  0.87985199  1.0
  H  H7  1  0.63351612  0.45392345  0.12545659  1.0
  H  H8  1  0.10383386  0.58311708  0.26958779  1.0
  H  H9  1  0.19481178  0.56474308  0.12630108  1.0
  H  H10  1  0.20130323  0.16277930  0.54263940  1.0
  H  H11  1  0.57524987  0.41592589  0.67434088  1.0
  H  H12  1  0.65242133  0.38895116  0.76411742  1.0
  H  H13  1  0.44424842  0.49163135  0.33040028  1.0
  H  H14  1  0.40353541  0.44904988  0.24262819  1.0
  H  H15  1  0.61423303  0.90933629  0.44975968  1.0
  H  H16  1  0.76769725  0.77829351  0.45663893  1.0
  C  C17  1  0.85334256  0.31817040  0.49647487  1.0
  C  C18  1  0.78797882  0.53328010  0.36293259  1.0
  C  C19  1  0.14183613  0.71090697  0.50481586  1.0
  C  C20  1  0.20042054  0.48928779  0.63883736  1.0
  C  C21  1  0.16353558  0.47677804  0.72269442  1.0
  C  C22  1  0.95329913  0.50739042  0.76270811  1.0
  C  C23  1  0.90295322  0.50612771  0.84180086  1.0
  C  C24  1  0.06890501  0.47394092  0.88493465  1.0
  C  C25  1  0.27818945  0.44023122  0.84655189  1.0
  C  C26  1  0.33131248  0.44008573  0.76557453  1.0
  C  C27  1  0.02110178  0.48026778  0.96629892  1.0
  C  C28  1  0.97284838  0.49121584  0.03608082  1.0
  C  C29  1  0.92082160  0.50529805  0.11712423  1.0
  C  C30  1  0.73636979  0.48271780  0.15720944  1.0
  C  C31  1  0.67992276  0.49510629  0.23801606  1.0
  C  C32  1  0.82130389  0.52925890  0.27841616  1.0
  C  C33  1  0.00357916  0.55386931  0.23696067  1.0
  C  C34  1  0.05527590  0.54338424  0.15777524  1.0
  C  C35  1  0.90379321  0.89527506  0.48113242  1.0
  C  C36  1  0.08102227  0.13170993  0.52297168  1.0
  C  C37  1  0.08466365  0.82805697  0.50485701  1.0
  C  C38  1  0.90529313  0.19910467  0.49941745  1.0
  C  C39  1  0.07900725  0.02157246  0.51783725  1.0
  C  C40  1  0.90308847  0.00669044  0.48961126  1.0
  S  S41  1  0.24787497  0.89990512  0.53601887  1.0
  S  S42  1  0.73719185  0.12897203  0.47097961  1.0
  N  N43  1  0.53783206  0.40405356  0.73151314  1.0
  N  N44  1  0.50144990  0.46917264  0.27430444  1.0
  N  N45  1  0.75900104  0.85906624  0.45113680  1.0
  O  O46  1  0.99749187  0.36341989  0.50639282  1.0
  O  O47  1  0.59747330  0.54978694  0.39958960  1.0
  O  O48  1  0.32252553  0.66111508  0.52090611  1.0
  O  O49  1  0.04018382  0.51519577  0.60491981  1.0
  O  O50  1  0.00540072  0.66301912  0.48868626  1.0
  O  O51  1  0.39297331  0.47611413  0.60379555  1.0
  O  O52  1  0.66899758  0.36675965  0.48386381  1.0
  O  O53  1  0.95036248  0.51736607  0.39525006  1.0
  O  O54  1  0.28861554  0.46760167  0.46266748  1.0
  O  O55  1  0.70947733  0.55752430  0.53799471  1.0
