# generated using pymatgen
data_AlH5C8O5
_symmetry_space_group_name_H-M   'P 1'
_cell_length_a   6.69514623
_cell_length_b   11.13652107
_cell_length_c   11.14015153
_cell_angle_alpha   73.91867289
_cell_angle_beta   72.51262422
_cell_angle_gamma   72.51613718
_symmetry_Int_Tables_number   1
_chemical_formula_structural   AlH5C8O5
_chemical_formula_sum   'Al2 H10 C16 O10'
_cell_volume   739.54075102
_cell_formula_units_Z   2
loop_
 _symmetry_equiv_pos_site_id
 _symmetry_equiv_pos_as_xyz
  1  'x, y, z'
loop_
 _atom_site_type_symbol
 _atom_site_label
 _atom_site_symmetry_multiplicity
 _atom_site_fract_x
 _atom_site_fract_y
 _atom_site_fract_z
 _atom_site_occupancy
  Al  Al0  1  0.00331595  0.00137502  0.99951189  1.0
  Al  Al1  1  0.50337944  0.00144816  0.99936744  1.0
  H  H2  1  0.26261390  0.61938299  0.00349502  1.0
  H  H3  1  0.38394377  0.38332463  0.99695763  1.0
  H  H4  1  0.24364408  0.99737854  0.38168545  1.0
  H  H5  1  0.12331621  0.00157824  0.61817416  1.0
  H  H6  1  0.74334195  0.38328201  0.99694173  1.0
  H  H7  1  0.62199255  0.61933434  0.00340723  1.0
  H  H8  1  0.76397440  0.00165634  0.61811160  1.0
  H  H9  1  0.88425402  0.99743165  0.38161454  1.0
  H  H10  1  0.75374266  0.13381271  0.86678321  1.0
  H  H11  1  0.25202025  0.87051908  0.13342340  1.0
  C  C12  1  0.15083360  0.56632048  0.00218137  1.0
  C  C13  1  0.21783101  0.43634926  0.99821430  1.0
  C  C14  1  0.35570713  0.99816142  0.43478029  1.0
  C  C15  1  0.28927992  0.00080388  0.56504166  1.0
  C  C16  1  0.85521211  0.43629851  0.99816860  1.0
  C  C17  1  0.78813200  0.56631802  0.00216198  1.0
  C  C18  1  0.65197927  0.00085899  0.56498815  1.0
  C  C19  1  0.71836664  0.99822193  0.43474015  1.0
  C  C20  1  0.93570772  0.63200274  0.00404085  1.0
  C  C21  1  0.07045293  0.37064757  0.99601996  1.0
  C  C22  1  0.86395311  0.77181384  0.00772141  1.0
  C  C23  1  0.14245086  0.23099721  0.99155276  1.0
  C  C24  1  0.57056428  0.99701460  0.36888256  1.0
  C  C25  1  0.43695203  0.00250550  0.63074681  1.0
  C  C26  1  0.64191890  0.99454432  0.22882279  1.0
  C  C27  1  0.36509094  0.00678820  0.77039057  1.0
  O  O28  1  0.00522788  0.82602383  0.00971754  1.0
  O  O29  1  0.34004262  0.17682785  0.98933310  1.0
  O  O30  1  0.50052324  0.99303604  0.17445670  1.0
  O  O31  1  0.16755382  0.00912086  0.82459837  1.0
  O  O32  1  0.00124097  0.17675367  0.98945853  1.0
  O  O33  1  0.66656363  0.82607911  0.00953605  1.0
  O  O34  1  0.50632769  0.00914896  0.82442550  1.0
  O  O35  1  0.83922000  0.99308376  0.17459542  1.0
  O  O36  1  0.75368464  0.06142009  0.93885116  1.0
  O  O37  1  0.25304601  0.94156130  0.06003537  1.0
