# generated using pymatgen
data_Zn4H12C20O13F
_symmetry_space_group_name_H-M   'P 1'
_cell_length_a   18.54721468
_cell_length_b   18.57220662
_cell_length_c   18.59868172
_cell_angle_alpha   119.76596301
_cell_angle_beta   90.55648453
_cell_angle_gamma   119.43927257
_symmetry_Int_Tables_number   1
_chemical_formula_structural   Zn4H12C20O13F
_chemical_formula_sum   'Zn8 H24 C40 O26 F2'
_cell_volume   4562.26551383
_cell_formula_units_Z   2
loop_
 _symmetry_equiv_pos_site_id
 _symmetry_equiv_pos_as_xyz
  1  'x, y, z'
loop_
 _atom_site_type_symbol
 _atom_site_label
 _atom_site_symmetry_multiplicity
 _atom_site_fract_x
 _atom_site_fract_y
 _atom_site_fract_z
 _atom_site_occupancy
  Zn  Zn0  1  0.54207728  0.08795511  0.95539931  1.0
  Zn  Zn1  1  0.54217234  0.08522318  0.12618281  1.0
  Zn  Zn2  1  0.53940754  0.91235855  0.95237447  1.0
  Zn  Zn3  1  0.36840376  0.91606601  0.95382562  1.0
  Zn  Zn4  1  0.95934087  0.91314264  0.54535297  1.0
  Zn  Zn5  1  0.96089256  0.08600378  0.54534886  1.0
  Zn  Zn6  1  0.95908492  0.91363833  0.37292560  1.0
  Zn  Zn7  1  0.13309544  0.08282628  0.54516645  1.0
  H  H8  1  0.27777909  0.95305407  0.61047582  1.0
  H  H9  1  0.78509306  0.87866912  0.19062160  1.0
  H  H10  1  0.22378131  0.83298861  0.67797803  1.0
  H  H11  1  0.77603315  0.04223459  0.34900292  1.0
  H  H12  1  0.72664024  0.06488770  0.25671037  1.0
  H  H13  1  0.79266450  0.59383611  0.18890291  1.0
  H  H14  1  0.70727276  0.40806959  0.09518829  1.0
  H  H15  1  0.22231364  0.04636012  0.89013860  1.0
  H  H16  1  0.40427775  0.12467176  0.77961081  1.0
  H  H17  1  0.80248686  0.89663724  0.70997851  1.0
  H  H18  1  0.77993529  0.04366958  0.69633952  1.0
  H  H19  1  0.72153945  0.06883801  0.80256616  1.0
  H  H20  1  0.69730723  0.88636635  0.79090091  1.0
  H  H21  1  0.80156570  0.58173898  0.34787960  1.0
  H  H22  1  0.69745602  0.41717877  0.26460955  1.0
  H  H23  1  0.09587327  0.87483527  0.72099796  1.0
  H  H24  1  0.27631668  0.16645659  0.82263992  1.0
  H  H25  1  0.15625230  0.41586427  0.71668529  1.0
  H  H26  1  0.40423248  0.59689799  0.80009535  1.0
  H  H27  1  0.23022215  0.58090938  0.78083164  1.0
  H  H28  1  0.31381878  0.10104838  0.40442222  1.0
  H  H29  1  0.15348878  0.95665046  0.23574658  1.0
  H  H30  1  0.40571611  0.11174709  0.31049781  1.0
  H  H31  1  0.23511078  0.93232932  0.15200636  1.0
  C  C32  1  0.36273417  0.99689861  0.13549650  1.0
  C  C33  1  0.69815028  0.00822347  0.81145341  1.0
  C  C34  1  0.28189115  0.44827091  0.72331243  1.0
  C  C35  1  0.63855004  0.00273365  0.86359248  1.0
  C  C36  1  0.19361684  0.38318400  0.69587994  1.0
  C  C37  1  0.33297039  0.55794890  0.77768699  1.0
  C  C38  1  0.30040802  0.61408985  0.80138821  1.0
  C  C39  1  0.28034057  0.05486321  0.33359658  1.0
  C  C40  1  0.19182025  0.00251651  0.30505122  1.0
  C  C41  1  0.33473005  0.05563904  0.27795392  1.0
  C  C42  1  0.30475731  0.99171670  0.18937392  1.0
  C  C43  1  0.16462969  0.93016824  0.73445149  1.0
  C  C44  1  0.76548178  0.93041706  0.22353782  1.0
  C  C45  1  0.79553818  0.99151288  0.31200762  1.0
  C  C46  1  0.70806629  0.92700334  0.16656406  1.0
  C  C47  1  0.63289104  0.27453165  0.13567884  1.0
  C  C48  1  0.69329020  0.99857796  0.18889815  1.0
  C  C49  1  0.77745794  0.55543336  0.22162139  1.0
  C  C50  1  0.81231716  0.61388409  0.31019310  1.0
  C  C51  1  0.72221222  0.44565628  0.16617548  1.0
  C  C52  1  0.68717731  0.38610590  0.19504532  1.0
  C  C53  1  0.14065578  0.27200418  0.63963184  1.0
  C  C54  1  0.23382708  0.02561445  0.82733946  1.0
  C  C55  1  0.86711191  0.72551610  0.36365346  1.0
  C  C56  1  0.86181753  0.99635740  0.63535688  1.0
  C  C57  1  0.13924669  0.00211021  0.36422691  1.0
  C  C58  1  0.85797300  0.99456297  0.36565591  1.0
  C  C59  1  0.35853761  0.72615359  0.85764887  1.0
  C  C60  1  0.13874542  0.99624417  0.64076245  1.0
  C  C61  1  0.63602170  0.99694912  0.13197240  1.0
  C  C62  1  0.36164599  0.00347088  0.85985993  1.0
  C  C63  1  0.23467749  0.90695650  0.70935974  1.0
  C  C64  1  0.26633320  0.97387674  0.67329925  1.0
  C  C65  1  0.26549017  0.09253542  0.79127565  1.0
  C  C66  1  0.19505871  0.99620719  0.69792681  1.0
  C  C67  1  0.33553982  0.06933272  0.76617602  1.0
  C  C68  1  0.30515050  0.00333983  0.80271691  1.0
  C  C69  1  0.77838735  0.94366474  0.72333474  1.0
  C  C70  1  0.80251081  0.99655881  0.68774946  1.0
  C  C71  1  0.72194414  0.94324346  0.77685908  1.0
  O  O72  1  0.49770904  0.00013550  0.99683161  1.0
  O  O73  1  0.05582369  0.94461030  0.32544880  1.0
  O  O74  1  0.88402948  0.05948498  0.44861849  1.0
  O  O75  1  0.32279321  0.93708912  0.05222780  1.0
  O  O76  1  0.17900690  0.05598909  0.61770590  1.0
  O  O77  1  0.88047807  0.93403503  0.32561958  1.0
  O  O78  1  0.05564303  0.93734751  0.61966757  1.0
  O  O79  1  0.88502300  0.93631189  0.61592182  1.0
  O  O80  1  0.17948063  0.05695871  0.44686699  1.0
  O  O81  1  0.05730430  0.22980563  0.61813334  1.0
  O  O82  1  0.88783698  0.76885337  0.32388577  1.0
  O  O83  1  0.61345516  0.23235505  0.05276428  1.0
  O  O84  1  0.61861392  0.06630177  0.88741294  1.0
  O  O85  1  0.61010851  0.22976440  0.17432089  1.0
  O  O86  1  0.44138507  0.76839663  0.88003641  1.0
  O  O87  1  0.62015711  0.06414103  0.17286672  1.0
  O  O88  1  0.32146068  0.94394640  0.88316166  1.0
  O  O89  1  0.60808136  0.93182828  0.04905774  1.0
  O  O90  1  0.44474689  0.06223093  0.88075243  1.0
  O  O91  1  0.31908297  0.77021015  0.87834083  1.0
  O  O92  1  0.44581318  0.05889059  0.17486587  1.0
  O  O93  1  0.61188739  0.93655871  0.88027801  1.0
  O  O94  1  0.00348332  0.99902443  0.50197965  1.0
  O  O95  1  0.17931956  0.22728078  0.61725763  1.0
  O  O96  1  0.88899074  0.76911900  0.44695506  1.0
  O  O97  1  0.88495004  0.05842239  0.61409625  1.0
  F  F98  1  0.33369210  0.41422548  0.70091053  1.0
  F  F99  1  0.66946733  0.84174629  0.08353720  1.0
