# generated using pymatgen
data_MgH10C10N2O3
_symmetry_space_group_name_H-M   'P 1'
_cell_length_a   6.75286102
_cell_length_b   34.98231573
_cell_length_c   34.98609530
_cell_angle_alpha   119.60371090
_cell_angle_beta   93.70003758
_cell_angle_gamma   93.65347137
_symmetry_Int_Tables_number   1
_chemical_formula_structural   MgH10C10N2O3
_chemical_formula_sum   'Mg6 H60 C60 N12 O18'
_cell_volume   7127.28806236
_cell_formula_units_Z   6
loop_
 _symmetry_equiv_pos_site_id
 _symmetry_equiv_pos_as_xyz
  1  'x, y, z'
loop_
 _atom_site_type_symbol
 _atom_site_label
 _atom_site_symmetry_multiplicity
 _atom_site_fract_x
 _atom_site_fract_y
 _atom_site_fract_z
 _atom_site_occupancy
  Mg  Mg0  1  0.48407129  0.69396603  0.32802578  1.0
  Mg  Mg1  1  0.79023368  0.63414614  0.30595554  1.0
  Mg  Mg2  1  0.15602724  0.67188000  0.36575976  1.0
  Mg  Mg3  1  0.32098225  0.30654994  0.67258625  1.0
  Mg  Mg4  1  0.01425979  0.36598602  0.69345094  1.0
  Mg  Mg5  1  0.64818190  0.32744711  0.63406736  1.0
  H  H6  1  0.73199864  0.62043072  0.19801816  1.0
  H  H7  1  0.11218550  0.57766892  0.37961083  1.0
  H  H8  1  0.53374186  0.80191860  0.42233412  1.0
  H  H9  1  0.71250007  0.58957669  0.12177752  1.0
  H  H10  1  0.12302014  0.53233883  0.41055422  1.0
  H  H11  1  0.59022234  0.87805319  0.46773324  1.0
  H  H12  1  0.58099443  0.57806420  0.05748725  1.0
  H  H13  1  0.00239150  0.47952951  0.42189530  1.0
  H  H14  1  0.52313008  0.94230965  0.52059344  1.0
  H  H15  1  0.35237763  0.59221213  0.08147561  1.0
  H  H16  1  0.75970509  0.48959917  0.40799398  1.0
  H  H17  1  0.27025175  0.91850933  0.51063462  1.0
  H  H18  1  0.12255336  0.54940186  0.02769553  1.0
  H  H19  1  0.57368916  0.47850359  0.45074662  1.0
  H  H20  1  0.09587468  0.97246617  0.52176282  1.0
  H  H21  1  0.10825227  0.49104819  0.00199499  1.0
  H  H22  1  0.61747433  0.51111076  0.50910098  1.0
  H  H23  1  0.10728603  0.99819899  0.48915828  1.0
  H  H24  1  0.38737071  0.55046132  0.98165400  1.0
  H  H25  1  0.83697101  0.43126036  0.44958949  1.0
  H  H26  1  0.40711878  0.01833648  0.56882650  1.0
  H  H27  1  0.18229159  0.51263563  0.94600560  1.0
  H  H28  1  0.66974674  0.43353155  0.48745570  1.0
  H  H29  1  0.23797588  0.05409678  0.56672874  1.0
  H  H30  1  0.68625219  0.51794509  0.99810296  1.0
  H  H31  1  0.16853727  0.48007372  0.48200956  1.0
  H  H32  1  0.68936639  0.00176642  0.51992188  1.0
  H  H33  1  0.67443309  0.45959852  0.97236916  1.0
  H  H34  1  0.21517216  0.51266085  0.54034875  1.0
  H  H35  1  0.70354687  0.02743057  0.48726886  1.0
  H  H36  1  0.61275492  0.49574894  0.05387091  1.0
  H  H37  1  0.11774044  0.55808259  0.50428860  1.0
  H  H38  1  0.55985675  0.94596742  0.44197346  1.0
  H  H39  1  0.40800377  0.45802806  0.01796599  1.0
  H  H40  1  0.95086970  0.56001562  0.54209357  1.0
  H  H41  1  0.39169508  0.98199064  0.44006448  1.0
  H  H42  1  0.21257476  0.43108069  0.94315455  1.0
  H  H43  1  0.78230375  0.51214890  0.56906241  1.0
  H  H44  1  0.27127675  0.05672204  0.48779729  1.0
  H  H45  1  0.44211038  0.41622127  0.91991372  1.0
  H  H46  1  0.02659663  0.50359289  0.58375968  1.0
  H  H47  1  0.52399858  0.07995260  0.49628518  1.0
  H  H48  1  0.08515050  0.41800324  0.87804888  1.0
  H  H49  1  0.66778793  0.46012034  0.58207848  1.0
  H  H50  1  0.20827521  0.12181533  0.53975883  1.0
  H  H51  1  0.07008528  0.38394859  0.80184454  1.0
  H  H52  1  0.68618967  0.41792588  0.61600435  1.0
  H  H53  1  0.26872357  0.19804058  0.58192280  1.0
  H  H54  1  0.79156473  0.43282701  0.81932268  1.0
  H  H55  1  0.35851577  0.38611041  0.56698181  1.0
  H  H56  1  0.97272261  0.18077314  0.61379728  1.0
  H  H57  1  0.61325125  0.45723064  0.88661917  1.0
  H  H58  1  0.15635623  0.42915761  0.54265776  1.0
  H  H59  1  0.72769014  0.11342928  0.57082292  1.0
  H  H60  1  0.18677817  0.54900846  0.11311788  1.0
  H  H61  1  0.63809305  0.56456040  0.45114947  1.0
  H  H62  1  0.07293469  0.88680484  0.43581692  1.0
  H  H63  1  0.01160242  0.57056714  0.18045707  1.0
  H  H64  1  0.44136835  0.61027860  0.42945157  1.0
  H  H65  1  0.83050219  0.81942767  0.39003356  1.0
  C  C66  1  0.47690149  0.62221224  0.23180560  1.0
  C  C67  1  0.85506947  0.60967545  0.37769828  1.0
  C  C68  1  0.24488998  0.76810446  0.39026540  1.0
  C  C69  1  0.57318488  0.60924896  0.19356111  1.0
  C  C70  1  0.96442397  0.58443273  0.39073508  1.0
  C  C71  1  0.37932840  0.80634495  0.41558079  1.0
  C  C72  1  0.47019052  0.58453146  0.15104250  1.0
  C  C73  1  0.88587219  0.56670755  0.41549290  1.0
  C  C74  1  0.31863654  0.84886428  0.43341143  1.0
  C  C75  1  0.46709267  0.56901926  0.07398754  1.0
  C  C76  1  0.89787150  0.50518052  0.43109069  1.0
  C  C77  1  0.39282656  0.92592798  0.49499570  1.0
  C  C78  1  0.21130062  0.52115521  0.01258783  1.0
  C  C79  1  0.69056365  0.49161667  0.47899184  1.0
  C  C80  1  0.19974196  0.98753209  0.50861746  1.0
  C  C81  1  0.30027819  0.51873449  0.97220382  1.0
  C  C82  1  0.78176520  0.45357963  0.48133949  1.0
  C  C83  1  0.32949227  0.02784035  0.54658513  1.0
  C  C84  1  0.58454177  0.48764347  0.98743688  1.0
  C  C85  1  0.09718787  0.49973972  0.51233668  1.0
  C  C86  1  0.59842421  0.01243782  0.50025990  1.0
  C  C87  1  0.49519624  0.48980519  0.02765893  1.0
  C  C88  1  0.00602045  0.53787967  0.51026722  1.0
  C  C89  1  0.46869268  0.97226121  0.46219083  1.0
  C  C90  1  0.32808770  0.43942988  0.92651421  1.0
  C  C91  1  0.88924864  0.48706337  0.56059992  1.0
  C  C92  1  0.40321190  0.07339462  0.51286267  1.0
  C  C93  1  0.33029820  0.42114363  0.84880456  1.0
  C  C94  1  0.90935751  0.42754692  0.57878210  1.0
  C  C95  1  0.48234639  0.15115934  0.57231522  1.0
  C  C96  1  0.22912521  0.39493285  0.80629438  1.0
  C  C97  1  0.83417177  0.41128307  0.60500133  1.0
  C  C98  1  0.42332164  0.19365325  0.58858139  1.0
  C  C99  1  0.32734727  0.38021597  0.76811875  1.0
  C  C100  1  0.94693987  0.38779411  0.61972772  1.0
  C  C101  1  0.55939498  0.23187094  0.61216228  1.0
  C  C102  1  0.53690109  0.39407071  0.77317594  1.0
  C  C103  1  0.14253936  0.37886111  0.60579706  1.0
  C  C104  1  0.76395064  0.22687116  0.62106698  1.0
  C  C105  1  0.63366445  0.42172871  0.81629375  1.0
  C  C106  1  0.21171164  0.39423572  0.57808489  1.0
  C  C107  1  0.81787307  0.18377236  0.60566006  1.0
  C  C108  1  0.53642850  0.43509254  0.85373879  1.0
  C  C109  1  0.10139338  0.41839285  0.56476200  1.0
  C  C110  1  0.68351797  0.14629710  0.58151475  1.0
  C  C111  1  0.65543293  0.38074084  0.73584411  1.0
  C  C112  1  0.27446945  0.35491820  0.61919409  1.0
  C  C113  1  0.91973118  0.26421594  0.64502441  1.0
  C  C114  1  0.26464386  0.57013562  0.14610045  1.0
  C  C115  1  0.69472956  0.57626787  0.42990797  1.0
  C  C116  1  0.11799217  0.85382304  0.42393464  1.0
  C  C117  1  0.16930861  0.58182357  0.18353277  1.0
  C  C118  1  0.58773536  0.60197533  0.41816479  1.0
  C  C119  1  0.98527884  0.81638976  0.39819591  1.0
  C  C120  1  0.26752619  0.60815636  0.22669536  1.0
  C  C121  1  0.65973579  0.61867236  0.39175435  1.0
  C  C122  1  0.04056005  0.77322892  0.38134050  1.0
  C  C123  1  0.14969143  0.62035258  0.26399325  1.0
  C  C124  1  0.52962135  0.64374922  0.37954120  1.0
  C  C125  1  0.88551239  0.73594906  0.35626086  1.0
  N  N126  1  0.57045471  0.57473004  0.11437772  1.0
  N  N127  1  0.99569325  0.53983533  0.42536544  1.0
  N  N128  1  0.45556810  0.88549486  0.46031620  1.0
  N  N129  1  0.36230034  0.52469640  0.04653230  1.0
  N  N130  1  0.83796671  0.52201912  0.47546303  1.0
  N  N131  1  0.31637320  0.95349445  0.47816402  1.0
  N  N132  1  0.43316122  0.48380029  0.95339766  1.0
  N  N133  1  0.94963122  0.46959294  0.51620343  1.0
  N  N134  1  0.48125945  0.04656081  0.53043235  1.0
  N  N135  1  0.22747156  0.43273675  0.88547145  1.0
  N  N136  1  0.79515361  0.45270678  0.56725394  1.0
  N  N137  1  0.34324614  0.11445468  0.54714527  1.0
  O  O138  1  0.96880269  0.60379290  0.25811530  1.0
  O  O139  1  0.36519570  0.65442303  0.39609682  1.0
  O  O140  1  0.71035239  0.74185266  0.34564254  1.0
  O  O141  1  0.23135134  0.64944944  0.30343395  1.0
  O  O142  1  0.58207586  0.65404563  0.35041600  1.0
  O  O143  1  0.92779134  0.69649949  0.34590146  1.0
  O  O144  1  0.58403454  0.64775476  0.27132235  1.0
  O  O145  1  0.93653036  0.62359137  0.35211310  1.0
  O  O146  1  0.31255854  0.72857933  0.37626176  1.0
  O  O147  1  0.83629531  0.39717968  0.74137976  1.0
  O  O148  1  0.43892054  0.34397282  0.60274337  1.0
  O  O149  1  0.09514991  0.25870441  0.65594752  1.0
  O  O150  1  0.57416586  0.35085640  0.69665913  1.0
  O  O151  1  0.22334239  0.34575935  0.64918471  1.0
  O  O152  1  0.87750089  0.30337760  0.65423615  1.0
  O  O153  1  0.22125188  0.35336779  0.72875952  1.0
  O  O154  1  0.86770342  0.37538226  0.64664612  1.0
  O  O155  1  0.49245804  0.27122782  0.62468006  1.0
