# generated using pymatgen
data_Al3H33C56(N3O8)2
_symmetry_space_group_name_H-M   'P 1'
_cell_length_a   13.59951113
_cell_length_b   13.82830454
_cell_length_c   33.48138413
_cell_angle_alpha   83.61879082
_cell_angle_beta   84.08473003
_cell_angle_gamma   62.57147162
_symmetry_Int_Tables_number   1
_chemical_formula_structural   Al3H33C56(N3O8)2
_chemical_formula_sum   'Al6 H66 C112 N12 O32'
_cell_volume   5544.40793385
_cell_formula_units_Z   2
loop_
 _symmetry_equiv_pos_site_id
 _symmetry_equiv_pos_as_xyz
  1  'x, y, z'
loop_
 _atom_site_type_symbol
 _atom_site_label
 _atom_site_symmetry_multiplicity
 _atom_site_fract_x
 _atom_site_fract_y
 _atom_site_fract_z
 _atom_site_occupancy
  Al  Al0  1  0.57682340  0.59355182  0.49019648  1.0
  Al  Al1  1  0.57895932  0.35931518  0.50367686  1.0
  Al  Al2  1  0.35886852  0.55906511  0.50420900  1.0
  Al  Al3  1  0.07464308  0.08091327  0.01391508  1.0
  Al  Al4  1  0.30893784  0.08709095  0.00475049  1.0
  Al  Al5  1  0.10165824  0.30043410  0.00483836  1.0
  H  H6  1  0.15228575  0.42749931  0.89183239  1.0
  H  H7  1  0.20309895  0.75904639  0.60158792  1.0
  H  H8  1  0.44674740  0.92777622  0.90086513  1.0
  H  H9  1  0.51491336  0.77373834  0.66213541  1.0
  H  H10  1  0.18178817  0.81089216  0.67276774  1.0
  H  H11  1  0.46994336  0.87827648  0.82939952  1.0
  H  H12  1  0.12775249  0.93233499  0.91380372  1.0
  H  H13  1  0.15029084  0.88213151  0.84215203  1.0
  H  H14  1  0.76195483  0.22568632  0.60437065  1.0
  H  H15  1  0.72043611  0.55443086  0.59126488  1.0
  H  H16  1  0.91893989  0.14893499  0.91557913  1.0
  H  H17  1  0.18184883  0.44436784  0.81699940  1.0
  H  H18  1  0.82999379  0.20143196  0.67346260  1.0
  H  H19  1  0.78260985  0.53296106  0.66140495  1.0
  H  H20  1  0.94319832  0.44894531  0.90245466  1.0
  H  H21  1  0.91155738  0.46715602  0.82879090  1.0
  H  H22  1  0.55603600  0.22533908  0.40520509  1.0
  H  H23  1  0.23897846  0.51049651  0.40846471  1.0
  H  H24  1  0.45063856  0.12709650  0.10090284  1.0
  H  H25  1  0.53875548  0.21285642  0.33251114  1.0
  H  H26  1  0.22096460  0.49847559  0.33615061  1.0
  H  H27  1  0.48148762  0.16114817  0.16932116  1.0
  H  H28  1  0.14841053  0.42791833  0.09773077  1.0
  H  H29  1  0.17699915  0.46102597  0.16670275  1.0
  H  H30  1  0.12641099  0.92918612  0.12145059  1.0
  H  H31  1  0.19858577  0.75961968  0.31882117  1.0
  H  H32  1  0.46481322  0.80236945  0.39613532  1.0
  H  H33  1  0.46709555  0.87373025  0.18357812  1.0
  H  H34  1  0.44780634  0.91898678  0.10926651  1.0
  H  H35  1  0.24678629  0.51862585  0.61610261  1.0
  H  H36  1  0.94115563  0.43663064  0.11184035  1.0
  H  H37  1  0.88856476  0.45604978  0.18564895  1.0
  H  H38  1  0.68754109  0.54881273  0.37595201  1.0
  H  H39  1  0.78965718  0.20722514  0.40626177  1.0
  H  H40  1  0.86928786  0.15188551  0.19523477  1.0
  H  H41  1  0.92038242  0.13468739  0.12099602  1.0
  H  H42  1  0.84941918  0.16931804  0.33393997  1.0
  H  H43  1  0.53177977  0.20453516  0.61057877  1.0
  H  H44  1  0.47547935  0.13381435  0.82224174  1.0
  H  H45  1  0.44563974  0.11873349  0.89708697  1.0
  H  H46  1  0.51036611  0.16982255  0.68519942  1.0
  H  H47  1  0.53378421  0.72652894  0.59044032  1.0
  H  H48  1  0.81301804  0.09065835  0.88760500  1.0
  H  H49  1  0.95820420  0.01475280  0.87382672  1.0
  H  H50  1  0.85694759  0.01943712  0.84222414  1.0
  H  H51  1  0.08534505  0.58912602  0.65844294  1.0
  H  H52  1  0.18102177  0.64270241  0.66385161  1.0
  H  H53  1  0.08267413  0.64635970  0.70444873  1.0
  H  H54  1  0.05011033  0.83428254  0.16461896  1.0
  H  H55  1  0.98986781  0.97758698  0.17184938  1.0
  H  H56  1  0.98072186  0.88418460  0.21214559  1.0
  H  H57  1  0.04395660  0.84423427  0.40074605  1.0
  H  H58  1  0.12947248  0.79363939  0.44347872  1.0
  H  H59  1  0.05470924  0.72421169  0.43095077  1.0
  H  H60  1  0.33405295  0.00700350  0.28293519  1.0
  H  H61  1  0.44592463  0.09723287  0.25171711  1.0
  H  H62  1  0.63763259  0.03520785  0.27187991  1.0
  H  H63  1  0.71910412  0.87650694  0.32293543  1.0
  H  H64  1  0.60929534  0.78251725  0.35255337  1.0
  H  H65  1  0.56214466  0.60435483  0.29853344  1.0
  H  H66  1  0.53529990  0.75219656  0.24528899  1.0
  H  H67  1  0.69844018  0.77101218  0.21157062  1.0
  H  H68  1  0.88919241  0.64023239  0.23203617  1.0
  H  H69  1  0.91554906  0.49056037  0.28483480  1.0
  H  H70  1  0.69843434  0.66146452  0.46048906  1.0
  H  H71  1  0.01502530  0.94922719  0.03756682  1.0
  C  C72  1  0.69604561  0.40810507  0.55323554  1.0
  C  C73  1  0.36740137  0.32473023  0.69328855  1.0
  C  C74  1  0.29118129  0.42437122  0.67348839  1.0
  C  C75  1  0.30249376  0.44258356  0.63182150  1.0
  C  C76  1  0.23963133  0.37361059  0.83476102  1.0
  C  C77  1  0.22351496  0.36450481  0.87633338  1.0
  C  C78  1  0.38923082  0.19010635  0.87923883  1.0
  C  C79  1  0.40558528  0.19836870  0.83767959  1.0
  C  C80  1  0.33068859  0.29020057  0.81461612  1.0
  C  C81  1  0.34555457  0.29893309  0.77222019  1.0
  C  C82  1  0.35685825  0.30859793  0.73552835  1.0
  C  C83  1  0.40667664  0.38917943  0.56577603  1.0
  C  C84  1  0.29782444  0.27253165  0.89904339  1.0
  C  C85  1  0.37057852  0.73793868  0.59236848  1.0
  C  C86  1  0.45748385  0.74498731  0.60898846  1.0
  C  C87  1  0.44674623  0.77149548  0.64851315  1.0
  C  C88  1  0.34786507  0.79296631  0.67190490  1.0
  C  C89  1  0.25867308  0.79163547  0.65451196  1.0
  C  C90  1  0.27037876  0.76338775  0.61510543  1.0
  C  C91  1  0.32320038  0.85093825  0.78952113  1.0
  C  C92  1  0.33947129  0.81275964  0.71460203  1.0
  C  C93  1  0.39552099  0.88986653  0.84813112  1.0
  C  C94  1  0.39168380  0.69387994  0.55204195  1.0
  C  C95  1  0.38272654  0.91706052  0.88772739  1.0
  C  C96  1  0.20225659  0.91942579  0.89483808  1.0
  C  C97  1  0.21468390  0.89207614  0.85536409  1.0
  C  C98  1  0.31125215  0.87773688  0.83153945  1.0
  C  C99  1  0.28575953  0.93287612  0.91121325  1.0
  C  C100  1  0.73900046  0.39101016  0.59386848  1.0
  C  C101  1  0.76848990  0.29164945  0.61697764  1.0
  C  C102  1  0.80518955  0.27858383  0.65534357  1.0
  C  C103  1  0.81085489  0.36563947  0.67131613  1.0
  C  C104  1  0.77862478  0.46607785  0.64847250  1.0
  C  C105  1  0.69537393  0.40609435  0.43745304  1.0
  C  C106  1  0.74412825  0.47810651  0.60984307  1.0
  C  C107  1  0.89191197  0.32769443  0.78652267  1.0
  C  C108  1  0.85157137  0.35099244  0.71148003  1.0
  C  C109  1  0.89585062  0.22907076  0.85510803  1.0
  C  C110  1  0.91522401  0.21848292  0.89590923  1.0
  C  C111  1  0.92911616  0.38871459  0.88893928  1.0
  C  C112  1  0.91169768  0.39853440  0.84824687  1.0
  C  C113  1  0.89843138  0.31836245  0.83026941  1.0
  C  C114  1  0.93365330  0.29669717  0.91254588  1.0
  C  C115  1  0.39780202  0.36777281  0.41137174  1.0
  C  C116  1  0.41481701  0.38506123  0.45268902  1.0
  C  C117  1  0.48224136  0.28345103  0.38994239  1.0
  C  C118  1  0.47298391  0.27697927  0.34948874  1.0
  C  C119  1  0.37903180  0.35535450  0.32973758  1.0
  C  C120  1  0.29318326  0.43774397  0.35157880  1.0
  C  C121  1  0.30260784  0.44378908  0.39203250  1.0
  C  C122  1  0.34933503  0.33406327  0.21224244  1.0
  C  C123  1  0.37170666  0.35328383  0.28639740  1.0
  C  C124  1  0.40887399  0.21933037  0.15344082  1.0
  C  C125  1  0.39232726  0.20079065  0.11530710  1.0
  C  C126  1  0.22135596  0.37062028  0.11360955  1.0
  C  C127  1  0.37367044  0.69484679  0.43956299  1.0
  C  C128  1  0.23697386  0.38877342  0.15189629  1.0
  C  C129  1  0.33153934  0.31375216  0.17206045  1.0
  C  C130  1  0.29898157  0.27677980  0.09494248  1.0
  C  C131  1  0.34148418  0.74723275  0.39853873  1.0
  C  C132  1  0.40581194  0.79515793  0.37848670  1.0
  C  C133  1  0.39749655  0.83285855  0.33801705  1.0
  C  C134  1  0.32431276  0.81516566  0.31555688  1.0
  C  C135  1  0.25600104  0.77147480  0.33572904  1.0
  C  C136  1  0.26075394  0.74101970  0.37682558  1.0
  C  C137  1  0.21095948  0.88917854  0.17705466  1.0
  C  C138  1  0.38937987  0.36325356  0.60932748  1.0
  C  C139  1  0.20068158  0.91450261  0.13580247  1.0
  C  C140  1  0.38274901  0.90970466  0.12855003  1.0
  C  C141  1  0.39309996  0.88486500  0.16975964  1.0
  C  C142  1  0.30802007  0.87462850  0.19482849  1.0
  C  C143  1  0.31537002  0.85263977  0.23681254  1.0
  C  C144  1  0.31954646  0.83697977  0.27336845  1.0
  C  C145  1  0.28605624  0.92532515  0.11154120  1.0
  C  C146  1  0.73657804  0.38007100  0.39526033  1.0
  C  C147  1  0.78154482  0.27292485  0.38357220  1.0
  C  C148  1  0.81451294  0.25206536  0.34351894  1.0
  C  C149  1  0.46443777  0.26464031  0.62845393  1.0
  C  C150  1  0.80243937  0.33801220  0.31429098  1.0
  C  C151  1  0.75633625  0.44688568  0.32601617  1.0
  C  C152  1  0.72405412  0.46595064  0.36635162  1.0
  C  C153  1  0.89631362  0.38564649  0.17130807  1.0
  C  C154  1  0.92491173  0.37509186  0.13041165  1.0
  C  C155  1  0.91324332  0.20406437  0.13584460  1.0
  C  C156  1  0.88541248  0.21354382  0.17668493  1.0
  C  C157  1  0.87790213  0.30384818  0.19514889  1.0
  C  C158  1  0.85284778  0.31157388  0.23700397  1.0
  C  C159  1  0.83191622  0.31887607  0.27319223  1.0
  C  C160  1  0.45275541  0.24587097  0.66986863  1.0
  C  C161  1  0.93478147  0.28379595  0.11247504  1.0
  C  C162  1  0.26483496  0.97261429  0.95231112  1.0
  C  C163  1  0.27442770  0.25651148  0.94280761  1.0
  C  C164  1  0.96985362  0.27303515  0.95450127  1.0
  C  C165  1  0.26621371  0.96364982  0.06848152  1.0
  C  C166  1  0.27699859  0.25404291  0.05528749  1.0
  C  C167  1  0.97598834  0.26434830  0.06984253  1.0
  C  C168  1  0.87554730  0.06561675  0.86218811  1.0
  C  C169  1  0.13593863  0.59966246  0.67960734  1.0
  C  C170  1  0.03262875  0.89481520  0.18653145  1.0
  C  C171  1  0.09937084  0.77069672  0.41868836  1.0
  C  C172  1  0.46376690  0.88780211  0.31981787  1.0
  C  C173  1  0.41903121  0.97710234  0.29128780  1.0
  C  C174  1  0.48174934  0.02865969  0.27399017  1.0
  C  C175  1  0.58972829  0.99343920  0.28530157  1.0
  C  C176  1  0.63463769  0.90552915  0.31402336  1.0
  C  C177  1  0.57245483  0.85297614  0.33100535  1.0
  C  C178  1  0.74056194  0.53791248  0.29520885  1.0
  C  C179  1  0.63379190  0.61228630  0.28385094  1.0
  C  C180  1  0.61898253  0.69514048  0.25364482  1.0
  C  C181  1  0.71046365  0.70542157  0.23485390  1.0
  C  C182  1  0.81720150  0.63228137  0.24632552  1.0
  C  C183  1  0.83226905  0.54856144  0.27615126  1.0
  N  N184  1  0.41555151  0.84187361  0.76711514  1.0
  N  N185  1  0.46216955  0.28405975  0.26489606  1.0
  N  N186  1  0.27793109  0.42813447  0.26888559  1.0
  N  N187  1  0.26669008  0.41854290  0.23122710  1.0
  N  N188  1  0.42364920  0.82276591  0.72902342  1.0
  N  N189  1  0.25126038  0.81356754  0.73774943  1.0
  N  N190  1  0.24287002  0.83328048  0.77580005  1.0
  N  N191  1  0.93041623  0.23615946  0.76633295  1.0
  N  N192  1  0.90941596  0.24815842  0.72809823  1.0
  N  N193  1  0.84223367  0.43924184  0.72861062  1.0
  N  N194  1  0.86266849  0.42754738  0.76685748  1.0
  N  N195  1  0.45054803  0.27393214  0.22720588  1.0
  O  O196  1  0.48108494  0.68068532  0.53267556  1.0
  O  O197  1  0.50765371  0.31949098  0.46774269  1.0
  O  O198  1  0.33967460  0.46819409  0.46979039  1.0
  O  O199  1  0.30775980  0.66461340  0.46192005  1.0
  O  O200  1  0.50421571  0.50278656  0.49957406  1.0
  O  O201  1  0.98343686  0.18283600  0.97240040  1.0
  O  O202  1  0.17114464  0.99447081  0.96985925  1.0
  O  O203  1  0.34204062  0.98650211  0.96650599  1.0
  O  O204  1  0.34337213  0.16915722  0.96175114  1.0
  O  O205  1  0.18375399  0.32731697  0.95908614  1.0
  O  O206  1  0.99093241  0.34381535  0.96906512  1.0
  O  O207  1  0.67428289  0.49778817  0.53327692  1.0
  O  O208  1  0.98997283  0.17598633  0.05710940  1.0
  O  O209  1  0.17391196  0.98294224  0.05579771  1.0
  O  O210  1  0.34269777  0.97974734  0.04700069  1.0
  O  O211  1  0.34311540  0.16200328  0.04139582  1.0
  O  O212  1  0.18990628  0.32588410  0.03834571  1.0
  O  O213  1  0.99934998  0.33662600  0.04907652  1.0
  O  O214  1  0.16305674  0.15680095  0.00788029  1.0
  O  O215  1  0.68045518  0.33002825  0.54173236  1.0
  O  O216  1  0.49661055  0.32448575  0.54728474  1.0
  O  O217  1  0.33290489  0.47842459  0.54939043  1.0
  O  O218  1  0.32026813  0.66706041  0.54059188  1.0
  O  O219  1  0.46743053  0.67889047  0.44944045  1.0
  O  O220  1  0.66613717  0.50230433  0.44666792  1.0
  O  O221  1  0.68838191  0.32993718  0.46181955  1.0
  O  O222  1  0.87312434  0.15823056  0.83770676  1.0
  O  O223  1  0.21157966  0.49667325  0.69786670  1.0
  O  O224  1  0.13220678  0.87874574  0.20306246  1.0
  O  O225  1  0.18999767  0.69944043  0.39322294  1.0
  O  O226  1  0.64374317  0.67738143  0.48286432  1.0
  O  O227  1  0.99258551  0.01175469  0.01822210  1.0
