# generated using pymatgen
data_Al2H6C18(SO4)3
_symmetry_space_group_name_H-M   'P 1'
_cell_length_a   3.97482246
_cell_length_b   16.14754765
_cell_length_c   16.14730352
_cell_angle_alpha   119.99912337
_cell_angle_beta   90.00180376
_cell_angle_gamma   90.00169136
_symmetry_Int_Tables_number   1
_chemical_formula_structural   Al2H6C18(SO4)3
_chemical_formula_sum   'Al2 H6 C18 S3 O12'
_cell_volume   897.55027791
_cell_formula_units_Z   1
loop_
 _symmetry_equiv_pos_site_id
 _symmetry_equiv_pos_as_xyz
  1  'x, y, z'
loop_
 _atom_site_type_symbol
 _atom_site_label
 _atom_site_symmetry_multiplicity
 _atom_site_fract_x
 _atom_site_fract_y
 _atom_site_fract_z
 _atom_site_occupancy
  Al  Al0  1  0.05386838  0.49999558  0.99999991  1.0
  Al  Al1  1  0.94607969  0.83333723  0.66667811  1.0
  H  H2  1  0.45294487  0.52967233  0.42766048  1.0
  H  H3  1  0.54733369  0.43535550  0.23901477  1.0
  H  H4  1  0.45275552  0.89797210  0.97032061  1.0
  H  H5  1  0.54709242  0.80365781  0.06466258  1.0
  H  H6  1  0.45294436  0.07233076  0.60200402  1.0
  H  H7  1  0.54727028  0.26098145  0.69633491  1.0
  C  C8  1  0.55142788  0.35655059  0.90133216  1.0
  C  C9  1  0.55144980  0.54479909  0.14345838  1.0
  C  C10  1  0.55145324  0.59866313  0.95520323  1.0
  C  C11  1  0.44849509  0.73467742  0.52321751  1.0
  C  C12  1  0.44857201  0.97678857  0.71146070  1.0
  C  C13  1  0.44851914  0.78854398  0.76533273  1.0
  C  C14  1  0.46226074  0.66056526  0.42089886  1.0
  C  C15  1  0.47307060  0.56264691  0.38334167  1.0
  C  C16  1  0.52707106  0.51266180  0.28334421  1.0
  C  C17  1  0.53768899  0.57301856  0.24578268  1.0
  C  C18  1  0.46236694  0.76032054  0.83942300  1.0
  C  C19  1  0.47297361  0.82067799  0.93734630  1.0
  C  C20  1  0.52696628  0.77069569  0.98735311  1.0
  C  C21  1  0.53772181  0.67277086  0.92698770  1.0
  C  C22  1  0.46233532  0.07910228  0.73967274  1.0
  C  C23  1  0.47306866  0.11666594  0.67931189  1.0
  C  C24  1  0.52707773  0.21665329  0.72930161  1.0
  C  C25  1  0.53769311  0.25422534  0.82723379  1.0
  S  S26  1  0.49992389  0.69084031  0.33334511  1.0
  S  S27  1  0.50010309  0.64250196  0.80915605  1.0
  S  S28  1  0.49999013  0.16666144  0.85749288  1.0
  O  O29  1  0.79004648  0.60444199  0.01061468  1.0
  O  O30  1  0.79001970  0.40617056  0.89553879  1.0
  O  O31  1  0.79002501  0.48938357  0.09383136  1.0
  O  O32  1  0.32156539  0.53475537  0.92293265  1.0
  O  O33  1  0.32155509  0.57706013  0.11182077  1.0
  O  O34  1  0.32156203  0.38816930  0.96522658  1.0
  O  O35  1  0.20994861  0.84395448  0.77113037  1.0
  O  O36  1  0.20989363  0.72888643  0.57283894  1.0
  O  O37  1  0.20991329  0.92717085  0.65605915  1.0
  O  O38  1  0.67836987  0.75627425  0.70142687  1.0
  O  O39  1  0.67841648  0.94515515  0.74374047  1.0
  O  O40  1  0.67834516  0.79858738  0.55486451  1.0
