# generated using pymatgen
data_AlH9C21(NO4)3
_symmetry_space_group_name_H-M   'P 1'
_cell_length_a   4.04974942
_cell_length_b   24.52392569
_cell_length_c   24.52399186
_cell_angle_alpha   59.99999176
_cell_angle_beta   89.99980723
_cell_angle_gamma   89.99930039
_symmetry_Int_Tables_number   1
_chemical_formula_structural   AlH9C21(NO4)3
_chemical_formula_sum   'Al2 H18 C42 N6 O24'
_cell_volume   2109.30752614
_cell_formula_units_Z   2
loop_
 _symmetry_equiv_pos_site_id
 _symmetry_equiv_pos_as_xyz
  1  'x, y, z'
loop_
 _atom_site_type_symbol
 _atom_site_label
 _atom_site_symmetry_multiplicity
 _atom_site_fract_x
 _atom_site_fract_y
 _atom_site_fract_z
 _atom_site_occupancy
  Al  Al0  1  0.99167919  0.49999671  0.00000520  1.0
  Al  Al1  1  0.99197039  0.16666306  0.66666988  1.0
  H  H2  1  0.42142203  0.26361576  0.29631322  1.0
  H  H3  1  0.42148783  0.40300047  0.37036241  1.0
  H  H4  1  0.65083476  0.17407666  0.50107495  1.0
  H  H5  1  0.69411340  0.22518870  0.38541183  1.0
  H  H6  1  0.65065656  0.49253660  0.16558529  1.0
  H  H7  1  0.69401786  0.44143174  0.28124609  1.0
  H  H8  1  0.42144122  0.44008271  0.76361117  1.0
  H  H9  1  0.42146961  0.22664894  0.90299517  1.0
  H  H10  1  0.65082252  0.32484932  0.67407412  1.0
  H  H11  1  0.69408749  0.38940542  0.72518094  1.0
  H  H12  1  0.65064164  0.34187896  0.99253386  1.0
  H  H13  1  0.69401510  0.27732645  0.94142465  1.0
  H  H14  1  0.42142650  0.79630750  0.94007367  1.0
  H  H15  1  0.42153233  0.87035470  0.72664094  1.0
  H  H16  1  0.65081525  0.00106680  0.82485550  1.0
  H  H17  1  0.69409503  0.88540417  0.88940509  1.0
  H  H18  1  0.65068842  0.66557299  0.84188949  1.0
  H  H19  1  0.69407036  0.78123420  0.77732994  1.0
  C  C20  1  0.49403551  0.59507661  0.96263443  1.0
  C  C21  1  0.49403463  0.44228645  0.09508565  1.0
  C  C22  1  0.49403556  0.46262679  0.94229264  1.0
  C  C23  1  0.49428423  0.22432959  0.57158108  1.0
  C  C24  1  0.49428330  0.20408755  0.72433407  1.0
  C  C25  1  0.49428829  0.07157315  0.70409210  1.0
  C  C26  1  0.51847860  0.40756165  0.16560181  1.0
  C  C27  1  0.51864822  0.25905165  0.50106541  1.0
  C  C28  1  0.46197330  0.34305977  0.20416171  1.0
  C  C29  1  0.48048838  0.31356324  0.26946277  1.0
  C  C30  1  0.46214652  0.32355468  0.46251160  1.0
  C  C31  1  0.48059423  0.35304641  0.39720865  1.0
  C  C32  1  0.60315130  0.22437342  0.47183965  1.0
  C  C33  1  0.62497454  0.25343203  0.40662900  1.0
  C  C34  1  0.60303783  0.44224321  0.19482057  1.0
  C  C35  1  0.62495310  0.41318850  0.26003312  1.0
  C  C36  1  0.55954108  0.34846506  0.29864715  1.0
  C  C37  1  0.55955377  0.31814765  0.36802762  1.0
  C  C38  1  0.51847577  0.42684000  0.90756269  1.0
  C  C39  1  0.51864364  0.23988594  0.75905133  1.0
  C  C40  1  0.46198315  0.45278786  0.84305827  1.0
  C  C41  1  0.48050442  0.41698351  0.81356081  1.0
  C  C42  1  0.46214011  0.21394185  0.82355423  1.0
  C  C43  1  0.48058162  0.24975406  0.85304322  1.0
  C  C44  1  0.60314421  0.30378975  0.72437067  1.0
  C  C45  1  0.62496617  0.33994712  0.75342461  1.0
  C  C46  1  0.60302119  0.36293893  0.94224004  1.0
  C  C47  1  0.62493774  0.32678566  0.91318188  1.0
  C  C48  1  0.55954087  0.35289910  0.84845806  1.0
  C  C49  1  0.55954507  0.31383656  0.81814132  1.0
  C  C50  1  0.51848673  0.66559209  0.92684355  1.0
  C  C51  1  0.51865243  0.00105788  0.73988817  1.0
  C  C52  1  0.46197786  0.70415168  0.95278706  1.0
  C  C53  1  0.48050050  0.76945363  0.91697876  1.0
  C  C54  1  0.46216623  0.96250196  0.71394123  1.0
  C  C55  1  0.48062119  0.89719915  0.74974954  1.0
  C  C56  1  0.60315390  0.97183245  0.80379263  1.0
  C  C57  1  0.62498683  0.90662066  0.83994654  1.0
  C  C58  1  0.60305457  0.69481091  0.86294422  1.0
  C  C59  1  0.62497002  0.76002219  0.82678798  1.0
  C  C60  1  0.55955936  0.79863624  0.85289580  1.0
  C  C61  1  0.55957705  0.86801670  0.81383349  1.0
  N  N62  1  0.36448749  0.30429695  0.17618410  1.0
  N  N63  1  0.36475115  0.36231837  0.49049196  1.0
  N  N64  1  0.36451588  0.51952877  0.80429727  1.0
  N  N65  1  0.36471878  0.14719877  0.86231752  1.0
  N  N66  1  0.36450298  0.67617749  0.01952746  1.0
  N  N67  1  0.36475993  0.99048602  0.64719699  1.0
  O  O68  1  0.25186762  0.44744930  0.97999926  1.0
  O  O69  1  0.25186101  0.57254785  0.94745904  1.0
  O  O70  1  0.25186545  0.47999304  0.07255606  1.0
  O  O71  1  0.72618197  0.50026417  0.93550074  1.0
  O  O72  1  0.72618784  0.43549409  0.06424068  1.0
  O  O73  1  0.72618144  0.56423056  0.00027437  1.0
  O  O74  1  0.25214640  0.09412320  0.71925037  1.0
  O  O75  1  0.25213949  0.18662203  0.59413075  1.0
  O  O76  1  0.25213485  0.21924385  0.68662681  1.0
  O  O77  1  0.72646244  0.10240203  0.66645373  1.0
  O  O78  1  0.72645697  0.16644900  0.73114449  1.0
  O  O79  1  0.72645604  0.23114006  0.60240927  1.0
  O  O80  1  0.28182271  0.33251765  0.11992889  1.0
  O  O81  1  0.36836104  0.24633578  0.21059822  1.0
  O  O82  1  0.28192667  0.33409734  0.54673675  1.0
  O  O83  1  0.36887315  0.42028484  0.45608679  1.0
  O  O84  1  0.28182056  0.54755988  0.83251778  1.0
  O  O85  1  0.36843442  0.54307932  0.74633339  1.0
  O  O86  1  0.28191153  0.11917326  0.83410077  1.0
  O  O87  1  0.36880814  0.12364144  0.92028516  1.0
  O  O88  1  0.28183538  0.61992161  0.04756348  1.0
  O  O89  1  0.36838814  0.71059290  0.04307251  1.0
  O  O90  1  0.28192140  0.04672988  0.61917514  1.0
  O  O91  1  0.36889007  0.95608322  0.62363405  1.0
