# generated using pymatgen
data_AlH9C21Br3NO6
_symmetry_space_group_name_H-M   'P 1'
_cell_length_a   4.12176815
_cell_length_b   23.39312575
_cell_length_c   23.39329638
_cell_angle_alpha   59.99861931
_cell_angle_beta   89.99762773
_cell_angle_gamma   89.99624729
_symmetry_Int_Tables_number   1
_chemical_formula_structural   AlH9C21Br3NO6
_chemical_formula_sum   'Al3 H27 C63 Br9 N3 O18'
_cell_volume   1953.38489852
_cell_formula_units_Z   3
loop_
 _symmetry_equiv_pos_site_id
 _symmetry_equiv_pos_as_xyz
  1  'x, y, z'
loop_
 _atom_site_type_symbol
 _atom_site_label
 _atom_site_symmetry_multiplicity
 _atom_site_fract_x
 _atom_site_fract_y
 _atom_site_fract_z
 _atom_site_occupancy
  Al  Al0  1  0.98923872  0.49970224  0.49982286  1.0
  Al  Al1  1  0.98911700  0.83381150  0.83304594  1.0
  Al  Al2  1  0.98947209  0.16648130  0.16715240  1.0
  H  H3  1  0.21224861  0.05321393  0.07849028  1.0
  H  H4  1  0.19833883  0.94883085  0.07683070  1.0
  H  H5  1  0.75271803  0.85523013  0.25730628  1.0
  H  H6  1  0.75268294  0.92397354  0.05411454  1.0
  H  H7  1  0.21199503  0.74516028  0.03499949  1.0
  H  H8  1  0.19826325  0.74350462  0.14103787  1.0
  H  H9  1  0.75270103  0.72079277  0.18858428  1.0
  H  H10  1  0.21200368  0.70164790  0.38652895  1.0
  H  H11  1  0.19822370  0.80769574  0.28214918  1.0
  H  H12  1  0.77726681  0.94618901  0.63383432  1.0
  H  H13  1  0.80110724  0.05009491  0.52730695  1.0
  H  H14  1  0.24686925  0.14653127  0.61128500  1.0
  H  H15  1  0.24689459  0.07552260  0.47984703  1.0
  H  H16  1  0.77752496  0.25330818  0.27954715  1.0
  H  H17  1  0.80119408  0.25592157  0.38345511  1.0
  H  H18  1  0.24691783  0.27797135  0.40885242  1.0
  H  H19  1  0.77736954  0.30047424  0.58664919  1.0
  H  H20  1  0.80113037  0.19395159  0.58926403  1.0
  H  H21  1  0.77601309  0.63384014  0.91938388  1.0
  H  H22  1  0.79361879  0.52731061  0.92211632  1.0
  H  H23  1  0.24011454  0.61220159  0.74157131  1.0
  H  H24  1  0.24016062  0.47954671  0.94553507  1.0
  H  H25  1  0.77632021  0.28012009  0.96715119  1.0
  H  H26  1  0.79380659  0.38392582  0.86062520  1.0
  H  H27  1  0.24017160  0.40824733  0.81289635  1.0
  H  H28  1  0.77613937  0.58606001  0.61344468  1.0
  H  H29  1  0.79370432  0.58878352  0.71724673  1.0
  C  C30  1  0.48768472  0.49712883  0.58868431  1.0
  C  C31  1  0.49432452  0.58741029  0.41269959  1.0
  C  C32  1  0.48796939  0.41372169  0.49739562  1.0
  C  C33  1  0.49421985  0.83321858  0.92075646  1.0
  C  C34  1  0.48758086  0.74753431  0.83044770  1.0
  C  C35  1  0.48784336  0.92222411  0.74706792  1.0
  C  C36  1  0.49458350  0.07935749  0.16657150  1.0
  C  C37  1  0.48789514  0.25533865  0.08085840  1.0
  C  C38  1  0.48817503  0.16405663  0.25555569  1.0
  C  C39  1  0.33559210  0.00985099  0.11723454  1.0
  C  C40  1  0.32443753  0.95077978  0.11664351  1.0
  C  C41  1  0.47748537  0.89399921  0.16668248  1.0
  C  C42  1  0.63466128  0.89828898  0.21755004  1.0
  C  C43  1  0.63414607  0.95719143  0.21864442  1.0
  C  C44  1  0.49218569  0.01444533  0.16798188  1.0
  C  C45  1  0.63456388  0.88421892  0.05082220  1.0
  C  C46  1  0.63394595  0.88530983  0.99082688  1.0
  C  C47  1  0.49193412  0.83464464  0.98425114  1.0
  C  C48  1  0.33537642  0.78390394  0.03960266  1.0
  C  C49  1  0.32432098  0.78331470  0.09926647  1.0
  C  C50  1  0.47741795  0.83335293  0.10599535  1.0
  C  C51  1  0.63458228  0.71749199  0.23163203  1.0
  C  C52  1  0.63400143  0.65749528  0.29053729  1.0
  C  C53  1  0.49196956  0.65091387  0.34777991  1.0
  C  C54  1  0.33537482  0.70625820  0.34317865  1.0
  C  C55  1  0.32430057  0.76592426  0.28410533  1.0
  C  C56  1  0.47740016  0.77266074  0.22733238  1.0
  C  C57  1  0.65739116  0.99015362  0.62851981  1.0
  C  C58  1  0.67380779  0.04892166  0.56860572  1.0
  C  C59  1  0.52371970  0.10633240  0.56095320  1.0
  C  C60  1  0.36360310  0.10301588  0.61539685  1.0
  C  C61  1  0.35892166  0.04443287  0.67563175  1.0
  C  C62  1  0.49847309  0.98662236  0.68318411  1.0
  C  C63  1  0.36369202  0.11492009  0.43634381  1.0
  C  C64  1  0.35914520  0.11327435  0.37775951  1.0
  C  C65  1  0.49873596  0.16353580  0.31996265  1.0
  C  C66  1  0.65761461  0.21466394  0.32349664  1.0
  C  C67  1  0.67393071  0.21580318  0.38226703  1.0
  C  C68  1  0.52377163  0.16604133  0.43967264  1.0
  C  C69  1  0.36364886  0.28207396  0.44825056  1.0
  C  C70  1  0.35900686  0.34229983  0.44661342  1.0
  C  C71  1  0.49857332  0.34983619  0.49687298  1.0
  C  C72  1  0.65750163  0.29517068  0.54800201  1.0
  C  C73  1  0.67385705  0.23526362  0.54913644  1.0
  C  C74  1  0.52375381  0.22761970  0.49937570  1.0
  C  C75  1  0.65420180  0.62875428  0.88077191  1.0
  C  C76  1  0.66701991  0.56875394  0.88201327  1.0
  C  C77  1  0.51485927  0.56119691  0.83238607  1.0
  C  C78  1  0.35728959  0.61604111  0.78109288  1.0
  C  C79  1  0.35589134  0.67634545  0.77939725  1.0
  C  C80  1  0.49670971  0.68370163  0.82968107  1.0
  C  C81  1  0.35739911  0.43619471  0.94937628  1.0
  C  C82  1  0.35610085  0.37758444  0.00967474  1.0
  C  C83  1  0.49697939  0.31994276  0.01701871  1.0
  C  C84  1  0.65446001  0.32380383  0.96207502  1.0
  C  C85  1  0.66720832  0.38256894  0.90208033  1.0
  C  C86  1  0.51495128  0.43975609  0.89452765  1.0
  C  C87  1  0.35735231  0.44776576  0.76953442  1.0
  C  C88  1  0.35600802  0.44607359  0.71092673  1.0
  C  C89  1  0.49680212  0.49636711  0.65328012  1.0
  C  C90  1  0.65428328  0.54745232  0.65713866  1.0
  C  C91  1  0.66708389  0.54868685  0.71589775  1.0
  C  C92  1  0.51488442  0.49905335  0.77308658  1.0
  Br  Br93  1  0.82351503  0.95684962  0.29284010  1.0
  Br  Br94  1  0.82324114  0.95949800  0.91695234  1.0
  Br  Br95  1  0.82340901  0.58363292  0.29021135  1.0
  Br  Br96  1  0.16405972  0.04581591  0.74855007  1.0
  Br  Br97  1  0.16443111  0.03897480  0.37911940  1.0
  Br  Br98  1  0.16412740  0.41523095  0.37232281  1.0
  Br  Br99  1  0.16373393  0.74978053  0.70498460  1.0
  Br  Br100  1  0.16407510  0.37854692  0.08312436  1.0
  Br  Br101  1  0.16401370  0.37164964  0.71190595  1.0
  N  N102  1  0.47123426  0.83334151  0.16666753  1.0
  N  N103  1  0.53446627  0.16666233  0.50000434  1.0
  N  N104  1  0.52183062  0.50000471  0.83332862  1.0
  O  O105  1  0.72133864  0.45360400  0.46979691  1.0
  O  O106  1  0.72106175  0.46961835  0.57631853  1.0
  O  O107  1  0.72966724  0.57821489  0.45180934  1.0
  O  O108  1  0.24880498  0.42216872  0.52692193  1.0
  O  O109  1  0.25725679  0.54859510  0.42431168  1.0
  O  O110  1  0.24896592  0.52676560  0.55063777  1.0
  O  O111  1  0.24868719  0.88425733  0.75551435  1.0
  O  O112  1  0.25710282  0.86041940  0.88194870  1.0
  O  O113  1  0.24886043  0.75594085  0.86008702  1.0
  O  O114  1  0.72118254  0.90994018  0.78695722  1.0
  O  O115  1  0.72093312  0.78741216  0.80294270  1.0
  O  O116  1  0.72954513  0.80329776  0.91155625  1.0
  O  O117  1  0.24903166  0.19358382  0.21758232  1.0
  O  O118  1  0.25751742  0.09096957  0.19378172  1.0
  O  O119  1  0.24919754  0.21728945  0.08927208  1.0
  O  O120  1  0.72157389  0.13645533  0.24327807  1.0
  O  O121  1  0.72127558  0.24297724  0.12073001  1.0
  O  O122  1  0.72994746  0.11846288  0.13666133  1.0
