# generated using pymatgen
data_Zn3H28(C10O3)4
_symmetry_space_group_name_H-M   'P 1'
_cell_length_a   21.95173011
_cell_length_b   21.96030641
_cell_length_c   22.18677529
_cell_angle_alpha   60.55172070
_cell_angle_beta   60.81654789
_cell_angle_gamma   89.92500893
_symmetry_Int_Tables_number   1
_chemical_formula_structural   Zn3H28(C10O3)4
_chemical_formula_sum   'Zn6 H56 C80 O24'
_cell_volume   7721.21528511
_cell_formula_units_Z   2
loop_
 _symmetry_equiv_pos_site_id
 _symmetry_equiv_pos_as_xyz
  1  'x, y, z'
loop_
 _atom_site_type_symbol
 _atom_site_label
 _atom_site_symmetry_multiplicity
 _atom_site_fract_x
 _atom_site_fract_y
 _atom_site_fract_z
 _atom_site_occupancy
  Zn  Zn0  1  0.94204323  0.50236807  0.49885863  1.0
  Zn  Zn1  1  0.05795522  0.49762901  0.50113194  1.0
  Zn  Zn2  1  0.50204627  0.05781692  0.50125908  1.0
  Zn  Zn3  1  0.49794604  0.94219060  0.49873119  1.0
  Zn  Zn4  1  0.95763906  0.95802954  0.57973521  1.0
  Zn  Zn5  1  0.04234876  0.04196528  0.42027239  1.0
  H  H6  1  0.08936479  0.04800111  0.71141590  1.0
  H  H7  1  0.35991217  0.72649144  0.92507331  1.0
  H  H8  1  0.70030912  0.11430742  0.07212040  1.0
  H  H9  1  0.30028288  0.88562832  0.92781601  1.0
  H  H10  1  0.12885242  0.69938544  0.36814372  1.0
  H  H11  1  0.87114772  0.30061213  0.63186158  1.0
  H  H12  1  0.24260900  0.80403092  0.26414633  1.0
  H  H13  1  0.75738727  0.19597102  0.73586411  1.0
  H  H14  1  0.25169912  0.91386659  0.27101621  1.0
  H  H15  1  0.74829142  0.08613370  0.72899735  1.0
  H  H16  1  0.14384320  0.92076112  0.37686969  1.0
  H  H17  1  0.91062764  0.95201023  0.28858283  1.0
  H  H18  1  0.85614563  0.07923532  0.62314430  1.0
  H  H19  1  0.08177957  0.03316608  0.61208117  1.0
  H  H20  1  0.91821272  0.96683975  0.38791895  1.0
  H  H21  1  0.89907956  0.75580420  0.60628712  1.0
  H  H22  1  0.10090380  0.24418626  0.39371257  1.0
  H  H23  1  0.23961817  0.98684870  0.40559499  1.0
  H  H24  1  0.76036282  0.01315769  0.59440579  1.0
  H  H25  1  0.34948619  0.97686971  0.41322218  1.0
  H  H26  1  0.65049366  0.02312292  0.58678400  1.0
  H  H27  1  0.30018073  0.01229824  0.62809317  1.0
  H  H28  1  0.77602503  0.18825987  0.92611053  1.0
  H  H29  1  0.69980588  0.98769603  0.37191393  1.0
  H  H30  1  0.19724266  0.03353380  0.72260707  1.0
  H  H31  1  0.80274999  0.96647150  0.27738998  1.0
  H  H32  1  0.78122581  0.38318976  0.92817928  1.0
  H  H33  1  0.21816959  0.61680401  0.07182473  1.0
  H  H34  1  0.87587003  0.24013664  0.92795370  1.0
  H  H35  1  0.12438495  0.76039721  0.07201452  1.0
  H  H36  1  0.88087037  0.32076391  0.92711360  1.0
  H  H37  1  0.11896249  0.67976375  0.07290101  1.0
  H  H38  1  0.80598178  0.25330805  0.07112065  1.0
  H  H39  1  0.22456857  0.81171645  0.07384195  1.0
  H  H40  1  0.19383778  0.74719002  0.92887367  1.0
  H  H41  1  0.70802846  0.23105904  0.92505725  1.0
  H  H42  1  0.29233876  0.76854488  0.07488521  1.0
  H  H43  1  0.88246577  0.57324437  0.65709007  1.0
  H  H44  1  0.83469433  0.63454057  0.67414112  1.0
  H  H45  1  0.84313110  0.61679175  0.60061607  1.0
  H  H46  1  0.11752922  0.42674829  0.34290656  1.0
  H  H47  1  0.15686356  0.38319816  0.39938205  1.0
  H  H48  1  0.16529652  0.36544713  0.32585855  1.0
  H  H49  1  0.71227984  0.30907434  0.07403587  1.0
  H  H50  1  0.63483906  0.16042842  0.07088118  1.0
  H  H51  1  0.28720390  0.69089518  0.92598926  1.0
  H  H52  1  0.80767993  0.11778411  0.06266808  1.0
  H  H53  1  0.87471674  0.16532308  0.06039612  1.0
  H  H54  1  0.78379290  0.11764665  0.15195983  1.0
  H  H55  1  0.19293927  0.88267217  0.93732397  1.0
  H  H56  1  0.21656104  0.88294925  0.84801459  1.0
  H  H57  1  0.12562469  0.83553204  0.93959439  1.0
  H  H58  1  0.36550919  0.83915132  0.92906589  1.0
  H  H59  1  0.70990197  0.34480043  0.92900125  1.0
  H  H60  1  0.28970621  0.65471465  0.07105530  1.0
  H  H61  1  0.63975225  0.27307042  0.07496013  1.0
  C  C62  1  0.99985171  0.61891854  0.49795143  1.0
  C  C63  1  0.28738192  0.79305482  0.91824224  1.0
  C  C64  1  0.69338172  0.16911363  0.04717639  1.0
  C  C65  1  0.30698210  0.83071991  0.95276914  1.0
  C  C66  1  0.74184988  0.21730941  0.95065388  1.0
  C  C67  1  0.25851878  0.78255489  0.04929065  1.0
  C  C68  1  0.66677751  0.16182317  0.17226945  1.0
  C  C69  1  0.33325450  0.83816951  0.82772381  1.0
  C  C70  1  0.83726223  0.33550014  0.82802296  1.0
  C  C71  1  0.16274563  0.66455246  0.17196009  1.0
  C  C72  1  0.87419771  0.37421089  0.75214054  1.0
  C  C73  1  0.00016566  0.38107243  0.50205689  1.0
  C  C74  1  0.12579014  0.62580922  0.24786065  1.0
  C  C75  1  0.13137998  0.74767517  0.37040135  1.0
  C  C76  1  0.86862015  0.25231908  0.62961097  1.0
  C  C77  1  0.91916424  0.41961652  0.66238189  1.0
  C  C78  1  0.08080951  0.58038163  0.33761643  1.0
  C  C79  1  0.19539843  0.80624267  0.31234583  1.0
  C  C80  1  0.80459840  0.19375267  0.68766755  1.0
  C  C81  1  0.20029487  0.86843210  0.31582113  1.0
  C  C82  1  0.79969656  0.13156269  0.68419511  1.0
  C  C83  1  0.14020690  0.87226592  0.37532623  1.0
  C  C84  1  0.62701766  0.12473561  0.24807700  1.0
  C  C85  1  0.85978262  0.12773107  0.62468761  1.0
  C  C86  1  0.07265345  0.81367325  0.43507454  1.0
  C  C87  1  0.92733799  0.18632320  0.56493729  1.0
  C  C88  1  0.06896898  0.74864301  0.43440443  1.0
  C  C89  1  0.93102907  0.25135123  0.56561025  1.0
  C  C90  1  0.00284603  0.68748123  0.49700925  1.0
  C  C91  1  0.99715500  0.31250751  0.50300711  1.0
  C  C92  1  0.94162267  0.68912124  0.55886552  1.0
  C  C93  1  0.05837127  0.31086644  0.44114169  1.0
  C  C94  1  0.94634192  0.75349840  0.55825387  1.0
  C  C95  1  0.37298333  0.87527633  0.75190832  1.0
  C  C96  1  0.05364766  0.24649369  0.44174879  1.0
  C  C97  1  0.00864343  0.81462393  0.49830375  1.0
  C  C98  1  0.99134665  0.18536812  0.50170771  1.0
  C  C99  1  0.30458063  0.98774051  0.45392248  1.0
  C  C100  1  0.69540128  0.01225375  0.54608597  1.0
  C  C101  1  0.12967987  0.02854581  0.61515907  1.0
  C  C102  1  0.87031051  0.97145892  0.38484295  1.0
  C  C103  1  0.30980098  0.99729394  0.50866125  1.0
  C  C104  1  0.69018649  0.00270309  0.49134229  1.0
  C  C105  1  0.37967109  0.99618623  0.50470969  1.0
  C  C106  1  0.79299815  0.28964371  0.91855021  1.0
  C  C107  1  0.62031817  0.00380644  0.49528745  1.0
  C  C108  1  0.58042279  0.07945223  0.33778718  1.0
  C  C109  1  0.41956651  0.92056409  0.66220208  1.0
  C  C110  1  0.11932331  0.00567411  0.49772180  1.0
  C  C111  1  0.88066289  0.99432895  0.50228393  1.0
  C  C112  1  0.00433242  0.88082346  0.50179115  1.0
  C  C113  1  0.99565348  0.11917025  0.49821972  1.0
  C  C114  1  0.18703974  0.01381556  0.56148559  1.0
  C  C115  1  0.81294960  0.98618917  0.43851602  1.0
  C  C116  1  0.25256417  0.01649080  0.62440413  1.0
  C  C117  1  0.20701576  0.71040499  0.08144533  1.0
  C  C118  1  0.74742433  0.98350623  0.37560026  1.0
  C  C119  1  0.19506225  0.02886472  0.67689776  1.0
  C  C120  1  0.80492780  0.97113727  0.32310349  1.0
  C  C121  1  0.13379586  0.03628358  0.67119078  1.0
  C  C122  1  0.86619710  0.96372776  0.32880635  1.0
  C  C123  1  0.24279542  0.99304274  0.44989874  1.0
  C  C124  1  0.75718959  0.00695979  0.55010332  1.0
  C  C125  1  0.18466399  0.00499704  0.50284936  1.0
  C  C126  1  0.81532084  0.99500493  0.49715441  1.0
  C  C127  1  0.25116508  0.00997506  0.56437472  1.0
  C  C128  1  0.69868021  0.28247531  0.04929761  1.0
  C  C129  1  0.74882463  0.99002748  0.43562508  1.0
  C  C130  1  0.74507948  0.33095506  0.95281547  1.0
  C  C131  1  0.25456117  0.66886993  0.04721956  1.0
  C  C132  1  0.84242315  0.26978666  0.95219405  1.0
  C  C133  1  0.15761437  0.73061581  0.04780220  1.0
  C  C134  1  0.79585179  0.22158581  0.04913131  1.0
  C  C135  1  0.20420532  0.77880076  0.95085374  1.0
  C  C136  1  0.87174936  0.62508376  0.62636358  1.0
  C  C137  1  0.12824183  0.37490505  0.37363630  1.0
  C  C138  1  0.81628880  0.15139074  0.08338819  1.0
  C  C139  1  0.30100698  0.71735685  0.95073096  1.0
  C  C140  1  0.18406883  0.84919857  0.91658585  1.0
  C  C141  1  0.71265876  0.20694393  0.08174390  1.0
  O  O142  1  0.94812287  0.59518773  0.49606614  1.0
  O  O143  1  0.95113457  0.41121753  0.49844135  1.0
  O  O144  1  0.88549829  0.43939617  0.62542868  1.0
  O  O145  1  0.11446576  0.56059426  0.37457851  1.0
  O  O146  1  0.98870402  0.43609713  0.62746476  1.0
  O  O147  1  0.01126585  0.56388510  0.37253007  1.0
  O  O148  1  0.40901260  0.04684086  0.50422915  1.0
  O  O149  1  0.59098553  0.95315514  0.49575850  1.0
  O  O150  1  0.40593142  0.94556694  0.49987754  1.0
  O  O151  1  0.59404881  0.05442020  0.50012796  1.0
  O  O152  1  0.56310871  0.11251807  0.37503812  1.0
  O  O153  1  0.05190048  0.40479890  0.50392880  1.0
  O  O154  1  0.43688823  0.88750266  0.62494578  1.0
  O  O155  1  0.56070584  0.00976674  0.37231584  1.0
  O  O156  1  0.43927043  0.99024791  0.62767870  1.0
  O  O157  1  0.05591899  0.96923329  0.56633723  1.0
  O  O158  1  0.94406774  0.03076813  0.43366905  1.0
  O  O159  1  0.13202794  0.04127975  0.42451342  1.0
  O  O160  1  0.86795932  0.95872167  0.57549124  1.0
  O  O161  1  0.96447885  0.86949938  0.57407287  1.0
  O  O162  1  0.03550618  0.13049487  0.42593769  1.0
  O  O163  1  0.03888583  0.94423722  0.43242073  1.0
  O  O164  1  0.96109869  0.05575539  0.56759134  1.0
  O  O165  1  0.04887598  0.58877671  0.50157454  1.0
