# generated using pymatgen
data_AlH5C13N3O11
_symmetry_space_group_name_H-M   'P 1'
_cell_length_a   6.80873998
_cell_length_b   11.09162434
_cell_length_c   15.19626051
_cell_angle_alpha   83.90200944
_cell_angle_beta   78.74996925
_cell_angle_gamma   73.73149227
_symmetry_Int_Tables_number   1
_chemical_formula_structural   AlH5C13N3O11
_chemical_formula_sum   'Al2 H10 C26 N6 O22'
_cell_volume   1078.87909549
_cell_formula_units_Z   2
loop_
 _symmetry_equiv_pos_site_id
 _symmetry_equiv_pos_as_xyz
  1  'x, y, z'
loop_
 _atom_site_type_symbol
 _atom_site_label
 _atom_site_symmetry_multiplicity
 _atom_site_fract_x
 _atom_site_fract_y
 _atom_site_fract_z
 _atom_site_occupancy
  Al  Al0  1  0.50856517  0.50004094  0.49306016  1.0
  Al  Al1  1  0.00546136  0.50770614  0.49409404  1.0
  H  H2  1  0.26596042  0.59491057  0.39120895  1.0
  H  H3  1  0.73762762  0.44006877  0.60238456  1.0
  H  H4  1  0.27132446  0.53354498  0.06123284  1.0
  H  H5  1  0.71517715  0.55471995  0.92602450  1.0
  H  H6  1  0.44867094  0.43606579  0.77133031  1.0
  H  H7  1  0.37120393  0.42338345  0.93735556  1.0
  H  H8  1  0.61594848  0.44204648  0.22045269  1.0
  H  H9  1  0.70022868  0.43985031  0.05386598  1.0
  H  H10  1  0.84589507  0.76727293  0.61506013  1.0
  H  H11  1  0.56975902  0.23245379  0.62985471  1.0
  C  C12  1  0.64240944  0.72912875  0.49623622  1.0
  C  C13  1  0.83670560  0.48884478  0.33462132  1.0
  C  C14  1  0.35815672  0.27804473  0.50045093  1.0
  C  C15  1  0.18048521  0.50676198  0.65444003  1.0
  C  C16  1  0.89219878  0.48554409  0.23474166  1.0
  C  C17  1  0.13149187  0.49527640  0.75447658  1.0
  C  C18  1  0.07913678  0.50557384  0.18725753  1.0
  C  C19  1  0.12720507  0.51187237  0.09427511  1.0
  C  C20  1  0.92693428  0.52250896  0.80146965  1.0
  C  C21  1  0.87766981  0.52632678  0.89409161  1.0
  C  C22  1  0.28890409  0.46113165  0.80626052  1.0
  C  C23  1  0.24395846  0.45715617  0.89949870  1.0
  C  C24  1  0.75700641  0.46351867  0.18393034  1.0
  C  C25  1  0.80468889  0.46399797  0.09087438  1.0
  C  C26  1  0.98840375  0.49079983  0.04407288  1.0
  C  C27  1  0.03793936  0.49270445  0.94520823  1.0
  C  C28  1  0.56701166  0.86985447  0.50240342  1.0
  C  C29  1  0.63991025  0.93442862  0.56026928  1.0
  C  C30  1  0.41554865  0.93792938  0.45415578  1.0
  C  C31  1  0.78333376  0.86866712  0.61671054  1.0
  C  C32  1  0.84045815  0.93218545  0.67593802  1.0
  C  C33  1  0.41692965  0.13640349  0.50782666  1.0
  C  C34  1  0.33785213  0.06935078  0.45829772  1.0
  C  C35  1  0.56256547  0.06869252  0.56362325  1.0
  C  C36  1  0.62561160  0.13095673  0.62587459  1.0
  C  C37  1  0.75899140  0.06365301  0.68136837  1.0
  N  N38  1  0.24067937  0.51120394  0.23679165  1.0
  N  N39  1  0.75295739  0.53848494  0.75375706  1.0
  N  N40  1  0.17899850  0.13560284  0.40222684  1.0
  N  N41  1  0.33950420  0.87322914  0.39243934  1.0
  N  N42  1  0.97237978  0.85864202  0.73950457  1.0
  N  N43  1  0.82616776  0.13291739  0.74258534  1.0
  O  O44  1  0.49994247  0.67408016  0.50168588  1.0
  O  O45  1  0.98318327  0.48747641  0.37577502  1.0
  O  O46  1  0.16623112  0.33349105  0.50752124  1.0
  O  O47  1  0.36995526  0.48709580  0.61741580  1.0
  O  O48  1  0.50958009  0.32673990  0.48858241  1.0
  O  O49  1  0.02619295  0.53623087  0.61301643  1.0
  O  O50  1  0.83697960  0.68117580  0.48639956  1.0
  O  O51  1  0.64973209  0.49582129  0.37080868  1.0
  O  O52  1  0.25280631  0.55587017  0.45198819  1.0
  O  O53  1  0.76184968  0.45388061  0.53693305  1.0
  O  O54  1  0.35295777  0.40763151  0.25740117  1.0
  O  O55  1  0.25617266  0.61510587  0.25250396  1.0
  O  O56  1  0.74281828  0.43988459  0.72493154  1.0
  O  O57  1  0.62684704  0.64212704  0.74911358  1.0
  O  O58  1  0.24705936  0.16334358  0.32343467  1.0
  O  O59  1  0.99575816  0.15515572  0.43829349  1.0
  O  O60  1  0.15106915  0.88287760  0.40612909  1.0
  O  O61  1  0.47067893  0.81674414  0.33197101  1.0
  O  O62  1  0.11801302  0.76949219  0.71027449  1.0
  O  O63  1  0.92386824  0.89012887  0.81830165  1.0
  O  O64  1  0.68868746  0.19919882  0.79617328  1.0
  O  O65  1  0.01518418  0.12087548  0.73352681  1.0
