# generated using pymatgen
data_Zn2H16C21(N2O)5
_symmetry_space_group_name_H-M   'P 1'
_cell_length_a   14.60648200
_cell_length_b   14.88780929
_cell_length_c   14.90917435
_cell_angle_alpha   84.69305475
_cell_angle_beta   61.70322128
_cell_angle_gamma   61.84303781
_symmetry_Int_Tables_number   1
_chemical_formula_structural   Zn2H16C21(N2O)5
_chemical_formula_sum   'Zn4 H32 C42 N20 O10'
_cell_volume   2480.66821829
_cell_formula_units_Z   2
loop_
 _symmetry_equiv_pos_site_id
 _symmetry_equiv_pos_as_xyz
  1  'x, y, z'
loop_
 _atom_site_type_symbol
 _atom_site_label
 _atom_site_symmetry_multiplicity
 _atom_site_fract_x
 _atom_site_fract_y
 _atom_site_fract_z
 _atom_site_occupancy
  Zn  Zn104  1  0.66449480  0.85717901  0.84974719  1.0
  Zn  Zn105  1  0.33522339  0.15040718  0.14285317  1.0
  Zn  Zn106  1  0.65500707  0.00427250  0.01156819  1.0
  Zn  Zn107  1  0.34469756  0.98840121  0.99616044  1.0
  H  H42  1  0.69280399  0.66064376  0.96903673  1.0
  H  H43  1  0.30721075  0.03122101  0.33930983  1.0
  H  H44  1  0.70067095  0.05352841  0.20932838  1.0
  H  H45  1  0.29909942  0.79062376  0.94619901  1.0
  H  H46  1  0.35768457  0.80425233  0.13377230  1.0
  H  H47  1  0.64228848  0.86672014  0.19551652  1.0
  H  H48  1  0.68634673  0.00292672  0.67770100  1.0
  H  H49  1  0.31348337  0.32196107  0.99699383  1.0
  H  H50  1  0.92301507  0.99044668  0.86806180  1.0
  H  H51  1  0.07774054  0.13217713  0.00860830  1.0
  H  H52  1  0.30060329  0.14788908  0.84600443  1.0
  H  H53  1  0.69921310  0.15469020  0.85176463  1.0
  H  H54  1  0.68483993  0.32425759  0.78695123  1.0
  H  H55  1  0.31492913  0.21227269  0.67591140  1.0
  H  H56  1  0.41215193  0.43005490  0.88171419  1.0
  H  H57  1  0.58766465  0.11799514  0.57000929  1.0
  H  H58  1  0.67787741  0.48422203  0.76239946  1.0
  H  H59  1  0.32186816  0.23665390  0.51621922  1.0
  H  H60  1  0.14074408  0.78734416  0.53077996  1.0
  H  H61  1  0.85933479  0.46956645  0.21247421  1.0
  H  H62  1  0.21987786  0.95470975  0.47817193  1.0
  H  H63  1  0.78080576  0.52192031  0.04507757  1.0
  H  H64  1  0.07755521  0.98144866  0.65493035  1.0
  H  H65  1  0.92344825  0.34532989  0.01801526  1.0
  H  H66  1  0.27480637  0.77368910  0.34109704  1.0
  H  H67  1  0.72494970  0.65930423  0.22628961  1.0
  H  H68  1  0.99370864  0.51374079  0.14524599  1.0
  H  H69  1  0.12976790  0.42843323  0.03490232  1.0
  H  H70  1  0.13281804  0.48497518  0.13449601  1.0
  H  H71  1  0.00668838  0.85602885  0.48688727  1.0
  H  H72  1  0.86988581  0.96593646  0.57205186  1.0
  H  H73  1  0.86829001  0.86590119  0.51456037  1.0
  C  C0  1  0.67571783  0.72441999  0.01549702  1.0
  C  C1  1  0.32422229  0.98470705  0.27563660  1.0
  C  C2  1  0.60884767  0.09309453  0.22556887  1.0
  C  C3  1  0.39097685  0.77441164  0.90671836  1.0
  C  C4  1  0.41415104  0.18068276  0.29056569  1.0
  C  C5  1  0.58570800  0.70956382  0.81911638  1.0
  C  C6  1  0.35017425  0.86888832  0.17059960  1.0
  C  C7  1  0.64972410  0.82970386  0.13108399  1.0
  C  C8  1  0.67946215  0.72671974  0.10807339  1.0
  C  C9  1  0.32055096  0.89195859  0.27344034  1.0
  C  C10  1  0.50395452  0.15225901  0.31920555  1.0
  C  C11  1  0.49584272  0.68093487  0.84718962  1.0
  C  C12  1  0.59311131  0.02937218  0.73238181  1.0
  C  C13  1  0.40670032  0.26750496  0.97059703  1.0
  C  C14  1  0.90265688  0.95211838  0.82715926  1.0
  C  C15  1  0.09779205  0.17311263  0.04725830  1.0
  C  C16  1  0.10399594  0.28575416  0.12757645  1.0
  C  C17  1  0.89604150  0.87247488  0.71438719  1.0
  C  C18  1  0.39604330  0.10283930  0.81698376  1.0
  C  C19  1  0.60378166  0.18341574  0.89691267  1.0
  C  C20  1  0.49183063  0.10049029  0.72400185  1.0
  C  C21  1  0.50791016  0.27612538  0.89930808  1.0
  C  C22  1  0.96497448  0.91134648  0.72131221  1.0
  C  C23  1  0.03552582  0.27897957  0.08816063  1.0
  C  C24  1  0.59543512  0.38907309  0.81117361  1.0
  C  C25  1  0.40439328  0.18814733  0.61107517  1.0
  C  C26  1  0.50230688  0.36915263  0.86061738  1.0
  C  C27  1  0.49740902  0.13905068  0.63097186  1.0
  C  C28  1  0.59185533  0.48690569  0.79813455  1.0
  C  C29  1  0.40794154  0.20096375  0.51332038  1.0
  C  C30  1  0.49795345  0.58541245  0.83439246  1.0
  C  C31  1  0.50183885  0.16466864  0.41472623  1.0
  C  C32  1  0.27573233  0.84271584  0.35932207  1.0
  C  C33  1  0.72436617  0.64089150  0.15721498  1.0
  C  C34  1  0.22066712  0.88456371  0.46019150  1.0
  C  C35  1  0.77977877  0.53995323  0.11525614  1.0
  C  C36  1  0.06724117  0.91686087  0.64041603  1.0
  C  C37  1  0.93340367  0.35989791  0.08272512  1.0
  C  C38  1  0.14464828  0.85566538  0.54578307  1.0
  C  C39  1  0.85571586  0.45446216  0.14409798  1.0
  C  C40  1  0.08646537  0.45373378  0.11849958  1.0
  C  C41  1  0.91380696  0.88227650  0.54648156  1.0
  N  N74  1  0.64864526  0.81732434  0.98594642  1.0
  N  N75  1  0.35119385  0.01426325  0.18276829  1.0
  N  N76  1  0.58152171  0.08725209  0.15224866  1.0
  N  N77  1  0.41839379  0.84764113  0.91308980  1.0
  N  N78  1  0.46340274  0.14039035  0.19134375  1.0
  N  N79  1  0.53653744  0.80863522  0.85993444  1.0
  N  N80  1  0.36721133  0.94324137  0.11758796  1.0
  N  N81  1  0.63258418  0.88263880  0.05685378  1.0
  N  N82  1  0.56043523  0.99129063  0.82010092  1.0
  N  N83  1  0.43947099  0.17989209  0.00876315  1.0
  N  N84  1  0.80850084  0.93603695  0.87845132  1.0
  N  N85  1  0.19143311  0.12172151  0.06379505  1.0
  N  N86  1  0.19584091  0.19213198  0.11306485  1.0
  N  N87  1  0.80388151  0.88714132  0.80797852  1.0
  N  N88  1  0.43865912  0.03706148  0.87260447  1.0
  N  N89  1  0.56124943  0.12769286  0.96288263  1.0
  N  N90  1  0.37500732  0.60061298  0.88094043  1.0
  N  N91  1  0.62481628  0.11831045  0.39934027  1.0
  N  N92  1  0.28849594  0.24048610  0.34313075  1.0
  N  N93  1  0.71134633  0.65713958  0.75912967  1.0
  O  O94  1  0.31741142  0.61195502  0.97652291  1.0
  O  O95  1  0.33881337  0.60078198  0.82092092  1.0
  O  O96  1  0.68265427  0.02271882  0.38756793  1.0
  O  O97  1  0.66077743  0.17857362  0.39948487  1.0
  O  O98  1  0.23396421  0.24678478  0.29444004  1.0
  O  O99  1  0.23355424  0.28521400  0.43343376  1.0
  O  O100  1  0.76599972  0.70576809  0.75311600  1.0
  O  O101  1  0.76617220  0.56701140  0.71394650  1.0
  O  O102  1  0.09289004  0.36765233  0.17355522  1.0
  O  O103  1  0.90688536  0.82696217  0.63241718  1.0
