# generated using pymatgen
data_Zr3H11C39O16
_symmetry_space_group_name_H-M   'P 1'
_cell_length_a   16.82651286
_cell_length_b   16.82565991
_cell_length_c   16.83190467
_cell_angle_alpha   92.71364939
_cell_angle_beta   92.68644745
_cell_angle_gamma   92.70578493
_symmetry_Int_Tables_number   1
_chemical_formula_structural   Zr3H11C39O16
_chemical_formula_sum   'Zr6 H22 C78 O32'
_cell_volume   4748.98889414
_cell_formula_units_Z   2
loop_
 _symmetry_equiv_pos_site_id
 _symmetry_equiv_pos_as_xyz
  1  'x, y, z'
loop_
 _atom_site_type_symbol
 _atom_site_label
 _atom_site_symmetry_multiplicity
 _atom_site_fract_x
 _atom_site_fract_y
 _atom_site_fract_z
 _atom_site_occupancy
  Zr  Zr0  1  0.84300102  0.80183576  0.95755044  1.0
  Zr  Zr1  1  0.00707666  0.75113486  0.84471010  1.0
  Zr  Zr2  1  0.92621776  0.99835664  0.99075060  1.0
  Zr  Zr3  1  0.89385220  0.91472751  0.79367517  1.0
  Zr  Zr4  1  0.04004095  0.83479715  0.04101962  1.0
  Zr  Zr5  1  0.09013026  0.94844757  0.87742119  1.0
  H  H6  1  0.49604807  0.95414309  0.07913560  1.0
  H  H7  1  0.35026888  0.90104690  0.27593370  1.0
  H  H8  1  0.60690920  0.91097096  0.30857354  1.0
  H  H9  1  0.32794041  0.84223691  0.52268996  1.0
  H  H10  1  0.58376140  0.85849378  0.56375646  1.0
  H  H11  1  0.43248848  0.80511464  0.75633280  1.0
  H  H12  1  0.00231187  0.26554588  0.55822402  1.0
  H  H13  1  0.99189094  0.23340156  0.30161202  1.0
  H  H14  1  0.04553193  0.03625996  0.44668628  1.0
  H  H15  1  0.93276857  0.47950065  0.27840949  1.0
  H  H16  1  0.95067573  0.52136859  0.53408233  1.0
  H  H17  1  0.89782703  0.71392690  0.38264916  1.0
  H  H18  1  0.35798417  0.51533243  0.95321081  1.0
  H  H19  1  0.32546498  0.25866624  0.94291590  1.0
  H  H20  1  0.12857096  0.40419029  0.99651068  1.0
  H  H21  1  0.80602230  0.33996269  0.84793964  1.0
  H  H22  1  0.61383911  0.49181975  0.90137567  1.0
  H  H23  1  0.57151486  0.23611118  0.88324808  1.0
  H  H24  1  0.84400999  0.75160871  0.79443299  1.0
  H  H25  1  0.89714958  0.88182805  0.10491368  1.0
  H  H26  1  0.97339844  0.06240279  0.84812412  1.0
  H  H27  1  0.15434311  0.80574979  0.92462474  1.0
  C  C28  1  0.56003605  0.93415079  0.19036149  1.0
  C  C29  1  0.49093632  0.94110417  0.14146713  1.0
  C  C30  1  0.41542774  0.92927827  0.17216936  1.0
  C  C31  1  0.40890880  0.91108145  0.25245939  1.0
  C  C32  1  0.47784486  0.90493020  0.30217224  1.0
  C  C33  1  0.55347381  0.91663847  0.27062825  1.0
  C  C34  1  0.37143502  0.82177642  0.64265402  1.0
  C  C35  1  0.38034363  0.83839098  0.56248483  1.0
  C  C36  1  0.45687729  0.85150251  0.53336463  1.0
  C  C37  1  0.52444834  0.84756775  0.58541871  1.0
  C  C38  1  0.51568185  0.83041228  0.66573122  1.0
  C  C39  1  0.43926117  0.81733741  0.69401904  1.0
  C  C40  1  0.02579235  0.14745560  0.51101408  1.0
  C  C41  1  0.00794984  0.22771501  0.50466019  1.0
  C  C42  1  0.99598033  0.25936352  0.42913748  1.0
  C  C43  1  0.00202195  0.20971973  0.36011981  1.0
  C  C44  1  0.02037455  0.12942863  0.36640268  1.0
  C  C45  1  0.03251461  0.09863135  0.44179143  1.0
  C  C46  1  0.91334693  0.59983806  0.32181260  1.0
  C  C47  1  0.92946818  0.51951638  0.33078203  1.0
  C  C48  1  0.94287652  0.49062337  0.40734581  1.0
  C  C49  1  0.93961731  0.54295272  0.47480950  1.0
  C  C50  1  0.92297730  0.62339268  0.46600959  1.0
  C  C51  1  0.90963369  0.65149891  0.38958133  1.0
  C  C52  1  0.23977727  0.46836020  0.97661030  1.0
  C  C53  1  0.32003944  0.46186156  0.95886563  1.0
  C  C54  1  0.35157924  0.38623345  0.94694290  1.0
  C  C55  1  0.30186932  0.31724202  0.95298432  1.0
  C  C56  1  0.22157667  0.32370147  0.97127377  1.0
  C  C57  1  0.19089964  0.39919001  0.98338640  1.0
  C  C58  1  0.69187360  0.27928555  0.86360455  1.0
  C  C59  1  0.74362337  0.34695944  0.85982562  1.0
  C  C60  1  0.71559584  0.42345168  0.87326140  1.0
  C  C61  1  0.63523735  0.43244698  0.89019037  1.0
  C  C62  1  0.58281452  0.36504344  0.89348342  1.0
  C  C63  1  0.61160996  0.28842104  0.87988439  1.0
  C  C64  1  0.75808848  0.93358786  0.06284308  1.0
  C  C65  1  0.85783379  0.62558355  0.88178826  1.0
  C  C66  1  0.71770611  0.83844201  0.80798222  1.0
  C  C67  1  0.91048802  0.72248805  0.12107179  1.0
  C  C68  1  0.17045131  0.81913248  0.76517268  1.0
  C  C69  1  0.07962876  0.12157864  0.96229594  1.0
  C  C70  1  0.93158247  0.76539189  0.66832548  1.0
  C  C71  1  0.11233297  0.66649908  0.97671424  1.0
  C  C72  1  0.01125734  0.98833038  0.16379976  1.0
  C  C73  1  0.81381235  0.07803292  0.86110250  1.0
  C  C74  1  0.02580303  0.02029300  0.70915690  1.0
  C  C75  1  0.21302789  0.92010414  0.03088666  1.0
  C  C76  1  0.72502292  0.20357190  0.85449148  1.0
  C  C77  1  0.76149504  0.14278569  0.85096006  1.0
  C  C78  1  0.76917401  0.49099052  0.87194971  1.0
  C  C79  1  0.81536805  0.54905271  0.87265551  1.0
  C  C80  1  0.12409610  0.19675023  0.97484737  1.0
  C  C81  1  0.16997446  0.25495670  0.97451654  1.0
  C  C82  1  0.20339026  0.54252381  0.98447237  1.0
  C  C83  1  0.16391648  0.60132128  0.98756749  1.0
  C  C84  1  0.43250226  0.37960738  0.92801782  1.0
  C  C85  1  0.50195223  0.37353936  0.91169263  1.0
  C  C86  1  0.90422188  0.63326243  0.24627003  1.0
  C  C87  1  0.90051578  0.67013716  0.18578026  1.0
  C  C88  1  0.92185570  0.67688411  0.53364586  1.0
  C  C89  1  0.92274007  0.72295997  0.59179590  1.0
  C  C90  1  0.02382634  0.03266009  0.23897442  1.0
  C  C91  1  0.02361369  0.07809716  0.29750309  1.0
  C  C92  1  0.03669269  0.07184105  0.64403172  1.0
  C  C93  1  0.03367032  0.11112161  0.58514237  1.0
  C  C94  1  0.96080152  0.40970714  0.41590684  1.0
  C  C95  1  0.97702090  0.34028769  0.42246043  1.0
  C  C96  1  0.29587145  0.81292651  0.67612032  1.0
  C  C97  1  0.23520843  0.80928637  0.71277368  1.0
  C  C98  1  0.64128386  0.82918910  0.76537199  1.0
  C  C99  1  0.58331873  0.82866368  0.71910132  1.0
  C  C100  1  0.34664551  0.93265505  0.12071678  1.0
  C  C101  1  0.28817429  0.93290409  0.07523544  1.0
  C  C102  1  0.63425873  0.94162043  0.15406632  1.0
  C  C103  1  0.69309477  0.94435374  0.11464830  1.0
  C  C104  1  0.46517946  0.86985704  0.45254364  1.0
  C  C105  1  0.47114611  0.88610420  0.38307934  1.0
  O  O106  1  0.80829603  0.99096630  0.05466876  1.0
  O  O107  1  0.92491745  0.63703467  0.85146152  1.0
  O  O108  1  0.72901026  0.80820333  0.87510268  1.0
  O  O109  1  0.85274827  0.73153968  0.07163528  1.0
  O  O110  1  0.98014847  0.75720392  0.12205653  1.0
  O  O111  1  0.76964464  0.87801171  0.77000460  1.0
  O  O112  1  0.81976907  0.67746635  0.92135246  1.0
  O  O113  1  0.75820002  0.86333111  0.02964317  1.0
  O  O114  1  0.96275786  0.77662685  0.95512025  1.0
  O  O115  1  0.86837063  0.91228269  0.91334168  1.0
  O  O116  1  0.87891548  0.78662011  0.82941989  1.0
  O  O117  1  0.91595856  0.87991946  0.05128302  1.0
  O  O118  1  0.12115000  0.76125831  0.77427823  1.0
  O  O119  1  0.01194104  0.11068960  0.99162073  1.0
  O  O120  1  0.90107806  0.83241254  0.67969110  1.0
  O  O121  1  0.10414900  0.71679832  0.03399905  1.0
  O  O122  1  0.04078502  0.92073497  0.15288763  1.0
  O  O123  1  0.82298631  0.02851757  0.80342744  1.0
  O  O124  1  0.08302081  0.01238791  0.75956039  1.0
  O  O125  1  0.20210535  0.94953534  0.96329133  1.0
  O  O126  1  0.95555390  0.98706111  0.70921108  1.0
  O  O127  1  0.16262606  0.87635468  0.06648915  1.0
  O  O128  1  0.97100096  0.72741489  0.72031863  1.0
  O  O129  1  0.84844465  0.07916370  0.93078102  1.0
  O  O130  1  0.96762803  0.02393294  0.11333768  1.0
  O  O131  1  0.07937423  0.66666667  0.90639579  1.0
  O  O132  1  0.17138588  0.88875663  0.79996996  1.0
  O  O133  1  0.11536016  0.07104088  0.91879261  1.0
  O  O134  1  0.03156396  0.94001179  0.98254018  1.0
  O  O135  1  0.00439279  0.87085326  0.81935723  1.0
  O  O136  1  0.97152377  0.00873715  0.86686265  1.0
  O  O137  1  0.10065599  0.82443658  0.92266591  1.0
