# generated using pymatgen
data_Zn4H44C50N2O13
_symmetry_space_group_name_H-M   'P 1'
_cell_length_a   13.72190731
_cell_length_b   13.73016063
_cell_length_c   24.55958997
_cell_angle_alpha   90.00038986
_cell_angle_beta   90.00029587
_cell_angle_gamma   89.98226573
_symmetry_Int_Tables_number   1
_chemical_formula_structural   Zn4H44C50N2O13
_chemical_formula_sum   'Zn8 H88 C100 N4 O26'
_cell_volume   4627.12455853
_cell_formula_units_Z   2
loop_
 _symmetry_equiv_pos_site_id
 _symmetry_equiv_pos_as_xyz
  1  'x, y, z'
loop_
 _atom_site_type_symbol
 _atom_site_label
 _atom_site_symmetry_multiplicity
 _atom_site_fract_x
 _atom_site_fract_y
 _atom_site_fract_z
 _atom_site_occupancy
  Zn  Zn0  1  0.86694244  0.25813329  0.70378567  1.0
  Zn  Zn1  1  0.63304160  0.24196283  0.70379303  1.0
  Zn  Zn2  1  0.24123611  0.86665623  0.20360738  1.0
  Zn  Zn3  1  0.25878437  0.63330592  0.20360737  1.0
  Zn  Zn4  1  0.13324901  0.74177110  0.29554541  1.0
  Zn  Zn5  1  0.36675774  0.75821547  0.29554578  1.0
  Zn  Zn6  1  0.75777987  0.13309830  0.79550993  1.0
  Zn  Zn7  1  0.74222906  0.36702150  0.79550343  1.0
  H  H8  1  0.91396522  0.87129335  0.77436788  1.0
  H  H9  1  0.58603522  0.62882690  0.77434211  1.0
  H  H10  1  0.62789049  0.91325469  0.27344144  1.0
  H  H11  1  0.87218988  0.58665115  0.27349654  1.0
  H  H12  1  0.08469522  0.12779337  0.22433085  1.0
  H  H13  1  0.41533737  0.37221568  0.22431265  1.0
  H  H14  1  0.36998779  0.08717955  0.72564289  1.0
  H  H15  1  0.12999551  0.41290188  0.72562362  1.0
  H  H16  1  0.01629048  0.72895233  0.74739030  1.0
  H  H17  1  0.48373063  0.77117375  0.74735644  1.0
  H  H18  1  0.77041477  0.01548550  0.24670577  1.0
  H  H19  1  0.72963793  0.48445501  0.24675995  1.0
  H  H20  1  0.98281738  0.27041472  0.25140208  1.0
  H  H21  1  0.51717342  0.22956082  0.25137446  1.0
  H  H22  1  0.22797080  0.98445704  0.75257766  1.0
  H  H23  1  0.27204819  0.51556932  0.75257032  1.0
  H  H24  1  0.17097646  0.91074641  0.63335110  1.0
  H  H25  1  0.32898822  0.58934334  0.63335601  1.0
  H  H26  1  0.58860708  0.17133268  0.13310660  1.0
  H  H27  1  0.91139865  0.32861083  0.13312813  1.0
  H  H28  1  0.82931768  0.08953815  0.36636883  1.0
  H  H29  1  0.67063046  0.41034920  0.36640626  1.0
  H  H30  1  0.41050120  0.83003362  0.86643946  1.0
  H  H31  1  0.08955455  0.67005166  0.86642485  1.0
  H  H32  1  0.06761151  0.05191463  0.66024675  1.0
  H  H33  1  0.43234131  0.44816892  0.66026024  1.0
  H  H34  1  0.44724126  0.06794224  0.15972228  1.0
  H  H35  1  0.05279076  0.43195314  0.15975457  1.0
  H  H36  1  0.93245749  0.94815730  0.33953058  1.0
  H  H37  1  0.56752803  0.55175300  0.33957898  1.0
  H  H38  1  0.55142315  0.93380141  0.83954609  1.0
  H  H39  1  0.94860777  0.56632035  0.83953009  1.0
  H  H40  1  0.12040039  0.67117083  0.64961183  1.0
  H  H41  1  0.37959504  0.82894752  0.64960844  1.0
  H  H42  1  0.82847459  0.12020740  0.14957048  1.0
  H  H43  1  0.67153275  0.37978510  0.14960617  1.0
  H  H44  1  0.87962344  0.32875908  0.34958732  1.0
  H  H45  1  0.62031435  0.17115575  0.34958338  1.0
  H  H46  1  0.17021936  0.87903590  0.84960302  1.0
  H  H47  1  0.32983187  0.62096615  0.84959136  1.0
  H  H48  1  0.18670709  0.68505079  0.70990042  1.0
  H  H49  1  0.31330421  0.81505444  0.70990207  1.0
  H  H50  1  0.81416345  0.18608176  0.20996450  1.0
  H  H51  1  0.68585903  0.31385904  0.20998411  1.0
  H  H52  1  0.81329634  0.31483615  0.28931461  1.0
  H  H53  1  0.68663943  0.18507067  0.28930970  1.0
  H  H54  1  0.18544144  0.81321239  0.78927129  1.0
  H  H55  1  0.31461798  0.68680786  0.78926716  1.0
  H  H56  1  0.09191021  0.72036863  0.56788658  1.0
  H  H57  1  0.40809248  0.77976693  0.56789489  1.0
  H  H58  1  0.77386314  0.09099574  0.06796189  1.0
  H  H59  1  0.72615145  0.40905403  0.06799256  1.0
  H  H60  1  0.90820117  0.27891816  0.43131867  1.0
  H  H61  1  0.59175923  0.22096999  0.43132951  1.0
  H  H62  1  0.21904233  0.90774956  0.93135817  1.0
  H  H63  1  0.28096812  0.59224767  0.93135725  1.0
  H  H64  1  0.00732827  0.73335386  0.44435673  1.0
  H  H65  1  0.49274688  0.76678018  0.44435098  1.0
  H  H66  1  0.72893270  0.01926602  0.95307745  1.0
  H  H67  1  0.77122709  0.48081489  0.95314842  1.0
  H  H68  1  0.99297106  0.26639174  0.55586075  1.0
  H  H69  1  0.50701381  0.23355181  0.55586325  1.0
  H  H70  1  0.23736056  0.00059178  0.05762934  1.0
  H  H71  1  0.26243876  0.49933152  0.05764906  1.0
  H  H72  1  0.91790085  0.77322094  0.39653892  1.0
  H  H73  1  0.58200946  0.72635358  0.39658965  1.0
  H  H74  1  0.74145838  0.92826698  0.90172533  1.0
  H  H75  1  0.75844415  0.57174412  0.90177720  1.0
  H  H76  1  0.08256461  0.22677154  0.60366798  1.0
  H  H77  1  0.41741977  0.27317002  0.60367018  1.0
  H  H78  1  0.27227875  0.09417406  0.10420038  1.0
  H  H79  1  0.22782637  0.40565217  0.10423389  1.0
  H  H80  1  0.93075570  0.83490398  0.46038418  1.0
  H  H81  1  0.56876674  0.66486584  0.46047006  1.0
  H  H82  1  0.67299991  0.90218356  0.96216878  1.0
  H  H83  1  0.82697311  0.59800816  0.96217290  1.0
  H  H84  1  0.06963036  0.16484162  0.53988665  1.0
  H  H85  1  0.43033375  0.33508315  0.53988017  1.0
  H  H86  1  0.33511353  0.08144669  0.04068066  1.0
  H  H87  1  0.16486641  0.41822948  0.04074213  1.0
  H  H88  1  0.88008087  0.71487242  0.45818881  1.0
  H  H89  1  0.62007488  0.78463289  0.45821299  1.0
  H  H90  1  0.80274827  0.91408179  0.96550210  1.0
  H  H91  1  0.69725324  0.58588054  0.96558480  1.0
  H  H92  1  0.12019804  0.28495112  0.54192485  1.0
  H  H93  1  0.37979306  0.21496202  0.54193446  1.0
  H  H94  1  0.21256464  0.12596623  0.04193385  1.0
  H  H95  1  0.28753113  0.37402529  0.04193605  1.0
  C  C96  1  0.92353239  0.05563182  0.73434450  1.0
  C  C97  1  0.57644246  0.44446904  0.73434922  1.0
  C  C98  1  0.44350761  0.92370384  0.23374468  1.0
  C  C99  1  0.05656126  0.57618438  0.23378459  1.0
  C  C100  1  0.07579990  0.94395880  0.26498983  1.0
  C  C101  1  0.42422187  0.55602740  0.26500791  1.0
  C  C102  1  0.55495216  0.07712288  0.76518655  1.0
  C  C103  1  0.94504556  0.42301040  0.76516456  1.0
  C  C104  1  0.98529760  0.97029392  0.71923533  1.0
  C  C105  1  0.51467901  0.52981400  0.71923219  1.0
  C  C106  1  0.52889577  0.98523388  0.21854882  1.0
  C  C107  1  0.97115567  0.51466693  0.21859091  1.0
  C  C108  1  0.01402449  0.02929742  0.28001390  1.0
  C  C109  1  0.48597730  0.47067007  0.28002926  1.0
  C  C110  1  0.46946267  0.01581135  0.78057867  1.0
  C  C111  1  0.03054227  0.48430716  0.78055775  1.0
  C  C112  1  0.97061855  0.87899515  0.74356250  1.0
  C  C113  1  0.52938161  0.62112326  0.74353898  1.0
  C  C114  1  0.62025141  0.97011737  0.24277938  1.0
  C  C115  1  0.87980900  0.52980267  0.24282492  1.0
  C  C116  1  0.02844923  0.12036972  0.25538176  1.0
  C  C117  1  0.47156325  0.37961276  0.25537841  1.0
  C  C118  1  0.37797883  0.03049089  0.75639005  1.0
  C  C119  1  0.12202443  0.46959164  0.75636771  1.0
  C  C120  1  0.02783394  0.79983744  0.72822971  1.0
  C  C121  1  0.47218044  0.70028841  0.72820206  1.0
  C  C122  1  0.69948685  0.02730103  0.22758445  1.0
  C  C123  1  0.80055183  0.47263852  0.22762656  1.0
  C  C124  1  0.97151148  0.19967015  0.27075730  1.0
  C  C125  1  0.52847731  0.30029179  0.27074586  1.0
  C  C126  1  0.29896935  0.97302824  0.77167985  1.0
  C  C127  1  0.20105127  0.52702093  0.77166542  1.0
  C  C128  1  0.10087512  0.81073108  0.68866891  1.0
  C  C129  1  0.39911703  0.68938409  0.68865486  1.0
  C  C130  1  0.68857959  0.10069783  0.18826388  1.0
  C  C131  1  0.81145070  0.39925508  0.18829842  1.0
  C  C132  1  0.89889001  0.18907869  0.31057421  1.0
  C  C133  1  0.60107073  0.31084586  0.31057686  1.0
  C  C134  1  0.31019943  0.89977560  0.81107208  1.0
  C  C135  1  0.18983468  0.60027624  0.81105586  1.0
  C  C136  1  0.11490269  0.90185079  0.66438328  1.0
  C  C137  1  0.38506738  0.59825244  0.66438227  1.0
  C  C138  1  0.59743760  0.11501388  0.16397998  1.0
  C  C139  1  0.90258810  0.38492272  0.16400781  1.0
  C  C140  1  0.88503149  0.09815415  0.33511555  1.0
  C  C141  1  0.61493239  0.40175686  0.33513854  1.0
  C  C142  1  0.40140546  0.88605021  0.83541380  1.0
  C  C143  1  0.09863761  0.61402960  0.83540103  1.0
  C  C144  1  0.05752749  0.98102926  0.67937057  1.0
  C  C145  1  0.44243543  0.51906395  0.67937268  1.0
  C  C146  1  0.51817040  0.05765327  0.17881877  1.0
  C  C147  1  0.98186929  0.44225947  0.17885030  1.0
  C  C148  1  0.94224930  0.01886500  0.32015636  1.0
  C  C149  1  0.55773339  0.48106549  0.32018600  1.0
  C  C150  1  0.48043723  0.94367451  0.82045286  1.0
  C  C151  1  0.01959476  0.55643207  0.82043843  1.0
  C  C152  1  0.16349271  0.72423797  0.67299431  1.0
  C  C153  1  0.33651169  0.77588138  0.67299140  1.0
  C  C154  1  0.77522908  0.16324587  0.17291208  1.0
  C  C155  1  0.72478795  0.33672652  0.17293554  1.0
  C  C156  1  0.83648011  0.27568029  0.32623945  1.0
  C  C157  1  0.66346621  0.22422843  0.32623422  1.0
  C  C158  1  0.22398003  0.83648751  0.82637299  1.0
  C  C159  1  0.27607755  0.66353100  0.82636459  1.0
  C  C160  1  0.24999815  0.75008246  0.58681389  1.0
  C  C161  1  0.75000884  0.25001808  0.08687127  1.0
  C  C162  1  0.74997465  0.24993485  0.41242598  1.0
  C  C163  1  0.25000623  0.75000068  0.91248627  1.0
  C  C164  1  0.16558090  0.73290033  0.55319632  1.0
  C  C165  1  0.33441436  0.76724816  0.55319785  1.0
  C  C166  1  0.76426256  0.16508149  0.05327977  1.0
  C  C167  1  0.73575699  0.33497248  0.05329553  1.0
  C  C168  1  0.83448743  0.26671130  0.44604314  1.0
  C  C169  1  0.66547676  0.23317557  0.44604731  1.0
  C  C170  1  0.23221375  0.83424810  0.94609486  1.0
  C  C171  1  0.26776988  0.66574202  0.94609459  1.0
  C  C172  1  0.19275825  0.73831962  0.49977040  1.0
  C  C173  1  0.30723214  0.76186682  0.49977916  1.0
  C  C174  1  0.75983036  0.19257268  0.99987258  1.0
  C  C175  1  0.74019212  0.30752922  0.99988132  1.0
  C  C176  1  0.80722916  0.26145880  0.49946581  1.0
  C  C177  1  0.69274790  0.23847387  0.49946763  1.0
  C  C178  1  0.23779977  0.80719835  0.99952446  1.0
  C  C179  1  0.26213334  0.69278442  0.99952712  1.0
  C  C180  1  0.93399135  0.76396317  0.43996351  1.0
  C  C181  1  0.56592516  0.73578084  0.44000324  1.0
  C  C182  1  0.73634144  0.94092849  0.94570490  1.0
  C  C183  1  0.76367371  0.55913411  0.94575389  1.0
  C  C184  1  0.06635461  0.23586327  0.56023688  1.0
  C  C185  1  0.43362281  0.26406757  0.56023705  1.0
  C  C186  1  0.26423664  0.07551247  0.06101924  1.0
  C  C187  1  0.23575512  0.42434456  0.06104999  1.0
  C  C188  1  0.25000410  0.75007292  0.45503726  1.0
  C  C189  1  0.75000338  0.25005541  0.95509261  1.0
  C  C190  1  0.74998910  0.24996479  0.54424129  1.0
  C  C191  1  0.24995411  0.74999323  0.04421607  1.0
  C  C192  1  0.25000601  0.75005653  0.39521053  1.0
  C  C193  1  0.75000966  0.25005650  0.89524674  1.0
  C  C194  1  0.75000104  0.24998481  0.60409286  1.0
  C  C195  1  0.24999374  0.75003000  0.10401919  1.0
  N  N196  1  0.24999768  0.75006095  0.64204201  1.0
  N  N197  1  0.75000108  0.24999730  0.14207619  1.0
  N  N198  1  0.74997367  0.24993743  0.35720600  1.0
  N  N199  1  0.25004095  0.75000908  0.85726466  1.0
  O  O200  1  0.93973424  0.13475205  0.70870826  1.0
  O  O201  1  0.56024911  0.36534995  0.70871874  1.0
  O  O202  1  0.36429588  0.93992041  0.20814726  1.0
  O  O203  1  0.13578150  0.55994346  0.20819711  1.0
  O  O204  1  0.06022621  0.86506790  0.29098764  1.0
  O  O205  1  0.43974043  0.63488149  0.29104435  1.0
  O  O206  1  0.63434105  0.06048385  0.79053152  1.0
  O  O207  1  0.86565180  0.43966576  0.79049959  1.0
  O  O208  1  0.85942615  0.04252340  0.77141585  1.0
  O  O209  1  0.64055559  0.45758374  0.77142325  1.0
  O  O210  1  0.45669150  0.85980838  0.27089951  1.0
  O  O211  1  0.04337042  0.64010870  0.27092497  1.0
  O  O212  1  0.13938073  0.95687575  0.22763631  1.0
  O  O213  1  0.36069681  0.54313694  0.22761548  1.0
  O  O214  1  0.54181999  0.14115962  0.72810012  1.0
  O  O215  1  0.95817301  0.35894844  0.72808851  1.0
  O  O216  1  0.16994638  0.72623293  0.37233947  1.0
  O  O217  1  0.33005013  0.77388568  0.37232920  1.0
  O  O218  1  0.77174059  0.16943267  0.87241032  1.0
  O  O219  1  0.72828873  0.33067786  0.87241138  1.0
  O  O220  1  0.83024004  0.27319295  0.62695863  1.0
  O  O221  1  0.66977026  0.22681556  0.62697256  1.0
  O  O222  1  0.22586529  0.82998632  0.12685560  1.0
  O  O223  1  0.27412240  0.67008196  0.12686758  1.0
  O  O224  1  0.74999879  0.25004979  0.74968690  1.0
  O  O225  1  0.25000316  0.74998208  0.24957048  1.0
