# generated using pymatgen
data_Al6H62C84O37
_symmetry_space_group_name_H-M   'P 1'
_cell_length_a   13.34515881
_cell_length_b   13.43344257
_cell_length_c   27.48836322
_cell_angle_alpha   90.19844734
_cell_angle_beta   90.66553409
_cell_angle_gamma   61.24982920
_symmetry_Int_Tables_number   1
_chemical_formula_structural   Al6H62C84O37
_chemical_formula_sum   'Al6 H62 C84 O37'
_cell_volume   4320.09131637
_cell_formula_units_Z   1
loop_
 _symmetry_equiv_pos_site_id
 _symmetry_equiv_pos_as_xyz
  1  'x, y, z'
loop_
 _atom_site_type_symbol
 _atom_site_label
 _atom_site_symmetry_multiplicity
 _atom_site_fract_x
 _atom_site_fract_y
 _atom_site_fract_z
 _atom_site_occupancy
  Al  Al0  1  0.43104956  0.41406887  0.49570047  1.0
  Al  Al1  1  0.40959695  0.18652268  0.49725129  1.0
  Al  Al2  1  0.19332137  0.40888373  0.49855282  1.0
  Al  Al3  1  0.92632569  0.90822508  0.98716641  1.0
  Al  Al4  1  0.92802179  0.14697182  0.98320347  1.0
  Al  Al5  1  0.15361843  0.93362419  0.98550126  1.0
  H  H6  1  0.03758939  0.33597417  0.20339906  1.0
  H  H7  1  0.07007770  0.38438367  0.62677128  1.0
  H  H8  1  0.39413404  0.54556808  0.62936779  1.0
  H  H9  1  0.57189692  0.04224224  0.62475489  1.0
  H  H10  1  0.33296970  0.03823216  0.78049026  1.0
  H  H11  1  0.04856420  0.63469948  0.78216235  1.0
  H  H12  1  0.66965113  0.30926976  0.77082441  1.0
  H  H13  1  0.30367623  0.00979994  0.86734612  1.0
  H  H14  1  0.02291892  0.69632205  0.86890580  1.0
  H  H15  1  0.72066149  0.28870840  0.85906288  1.0
  H  H16  1  0.04233885  0.35433920  0.71355333  1.0
  H  H17  1  0.34456600  0.63284617  0.20127037  1.0
  H  H18  1  0.36446808  0.61233735  0.71529366  1.0
  H  H19  1  0.64378221  0.01199101  0.71042715  1.0
  H  H20  1  0.97402826  0.27818894  0.76562104  1.0
  H  H21  1  0.28544953  0.76416503  0.76428620  1.0
  H  H22  1  0.79517789  0.94810037  0.76143323  1.0
  H  H23  1  0.94790510  0.25483535  0.85326287  1.0
  H  H24  1  0.26478184  0.81791191  0.85176989  1.0
  H  H25  1  0.83790426  0.93035106  0.85041178  1.0
  H  H26  1  0.30538368  0.00491176  0.70246026  1.0
  H  H27  1  0.01047574  0.69454601  0.70319237  1.0
  H  H28  1  0.64799889  0.03860260  0.18457789  1.0
  H  H29  1  0.73495110  0.27733128  0.69331445  1.0
  H  H30  1  0.09663968  0.35547189  0.28251234  1.0
  H  H31  1  0.33686102  0.63982207  0.28734737  1.0
  H  H32  1  0.64392089  0.01833600  0.27017930  1.0
  H  H33  1  0.33653101  0.03840025  0.61645868  1.0
  H  H34  1  0.04328303  0.62246478  0.61806368  1.0
  H  H35  1  0.65673243  0.31026957  0.60832090  1.0
  H  H36  1  0.07459478  0.08646629  0.30159646  1.0
  H  H37  1  0.02790947  0.84510565  0.29538188  1.0
  H  H38  1  0.82900624  0.15046542  0.29754695  1.0
  H  H39  1  0.24189209  0.28291213  0.26749075  1.0
  H  H40  1  0.99271907  0.23395010  0.29105815  1.0
  H  H41  1  0.16457834  0.82593489  0.31208150  1.0
  H  H42  1  0.82475972  0.02155807  0.30393905  1.0
  H  H43  1  0.97765121  0.18858380  0.20997114  1.0
  H  H44  1  0.21267768  0.83651437  0.23029436  1.0
  H  H45  1  0.84225092  0.98590822  0.21934855  1.0
  H  H46  1  0.08425909  0.04544331  0.21833872  1.0
  H  H47  1  0.06389053  0.89860995  0.21931039  1.0
  H  H48  1  0.89385020  0.08450638  0.21867801  1.0
  H  H49  1  0.27593782  0.99081616  0.28224061  1.0
  H  H50  1  0.32469319  0.51524486  0.28197197  1.0
  H  H51  1  0.99862489  0.67694995  0.28225599  1.0
  H  H52  1  0.64251816  0.33668524  0.29069655  1.0
  H  H53  1  0.37126647  0.90571271  0.20639617  1.0
  H  H54  1  0.89838501  0.76730441  0.21078007  1.0
  H  H55  1  0.73748622  0.37365924  0.23187977  1.0
  H  H56  1  0.41686911  0.08190028  0.26096456  1.0
  H  H57  1  0.11930816  0.49752427  0.23068767  1.0
  H  H58  1  0.47351109  0.38153540  0.23191719  1.0
  H  H59  1  0.35269724  0.09636118  0.16018106  1.0
  H  H60  1  0.06802390  0.63042533  0.14613802  1.0
  H  H61  1  0.51397749  0.14869765  0.26728277  1.0
  H  H62  1  0.61197239  0.34037684  0.15124108  1.0
  H  H63  1  0.17735796  0.30331169  0.18630133  1.0
  H  H64  1  0.28429646  0.54112408  0.19774083  1.0
  H  H65  1  0.54144189  0.18267058  0.18669039  1.0
  H  H66  1  0.48999172  0.54805113  0.51624693  1.0
  H  H67  1  0.80160661  0.83894503  0.96410897  1.0
  C  C68  1  0.21653232  0.54621923  0.43167556  1.0
  C  C69  1  0.13666382  0.14798498  0.14430744  1.0
  C  C70  1  0.15652016  0.74533002  0.14948341  1.0
  C  C71  1  0.74266021  0.14780217  0.14562210  1.0
  C  C72  1  0.18935610  0.18402866  0.34236103  1.0
  C  C73  1  0.16920662  0.63849940  0.34402078  1.0
  C  C74  1  0.62733738  0.17635870  0.33894913  1.0
  C  C75  1  0.20083446  0.19998308  0.38515849  1.0
  C  C76  1  0.18296008  0.60556721  0.38592553  1.0
  C  C77  1  0.59549351  0.18868984  0.38079491  1.0
  C  C78  1  0.80344527  0.11373681  0.05336560  1.0
  C  C79  1  0.54079561  0.22129090  0.42724461  1.0
  C  C80  1  0.10482357  0.11269551  0.05233085  1.0
  C  C81  1  0.12373651  0.80379432  0.05658049  1.0
  C  C82  1  0.20437746  0.21314868  0.61620425  1.0
  C  C83  1  0.22067744  0.57997799  0.61872796  1.0
  C  C84  1  0.60984365  0.17840288  0.61190409  1.0
  C  C85  1  0.12026396  0.30134311  0.64367906  1.0
  C  C86  1  0.31045055  0.57915961  0.64608520  1.0
  C  C87  1  0.60879382  0.09234920  0.64018943  1.0
  C  C88  1  0.10479623  0.28365120  0.69215935  1.0
  C  C89  1  0.29296006  0.61725903  0.69384116  1.0
  C  C90  1  0.23030465  0.22676416  0.43191167  1.0
  C  C91  1  0.64977952  0.07542979  0.68781371  1.0
  C  C92  1  0.17166434  0.17734057  0.71458964  1.0
  C  C93  1  0.18534034  0.65800301  0.71559472  1.0
  C  C94  1  0.69337285  0.14327259  0.70814457  1.0
  C  C95  1  0.24444768  0.53055280  0.56894114  1.0
  C  C96  1  0.55283664  0.20741092  0.56337657  1.0
  C  C97  1  0.22854011  0.23672501  0.56615965  1.0
  C  C98  1  0.25437500  0.08887611  0.68633907  1.0
  C  C99  1  0.09533335  0.66034819  0.68748115  1.0
  C  C100  1  0.69796868  0.22648007  0.67868205  1.0
  C  C101  1  0.27316287  0.06819485  0.21298904  1.0
  C  C102  1  0.27126006  0.10655679  0.63797889  1.0
  C  C103  1  0.11274910  0.62130423  0.63974513  1.0
  C  C104  1  0.65604354  0.24448694  0.63121939  1.0
  C  C105  1  0.24783691  0.08474631  0.79599523  1.0
  C  C106  1  0.09458520  0.67681012  0.79698720  1.0
  C  C107  1  0.70882755  0.22561193  0.78791077  1.0
  C  C108  1  0.23240814  0.06966803  0.84482636  1.0
  C  C109  1  0.08107993  0.70937361  0.84554075  1.0
  C  C110  1  0.73550065  0.21496157  0.83730213  1.0
  C  C111  1  0.03210396  0.20881695  0.83698276  1.0
  C  C112  1  0.06416480  0.68781117  0.21172415  1.0
  C  C113  1  0.21847632  0.77700037  0.83613666  1.0
  C  C114  1  0.80039511  0.01286758  0.83243192  1.0
  C  C115  1  0.04755340  0.22186014  0.78799961  1.0
  C  C116  1  0.23011052  0.74618020  0.78735172  1.0
  C  C117  1  0.77578210  0.02354824  0.78290910  1.0
  C  C118  1  0.15572265  0.16080698  0.76648123  1.0
  C  C119  1  0.16927282  0.69461914  0.76690493  1.0
  C  C120  1  0.72775046  0.13030590  0.75986405  1.0
  C  C121  1  0.12438461  0.13225125  0.86588555  1.0
  C  C122  1  0.14365932  0.75898748  0.86562028  1.0
  C  C123  1  0.67018583  0.27749282  0.21574616  1.0
  C  C124  1  0.77983843  0.10870333  0.86007282  1.0
  C  C125  1  0.81216278  0.09397420  0.91235900  1.0
  C  C126  1  0.10364551  0.11094256  0.91667328  1.0
  C  C127  1  0.12307210  0.80041327  0.91660202  1.0
  C  C128  1  0.16145558  0.27967803  0.26408684  1.0
  C  C129  1  0.28479487  0.60468022  0.27130751  1.0
  C  C130  1  0.60493561  0.10743112  0.25848480  1.0
  C  C131  1  0.06958157  0.15692480  0.27958384  1.0
  C  C132  1  0.11912462  0.79859164  0.28634729  1.0
  C  C133  1  0.79111888  0.10011312  0.28245718  1.0
  C  C134  1  0.28150132  0.06594164  0.26984231  1.0
  C  C135  1  0.06370257  0.13373316  0.22470989  1.0
  C  C136  1  0.13841024  0.82256783  0.23332424  1.0
  C  C137  1  0.82037647  0.07366847  0.22819170  1.0
  C  C138  1  0.12632529  0.13922461  0.10068905  1.0
  C  C139  1  0.15115724  0.76244889  0.10585457  1.0
  C  C140  1  0.76063469  0.14087008  0.10214415  1.0
  C  C141  1  0.17545518  0.17230765  0.29061761  1.0
  C  C142  1  0.16350639  0.66960390  0.29319173  1.0
  C  C143  1  0.65966957  0.16711708  0.28836051  1.0
  C  C144  1  0.12872243  0.27752668  0.21026368  1.0
  C  C145  1  0.08271570  0.63693324  0.26422133  1.0
  C  C146  1  0.27646939  0.61787853  0.21556484  1.0
  C  C147  1  0.62131921  0.11899282  0.20386106  1.0
  C  C148  1  0.15006164  0.15687299  0.19633850  1.0
  C  C149  1  0.15957297  0.71994828  0.20082259  1.0
  C  C150  1  0.71543044  0.15413031  0.19671261  1.0
  C  C151  1  0.61458100  0.28842323  0.26652058  1.0
  O  O152  1  0.51458938  0.32028865  0.44152203  1.0
  O  O153  1  0.53575851  0.29902000  0.54374373  1.0
  O  O154  1  0.32036137  0.16322393  0.54606168  1.0
  O  O155  1  0.16550748  0.51683988  0.54750289  1.0
  O  O156  1  0.34201024  0.50205739  0.55166736  1.0
  O  O157  1  0.52000351  0.13811542  0.54569246  1.0
  O  O158  1  0.15809353  0.33280750  0.54719069  1.0
  O  O159  1  0.34352676  0.33578434  0.49742659  1.0
  O  O160  1  0.00340039  0.99743680  0.98547234  1.0
  O  O161  1  0.82902524  0.01591228  0.03819125  1.0
  O  O162  1  0.00960307  0.18130174  0.03213161  1.0
  O  O163  1  0.32691338  0.15386885  0.45020075  1.0
  O  O164  1  0.19670434  0.82342755  0.03408064  1.0
  O  O165  1  0.03408865  0.81124583  0.93700583  1.0
  O  O166  1  0.82176255  0.17518615  0.93342557  1.0
  O  O167  1  0.17970411  0.02126157  0.93800687  1.0
  O  O168  1  0.83235764  0.00169903  0.93267401  1.0
  O  O169  1  0.00758938  0.18054192  0.93551313  1.0
  O  O170  1  0.19572215  0.82707146  0.93614161  1.0
  O  O171  1  0.29616503  0.96120784  0.19396657  1.0
  O  O172  1  0.95785402  0.78925958  0.20758287  1.0
  O  O173  1  0.76566149  0.29702903  0.21916551  1.0
  O  O174  1  0.14434573  0.52008105  0.45124832  1.0
  O  O175  1  0.38748635  0.05300021  0.28661559  1.0
  O  O176  1  0.12941667  0.51741600  0.26398332  1.0
  O  O177  1  0.49359286  0.34313666  0.26353640  1.0
  O  O178  1  0.35505526  0.09873022  0.19567683  1.0
  O  O179  1  0.06627319  0.60466733  0.17929166  1.0
  O  O180  1  0.58473827  0.35928662  0.18470949  1.0
  O  O181  1  0.02795688  0.82082113  0.04032646  1.0
  O  O182  1  0.81612689  0.19047477  0.03020038  1.0
  O  O183  1  0.18051697  0.01890159  0.03415067  1.0
  O  O184  1  0.31462417  0.52053043  0.44812310  1.0
  O  O185  1  0.52024271  0.14886441  0.44948358  1.0
  O  O186  1  0.16206951  0.32246405  0.45082435  1.0
  O  O187  1  0.51264042  0.48470176  0.49428646  1.0
  O  O188  1  0.85480280  0.82780612  0.99035747  1.0
