# generated using pymatgen
data_Zn4H12C26S4O15
_symmetry_space_group_name_H-M   'P 1'
_cell_length_a   19.66117324
_cell_length_b   19.67137166
_cell_length_c   33.38771519
_cell_angle_alpha   79.13236967
_cell_angle_beta   79.16281525
_cell_angle_gamma   63.90984042
_symmetry_Int_Tables_number   1
_chemical_formula_structural   Zn4H12C26S4O15
_chemical_formula_sum   'Zn16 H48 C104 S16 O60'
_cell_volume   11308.15678685
_cell_formula_units_Z   4
loop_
 _symmetry_equiv_pos_site_id
 _symmetry_equiv_pos_as_xyz
  1  'x, y, z'
loop_
 _atom_site_type_symbol
 _atom_site_label
 _atom_site_symmetry_multiplicity
 _atom_site_fract_x
 _atom_site_fract_y
 _atom_site_fract_z
 _atom_site_occupancy
  Zn  Zn0  1  0.60109942  0.94306490  0.52184787  1.0
  Zn  Zn1  1  0.51705090  0.01592291  0.44006507  1.0
  Zn  Zn2  1  0.43980003  0.94122204  0.51745594  1.0
  Zn  Zn3  1  0.44530941  0.09838033  0.52069183  1.0
  Zn  Zn4  1  0.64942231  0.30683639  0.72828065  1.0
  Zn  Zn5  1  0.81070673  0.31129125  0.73278235  1.0
  Zn  Zn6  1  0.73328981  0.23224527  0.80933197  1.0
  Zn  Zn7  1  0.80561069  0.15320969  0.72836998  1.0
  Zn  Zn8  1  0.23304026  0.73263445  0.31094407  1.0
  Zn  Zn9  1  0.30467903  0.65052005  0.22877176  1.0
  Zn  Zn10  1  0.15132929  0.80658058  0.22874122  1.0
  Zn  Zn11  1  0.31043848  0.80826486  0.23281212  1.0
  Zn  Zn12  1  0.93879245  0.43963988  0.01712757  1.0
  Zn  Zn13  1  0.94384052  0.59968841  0.02186949  1.0
  Zn  Zn14  1  0.09800689  0.44400330  0.02124529  1.0
  Zn  Zn15  1  0.01685853  0.51781356  0.94036902  1.0
  H  H16  1  0.54636610  0.25187291  0.64931477  1.0
  H  H17  1  0.70349043  0.99813794  0.60088655  1.0
  H  H18  1  0.29967282  0.79926945  0.40215986  1.0
  H  H19  1  0.45040997  0.95074954  0.34781063  1.0
  H  H20  1  0.76073485  0.53678529  0.65910751  1.0
  H  H21  1  0.29734977  0.52099944  0.39878494  1.0
  H  H22  1  0.02152426  0.79703654  0.39849917  1.0
  H  H23  1  0.02954485  0.05054245  0.65190046  1.0
  H  H24  1  0.84762301  0.34791126  0.95054873  1.0
  H  H25  1  0.90235167  0.40199404  0.79952000  1.0
  H  H26  1  0.22839253  0.45287357  0.85145307  1.0
  H  H27  1  0.85855695  0.83728854  0.95986183  1.0
  H  H28  1  0.99814066  0.70333163  0.10069901  1.0
  H  H29  1  0.25185827  0.54638427  0.14934895  1.0
  H  H30  1  0.72044130  0.69955548  0.09792396  1.0
  H  H31  1  0.98932164  0.21358752  0.09080861  1.0
  H  H32  1  0.47278281  0.19058985  0.58151787  1.0
  H  H33  1  0.77724188  0.05979632  0.66844863  1.0
  H  H34  1  0.36396023  0.86430211  0.47278208  1.0
  H  H35  1  0.38603188  0.88578142  0.27719452  1.0
  H  H36  1  0.77734913  0.27691457  0.88589488  1.0
  H  H37  1  0.97280105  0.47292183  0.86398919  1.0
  H  H38  1  0.05929759  0.77732687  0.16831303  1.0
  H  H39  1  0.19087083  0.47246655  0.08162567  1.0
  H  H40  1  0.42406014  0.76864849  0.60084043  1.0
  H  H41  1  0.44862710  0.66923782  0.60320045  1.0
  H  H42  1  0.46385772  0.72352073  0.55598111  1.0
  H  H43  1  0.52314429  0.17867243  0.34655871  1.0
  H  H44  1  0.46327617  0.24277658  0.30913087  1.0
  H  H45  1  0.43581030  0.17598083  0.34408432  1.0
  H  H46  1  0.67630370  0.93563765  0.34380767  1.0
  H  H47  1  0.74290896  0.96348091  0.30890761  1.0
  H  H48  1  0.67875213  0.02296993  0.34643288  1.0
  H  H49  1  0.27793950  0.20208528  0.61040674  1.0
  H  H50  1  0.17994198  0.26817242  0.61369763  1.0
  H  H51  1  0.23344622  0.24152786  0.56528592  1.0
  H  H52  1  0.57117357  0.22709618  0.90360097  1.0
  H  H53  1  0.50703316  0.28659563  0.94110867  1.0
  H  H54  1  0.57364532  0.31440041  0.90626565  1.0
  H  H55  1  0.85163809  0.92761587  0.76002849  1.0
  H  H56  1  0.93038607  0.84226474  0.77596606  1.0
  H  H57  1  0.93877819  0.93077282  0.76255634  1.0
  H  H58  1  0.51688297  0.50840592  0.18481475  1.0
  H  H59  1  0.56983359  0.48213046  0.13622679  1.0
  H  H60  1  0.47180191  0.54828149  0.13992179  1.0
  H  H61  1  0.28590328  0.02660570  0.19414855  1.0
  H  H62  1  0.30151354  0.08052026  0.14685168  1.0
  H  H63  1  0.32570241  0.98116554  0.14939009  1.0
  C  C64  1  0.68466575  0.93842223  0.43837957  1.0
  C  C65  1  0.43053571  0.93091118  0.42989990  1.0
  C  C66  1  0.56138940  0.81563021  0.56132283  1.0
  C  C67  1  0.31581115  0.06164901  0.56135289  1.0
  C  C68  1  0.57045502  0.06913161  0.56968441  1.0
  C  C69  1  0.43853412  0.18412016  0.43853501  1.0
  C  C70  1  0.68896492  0.43482870  0.68842874  1.0
  C  C71  1  0.82039656  0.31970181  0.81930024  1.0
  C  C72  1  0.56547012  0.31155557  0.81158779  1.0
  C  C73  1  0.81131209  0.06584152  0.81127379  1.0
  C  C74  1  0.67953320  0.18111753  0.68037101  1.0
  C  C75  1  0.93468282  0.18788311  0.68840148  1.0
  C  C76  1  0.31136399  0.56546713  0.31194144  1.0
  C  C77  1  0.18091145  0.67955342  0.18037323  1.0
  C  C78  1  0.06589438  0.81104930  0.31173100  1.0
  C  C79  1  0.18865743  0.93434515  0.18862784  1.0
  C  C80  1  0.31948859  0.81912498  0.32008315  1.0
  C  C81  1  0.43424999  0.68849880  0.18867871  1.0
  C  C82  1  0.81531735  0.56221626  0.06157320  1.0
  C  C83  1  0.06915041  0.57020921  0.06962680  1.0
  C  C84  1  0.06102561  0.31561394  0.06154646  1.0
  C  C85  1  0.18386466  0.43880723  0.93830855  1.0
  C  C86  1  0.92982123  0.43003113  0.93072880  1.0
  C  C87  1  0.93805509  0.68484956  0.93865387  1.0
  C  C88  1  0.59732430  0.09868096  0.59820268  1.0
  C  C89  1  0.65240050  0.15123943  0.65212875  1.0
  C  C90  1  0.55197579  0.17146848  0.61205992  1.0
  C  C91  1  0.69765881  0.07837951  0.63833318  1.0
  C  C92  1  0.58064674  0.19622160  0.63874777  1.0
  C  C93  1  0.66907975  0.05368113  0.61158449  1.0
  C  C94  1  0.40163937  0.90171845  0.40221738  1.0
  C  C95  1  0.34841742  0.84834155  0.34776196  1.0
  C  C96  1  0.35849491  0.85820276  0.41795322  1.0
  C  C97  1  0.39156695  0.89183906  0.33201675  1.0
  C  C98  1  0.33274868  0.83243945  0.39030473  1.0
  C  C99  1  0.41733456  0.91757728  0.35966295  1.0
  C  C100  1  0.54431465  0.69643309  0.59864261  1.0
  C  C101  1  0.70386712  0.55419604  0.65103126  1.0
  C  C102  1  0.58518330  0.74112683  0.58613691  1.0
  C  C103  1  0.66364491  0.50956239  0.66347593  1.0
  C  C104  1  0.66106326  0.62238302  0.62738259  1.0
  C  C105  1  0.58879223  0.62857657  0.62225487  1.0
  C  C106  1  0.42470916  0.27259884  0.37048849  1.0
  C  C107  1  0.32640509  0.47581520  0.37907420  1.0
  C  C108  1  0.41419894  0.25813518  0.41324529  1.0
  C  C109  1  0.33659419  0.49051741  0.33667824  1.0
  C  C110  1  0.35823458  0.39666464  0.39176796  1.0
  C  C111  1  0.39219828  0.35233969  0.35875546  1.0
  C  C112  1  0.77296829  0.92458034  0.37025120  1.0
  C  C113  1  0.97628750  0.82604499  0.37878803  1.0
  C  C114  1  0.75866180  0.91405389  0.41301596  1.0
  C  C115  1  0.99090877  0.83623214  0.33638332  1.0
  C  C116  1  0.89715102  0.85793359  0.39148578  1.0
  C  C117  1  0.85272444  0.89198640  0.35847999  1.0
  C  C118  1  0.20038223  0.15659169  0.60253293  1.0
  C  C119  1  0.05040919  0.09460934  0.64733017  1.0
  C  C120  1  0.24147118  0.08724422  0.58636748  1.0
  C  C121  1  0.00942783  0.16333919  0.66342822  1.0
  C  C122  1  0.12009733  0.09138597  0.62512594  1.0
  C  C123  1  0.13100594  0.15787617  0.62465750  1.0
  C  C124  1  0.84781381  0.34762804  0.84838015  1.0
  C  C125  1  0.90217482  0.40226131  0.90168372  1.0
  C  C126  1  0.83185775  0.33208851  0.89169164  1.0
  C  C127  1  0.91797576  0.41792201  0.85836090  1.0
  C  C128  1  0.85952399  0.35974789  0.91743783  1.0
  C  C129  1  0.89038966  0.39018094  0.83262598  1.0
  C  C130  1  0.47699485  0.32553780  0.87974750  1.0
  C  C131  1  0.27358227  0.42386964  0.87120245  1.0
  C  C132  1  0.49140398  0.33607254  0.83697821  1.0
  C  C133  1  0.25886898  0.41367583  0.91362086  1.0
  C  C134  1  0.35274177  0.39207731  0.85848307  1.0
  C  C135  1  0.39718271  0.35807685  0.89148612  1.0
  C  C136  1  0.87560798  0.91940514  0.82151608  1.0
  C  C137  1  0.87474115  0.83038101  0.92739794  1.0
  C  C138  1  0.83649962  0.99080295  0.83564989  1.0
  C  C139  1  0.91338550  0.75943796  0.91350976  1.0
  C  C140  1  0.86060863  0.88912194  0.89421535  1.0
  C  C141  1  0.88885322  0.86188551  0.85551527  1.0
  C  C142  1  0.15122659  0.65244224  0.15201492  1.0
  C  C143  1  0.09875498  0.59724392  0.09805632  1.0
  C  C144  1  0.07839004  0.69766241  0.13812525  1.0
  C  C145  1  0.17159947  0.55200723  0.11194453  1.0
  C  C146  1  0.05372814  0.66898481  0.11139061  1.0
  C  C147  1  0.19625373  0.58070825  0.13866787  1.0
  C  C148  1  0.54968275  0.59350401  0.14755154  1.0
  C  C149  1  0.69954698  0.65550702  0.10257217  1.0
  C  C150  1  0.50862962  0.66287256  0.16369704  1.0
  C  C151  1  0.74051143  0.58677028  0.08649257  1.0
  C  C152  1  0.62995241  0.65866364  0.12485946  1.0
  C  C153  1  0.61904625  0.59216284  0.12538989  1.0
  C  C154  1  0.20557039  0.05375327  0.15140211  1.0
  C  C155  1  0.04616230  0.19618114  0.09892497  1.0
  C  C156  1  0.16476599  0.00896417  0.16382404  1.0
  C  C157  1  0.08638969  0.24082435  0.08649846  1.0
  C  C158  1  0.08892163  0.12793954  0.12258740  1.0
  C  C159  1  0.16118106  0.12168472  0.12778472  1.0
  C  C160  1  0.46602681  0.71519795  0.58926060  1.0
  C  C161  1  0.46376935  0.21463409  0.34082319  1.0
  C  C162  1  0.71486029  0.96370321  0.34060941  1.0
  C  C163  1  0.22391841  0.22071518  0.59782361  1.0
  C  C164  1  0.53507118  0.28636540  0.90940619  1.0
  C  C165  1  0.90056970  0.90386753  0.77770685  1.0
  C  C166  1  0.52606600  0.52945406  0.15228078  1.0
  C  C167  1  0.28385363  0.03477165  0.16086146  1.0
  S  S168  1  0.67514497  0.70108549  0.60287094  1.0
  S  S169  1  0.57400299  0.54998869  0.64666903  1.0
  S  S170  1  0.36607852  0.33982862  0.43816257  1.0
  S  S171  1  0.38466233  0.40871474  0.31208070  1.0
  S  S172  1  0.84044382  0.86577648  0.43789867  1.0
  S  S173  1  0.90902687  0.88441310  0.31179656  1.0
  S  S174  1  0.19623123  0.02575262  0.59798088  1.0
  S  S175  1  0.05505556  0.22417103  0.65171773  1.0
  S  S176  1  0.40957169  0.38429095  0.81208339  1.0
  S  S177  1  0.34084088  0.36554376  0.93817578  1.0
  S  S178  1  0.81687088  0.98718109  0.88899953  1.0
  S  S179  1  0.93280199  0.76366425  0.86029541  1.0
  S  S180  1  0.55388755  0.72433717  0.15201394  1.0
  S  S181  1  0.69498297  0.52584756  0.09832168  1.0
  S  S182  1  0.07483750  0.04914428  0.14699646  1.0
  S  S183  1  0.17602953  0.20027073  0.10337214  1.0
  O  O184  1  0.50164592  0.99920770  0.50020028  1.0
  O  O185  1  0.68561293  0.92188053  0.47735400  1.0
  O  O186  1  0.46892160  0.96925153  0.41405847  1.0
  O  O187  1  0.49519831  0.84401882  0.54924699  1.0
  O  O188  1  0.62539631  0.97414404  0.41947460  1.0
  O  O189  1  0.60889288  0.84615864  0.55378971  1.0
  O  O190  1  0.41457063  0.91533949  0.46905381  1.0
  O  O191  1  0.34223692  0.99517111  0.54968755  1.0
  O  O192  1  0.50376307  0.11275304  0.55798232  1.0
  O  O193  1  0.34830399  0.10733439  0.55312093  1.0
  O  O194  1  0.61326725  0.00386899  0.55832450  1.0
  O  O195  1  0.47406181  0.12480874  0.41976837  1.0
  O  O196  1  0.42204686  0.18504966  0.47756814  1.0
  O  O197  1  0.74934988  0.25181329  0.74941623  1.0
  O  O198  1  0.64182258  0.40393578  0.69653046  1.0
  O  O199  1  0.83638833  0.33535308  0.78097674  1.0
  O  O200  1  0.62492124  0.27605707  0.83038052  1.0
  O  O201  1  0.75552232  0.40750111  0.69974314  1.0
  O  O202  1  0.56451193  0.32772687  0.77258019  1.0
  O  O203  1  0.78127923  0.28043042  0.83512469  1.0
  O  O204  1  0.77609608  0.12404072  0.83118800  1.0
  O  O205  1  0.74643622  0.13773457  0.69188056  1.0
  O  O206  1  0.82642539  0.06744656  0.77218897  1.0
  O  O207  1  0.63681238  0.24643820  0.69168985  1.0
  O  O208  1  0.90719169  0.25424862  0.70003340  1.0
  O  O209  1  0.90378072  0.14082882  0.69632900  1.0
  O  O210  1  0.24959809  0.74924123  0.25063129  1.0
  O  O211  1  0.27580573  0.62373038  0.33145569  1.0
  O  O212  1  0.24634648  0.63661889  0.19170238  1.0
  O  O213  1  0.06596484  0.82691688  0.27268741  1.0
  O  O214  1  0.32750624  0.56537361  0.27292832  1.0
  O  O215  1  0.12413996  0.77577213  0.33133724  1.0
  O  O216  1  0.13765094  0.74625686  0.19196762  1.0
  O  O217  1  0.14121413  0.90362565  0.19609281  1.0
  O  O218  1  0.33536441  0.83490531  0.28092255  1.0
  O  O219  1  0.25469761  0.90579164  0.20084457  1.0
  O  O220  1  0.28125250  0.78069373  0.33592061  1.0
  O  O221  1  0.40202189  0.64260375  0.19712010  1.0
  O  O222  1  0.40754027  0.75522441  0.20008349  1.0
  O  O223  1  0.99884470  0.50048458  0.00033306  1.0
  O  O224  1  0.84287293  0.49554543  0.05025169  1.0
  O  O225  1  0.00373620  0.61306168  0.05830220  1.0
  O  O226  1  0.10809303  0.34668703  0.05353483  1.0
  O  O227  1  0.84599120  0.60936156  0.05346406  1.0
  O  O228  1  0.99464838  0.34299270  0.05006390  1.0
  O  O229  1  0.11259865  0.50356027  0.05796989  1.0
  O  O230  1  0.18373489  0.42314071  0.97736430  1.0
  O  O231  1  0.96891062  0.46930459  0.91485265  1.0
  O  O232  1  0.12538802  0.47403593  0.91882847  1.0
  O  O233  1  0.91405427  0.41426646  0.96906451  1.0
  O  O234  1  0.92211560  0.68492669  0.97754676  1.0
  O  O235  1  0.97351348  0.62625578  0.91914441  1.0
  O  O236  1  0.48209760  0.21824537  0.60049836  1.0
  O  O237  1  0.76754251  0.03164974  0.64991628  1.0
  O  O238  1  0.34112259  0.84046635  0.45864786  1.0
  O  O239  1  0.40893318  0.90958520  0.29131603  1.0
  O  O240  1  0.79095514  0.29154625  0.90923196  1.0
  O  O241  1  0.95870637  0.45856767  0.84073665  1.0
  O  O242  1  0.03159064  0.76749302  0.14958879  1.0
  O  O243  1  0.21849284  0.48220508  0.10043656  1.0
