# generated using pymatgen
data_CuH4(C5O2)2
_symmetry_space_group_name_H-M   'P 1'
_cell_length_a   12.95951178
_cell_length_b   22.41671412
_cell_length_c   22.41662446
_cell_angle_alpha   119.99986722
_cell_angle_beta   89.99999972
_cell_angle_gamma   89.99999956
_symmetry_Int_Tables_number   1
_chemical_formula_structural   CuH4(C5O2)2
_chemical_formula_sum   'Cu12 H48 C120 O48'
_cell_volume   5639.77818258
_cell_formula_units_Z   12
loop_
 _symmetry_equiv_pos_site_id
 _symmetry_equiv_pos_as_xyz
  1  'x, y, z'
loop_
 _atom_site_type_symbol
 _atom_site_label
 _atom_site_symmetry_multiplicity
 _atom_site_fract_x
 _atom_site_fract_y
 _atom_site_fract_z
 _atom_site_occupancy
  Cu  Cu0  1  0.74999984  0.99998867  0.62156002  1.0
  Cu  Cu1  1  0.25000029  0.37842746  0.99998676  1.0
  Cu  Cu2  1  0.74999985  0.37843878  0.37842862  1.0
  Cu  Cu3  1  0.25000030  0.00001134  0.37844019  1.0
  Cu  Cu4  1  0.74999985  0.62157255  0.00001345  1.0
  Cu  Cu5  1  0.25000029  0.62156071  0.62157132  1.0
  Cu  Cu6  1  0.74999984  0.99999228  0.73113675  1.0
  Cu  Cu7  1  0.25000029  0.26885148  0.99999337  1.0
  Cu  Cu8  1  0.74999985  0.26885817  0.26885130  1.0
  Cu  Cu9  1  0.25000030  0.00000721  0.26886275  1.0
  Cu  Cu10  1  0.74999985  0.73114905  0.00000710  1.0
  Cu  Cu11  1  0.25000029  0.73114184  0.73114891  1.0
  H  H12  1  0.90419084  0.82511524  0.49286910  1.0
  H  H13  1  0.40419129  0.33224509  0.82511402  1.0
  H  H14  1  0.90419161  0.50713138  0.33224579  1.0
  H  H15  1  0.40419052  0.17488528  0.50713136  1.0
  H  H16  1  0.90419161  0.66775543  0.17488599  1.0
  H  H17  1  0.40419206  0.49286862  0.66775396  1.0
  H  H18  1  0.59581193  0.33224870  0.50712638  1.0
  H  H19  1  0.09581394  0.82512297  0.33225021  1.0
  H  H20  1  0.59581348  0.49287223  0.82512335  1.0
  H  H21  1  0.09581239  0.66775131  0.49287338  1.0
  H  H22  1  0.59581348  0.17487755  0.66775025  1.0
  H  H23  1  0.09581317  0.50712779  0.17487686  1.0
  H  H24  1  0.09580930  0.17488528  0.50713136  1.0
  H  H25  1  0.59580808  0.66775543  0.17488599  1.0
  H  H26  1  0.09580776  0.49286862  0.66775396  1.0
  H  H27  1  0.59580962  0.82511524  0.49286910  1.0
  H  H28  1  0.09580853  0.33224509  0.82511402  1.0
  H  H29  1  0.59580808  0.50713139  0.33224580  1.0
  H  H30  1  0.40418821  0.66775131  0.49287338  1.0
  H  H31  1  0.90418621  0.17487755  0.66775025  1.0
  H  H32  1  0.40418744  0.50712779  0.17487686  1.0
  H  H33  1  0.90418775  0.33224870  0.50712638  1.0
  H  H34  1  0.40418589  0.82512297  0.33225021  1.0
  H  H35  1  0.90418620  0.49287223  0.82512335  1.0
  H  H36  1  0.99998457  0.84224973  0.68452100  1.0
  H  H37  1  0.49998425  0.15772760  0.84224878  1.0
  H  H38  1  0.99998458  0.31548044  0.15772917  1.0
  H  H39  1  0.49998425  0.15775027  0.31547875  1.0
  H  H40  1  0.99998380  0.84227292  0.15775168  1.0
  H  H41  1  0.49998347  0.68451957  0.84227148  1.0
  H  H42  1  0.00001557  0.15775028  0.31547876  1.0
  H  H43  1  0.50001589  0.84227292  0.15775168  1.0
  H  H44  1  0.00001634  0.68451957  0.84227148  1.0
  H  H45  1  0.50001589  0.84224974  0.68452101  1.0
  H  H46  1  0.00001557  0.15772761  0.84224879  1.0
  H  H47  1  0.50001512  0.31548044  0.15772917  1.0
  H  H48  1  0.99999923  0.60267793  0.39730802  1.0
  H  H49  1  0.49999968  0.20537029  0.60267766  1.0
  H  H50  1  0.00000092  0.60269287  0.20537000  1.0
  H  H51  1  0.49999968  0.39732208  0.60269263  1.0
  H  H52  1  0.00000014  0.79462971  0.39732254  1.0
  H  H53  1  0.50000045  0.39730713  0.79463020  1.0
  H  H54  1  0.00000014  0.39732208  0.60269263  1.0
  H  H55  1  0.50000046  0.79462971  0.39732254  1.0
  H  H56  1  0.99999923  0.39730713  0.79463020  1.0
  H  H57  1  0.50000123  0.60267793  0.39730802  1.0
  H  H58  1  0.00000014  0.20537030  0.60267767  1.0
  H  H59  1  0.49999969  0.60269287  0.20537000  1.0
  C  C60  1  0.94748028  0.80375739  0.51945760  1.0
  C  C61  1  0.44747996  0.28429848  0.80375708  1.0
  C  C62  1  0.94748028  0.48054264  0.28429946  1.0
  C  C63  1  0.44747996  0.19624210  0.48054145  1.0
  C  C64  1  0.94748028  0.71570152  0.19624312  1.0
  C  C65  1  0.44747996  0.51945738  0.71570075  1.0
  C  C66  1  0.55252327  0.28430982  0.48054281  1.0
  C  C67  1  0.05252450  0.80376821  0.28431075  1.0
  C  C68  1  0.55252249  0.51945583  0.80376765  1.0
  C  C69  1  0.05252295  0.71568967  0.51945669  1.0
  C  C70  1  0.55252404  0.19623231  0.71568926  1.0
  C  C71  1  0.05252296  0.48054367  0.19623230  1.0
  C  C72  1  0.05251986  0.19624210  0.48054145  1.0
  C  C73  1  0.55252019  0.71570152  0.19624312  1.0
  C  C74  1  0.05252063  0.51945738  0.71570075  1.0
  C  C75  1  0.55252018  0.80375740  0.51945761  1.0
  C  C76  1  0.05251986  0.28429848  0.80375708  1.0
  C  C77  1  0.55251941  0.48054264  0.28429946  1.0
  C  C78  1  0.44747687  0.71568967  0.51945669  1.0
  C  C79  1  0.94747564  0.19623231  0.71568926  1.0
  C  C80  1  0.44747688  0.48054367  0.19623230  1.0
  C  C81  1  0.94747719  0.28430982  0.48054281  1.0
  C  C82  1  0.44747610  0.80376821  0.28431075  1.0
  C  C83  1  0.94747719  0.51945583  0.80376765  1.0
  C  C84  1  0.88191608  0.90341037  0.62691989  1.0
  C  C85  1  0.38191653  0.27648999  0.90341124  1.0
  C  C86  1  0.88191531  0.37308013  0.27649082  1.0
  C  C87  1  0.38191730  0.09658861  0.37307891  1.0
  C  C88  1  0.88191608  0.72351053  0.09658877  1.0
  C  C89  1  0.38191498  0.62691987  0.72350938  1.0
  C  C90  1  0.61807898  0.27651060  0.37308345  1.0
  C  C91  1  0.11807866  0.90342737  0.27650944  1.0
  C  C92  1  0.61807897  0.62691781  0.90342839  1.0
  C  C93  1  0.11807943  0.72348941  0.62691631  1.0
  C  C94  1  0.61807821  0.09657264  0.72349032  1.0
  C  C95  1  0.11807944  0.37308169  0.09657156  1.0
  C  C96  1  0.11808252  0.09658861  0.37307891  1.0
  C  C97  1  0.61808361  0.72351053  0.09658877  1.0
  C  C98  1  0.11808483  0.62691987  0.72350938  1.0
  C  C99  1  0.61808361  0.90341037  0.62691989  1.0
  C  C100  1  0.11808329  0.27648999  0.90341124  1.0
  C  C101  1  0.61808439  0.37308013  0.27649082  1.0
  C  C102  1  0.38192116  0.72348941  0.62691631  1.0
  C  C103  1  0.88192148  0.09657264  0.72349032  1.0
  C  C104  1  0.38192040  0.37308168  0.09657155  1.0
  C  C105  1  0.88192148  0.27651060  0.37308345  1.0
  C  C106  1  0.38192194  0.90342737  0.27650944  1.0
  C  C107  1  0.88192070  0.62691781  0.90342839  1.0
  C  C108  1  0.94620785  0.83955934  0.59161786  1.0
  C  C109  1  0.44620753  0.24793970  0.83955950  1.0
  C  C110  1  0.94620709  0.40838294  0.24794214  1.0
  C  C111  1  0.44620753  0.16043964  0.40838138  1.0
  C  C112  1  0.94620708  0.75206030  0.16044070  1.0
  C  C113  1  0.44620753  0.59161810  0.75205992  1.0
  C  C114  1  0.55380186  0.24795465  0.40837895  1.0
  C  C115  1  0.05380464  0.83957583  0.24795483  1.0
  C  C116  1  0.55380572  0.59162016  0.83957591  1.0
  C  C117  1  0.05380541  0.75204639  0.59162088  1.0
  C  C118  1  0.55380495  0.16042419  0.75204538  1.0
  C  C119  1  0.05380541  0.40837985  0.16042519  1.0
  C  C120  1  0.05379229  0.16043964  0.40838138  1.0
  C  C121  1  0.55379261  0.75206030  0.16044070  1.0
  C  C122  1  0.05379228  0.59161810  0.75205992  1.0
  C  C123  1  0.55379184  0.83955934  0.59161786  1.0
  C  C124  1  0.05379306  0.24793971  0.83955951  1.0
  C  C125  1  0.55379261  0.40838294  0.24794214  1.0
  C  C126  1  0.44619442  0.75204639  0.59162088  1.0
  C  C127  1  0.94619550  0.16042419  0.75204538  1.0
  C  C128  1  0.44619442  0.40837985  0.16042519  1.0
  C  C129  1  0.94619782  0.24795465  0.40837895  1.0
  C  C130  1  0.44619519  0.83957583  0.24795483  1.0
  C  C131  1  0.94619473  0.59162016  0.83957591  1.0
  C  C132  1  0.00000246  0.70299076  0.40599075  1.0
  C  C133  1  0.50000354  0.29699894  0.70299038  1.0
  C  C134  1  0.00000169  0.59400973  0.29700006  1.0
  C  C135  1  0.50000354  0.29700924  0.59400945  1.0
  C  C136  1  0.00000400  0.70300107  0.29700983  1.0
  C  C137  1  0.50000277  0.40599028  0.70300015  1.0
  C  C138  1  0.99999691  0.29700924  0.59400945  1.0
  C  C139  1  0.49999660  0.70300106  0.29700982  1.0
  C  C140  1  0.99999691  0.40599027  0.70300014  1.0
  C  C141  1  0.49999737  0.70299076  0.40599075  1.0
  C  C142  1  0.99999614  0.29699894  0.70299038  1.0
  C  C143  1  0.49999815  0.59400973  0.29700006  1.0
  C  C144  1  0.99999692  0.74112974  0.48226600  1.0
  C  C145  1  0.49999814  0.25886203  0.74112902  1.0
  C  C146  1  0.99999692  0.51773382  0.25886300  1.0
  C  C147  1  0.49999660  0.25886975  0.51773350  1.0
  C  C148  1  0.99999846  0.74113799  0.25887119  1.0
  C  C149  1  0.49999814  0.48226568  0.74113740  1.0
  C  C150  1  0.00000322  0.25886975  0.51773350  1.0
  C  C151  1  0.50000123  0.74113799  0.25887119  1.0
  C  C152  1  0.00000168  0.48226568  0.74113740  1.0
  C  C153  1  0.50000355  0.74112974  0.48226600  1.0
  C  C154  1  0.00000168  0.25886203  0.74112902  1.0
  C  C155  1  0.50000278  0.51773382  0.25886300  1.0
  C  C156  1  0.99999383  0.81418778  0.62839894  1.0
  C  C157  1  0.49999274  0.18578802  0.81418657  1.0
  C  C158  1  0.99999383  0.37160178  0.18578895  1.0
  C  C159  1  0.49999351  0.18581223  0.37160126  1.0
  C  C160  1  0.99999306  0.81421199  0.18581363  1.0
  C  C161  1  0.49999273  0.62839719  0.81421163  1.0
  C  C162  1  0.00000631  0.18581223  0.37160126  1.0
  C  C163  1  0.50000663  0.81421200  0.18581364  1.0
  C  C164  1  0.00000708  0.62839720  0.81421164  1.0
  C  C165  1  0.50000586  0.81418778  0.62839894  1.0
  C  C166  1  0.00000708  0.18578802  0.81418657  1.0
  C  C167  1  0.50000664  0.37160178  0.18578895  1.0
  C  C168  1  0.00000246  0.63076153  0.36922930  1.0
  C  C169  1  0.50000354  0.26153336  0.63076232  1.0
  C  C170  1  0.00000323  0.63077080  0.26153261  1.0
  C  C171  1  0.50000277  0.36923848  0.63077091  1.0
  C  C172  1  0.00000323  0.73846716  0.36923814  1.0
  C  C173  1  0.50000354  0.36922921  0.73846804  1.0
  C  C174  1  0.99999691  0.36923848  0.63077091  1.0
  C  C175  1  0.49999737  0.73846716  0.36923814  1.0
  C  C176  1  0.99999691  0.36922921  0.73846804  1.0
  C  C177  1  0.49999814  0.63076152  0.36922929  1.0
  C  C178  1  0.99999691  0.26153336  0.63076232  1.0
  C  C179  1  0.49999660  0.63077080  0.26153261  1.0
  O  O180  1  0.85677470  0.92637071  0.68973473  1.0
  O  O181  1  0.35677361  0.23663364  0.92637222  1.0
  O  O182  1  0.85677470  0.31026601  0.23663646  1.0
  O  O183  1  0.35677361  0.07362775  0.31026202  1.0
  O  O184  1  0.85677393  0.76336688  0.07362824  1.0
  O  O185  1  0.35677515  0.68973451  0.76336400  1.0
  O  O186  1  0.64322962  0.23665168  0.31025904  1.0
  O  O187  1  0.14323007  0.92639287  0.23665172  1.0
  O  O188  1  0.64322884  0.68974017  0.92639316  1.0
  O  O189  1  0.14323007  0.76334783  0.68974047  1.0
  O  O190  1  0.64322962  0.07360714  0.76334848  1.0
  O  O191  1  0.14322931  0.31026035  0.07360730  1.0
  O  O192  1  0.14322621  0.07362776  0.31026203  1.0
  O  O193  1  0.64322653  0.76336688  0.07362824  1.0
  O  O194  1  0.14322544  0.68973451  0.76336400  1.0
  O  O195  1  0.64322576  0.92637071  0.68973473  1.0
  O  O196  1  0.14322621  0.23663364  0.92637222  1.0
  O  O197  1  0.64322499  0.31026601  0.23663646  1.0
  O  O198  1  0.35676975  0.76334783  0.68974047  1.0
  O  O199  1  0.85677007  0.07360714  0.76334848  1.0
  O  O200  1  0.35677130  0.31026035  0.07360730  1.0
  O  O201  1  0.85677007  0.23665167  0.31025903  1.0
  O  O202  1  0.35676975  0.92639287  0.23665172  1.0
  O  O203  1  0.85677083  0.68974017  0.92639316  1.0
  O  O204  1  0.85445285  0.92842393  0.58898375  1.0
  O  O205  1  0.35445253  0.33943752  0.92842373  1.0
  O  O206  1  0.85445209  0.41101617  0.33944093  1.0
  O  O207  1  0.35445331  0.07157556  0.41101441  1.0
  O  O208  1  0.85445286  0.66056300  0.07157673  1.0
  O  O209  1  0.35445176  0.58898436  0.66055954  1.0
  O  O210  1  0.64553989  0.33945092  0.41100998  1.0
  O  O211  1  0.14553880  0.92844144  0.33945226  1.0
  O  O212  1  0.64553988  0.58898899  0.92844295  1.0
  O  O213  1  0.14553957  0.66054858  0.58898908  1.0
  O  O214  1  0.64553912  0.07155856  0.66054794  1.0
  O  O215  1  0.14554035  0.41101102  0.07155681  1.0
  O  O216  1  0.14554729  0.07157557  0.41101442  1.0
  O  O217  1  0.64554684  0.66056300  0.07157673  1.0
  O  O218  1  0.14554806  0.58898436  0.66055954  1.0
  O  O219  1  0.64554683  0.92842393  0.58898375  1.0
  O  O220  1  0.14554729  0.33943752  0.92842373  1.0
  O  O221  1  0.64554761  0.41101617  0.33944093  1.0
  O  O222  1  0.35446103  0.66054858  0.58898908  1.0
  O  O223  1  0.85446057  0.07155856  0.66054794  1.0
  O  O224  1  0.35446026  0.41101102  0.07155681  1.0
  O  O225  1  0.85446057  0.33945092  0.41100998  1.0
  O  O226  1  0.35446102  0.92844144  0.33945226  1.0
  O  O227  1  0.85446056  0.58898899  0.92844295  1.0
