# generated using pymatgen
data_Zn2H21C44(N4O7)2
_symmetry_space_group_name_H-M   'P 1'
_cell_length_a   16.45788124
_cell_length_b   17.65729132
_cell_length_c   30.29840469
_cell_angle_alpha   89.31566079
_cell_angle_beta   86.18766579
_cell_angle_gamma   87.88708436
_symmetry_Int_Tables_number   1
_chemical_formula_structural   Zn2H21C44(N4O7)2
_chemical_formula_sum   'Zn4 H42 C88 N16 O28'
_cell_volume   8778.91073930
_cell_formula_units_Z   2
loop_
 _symmetry_equiv_pos_site_id
 _symmetry_equiv_pos_as_xyz
  1  'x, y, z'
loop_
 _atom_site_type_symbol
 _atom_site_label
 _atom_site_symmetry_multiplicity
 _atom_site_fract_x
 _atom_site_fract_y
 _atom_site_fract_z
 _atom_site_occupancy
  Zn  Zn0  1  0.41707010  0.50945635  0.50103580  1.0
  Zn  Zn1  1  0.58518889  0.49381704  0.49684651  1.0
  Zn  Zn2  1  0.09451103  0.49906105  0.97667926  1.0
  Zn  Zn3  1  0.90366655  0.50207511  0.02275407  1.0
  H  H4  1  0.70270513  0.58221254  0.53312865  1.0
  H  H5  1  0.85268837  0.58788147  0.54060096  1.0
  H  H6  1  0.88175084  0.38075213  0.46448308  1.0
  H  H7  1  0.11782879  0.56510356  0.56444514  1.0
  H  H8  1  0.30410153  0.43943263  0.45174472  1.0
  H  H9  1  0.15449558  0.41760884  0.45070902  1.0
  H  H10  1  0.38773058  0.73537394  0.49501179  1.0
  H  H11  1  0.37933786  0.87768625  0.49898907  1.0
  H  H12  1  0.64113113  0.87826463  0.50409034  1.0
  H  H13  1  0.36119925  0.12381444  0.49929377  1.0
  H  H14  1  0.61740988  0.26360224  0.50464864  1.0
  H  H15  1  0.62235837  0.12182151  0.50813221  1.0
  H  H16  1  0.35965579  0.50453899  0.64064940  1.0
  H  H17  1  0.35121211  0.49764787  0.72342468  1.0
  H  H18  1  0.25927895  0.46018259  0.97830137  1.0
  H  H19  1  0.38989358  0.45556465  0.93007955  1.0
  H  H20  1  0.82862113  0.49967891  0.84268294  1.0
  H  H21  1  0.69996180  0.49367592  0.80270961  1.0
  H  H22  1  0.68847876  0.48525724  0.96672774  1.0
  H  H23  1  0.56094430  0.48082192  0.92755041  1.0
  H  H24  1  0.12253153  0.51086988  0.87134525  1.0
  H  H25  1  0.24763584  0.50677965  0.81862326  1.0
  H  H26  1  0.62055959  0.48198007  0.63850181  1.0
  H  H27  1  0.61241782  0.47876482  0.72160504  1.0
  H  H28  1  0.63579523  0.50947275  0.35886222  1.0
  H  H29  1  0.64496650  0.50575718  0.27568098  1.0
  H  H30  1  0.73692725  0.51515693  0.02051134  1.0
  H  H31  1  0.60599685  0.51148078  0.06861808  1.0
  H  H32  1  0.17008025  0.47652677  0.15470192  1.0
  H  H33  1  0.29851254  0.47686360  0.19533936  1.0
  H  H34  1  0.30865601  0.52065113  0.03288994  1.0
  H  H35  1  0.43681057  0.51741889  0.07255577  1.0
  H  H36  1  0.87609413  0.50049551  0.12911688  1.0
  H  H37  1  0.75099222  0.49746855  0.18167366  1.0
  H  H38  1  0.37749519  0.48341693  0.36070782  1.0
  H  H39  1  0.38606197  0.48098879  0.27757204  1.0
  H  H40  1  0.07122177  0.73166640  0.93972694  1.0
  H  H41  1  0.07312585  0.87232173  0.93980860  1.0
  H  H42  1  0.93072803  0.87350566  0.06487653  1.0
  H  H43  1  0.08764902  0.12473009  0.94431064  1.0
  H  H44  1  0.91911325  0.26908497  0.05877036  1.0
  H  H45  1  0.92001209  0.12827263  0.06028299  1.0
  C  C46  1  0.51641254  0.64423088  0.49686854  1.0
  C  C47  1  0.49586104  0.49798327  0.58523024  1.0
  C  C48  1  0.48977114  0.35682005  0.49947146  1.0
  C  C49  1  0.50096759  0.50007612  0.41373476  1.0
  C  C50  1  0.00033603  0.63673554  0.99927521  1.0
  C  C51  1  0.84501401  0.49913593  0.93115518  1.0
  C  C52  1  0.99921538  0.36299432  0.00206671  1.0
  C  C53  1  0.15419847  0.49556100  0.06659916  1.0
  C  C54  1  0.74503602  0.53944740  0.51827062  1.0
  C  C55  1  0.82818198  0.54186450  0.52260186  1.0
  C  C56  1  0.87974685  0.48468600  0.50294008  1.0
  C  C57  1  0.84487096  0.42689947  0.47977530  1.0
  C  C58  1  0.76147526  0.43136054  0.47668800  1.0
  C  C59  1  0.96481904  0.48504251  0.50553229  1.0
  C  C60  1  0.03855392  0.48566049  0.50637211  1.0
  C  C61  1  0.12358364  0.49164031  0.50667752  1.0
  C  C62  1  0.15615912  0.53706893  0.53849000  1.0
  C  C63  1  0.23932566  0.54595940  0.53507183  1.0
  C  C64  1  0.25991552  0.46696253  0.47527708  1.0
  C  C65  1  0.17717063  0.45485240  0.47508341  1.0
  C  C66  1  0.51712546  0.72827317  0.49663200  1.0
  C  C67  1  0.44204945  0.76832154  0.49650059  1.0
  C  C68  1  0.43760862  0.84638990  0.49896952  1.0
  C  C69  1  0.50945293  0.88654676  0.50181581  1.0
  C  C70  1  0.58549189  0.84736046  0.50203413  1.0
  C  C71  1  0.58790169  0.76915246  0.49918592  1.0
  C  C72  1  0.50433579  0.96588448  0.50389395  1.0
  C  C73  1  0.49614663  0.03458127  0.50465591  1.0
  C  C74  1  0.49232842  0.11406426  0.50398572  1.0
  C  C75  1  0.41740586  0.15410794  0.50064133  1.0
  C  C76  1  0.41699149  0.23242978  0.49821931  1.0
  C  C77  1  0.48841245  0.27270374  0.49973977  1.0
  C  C78  1  0.56220539  0.23181455  0.50356290  1.0
  C  C79  1  0.56487764  0.15361188  0.50556203  1.0
  C  C80  1  0.49069181  0.49382926  0.63474854  1.0
  C  C81  1  0.76704246  0.49379357  0.90722818  1.0
  C  C82  1  0.41468943  0.49821232  0.65862185  1.0
  C  C83  1  0.40997372  0.49481773  0.70459704  1.0
  C  C84  1  0.25995779  0.46990843  0.94273273  1.0
  C  C85  1  0.33159595  0.46761480  0.91607084  1.0
  C  C86  1  0.76949627  0.49546668  0.86084322  1.0
  C  C87  1  0.69813892  0.49210779  0.83871587  1.0
  C  C88  1  0.69114100  0.48772540  0.93079090  1.0
  C  C89  1  0.61968545  0.48473333  0.90901854  1.0
  C  C90  1  0.18308334  0.49890940  0.88295113  1.0
  C  C91  1  0.25247295  0.49663537  0.85388462  1.0
  C  C92  1  0.56202980  0.48590328  0.65749859  1.0
  C  C93  1  0.55759059  0.48381216  0.70341245  1.0
  C  C94  1  0.48149671  0.48832685  0.72744613  1.0
  C  C95  1  0.47815203  0.48691652  0.77627070  1.0
  C  C96  1  0.32895363  0.48241096  0.87072032  1.0
  C  C97  1  0.40700846  0.48378948  0.84287890  1.0
  C  C98  1  0.62214371  0.48710545  0.86257673  1.0
  C  C99  1  0.54564173  0.48523132  0.83981647  1.0
  C  C100  1  0.50611567  0.49722515  0.36432290  1.0
  C  C101  1  0.23146240  0.49749381  0.09125341  1.0
  C  C102  1  0.58173265  0.50319856  0.34054898  1.0
  C  C103  1  0.58671523  0.50099195  0.29459820  1.0
  C  C104  1  0.73636980  0.51117314  0.05639248  1.0
  C  C105  1  0.66487707  0.50920512  0.08296850  1.0
  C  C106  1  0.22898347  0.48564172  0.13718622  1.0
  C  C107  1  0.30019265  0.48558650  0.15963407  1.0
  C  C108  1  0.30691227  0.50970816  0.06836197  1.0
  C  C109  1  0.37827038  0.50853272  0.09043320  1.0
  C  C110  1  0.81501100  0.50272477  0.11707810  1.0
  C  C111  1  0.74555742  0.50103722  0.14607796  1.0
  C  C112  1  0.43557825  0.48847178  0.34167678  1.0
  C  C113  1  0.44026772  0.48684471  0.29579837  1.0
  C  C114  1  0.51583965  0.49334230  0.27182702  1.0
  C  C115  1  0.51929077  0.49389088  0.22306129  1.0
  C  C116  1  0.66848045  0.50356477  0.12885935  1.0
  C  C117  1  0.59057520  0.50019851  0.15664017  1.0
  C  C118  1  0.37587269  0.49644739  0.13643331  1.0
  C  C119  1  0.45213855  0.49611114  0.15944292  1.0
  C  C120  1  0.00112707  0.72200629  0.00147920  1.0
  C  C121  1  0.04087788  0.76347845  0.96707688  1.0
  C  C122  1  0.04176741  0.84223680  0.96713352  1.0
  C  C123  1  0.00210275  0.88432008  0.00226535  1.0
  C  C124  1  0.96187998  0.84348153  0.03708361  1.0
  C  C125  1  0.96238548  0.76469820  0.03620699  1.0
  C  C126  1  0.00263061  0.96503848  0.00258305  1.0
  C  C127  1  0.00343288  0.03441929  0.00238840  1.0
  C  C128  1  0.00348663  0.11516013  0.00233256  1.0
  C  C129  1  0.05036158  0.15535604  0.96976356  1.0
  C  C130  1  0.04879693  0.23418018  0.96991601  1.0
  C  C131  1  0.00175231  0.27753527  0.00148343  1.0
  C  C132  1  0.95580154  0.23668668  0.03382583  1.0
  C  C133  1  0.95638322  0.15788241  0.03463433  1.0
  N  N134  1  0.71165776  0.48516664  0.49495657  1.0
  N  N135  1  0.29071478  0.51365046  0.50441953  1.0
  N  N136  1  0.18670657  0.48704750  0.92684793  1.0
  N  N137  1  0.40432032  0.48656569  0.79875758  1.0
  N  N138  1  0.47496393  0.48277510  0.86498077  1.0
  N  N139  1  0.54962480  0.48655263  0.79537888  1.0
  N  N140  1  0.81072382  0.50707525  0.07279937  1.0
  N  N141  1  0.59308697  0.49726414  0.20073264  1.0
  N  N142  1  0.52276533  0.50046700  0.13446577  1.0
  N  N143  1  0.44802638  0.49216527  0.20384016  1.0
  N  N144  1  0.72613669  0.37240590  0.44972696  1.0
  N  N145  1  0.27249523  0.59845161  0.56695791  1.0
  N  N146  1  0.66962746  0.73088211  0.49775134  1.0
  N  N147  1  0.33735596  0.27116479  0.49156301  1.0
  N  N148  1  0.92140428  0.72762999  0.07546807  1.0
  N  N149  1  0.09891855  0.27034122  0.93346877  1.0
  O  O150  1  0.45073089  0.61588686  0.48648239  1.0
  O  O151  1  0.57999095  0.60807696  0.50833291  1.0
  O  O152  1  0.56389451  0.47973549  0.56489175  1.0
  O  O153  1  0.43123928  0.51986868  0.56693432  1.0
  O  O154  1  0.55876985  0.38449395  0.48901823  1.0
  O  O155  1  0.42371518  0.39313150  0.51036512  1.0
  O  O156  1  0.43223918  0.48738493  0.43407166  1.0
  O  O157  1  0.56581135  0.51509198  0.43203609  1.0
  O  O158  1  0.04920224  0.60446984  0.97040811  1.0
  O  O159  1  0.95044644  0.60345426  0.02626651  1.0
  O  O160  1  0.83169048  0.49993553  0.97419250  1.0
  O  O161  1  0.91227486  0.50258451  0.91042910  1.0
  O  O162  1  0.94512827  0.39532781  0.02805592  1.0
  O  O163  1  0.05134843  0.39607098  0.97640148  1.0
  O  O164  1  0.16708425  0.50961821  0.02427531  1.0
  O  O165  1  0.08778509  0.48098791  0.08597886  1.0
  O  O166  1  0.69218540  0.39416320  0.41673273  1.0
  O  O167  1  0.73797915  0.30609599  0.46221715  1.0
  O  O168  1  0.31513534  0.64927770  0.55133850  1.0
  O  O169  1  0.25062595  0.58809145  0.60632886  1.0
  O  O170  1  0.69783801  0.70666210  0.46165229  1.0
  O  O171  1  0.70530285  0.72904836  0.53256025  1.0
  O  O172  1  0.32800874  0.29886793  0.45441632  1.0
  O  O173  1  0.28467174  0.26939936  0.52254533  1.0
  O  O174  1  0.96585212  0.70124227  0.10352016  1.0
  O  O175  1  0.84608134  0.72930665  0.07783767  1.0
  O  O176  1  0.17257065  0.27435233  0.93847161  1.0
  O  O177  1  0.06366811  0.29010664  0.90031097  1.0
