# generated using pymatgen
data_Zn4H47C72N20Cl
_symmetry_space_group_name_H-M   'P 1'
_cell_length_a   19.37414890
_cell_length_b   19.95497752
_cell_length_c   21.21873411
_cell_angle_alpha   114.62614956
_cell_angle_beta   94.85299289
_cell_angle_gamma   114.85385769
_symmetry_Int_Tables_number   1
_chemical_formula_structural   Zn4H47C72N20Cl
_chemical_formula_sum   'Zn4 H47 C72 N20 Cl1'
_cell_volume   6422.35703855
_cell_formula_units_Z   1
loop_
 _symmetry_equiv_pos_site_id
 _symmetry_equiv_pos_as_xyz
  1  'x, y, z'
loop_
 _atom_site_type_symbol
 _atom_site_label
 _atom_site_symmetry_multiplicity
 _atom_site_fract_x
 _atom_site_fract_y
 _atom_site_fract_z
 _atom_site_occupancy
  Zn  Zn0  1  0.12195729  0.12574854  0.52021293  1.0
  Zn  Zn1  1  0.90213466  0.88387473  0.51122324  1.0
  Zn  Zn2  1  0.01992233  0.90379328  0.40456208  1.0
  Zn  Zn3  1  0.00352489  0.10857494  0.62723986  1.0
  H  H4  1  0.17175022  0.16005661  0.37840627  1.0
  H  H5  1  0.90503176  0.72437222  0.53155169  1.0
  H  H6  1  0.19369126  0.89462988  0.40268123  1.0
  H  H7  1  0.02904817  0.10327137  0.78803509  1.0
  H  H8  1  0.02571394  0.88009553  0.62430558  1.0
  H  H9  1  0.23580211  0.09581839  0.61585212  1.0
  H  H10  1  0.15144147  0.15049914  0.75234599  1.0
  H  H11  1  0.11157389  0.82125424  0.46283324  1.0
  H  H12  1  0.98724049  0.51520209  0.62441702  1.0
  H  H13  1  0.97069835  0.38746374  0.62660400  1.0
  H  H14  1  0.15974795  0.39658819  0.53114096  1.0
  H  H15  1  0.72101926  0.85197445  0.52896408  1.0
  H  H16  1  0.17663764  0.52488137  0.52914990  1.0
  H  H17  1  0.11631408  0.56481837  0.46684703  1.0
  H  H18  1  0.08963299  0.65964460  0.43613570  1.0
  H  H19  1  0.02225248  0.74602881  0.63026899  1.0
  H  H20  1  0.05050578  0.65272342  0.66200032  1.0
  H  H21  1  0.49505583  0.87066135  0.58081920  1.0
  H  H22  1  0.61999685  0.86928969  0.57155349  1.0
  H  H23  1  0.72469769  0.11850772  0.59224538  1.0
  H  H24  1  0.59995745  0.12007087  0.60261045  1.0
  H  H25  1  0.50594525  0.12341023  0.66771725  1.0
  H  H26  1  0.88286023  0.74172608  0.24187485  1.0
  H  H27  1  0.38011122  0.12318165  0.63706639  1.0
  H  H28  1  0.26533222  0.85728186  0.47339004  1.0
  H  H29  1  0.39176008  0.85845615  0.50234396  1.0
  H  H30  1  0.78472983  0.60781514  0.16475351  1.0
  H  H31  1  0.67149088  0.48062959  0.05668056  1.0
  H  H32  1  0.53353156  0.36672207  0.85326449  1.0
  H  H33  1  0.41881857  0.29293769  0.74082320  1.0
  H  H34  1  0.61781974  0.65638459  0.27241209  1.0
  H  H35  1  0.36992134  0.31420535  0.97332206  1.0
  H  H36  1  0.50484722  0.52540818  0.16466272  1.0
  H  H37  1  0.00528356  0.29765990  0.66816684  1.0
  H  H38  1  0.25489733  0.23973324  0.86195417  1.0
  H  H39  1  0.14811876  0.11230908  0.86457920  1.0
  H  H40  1  0.17551706  0.09701810  0.97322588  1.0
  H  H41  1  0.24760251  0.10460946  0.16791351  1.0
  H  H42  1  0.21285012  0.10968101  0.27911816  1.0
  H  H43  1  0.00350502  0.83878309  0.72998354  1.0
  H  H44  1  0.00251364  0.91396813  0.03762584  1.0
  H  H45  1  0.03150810  0.82454926  0.83932923  1.0
  H  H46  1  0.73538207  0.77134541  0.38225101  1.0
  H  H47  1  0.07981138  0.23414629  0.47460794  1.0
  H  H48  1  0.84931733  0.12027242  0.59537537  1.0
  H  H49  1  0.96299677  0.90664339  0.26927402  1.0
  H  H50  1  0.30907963  0.27634785  0.65572613  1.0
  C  C51  1  0.12062457  0.09861904  0.36281142  1.0
  C  C52  1  0.75371909  0.98868331  0.56793265  1.0
  C  C53  1  0.77818444  0.72172108  0.28618862  1.0
  C  C54  1  0.04887575  0.30095659  0.57345148  1.0
  C  C55  1  0.25965153  0.24074420  0.67030622  1.0
  C  C56  1  0.95072000  0.75539722  0.51120318  1.0
  C  C57  1  0.19269939  0.94398084  0.45027321  1.0
  C  C58  1  0.02351396  0.05066734  0.73867480  1.0
  C  C59  1  0.02049730  0.93594967  0.65486754  1.0
  C  C60  1  0.21438381  0.04732204  0.55875636  1.0
  C  C61  1  0.17879229  0.17693037  0.71960979  1.0
  C  C62  1  0.76384939  0.91731287  0.54487918  1.0
  C  C63  1  0.05563179  0.80425099  0.47535530  1.0
  C  C64  1  0.26051812  0.22912381  0.73137648  1.0
  C  C65  1  0.02136280  0.75274726  0.50602346  1.0
  C  C66  1  0.24387930  0.99339939  0.52273596  1.0
  C  C67  1  0.04216929  0.98731810  0.73097141  1.0
  C  C68  1  0.02645016  0.49046829  0.60498204  1.0
  C  C69  1  0.01679046  0.41785751  0.60592914  1.0
  C  C70  1  0.06227813  0.38040944  0.57697779  1.0
  C  C71  1  0.12082116  0.42176494  0.55067615  1.0
  C  C72  1  0.13042351  0.49444144  0.54971807  1.0
  C  C73  1  0.85789726  0.75964943  0.28592497  1.0
  C  C74  1  0.08191628  0.52928428  0.57509167  1.0
  C  C75  1  0.09683507  0.60540537  0.50374885  1.0
  C  C76  1  0.08143577  0.65869406  0.48608483  1.0
  C  C77  1  0.04969294  0.70642299  0.52876667  1.0
  C  C78  1  0.04155742  0.70504648  0.59355503  1.0
  C  C79  1  0.05752143  0.65236667  0.61141397  1.0
  C  C80  1  0.08163703  0.59799547  0.56492730  1.0
  C  C81  1  0.54513905  0.92505259  0.58279101  1.0
  C  C82  1  0.61584679  0.92429843  0.57734668  1.0
  C  C83  1  0.68175536  0.99268688  0.57889648  1.0
  C  C84  1  0.02184518  0.26971815  0.62028627  1.0
  C  C85  1  0.67499708  0.06411157  0.59056685  1.0
  C  C86  1  0.60458123  0.06529583  0.59683772  1.0
  C  C87  1  0.53719716  0.99486138  0.59094143  1.0
  C  C88  1  0.45347962  0.06505544  0.62426427  1.0
  C  C89  1  0.38232493  0.06477228  0.60733371  1.0
  C  C90  1  0.31432821  0.99131815  0.55015194  1.0
  C  C91  1  0.31827622  0.91623725  0.51570313  1.0
  C  C92  1  0.38927965  0.91651849  0.53275642  1.0
  C  C93  1  0.45947258  0.99197565  0.58501488  1.0
  C  C94  1  0.32824406  0.26417904  0.79381191  1.0
  C  C95  1  0.78274267  0.77560307  0.35740215  1.0
  C  C96  1  0.31594763  0.26757031  0.85959282  1.0
  C  C97  1  0.37967078  0.30879707  0.92200781  1.0
  C  C98  1  0.45877257  0.34790872  0.92043686  1.0
  C  C99  1  0.47181088  0.33819143  0.85379861  1.0
  C  C100  1  0.40750800  0.29759938  0.79160699  1.0
  C  C101  1  0.66062189  0.51938052  0.10437493  1.0
  C  C102  1  0.72339829  0.59117946  0.16466896  1.0
  C  C103  1  0.58103790  0.49656890  0.10362011  1.0
  C  C104  1  0.71007616  0.64377456  0.22591621  1.0
  C  C105  1  0.63031943  0.61781362  0.22585180  1.0
  C  C106  1  0.06113539  0.23789872  0.52226566  1.0
  C  C107  1  0.56690625  0.54484359  0.16599203  1.0
  C  C108  1  0.08691105  0.01872148  0.22394183  1.0
  C  C109  1  0.02885014  0.96253081  0.15371350  1.0
  C  C110  1  0.04847305  0.95631604  0.09088116  1.0
  C  C111  1  0.12740106  0.00793877  0.09549329  1.0
  C  C112  1  0.18638989  0.06456759  0.16433994  1.0
  C  C113  1  0.16614084  0.06790262  0.22620410  1.0
  C  C114  1  0.13890998  0.04119067  0.91937982  1.0
  C  C115  1  0.12258913  0.04900007  0.85881647  1.0
  C  C116  1  0.10340100  0.95987776  0.91293069  1.0
  C  C117  1  0.82909817  0.05382633  0.57812350  1.0
  C  C118  1  0.07107113  0.97673728  0.79004987  1.0
  C  C119  1  0.04267059  0.89546704  0.78283292  1.0
  C  C120  1  0.05790252  0.88706957  0.84350961  1.0
  C  C121  1  0.01341701  0.96970732  0.30707987  1.0
  C  C122  1  0.07155763  0.02835743  0.29246421  1.0
  N  N123  1  0.09424344  0.08134847  0.41366206  1.0
  N  N124  1  0.94414364  0.80466610  0.48566755  1.0
  N  N125  1  0.13808612  0.96757491  0.44374939  1.0
  N  N126  1  0.99262503  0.03700818  0.67246452  1.0
  N  N127  1  0.99085858  0.96589851  0.61995478  1.0
  N  N128  1  0.15129178  0.03204044  0.51133967  1.0
  N  N129  1  0.13323381  0.15902460  0.65713526  1.0
  N  N130  1  0.00958419  0.83598626  0.46410806  1.0
  N  N131  1  0.52751383  0.40363787  0.98246116  1.0
  N  N132  1  0.51268956  0.43223548  0.04241179  1.0
  N  N133  1  0.14727266  0.01253396  0.03477780  1.0
  N  N134  1  0.83923274  0.93951248  0.54331479  1.0
  N  N135  1  0.09967741  0.94745370  0.97330414  1.0
  N  N136  1  0.90477711  0.82871194  0.35156548  1.0
  N  N137  1  0.02002495  0.19514672  0.59874415  1.0
  N  N138  1  0.85913115  0.83930112  0.39645596  1.0
  N  N139  1  0.04389387  0.17467348  0.53792281  1.0
  N  N140  1  0.88015207  0.02389573  0.56358108  1.0
  N  N141  1  0.02818648  0.00134671  0.37978057  1.0
  N  N142  1  0.18361330  0.19923220  0.62681665  1.0
  Cl  Cl143  1  0.92826402  0.90057456  0.14247624  1.0
