# generated using pymatgen
data_Zn2H31C29(NO2)5
_symmetry_space_group_name_H-M   'P 1'
_cell_length_a   9.79087143
_cell_length_b   11.07730923
_cell_length_c   16.05655852
_cell_angle_alpha   89.65595274
_cell_angle_beta   88.20158312
_cell_angle_gamma   88.46503094
_symmetry_Int_Tables_number   1
_chemical_formula_structural   Zn2H31C29(NO2)5
_chemical_formula_sum   'Zn2 H31 C29 N5 O10'
_cell_volume   1739.93269745
_cell_formula_units_Z   1
loop_
 _symmetry_equiv_pos_site_id
 _symmetry_equiv_pos_as_xyz
  1  'x, y, z'
loop_
 _atom_site_type_symbol
 _atom_site_label
 _atom_site_symmetry_multiplicity
 _atom_site_fract_x
 _atom_site_fract_y
 _atom_site_fract_z
 _atom_site_occupancy
  Zn  Zn0  1  0.35443735  0.52925986  0.49850033  1.0
  Zn  Zn1  1  0.63655906  0.52341390  0.49993536  1.0
  H  H2  1  0.39330046  0.11973500  0.45881593  1.0
  H  H3  1  0.76952768  0.26522331  0.96911804  1.0
  H  H4  1  0.62433904  0.17457204  0.98967876  1.0
  H  H5  1  0.73064838  0.09717568  0.12167729  1.0
  H  H6  1  0.83885132  0.06542474  0.03255447  1.0
  H  H7  1  0.87633895  0.18651050  0.09997990  1.0
  H  H8  1  0.80566112  0.48588125  0.36741060  1.0
  H  H9  1  0.97590811  0.35879693  0.31899675  1.0
  H  H10  1  0.01115155  0.32082402  0.42563606  1.0
  H  H11  1  0.09967385  0.43898256  0.37487616  1.0
  H  H12  1  0.65302129  0.70400276  0.09411449  1.0
  H  H13  1  0.11939805  0.44080153  0.60677128  1.0
  H  H14  1  0.70321843  0.86744466  0.00328124  1.0
  H  H15  1  0.60033121  0.80479745  0.92630669  1.0
  H  H16  1  0.76102434  0.73448453  0.94840259  1.0
  H  H17  1  0.36968474  0.69300024  0.86739315  1.0
  H  H18  1  0.19034870  0.81111649  0.93619800  1.0
  H  H19  1  0.34058399  0.82448291  0.99630244  1.0
  H  H20  1  0.21218582  0.72166880  0.02748076  1.0
  H  H21  1  0.14849885  0.35226526  0.99932332  1.0
  H  H22  1  0.12968174  0.50398845  0.96240577  1.0
  H  H23  1  0.97672317  0.55562940  0.08617512  1.0
  H  H24  1  0.09999920  0.57976637  0.45216564  1.0
  H  H25  1  0.91099697  0.42976571  0.03350892  1.0
  H  H26  1  0.00106303  0.40715859  0.12693790  1.0
  H  H27  1  0.86591627  0.48023451  0.60903833  1.0
  H  H28  1  0.39874136  0.29338137  0.96518598  1.0
  H  H29  1  0.72862006  0.49683956  0.93551231  1.0
  H  H30  1  0.70243756  0.91309082  0.48716750  1.0
  H  H31  1  0.39546286  0.93122824  0.53455021  1.0
  H  H32  1  0.69386616  0.13738744  0.50716816  1.0
  C  C33  1  0.49024611  0.29301736  0.47825976  1.0
  C  C34  1  0.49553323  0.89098420  0.51808062  1.0
  C  C35  1  0.59974078  0.09046884  0.49485216  1.0
  C  C36  1  0.50792008  0.54698751  0.33384292  1.0
  C  C37  1  0.48934580  0.15942483  0.47568270  1.0
  C  C38  1  0.07046145  0.48084513  0.55227272  1.0
  C  C39  1  0.92366340  0.47894006  0.54967847  1.0
  C  C40  1  0.50284485  0.75744696  0.51626147  1.0
  C  C41  1  0.49623328  0.48751565  0.66035031  1.0
  C  C42  1  0.44044683  0.38080151  0.98044533  1.0
  C  C43  1  0.57272415  0.40164180  0.03146502  1.0
  C  C44  1  0.49678996  0.50613332  0.08249619  1.0
  C  C45  1  0.50672083  0.53917546  0.24426839  1.0
  C  C46  1  0.49126322  0.47359453  0.74994619  1.0
  C  C47  1  0.36501534  0.48589821  0.03084884  1.0
  C  C48  1  0.70722191  0.22281331  0.01930132  1.0
  C  C49  1  0.79330239  0.13799088  0.07162577  1.0
  C  C50  1  0.99995315  0.39497330  0.38002034  1.0
  C  C51  1  0.67033195  0.78226154  0.97669478  1.0
  C  C52  1  0.26578729  0.76096772  0.97308413  1.0
  C  C53  1  0.12973662  0.44690242  0.01886142  1.0
  C  C54  1  0.99703395  0.46076005  0.06923377  1.0
  C  C55  1  0.41497494  0.58123943  0.96334387  1.0
  C  C56  1  0.49345301  0.47555322  0.91372760  1.0
  C  C57  1  0.54991872  0.60057470  0.01532333  1.0
  C  C58  1  0.62612691  0.49473012  0.96445965  1.0
  C  C59  1  0.50155523  0.52358182  0.16935303  1.0
  C  C60  1  0.49067188  0.46884036  0.82584295  1.0
  C  C61  1  0.60388026  0.95969493  0.49891011  1.0
  N  N62  1  0.14961699  0.53583241  0.49912068  1.0
  N  N63  1  0.84647320  0.49264364  0.48453862  1.0
  N  N64  1  0.88717011  0.47428542  0.40602886  1.0
  N  N65  1  0.59870838  0.71291628  0.04111230  1.0
  N  N66  1  0.32698126  0.66314688  0.92226499  1.0
  O  O67  1  0.37563620  0.34836677  0.46883885  1.0
  O  O68  1  0.23899302  0.48212284  0.07135838  1.0
  O  O69  1  0.60367968  0.34294493  0.49090271  1.0
  O  O70  1  0.39414016  0.56738056  0.37207036  1.0
  O  O71  1  0.62360623  0.53099864  0.36796842  1.0
  O  O72  1  0.38923353  0.70471636  0.52738244  1.0
  O  O73  1  0.61910971  0.70489045  0.50274019  1.0
  O  O74  1  0.38457029  0.47826093  0.62267572  1.0
  O  O75  1  0.61336253  0.50993341  0.62734891  1.0
  O  O76  1  0.64852834  0.31524407  0.07310291  1.0
