# generated using pymatgen
data_Al2H6C24(S2O5)3
_symmetry_space_group_name_H-M   'P 1'
_cell_length_a   3.96272423
_cell_length_b   20.15270269
_cell_length_c   20.15268520
_cell_angle_alpha   60.00000717
_cell_angle_beta   89.99993787
_cell_angle_gamma   90.00000877
_symmetry_Int_Tables_number   1
_chemical_formula_structural   Al2H6C24(S2O5)3
_chemical_formula_sum   'Al2 H6 C24 S6 O15'
_cell_volume   1393.76878029
_cell_formula_units_Z   1
loop_
 _symmetry_equiv_pos_site_id
 _symmetry_equiv_pos_as_xyz
  1  'x, y, z'
loop_
 _atom_site_type_symbol
 _atom_site_label
 _atom_site_symmetry_multiplicity
 _atom_site_fract_x
 _atom_site_fract_y
 _atom_site_fract_z
 _atom_site_occupancy
  Al  Al0  1  0.00317084  0.99999782  0.50000122  1.0
  Al  Al1  1  0.00295765  0.66666453  0.16666726  1.0
  H  H2  1  0.47240165  0.43657651  0.38562743  1.0
  H  H3  1  0.47237659  0.88562115  0.17779690  1.0
  H  H4  1  0.47239467  0.67779592  0.93658109  1.0
  H  H5  1  0.49867936  0.26824209  0.21552334  1.0
  H  H6  1  0.49867821  0.71552301  0.51623357  1.0
  H  H7  1  0.49867776  0.01623248  0.76824303  1.0
  C  C8  1  0.50234225  0.94363653  0.61762598  1.0
  C  C9  1  0.50234283  0.11762400  0.43873627  1.0
  C  C10  1  0.50234017  0.93873533  0.44363855  1.0
  C  C11  1  0.50233105  0.54904817  0.22550567  1.0
  C  C12  1  0.50232612  0.72550111  0.22544658  1.0
  C  C13  1  0.50232910  0.72544500  0.04905149  1.0
  C  C14  1  0.49064168  0.25109005  0.31809875  1.0
  C  C15  1  0.48484521  0.41589783  0.34510606  1.0
  C  C16  1  0.49771486  0.20235389  0.39672263  1.0
  C  C17  1  0.49817718  0.46441225  0.26689672  1.0
  C  C18  1  0.50387999  0.33821267  0.36399200  1.0
  C  C19  1  0.50787488  0.32898950  0.29937113  1.0
  C  C20  1  0.49063858  0.81809651  0.43081041  1.0
  C  C21  1  0.48482491  0.84510375  0.23899705  1.0
  C  C22  1  0.49770203  0.89672078  0.40092132  1.0
  C  C23  1  0.49816662  0.76689375  0.26869041  1.0
  C  C24  1  0.50386218  0.86398728  0.29779482  1.0
  C  C25  1  0.50786677  0.79936825  0.37163777  1.0
  C  C26  1  0.49064792  0.93080872  0.75109293  1.0
  C  C27  1  0.48484075  0.73899657  0.91589854  1.0
  C  C28  1  0.49771387  0.90092004  0.70235891  1.0
  C  C29  1  0.49816986  0.76869044  0.96441586  1.0
  C  C30  1  0.50388344  0.79779304  0.83821789  1.0
  C  C31  1  0.50787572  0.87163754  0.82899318  1.0
  S  S32  1  0.51662347  0.25116279  0.44750617  1.0
  S  S33  1  0.52649871  0.41610356  0.21564226  1.0
  S  S34  1  0.51660094  0.94750476  0.30132829  1.0
  S  S35  1  0.52650289  0.71563936  0.36825416  1.0
  S  S36  1  0.51661986  0.80132718  0.75116690  1.0
  S  S37  1  0.52650157  0.86825353  0.91610655  1.0
  O  O38  1  0.73816034  0.98766517  0.42729261  1.0
  O  O39  1  0.73815989  0.92729014  0.58504081  1.0
  O  O40  1  0.73816025  0.08503832  0.48766841  1.0
  O  O41  1  0.26962891  0.92417257  0.49267221  1.0
  O  O42  1  0.26962667  0.08315149  0.42417481  1.0
  O  O43  1  0.26962872  0.99267004  0.58315573  1.0
  O  O44  1  0.73773779  0.74086607  0.08255479  1.0
  O  O45  1  0.73773491  0.58255180  0.17657945  1.0
  O  O46  1  0.73773229  0.67657648  0.24086889  1.0
  O  O47  1  0.27029921  0.67578291  0.08285309  1.0
  O  O48  1  0.27029397  0.74135992  0.17578529  1.0
  O  O49  1  0.27029369  0.58285027  0.24136355  1.0
  O  O50  1  0.48024491  0.22497900  0.26733648  1.0
  O  O51  1  0.48024650  0.76733488  0.50768313  1.0
  O  O52  1  0.48024358  0.00768198  0.72498120  1.0
