# generated using pymatgen
data_Zn4H52C79(N8F)2
_symmetry_space_group_name_H-M   'P 1'
_cell_length_a   19.63946919
_cell_length_b   20.83618062
_cell_length_c   21.38060652
_cell_angle_alpha   106.95244212
_cell_angle_beta   105.36236240
_cell_angle_gamma   113.72366044
_symmetry_Int_Tables_number   1
_chemical_formula_structural   Zn4H52C79(N8F)2
_chemical_formula_sum   'Zn4 H52 C79 N16 F2'
_cell_volume   6893.43171970
_cell_formula_units_Z   1
loop_
 _symmetry_equiv_pos_site_id
 _symmetry_equiv_pos_as_xyz
  1  'x, y, z'
loop_
 _atom_site_type_symbol
 _atom_site_label
 _atom_site_symmetry_multiplicity
 _atom_site_fract_x
 _atom_site_fract_y
 _atom_site_fract_z
 _atom_site_occupancy
  Zn  Zn0  1  0.40496709  0.38535479  0.49769538  1.0
  Zn  Zn1  1  0.62165262  0.62477101  0.50339439  1.0
  Zn  Zn2  1  0.41153645  0.49954669  0.41189539  1.0
  Zn  Zn3  1  0.61227868  0.52232875  0.60599316  1.0
  H  H4  1  0.26704875  0.21820455  0.35333823  1.0
  H  H5  1  0.71607142  0.55830628  0.42568266  1.0
  H  H6  1  0.64117994  0.02589632  0.55301129  1.0
  H  H7  1  0.68131889  0.09633111  0.46203717  1.0
  H  H8  1  0.88478285  0.27451794  0.30258360  1.0
  H  H9  1  0.99196888  0.41015676  0.51693683  1.0
  H  H10  1  0.94450373  0.51636072  0.49242341  1.0
  H  H11  1  0.99892987  0.50792481  0.38096865  1.0
  H  H12  1  0.83749875  0.38014733  0.27796399  1.0
  H  H13  1  0.59336862  0.42031446  0.80215259  1.0
  H  H14  1  0.43113817  0.38279135  0.29430629  1.0
  H  H15  1  0.62702226  0.77976271  0.54786828  1.0
  H  H16  1  0.40704892  0.34583626  0.16196204  1.0
  H  H17  1  0.66796329  0.51366997  0.25451054  1.0
  H  H18  1  0.59058077  0.40196695  0.00543199  1.0
  H  H19  1  0.34753627  0.35996183  0.85134998  1.0
  H  H20  1  0.40305072  0.30072340  0.04026555  1.0
  H  H21  1  0.35777024  0.40301343  0.75618143  1.0
  H  H22  1  0.40415527  0.33884747  0.94976380  1.0
  H  H23  1  0.58432431  0.37921819  0.89785906  1.0
  H  H24  1  0.66338953  0.46981769  0.13219363  1.0
  H  H25  1  0.08662944  0.28752711  0.22050555  1.0
  H  H26  1  0.30081822  0.55506607  0.45754234  1.0
  H  H27  1  0.69034146  0.76189757  0.84634135  1.0
  H  H28  1  0.79244085  0.92334123  0.76183567  1.0
  H  H29  1  0.88763260  0.08633518  0.00729589  1.0
  H  H30  1  0.98919160  0.00987801  0.16813286  1.0
  H  H31  1  0.74949099  0.87230376  0.96529124  1.0
  H  H32  1  0.12953295  0.11373549  0.26276060  1.0
  H  H33  1  0.86782704  0.96486350  0.06600109  1.0
  H  H34  1  0.94812192  0.18360060  0.12404615  1.0
  H  H35  1  0.85117398  0.03408098  0.88152714  1.0
  H  H36  1  0.63946458  0.59998148  0.33686407  1.0
  H  H37  1  0.65589604  0.65933841  0.74513898  1.0
  H  H38  1  0.40901732  0.23460474  0.40240564  1.0
  H  H39  1  0.64944067  0.39370701  0.51525686  1.0
  H  H40  1  0.22459803  0.37468409  0.27529740  1.0
  H  H41  1  0.36111755  0.38597806  0.62757086  1.0
  H  H42  1  0.32098983  0.64746815  0.37185377  1.0
  H  H43  1  0.36872323  0.64890084  0.31241363  1.0
  H  H44  1  0.32379988  0.56319904  0.32507235  1.0
  H  H45  1  0.84995322  0.23181763  0.42481584  1.0
  H  H46  1  0.80277255  0.28034960  0.46167188  1.0
  H  H47  1  0.75811273  0.22084212  0.36643621  1.0
  H  H48  1  0.21014342  0.33711584  0.47503800  1.0
  H  H49  1  0.63295052  0.30212189  0.64425509  1.0
  H  H50  1  0.69189628  0.33774875  0.59935795  1.0
  H  H51  1  0.67743051  0.40268743  0.66269741  1.0
  H  H52  1  0.62495745  0.52645190  0.76413063  1.0
  H  H53  1  0.44240802  0.97442624  0.32182460  1.0
  H  H54  1  0.57461541  0.94614255  0.33937620  1.0
  H  H55  1  0.40126898  0.90333122  0.41237894  1.0
  C  C56  1  0.27040945  0.26650841  0.34161903  1.0
  C  C57  1  0.24614965  0.39213146  0.47431437  1.0
  C  C58  1  0.56244502  0.49548834  0.72150484  1.0
  C  C59  1  0.69569095  0.52614446  0.45523739  1.0
  C  C60  1  0.43966936  0.65879188  0.41359068  1.0
  C  C61  1  0.48758349  0.44498739  0.71951705  1.0
  C  C62  1  0.50861661  0.73675767  0.45378181  1.0
  C  C63  1  0.21996756  0.44130676  0.45709467  1.0
  C  C64  1  0.71174412  0.76640777  0.72720880  1.0
  C  C65  1  0.55992781  0.97067269  0.38296265  1.0
  C  C66  1  0.48620860  0.98499564  0.37304693  1.0
  C  C67  1  0.69660334  0.45841976  0.45410781  1.0
  C  C68  1  0.53164666  0.19282973  0.46556743  1.0
  C  C69  1  0.51871664  0.80301818  0.44339207  1.0
  C  C70  1  0.61912936  0.05309435  0.45099493  1.0
  C  C71  1  0.48246774  0.44209513  0.31545419  1.0
  C  C72  1  0.54521033  0.06887164  0.44118244  1.0
  C  C73  1  0.59738975  0.01533257  0.50181159  1.0
  C  C74  1  0.53714112  0.93142863  0.43368660  1.0
  C  C75  1  0.52323085  0.02802371  0.49089997  1.0
  C  C76  1  0.46308465  0.94683626  0.42314005  1.0
  C  C77  1  0.54342254  0.13811633  0.44994909  1.0
  C  C78  1  0.53700749  0.47320389  0.28659468  1.0
  C  C79  1  0.52964401  0.86132129  0.43491934  1.0
  C  C80  1  0.89790895  0.32857777  0.34480532  1.0
  C  C81  1  0.86851329  0.33248800  0.40667267  1.0
  C  C82  1  0.73374411  0.42274716  0.42113935  1.0
  C  C83  1  0.57138814  0.32350430  0.56033525  1.0
  C  C84  1  0.13898675  0.42713254  0.43465052  1.0
  C  C85  1  0.87236927  0.38722867  0.33129286  1.0
  C  C86  1  0.84254504  0.39261484  0.39360500  1.0
  C  C87  1  0.96082911  0.45814438  0.38841397  1.0
  C  C88  1  0.98801886  0.39982510  0.40257376  1.0
  C  C89  1  0.52137500  0.25704401  0.49041821  1.0
  C  C90  1  0.93303127  0.46303666  0.45065131  1.0
  C  C91  1  0.95691644  0.40386129  0.46404537  1.0
  C  C92  1  0.77536626  0.39987327  0.39949737  1.0
  C  C93  1  0.06704375  0.41023965  0.41421087  1.0
  C  C94  1  0.47770764  0.41746402  0.77377178  1.0
  C  C95  1  0.58904915  0.55302512  0.33779983  1.0
  C  C96  1  0.54028670  0.40901862  0.81428091  1.0
  C  C97  1  0.53484066  0.38538756  0.86789169  1.0
  C  C98  1  0.46637562  0.36933516  0.88403218  1.0
  C  C99  1  0.40167989  0.37321633  0.84047982  1.0
  C  C100  1  0.42789523  0.42427843  0.65187640  1.0
  C  C101  1  0.40730503  0.39730743  0.78685749  1.0
  C  C102  1  0.46122454  0.34814663  0.08701990  1.0
  C  C103  1  0.46368768  0.37314075  0.15577923  1.0
  C  C104  1  0.60944121  0.46754271  0.20750630  1.0
  C  C105  1  0.60707877  0.44233709  0.13885311  1.0
  C  C106  1  0.53198292  0.38568008  0.07644155  1.0
  C  C107  1  0.46003978  0.27013889  0.45645573  1.0
  C  C108  1  0.46353756  0.35713982  0.94715250  1.0
  C  C109  1  0.53004000  0.37784474  0.00603725  1.0
  C  C110  1  0.53688387  0.43636776  0.21700990  1.0
  C  C111  1  0.56573944  0.73278755  0.50596634  1.0
  C  C112  1  0.12119888  0.20843735  0.24591728  1.0
  C  C113  1  0.06640578  0.22638760  0.20797776  1.0
  C  C114  1  0.98794494  0.16775842  0.15378272  1.0
  C  C115  1  0.95998925  0.08796702  0.13542767  1.0
  C  C116  1  0.01076319  0.07106135  0.17959829  1.0
  C  C117  1  0.08999057  0.12969668  0.23288411  1.0
  C  C118  1  0.75994756  0.88396716  0.92109264  1.0
  C  C119  1  0.66173884  0.44152332  0.50088158  1.0
  C  C120  1  0.72648799  0.82148086  0.85359359  1.0
  C  C121  1  0.78263515  0.91148512  0.80605455  1.0
  C  C122  1  0.29234777  0.50366428  0.46539959  1.0
  C  C123  1  0.81554848  0.97406145  0.87365975  1.0
  C  C124  1  0.80883016  0.96205982  0.93382164  1.0
  C  C125  1  0.88935919  0.02314534  0.06825745  1.0
  C  C126  1  0.86063117  0.02835871  0.00598632  1.0
  C  C127  1  0.73967271  0.83340295  0.79506026  1.0
  C  C128  1  0.24828967  0.34623858  0.30225200  1.0
  C  C129  1  0.20739624  0.26928823  0.29429074  1.0
  C  C130  1  0.35908126  0.62771679  0.35255392  1.0
  C  C131  1  0.81713867  0.26278828  0.41542227  1.0
  C  C132  1  0.64745039  0.34263375  0.61978774  1.0
  C  C133  1  0.67421541  0.68653153  0.71151110  1.0
  C  C134  1  0.71834863  0.76284278  0.66252378  1.0
  N  N135  1  0.34265951  0.33623387  0.37562865  1.0
  N  N136  1  0.50072347  0.49913495  0.37851509  1.0
  N  N137  1  0.54188960  0.37163723  0.56682114  1.0
  N  N138  1  0.56662755  0.56818866  0.39194419  1.0
  N  N139  1  0.47294030  0.33840499  0.50313866  1.0
  N  N140  1  0.64295235  0.49592575  0.52807121  1.0
  N  N141  1  0.32797768  0.38496246  0.35026227  1.0
  N  N142  1  0.46448594  0.45824658  0.61567733  1.0
  N  N143  1  0.53455169  0.65837505  0.49745357  1.0
  N  N144  1  0.35627737  0.49195191  0.48500041  1.0
  N  N145  1  0.66135097  0.64166051  0.64477684  1.0
  N  N146  1  0.68937649  0.69002973  0.61356055  1.0
  N  N147  1  0.32659156  0.42313419  0.49057778  1.0
  N  N148  1  0.54736009  0.50289755  0.65951832  1.0
  N  N149  1  0.45705046  0.61347475  0.44046614  1.0
  N  N150  1  0.66388841  0.54813083  0.49974649  1.0
  F  F151  1  0.74950122  0.82263159  0.64554714  1.0
  F  F152  1  0.50503167  0.05834715  0.54599529  1.0
