# generated using pymatgen
data_AlH15(C9O4)3
_symmetry_space_group_name_H-M   'P 1'
_cell_length_a   4.03513476
_cell_length_b   27.73497284
_cell_length_c   27.74428232
_cell_angle_alpha   60.04393887
_cell_angle_beta   89.85987645
_cell_angle_gamma   89.73644081
_symmetry_Int_Tables_number   1
_chemical_formula_structural   AlH15(C9O4)3
_chemical_formula_sum   'Al3 H45 C81 O36'
_cell_volume   2690.15578597
_cell_formula_units_Z   3
loop_
 _symmetry_equiv_pos_site_id
 _symmetry_equiv_pos_as_xyz
  1  'x, y, z'
loop_
 _atom_site_type_symbol
 _atom_site_label
 _atom_site_symmetry_multiplicity
 _atom_site_fract_x
 _atom_site_fract_y
 _atom_site_fract_z
 _atom_site_occupancy
  Al  Al0  1  0.00254535  0.00014418  0.49993042  1.0
  Al  Al1  1  0.04297281  0.33354687  0.83318257  1.0
  Al  Al2  1  0.95068527  0.66699527  0.16645135  1.0
  H  H3  1  0.49159883  0.00005683  0.92261707  1.0
  H  H4  1  0.47251727  0.91070498  0.83300029  1.0
  H  H5  1  0.51069883  0.08960654  0.74380490  1.0
  H  H6  1  0.20367317  0.07563514  0.90621413  1.0
  H  H7  1  0.84332473  0.14541026  0.76118179  1.0
  H  H8  1  0.78154344  0.92494144  0.98100713  1.0
  H  H9  1  0.14408549  0.85425035  0.90671435  1.0
  H  H10  1  0.17770476  0.92722360  0.75871997  1.0
  H  H11  1  0.80772138  0.07317104  0.68622846  1.0
  H  H12  1  0.49224134  0.42270898  0.07751905  1.0
  H  H13  1  0.50682871  0.24378172  0.16656984  1.0
  H  H14  1  0.47469189  0.33305014  0.25636528  1.0
  H  H15  1  0.78702714  0.48069257  0.09429757  1.0
  H  H16  1  0.14737421  0.40727575  0.23933480  1.0
  H  H17  1  0.19814545  0.40630604  0.01881174  1.0
  H  H18  1  0.84082883  0.26118925  0.09289256  1.0
  H  H19  1  0.80873007  0.18612912  0.24057748  1.0
  H  H20  1  0.17364085  0.25897029  0.31395205  1.0
  H  H21  1  0.50409066  0.57746314  0.49963976  1.0
  H  H22  1  0.49235367  0.75636305  0.41053859  1.0
  H  H23  1  0.52556689  0.66669662  0.58940104  1.0
  H  H24  1  0.21262954  0.51913166  0.57449214  1.0
  H  H25  1  0.84996331  0.59258129  0.64606898  1.0
  H  H26  1  0.79654580  0.59413762  0.42393105  1.0
  H  H27  1  0.15548937  0.73942494  0.35460594  1.0
  H  H28  1  0.19291774  0.81386889  0.42703695  1.0
  H  H29  1  0.82504024  0.74088070  0.57306114  1.0
  H  H30  1  0.01633985  0.26221807  0.76763536  1.0
  H  H31  1  0.06597902  0.19866142  0.90032443  1.0
  H  H32  1  0.92639872  0.80187301  0.09777358  1.0
  H  H33  1  0.97936256  0.73708827  0.02985820  1.0
  H  H34  1  0.14379052  0.92749067  0.63281225  1.0
  H  H35  1  0.85613428  0.07254461  0.56085407  1.0
  H  H36  1  0.98109991  0.53061244  0.23305295  1.0
  H  H37  1  0.93088812  0.59775854  0.10028339  1.0
  H  H38  1  0.06105593  0.40069019  0.90149214  1.0
  H  H39  1  0.01377864  0.26782934  0.96955400  1.0
  H  H40  1  0.85873457  0.06093614  0.36662751  1.0
  H  H41  1  0.13937513  0.13312213  0.43958419  1.0
  H  H42  1  0.01509176  0.46936036  0.76280496  1.0
  H  H43  1  0.06832033  0.40194287  0.69748071  1.0
  H  H44  1  0.93393477  0.60075415  0.30074211  1.0
  H  H45  1  0.98146064  0.73368883  0.23731668  1.0
  H  H46  1  0.14815449  0.93945893  0.42744090  1.0
  H  H47  1  0.86370360  0.86698564  0.57243601  1.0
  C  C48  1  0.50536702  0.92488997  0.49988465  1.0
  C  C49  1  0.50078445  0.00001391  0.57519924  1.0
  C  C50  1  0.50052025  0.07542443  0.42480374  1.0
  C  C51  1  0.54467379  0.25812377  0.83369639  1.0
  C  C52  1  0.54109782  0.33409574  0.90807883  1.0
  C  C53  1  0.54226895  0.40837646  0.75780304  1.0
  C  C54  1  0.44995893  0.74201301  0.09127281  1.0
  C  C55  1  0.45316747  0.59171645  0.16664007  1.0
  C  C56  1  0.45089851  0.66710629  0.24155359  1.0
  C  C57  1  0.47446527  0.94939498  0.88382017  1.0
  C  C58  1  0.49119729  0.00009921  0.88328495  1.0
  C  C59  1  0.50841873  0.05083327  0.83322808  1.0
  C  C60  1  0.50851906  0.05028161  0.78301127  1.0
  C  C61  1  0.49102407  0.00016930  0.78225437  1.0
  C  C62  1  0.47404584  0.95000916  0.83301495  1.0
  C  C63  1  0.35717096  0.15950053  0.87481910  1.0
  C  C64  1  0.35512437  0.10919976  0.87511568  1.0
  C  C65  1  0.52175064  0.10390862  0.83357314  1.0
  C  C66  1  0.70031160  0.14905559  0.79253201  1.0
  C  C67  1  0.71846864  0.19875251  0.79337857  1.0
  C  C68  1  0.54230316  0.20450557  0.83413975  1.0
  C  C69  1  0.63208401  0.89113005  0.98365725  1.0
  C  C70  1  0.63398047  0.84076605  0.03351531  1.0
  C  C71  1  0.45153106  0.79546865  0.03803625  1.0
  C  C72  1  0.27404709  0.80099947  0.99184686  1.0
  C  C73  1  0.28817861  0.85081113  0.94142973  1.0
  C  C74  1  0.46401588  0.89625760  0.93713891  1.0
  C  C75  1  0.32316715  0.95864696  0.72438478  1.0
  C  C76  1  0.31777158  0.95892944  0.67414729  1.0
  C  C77  1  0.49805267  0.00007087  0.62708950  1.0
  C  C78  1  0.67527391  0.04128172  0.63324236  1.0
  C  C79  1  0.66416108  0.04170111  0.68312430  1.0
  C  C80  1  0.49244958  0.00018736  0.72898411  1.0
  C  C81  1  0.50630096  0.33327786  0.11601455  1.0
  C  C82  1  0.49149706  0.38338012  0.11676654  1.0
  C  C83  1  0.47660608  0.38393157  0.16694743  1.0
  C  C84  1  0.47520230  0.33309793  0.21704506  1.0
  C  C85  1  0.49016037  0.28230401  0.21757726  1.0
  C  C86  1  0.50611300  0.28302569  0.16671604  1.0
  C  C87  1  0.63961104  0.53349958  0.12590805  1.0
  C  C88  1  0.63732778  0.48355851  0.12547890  1.0
  C  C89  1  0.46820053  0.43725498  0.16687656  1.0
  C  C90  1  0.29215809  0.44181343  0.20804325  1.0
  C  C91  1  0.27812458  0.49233120  0.20733792  1.0
  C  C92  1  0.45615364  0.53834024  0.16659663  1.0
  C  C93  1  0.35002603  0.37523303  0.01603797  1.0
  C  C94  1  0.35134063  0.37501437  0.96600593  1.0
  C  C95  1  0.53740060  0.33440159  0.96131104  1.0
  C  C96  1  0.71448466  0.29352789  0.00755006  1.0
  C  C97  1  0.69699231  0.29259678  0.05813999  1.0
  C  C98  1  0.51807376  0.33365445  0.06255832  1.0
  C  C99  1  0.66422386  0.18310278  0.27515359  1.0
  C  C100  1  0.67577354  0.13329022  0.32547359  1.0
  C  C101  1  0.49694539  0.12724112  0.37280975  1.0
  C  C102  1  0.31473243  0.17435288  0.36685239  1.0
  C  C103  1  0.32029558  0.22455972  0.31690493  1.0
  C  C104  1  0.49112396  0.22904428  0.27079067  1.0
  C  C105  1  0.49090089  0.66690803  0.44909727  1.0
  C  C106  1  0.50568630  0.61672401  0.49975960  1.0
  C  C107  1  0.52174913  0.61601394  0.55054726  1.0
  C  C108  1  0.52417056  0.66677015  0.55007379  1.0
  C  C109  1  0.50941027  0.71763453  0.49999480  1.0
  C  C110  1  0.49266672  0.71706297  0.44979490  1.0
  C  C111  1  0.35870490  0.46634095  0.65880683  1.0
  C  C112  1  0.36159940  0.51627548  0.60849647  1.0
  C  C113  1  0.53008431  0.56260335  0.60362651  1.0
  C  C114  1  0.70525282  0.55806619  0.64928754  1.0
  C  C115  1  0.71851452  0.50757657  0.69902298  1.0
  C  C116  1  0.54079430  0.46155830  0.70429394  1.0
  C  C117  1  0.64455762  0.62537763  0.39041335  1.0
  C  C118  1  0.64165533  0.62591974  0.34002078  1.0
  C  C119  1  0.45512910  0.66672834  0.29512115  1.0
  C  C120  1  0.27910639  0.70747368  0.30102318  1.0
  C  C121  1  0.29838203  0.70808409  0.35082557  1.0
  C  C122  1  0.47758722  0.66683139  0.39589549  1.0
  C  C123  1  0.33744707  0.81690366  0.45848293  1.0
  C  C124  1  0.32763529  0.86684745  0.45881761  1.0
  C  C125  1  0.50651544  0.87289827  0.49998360  1.0
  C  C126  1  0.68669619  0.82568106  0.54118835  1.0
  C  C127  1  0.67962213  0.77536206  0.54158812  1.0
  C  C128  1  0.50922371  0.77089014  0.50003728  1.0
  O  O129  1  0.27040539  0.06583182  0.46148832  1.0
  O  O130  1  0.27429893  0.96145311  0.47281878  1.0
  O  O131  1  0.27182917  0.97295438  0.56558543  1.0
  O  O132  1  0.73327888  0.03910013  0.43418224  1.0
  O  O133  1  0.73201634  0.02699446  0.53885959  1.0
  O  O134  1  0.73575827  0.93443497  0.52680945  1.0
  O  O135  1  0.30528480  0.39913671  0.79222224  1.0
  O  O136  1  0.30798268  0.29267379  0.80849757  1.0
  O  O137  1  0.30578755  0.30893408  0.89869064  1.0
  O  O138  1  0.77991206  0.37382828  0.76752907  1.0
  O  O139  1  0.77809838  0.35888455  0.87364684  1.0
  O  O140  1  0.78132288  0.26777723  0.85847579  1.0
  O  O141  1  0.21389713  0.64224466  0.23211406  1.0
  O  O142  1  0.21252698  0.73260000  0.12567164  1.0
  O  O143  1  0.21549654  0.62614940  0.14167250  1.0
  O  O144  1  0.68601634  0.69222055  0.20684972  1.0
  O  O145  1  0.68881204  0.60130860  0.19160562  1.0
  O  O146  1  0.68697938  0.70742429  0.10081433  1.0
  O  O147  1  0.90111430  0.24130786  0.75286755  1.0
  O  O148  1  0.18394590  0.16299999  0.91556801  1.0
  O  O149  1  0.80807805  0.83749532  0.07744380  1.0
  O  O150  1  0.09375582  0.75816480  0.99407163  1.0
  O  O151  1  0.14294477  0.91857545  0.67210820  1.0
  O  O152  1  0.85263190  0.08158002  0.59116345  1.0
  O  O153  1  0.09727797  0.49485990  0.24790436  1.0
  O  O154  1  0.81479112  0.57717904  0.08520115  1.0
  O  O155  1  0.17656608  0.41578756  0.92211404  1.0
  O  O156  1  0.89727181  0.25297852  0.00519605  1.0
  O  O157  1  0.85505919  0.09116604  0.32729557  1.0
  O  O158  1  0.13795226  0.17239960  0.40919245  1.0
  O  O159  1  0.89767927  0.50501841  0.74215659  1.0
  O  O160  1  0.18369832  0.42268668  0.66173179  1.0
  O  O161  1  0.81488217  0.58526264  0.33626274  1.0
  O  O162  1  0.09512036  0.74813820  0.25863191  1.0
  O  O163  1  0.15013102  0.90907327  0.41849447  1.0
  O  O164  1  0.86310249  0.82764307  0.58147895  1.0
