# generated using pymatgen
data_Zn2H3(C3O4)2
_symmetry_space_group_name_H-M   'P 1'
_cell_length_a   13.03807973
_cell_length_b   14.37486169
_cell_length_c   15.79430762
_cell_angle_alpha   69.90475015
_cell_angle_beta   68.68313297
_cell_angle_gamma   66.18765026
_symmetry_Int_Tables_number   1
_chemical_formula_structural   Zn2H3(C3O4)2
_chemical_formula_sum   'Zn8 H12 C24 O32'
_cell_volume   2454.71491281
_cell_formula_units_Z   4
loop_
 _symmetry_equiv_pos_site_id
 _symmetry_equiv_pos_as_xyz
  1  'x, y, z'
loop_
 _atom_site_type_symbol
 _atom_site_label
 _atom_site_symmetry_multiplicity
 _atom_site_fract_x
 _atom_site_fract_y
 _atom_site_fract_z
 _atom_site_occupancy
  Zn  Zn0  1  0.98645855  0.03534283  0.08844601  1.0
  Zn  Zn1  1  0.74367269  0.04936605  0.07058878  1.0
  Zn  Zn2  1  0.95102660  0.82846688  0.08430190  1.0
  Zn  Zn3  1  0.97620869  0.01037644  0.89981274  1.0
  Zn  Zn4  1  0.32561995  0.41724654  0.50070933  1.0
  Zn  Zn5  1  0.57792893  0.42440744  0.47910780  1.0
  Zn  Zn6  1  0.38415025  0.44454495  0.67065365  1.0
  Zn  Zn7  1  0.35731094  0.63302658  0.49156048  1.0
  H  H8  1  0.76444350  0.26621852  0.26052611  1.0
  H  H9  1  0.52953643  0.24129092  0.27332243  1.0
  H  H10  1  0.17620702  0.81247256  0.29695712  1.0
  H  H11  1  0.06241341  0.63902466  0.34114105  1.0
  H  H12  1  0.20998506  0.22848378  0.88667165  1.0
  H  H13  1  0.21384436  0.16015629  0.71592793  1.0
  H  H14  1  0.52927304  0.84220972  0.26019385  1.0
  H  H15  1  0.75065294  0.64132040  0.26141036  1.0
  H  H16  1  0.59189656  0.28862313  0.84897978  1.0
  H  H17  1  0.80044659  0.22265331  0.67803273  1.0
  H  H18  1  0.15010747  0.81988133  0.70403956  1.0
  H  H19  1  0.15851799  0.62690161  0.87741360  1.0
  C  C20  1  0.76386720  0.17082778  0.17728179  1.0
  C  C21  1  0.70730305  0.25457701  0.23165788  1.0
  C  C22  1  0.58148972  0.28106728  0.27940417  1.0
  C  C23  1  0.53603820  0.32526358  0.36473414  1.0
  C  C24  1  0.06792137  0.83069604  0.20898460  1.0
  C  C25  1  0.10946699  0.78512952  0.29655823  1.0
  C  C26  1  0.09794629  0.68411295  0.35960579  1.0
  C  C27  1  0.18355048  0.62263621  0.41802373  1.0
  C  C28  1  0.12468736  0.11400151  0.90712593  1.0
  C  C29  1  0.20995928  0.17346315  0.85317945  1.0
  C  C30  1  0.24830437  0.19123034  0.74987680  1.0
  C  C31  1  0.28293312  0.28678963  0.69207157  1.0
  C  C32  1  0.70203868  0.84917905  0.16709133  1.0
  C  C33  1  0.61462700  0.79332842  0.22812582  1.0
  C  C34  1  0.65715236  0.68108427  0.27370972  1.0
  C  C35  1  0.58355255  0.63232884  0.36283107  1.0
  C  C36  1  0.75222022  0.16209893  0.87440749  1.0
  C  C37  1  0.68404959  0.25733412  0.81558408  1.0
  C  C38  1  0.72214694  0.27741184  0.71205791  1.0
  C  C39  1  0.63189228  0.34021642  0.65780552  1.0
  C  C40  1  0.25152772  0.66005674  0.68273976  1.0
  C  C41  1  0.15921642  0.73780222  0.73777571  1.0
  C  C42  1  0.11909130  0.70640825  0.84086776  1.0
  C  C43  1  0.06462486  0.78849291  0.89738105  1.0
  O  O44  1  0.91274638  0.98068907  0.03603596  1.0
  O  O45  1  0.70210873  0.15633940  0.13967874  1.0
  O  O46  1  0.87079657  0.12223515  0.17480011  1.0
  O  O47  1  0.62529447  0.34841341  0.19412475  1.0
  O  O48  1  0.60457369  0.35480486  0.38202612  1.0
  O  O49  1  0.43175934  0.33000532  0.41034768  1.0
  O  O50  1  0.01630510  0.78302931  0.19223270  1.0
  O  O51  1  0.08679541  0.91643175  0.16078799  1.0
  O  O52  1  0.01777588  0.78154374  0.38170341  1.0
  O  O53  1  0.22223694  0.67469852  0.44255427  1.0
  O  O54  1  0.20977488  0.52356757  0.43552383  1.0
  O  O55  1  0.10966757  0.06098110  0.86534892  1.0
  O  O56  1  0.07584351  0.12284791  0.99132459  1.0
  O  O57  1  0.32266428  0.11394745  0.80680026  1.0
  O  O58  1  0.32882045  0.32249011  0.72725937  1.0
  O  O59  1  0.26140983  0.32249472  0.61238146  1.0
  O  O60  1  0.80518023  0.79330500  0.13603640  1.0
  O  O61  1  0.66202200  0.94862162  0.15264000  1.0
  O  O62  1  0.61358264  0.71396195  0.19292407  1.0
  O  O63  1  0.47555787  0.68244625  0.38622992  1.0
  O  O64  1  0.63776293  0.54308409  0.40552857  1.0
  O  O65  1  0.86064928  0.12473105  0.83897109  1.0
  O  O66  1  0.69279031  0.12936158  0.95555275  1.0
  O  O67  1  0.74077196  0.33449894  0.76088892  1.0
  O  O68  1  0.53498160  0.39584638  0.69972198  1.0
  O  O69  1  0.66273551  0.33189944  0.57349117  1.0
  O  O70  1  0.27399677  0.56373719  0.72416393  1.0
  O  O71  1  0.29655552  0.69921745  0.59824903  1.0
  O  O72  1  0.05132114  0.71504678  0.78251646  1.0
  O  O73  1  0.03284870  0.88338567  0.85336429  1.0
  O  O74  1  0.05387300  0.75353336  0.98501288  1.0
  O  O75  1  0.41016964  0.48004344  0.53434653  1.0
