# generated using pymatgen
data_Cu2H6C4IN3
_symmetry_space_group_name_H-M   'P 1'
_cell_length_a   15.18399274
_cell_length_b   15.19411499
_cell_length_c   15.20918625
_cell_angle_alpha   68.94170020
_cell_angle_beta   74.37819940
_cell_angle_gamma   110.89147912
_symmetry_Int_Tables_number   1
_chemical_formula_structural   Cu2H6C4IN3
_chemical_formula_sum   'Cu16 H48 C32 I8 N24'
_cell_volume   2722.94753943
_cell_formula_units_Z   8
loop_
 _symmetry_equiv_pos_site_id
 _symmetry_equiv_pos_as_xyz
  1  'x, y, z'
loop_
 _atom_site_type_symbol
 _atom_site_label
 _atom_site_symmetry_multiplicity
 _atom_site_fract_x
 _atom_site_fract_y
 _atom_site_fract_z
 _atom_site_occupancy
  Cu  Cu0  1  0.10081353  0.18312663  0.56599173  1.0
  Cu  Cu1  1  0.24919488  0.31243470  0.58549789  1.0
  Cu  Cu2  1  0.93838023  0.83570897  0.24720157  1.0
  Cu  Cu3  1  0.91647176  0.66723568  0.39779409  1.0
  Cu  Cu4  1  0.89918367  0.81686532  0.43401312  1.0
  Cu  Cu5  1  0.75080582  0.68756341  0.41450800  1.0
  Cu  Cu6  1  0.06161784  0.16429572  0.75279774  1.0
  Cu  Cu7  1  0.08353260  0.33277130  0.60219893  1.0
  Cu  Cu8  1  0.09306476  0.06031401  0.23300157  1.0
  Cu  Cu9  1  0.70416577  0.43892225  0.47219044  1.0
  Cu  Cu10  1  0.26635320  0.17270784  0.79446025  1.0
  Cu  Cu11  1  0.03171275  0.32572096  0.40891321  1.0
  Cu  Cu12  1  0.90693027  0.93967927  0.76700035  1.0
  Cu  Cu13  1  0.29583779  0.56107702  0.52780310  1.0
  Cu  Cu14  1  0.73364649  0.82729243  0.20554268  1.0
  Cu  Cu15  1  0.96828789  0.67427922  0.59109061  1.0
  H  H16  1  0.00964272  0.30487448  0.23701233  1.0
  H  H17  1  0.46042613  0.19593265  0.79603248  1.0
  H  H18  1  0.26327059  0.25144734  0.04261343  1.0
  H  H19  1  0.70609416  0.24873655  0.48851060  1.0
  H  H20  1  0.99035741  0.69512723  0.76298676  1.0
  H  H21  1  0.53958382  0.80407555  0.20395452  1.0
  H  H22  1  0.73672699  0.74855548  0.95738934  1.0
  H  H23  1  0.29390902  0.75126171  0.51148714  1.0
  H  H24  1  0.95199332  0.17539869  0.24418840  1.0
  H  H25  1  0.58080318  0.32511091  0.72520359  1.0
  H  H26  1  0.25346218  0.30080725  0.92151252  1.0
  H  H27  1  0.77848404  0.19928760  0.54722097  1.0
  H  H28  1  0.04801021  0.82460254  0.75581196  1.0
  H  H29  1  0.41919429  0.67488369  0.27479462  1.0
  H  H30  1  0.74653610  0.69919336  0.07848927  1.0
  H  H31  1  0.22152289  0.80071237  0.45277826  1.0
  H  H32  1  0.08485583  0.27634741  0.14980254  1.0
  H  H33  1  0.57490680  0.22218267  0.69390094  1.0
  H  H34  1  0.35010185  0.26296526  0.92762647  1.0
  H  H35  1  0.80881346  0.23504709  0.41418109  1.0
  H  H36  1  0.91514302  0.72364881  0.85020363  1.0
  H  H37  1  0.42509374  0.77781586  0.30609973  1.0
  H  H38  1  0.64989663  0.73703626  0.07237442  1.0
  H  H39  1  0.19119352  0.76495501  0.58581441  1.0
  H  H40  1  0.20927349  0.06893955  0.47621875  1.0
  H  H41  1  0.45283631  0.42728574  0.36390001  1.0
  H  H42  1  0.02655122  0.81641257  0.04392107  1.0
  H  H43  1  0.13583927  0.68232130  0.29121215  1.0
  H  H44  1  0.79071719  0.93105509  0.52378341  1.0
  H  H45  1  0.54717261  0.57272488  0.63609497  1.0
  H  H46  1  0.97344916  0.18359126  0.95607989  1.0
  H  H47  1  0.86416344  0.31768141  0.70877954  1.0
  H  H48  1  0.22155309  0.04750097  0.36585714  1.0
  H  H49  1  0.58362944  0.44699693  0.33210333  1.0
  H  H50  1  0.13600327  0.91176990  0.91403594  1.0
  H  H51  1  0.16930606  0.58391518  0.27888033  1.0
  H  H52  1  0.77844326  0.95249192  0.63414758  1.0
  H  H53  1  0.41636642  0.55300946  0.66789507  1.0
  H  H54  1  0.86399392  0.08823111  0.08596864  1.0
  H  H55  1  0.83069449  0.41608637  0.72111012  1.0
  H  H56  1  0.10551581  0.95574806  0.48763387  1.0
  H  H57  1  0.55294685  0.54033849  0.35600502  1.0
  H  H58  1  0.01361031  0.90766117  0.94224815  1.0
  H  H59  1  0.14756097  0.59215370  0.39498283  1.0
  H  H60  1  0.89447745  0.04424037  0.51237690  1.0
  H  H61  1  0.44705466  0.45966706  0.64398944  1.0
  H  H62  1  0.98639071  0.09234002  0.05775147  1.0
  H  H63  1  0.85243984  0.40784828  0.60501359  1.0
  C  C64  1  0.12100824  0.11105216  0.39892509  1.0
  C  C65  1  0.48783401  0.38543195  0.49420455  1.0
  C  C66  1  0.10297602  0.98038836  0.00932758  1.0
  C  C67  1  0.00755417  0.51903371  0.37911796  1.0
  C  C68  1  0.87898643  0.88894250  0.60108824  1.0
  C  C69  1  0.51216703  0.61456425  0.50579845  1.0
  C  C70  1  0.89702255  0.01961321  0.99067165  1.0
  C  C71  1  0.99244655  0.48096742  0.62087771  1.0
  C  C72  1  0.06103660  0.19855580  0.30930054  1.0
  C  C73  1  0.49193828  0.29992446  0.64021099  1.0
  C  C74  1  0.19140698  0.12861517  0.00816315  1.0
  C  C75  1  0.86198781  0.37095375  0.43854008  1.0
  C  C76  1  0.93896130  0.80143472  0.69070574  1.0
  C  C77  1  0.50806143  0.70007712  0.35978582  1.0
  C  C78  1  0.80859160  0.87138720  0.99183849  1.0
  C  C79  1  0.13801340  0.62904675  0.56145382  1.0
  C  C80  1  0.02484651  0.24142678  0.23071680  1.0
  C  C81  1  0.52890701  0.25829914  0.71843899  1.0
  C  C82  1  0.26882823  0.24221479  0.97331230  1.0
  C  C83  1  0.78428830  0.25721229  0.47402371  1.0
  C  C84  1  0.97515469  0.75857149  0.76928972  1.0
  C  C85  1  0.47109569  0.74170527  0.28154860  1.0
  C  C86  1  0.73117195  0.75778814  0.02668958  1.0
  C  C87  1  0.21571333  0.74278334  0.52597586  1.0
  C  C88  1  0.16707020  0.04214233  0.43438094  1.0
  C  C89  1  0.52068076  0.45358530  0.38033504  1.0
  C  C90  1  0.06761266  0.89921059  0.97586871  1.0
  C  C91  1  0.12136927  0.59915850  0.33340343  1.0
  C  C92  1  0.83292190  0.95784697  0.56562575  1.0
  C  C93  1  0.47931923  0.54641752  0.61967015  1.0
  C  C94  1  0.93238657  0.10079242  0.02413227  1.0
  C  C95  1  0.87863320  0.40084368  0.66659119  1.0
  I  I96  1  0.24739063  0.42658575  0.41211555  1.0
  I  I97  1  0.16089151  0.07015220  0.68186586  1.0
  I  I98  1  0.08938660  0.84040980  0.33875288  1.0
  I  I99  1  0.82089004  0.66137389  0.24944935  1.0
  I  I100  1  0.75260949  0.57341516  0.58788114  1.0
  I  I101  1  0.83910838  0.92984569  0.31813545  1.0
  I  I102  1  0.91061665  0.15959128  0.66125244  1.0
  I  I103  1  0.17911179  0.33862922  0.75055073  1.0
  N  N104  1  0.10209418  0.17028947  0.44029552  1.0
  N  N105  1  0.38814857  0.32588009  0.57098313  1.0
  N  N106  1  0.06232888  0.95866340  0.10915127  1.0
  N  N107  1  0.92972409  0.54196041  0.39773368  1.0
  N  N108  1  0.89789920  0.82971019  0.55970961  1.0
  N  N109  1  0.61185050  0.67412085  0.42901433  1.0
  N  N110  1  0.93767239  0.04133912  0.89084782  1.0
  N  N111  1  0.07028127  0.45804612  0.60225819  1.0
  N  N112  1  0.09515634  0.12563673  0.31735055  1.0
  N  N113  1  0.55536547  0.37227927  0.53468445  1.0
  N  N114  1  0.18342567  0.08650931  0.94338178  1.0
  N  N115  1  0.96808000  0.41225467  0.40492542  1.0
  N  N116  1  0.90484208  0.87435227  0.68266045  1.0
  N  N117  1  0.44463566  0.62771948  0.46531520  1.0
  N  N118  1  0.81657306  0.91349354  0.05661857  1.0
  N  N119  1  0.03191961  0.58774606  0.59507065  1.0
  N  N120  1  0.06465545  0.22654859  0.38261157  1.0
  N  N121  1  0.39083472  0.27086644  0.66386952  1.0
  N  N122  1  0.11927928  0.05302146  0.10832921  1.0
  N  N123  1  0.83709943  0.44770408  0.43500391  1.0
  N  N124  1  0.93533628  0.77344680  0.61739223  1.0
  N  N125  1  0.60916325  0.72913411  0.33612833  1.0
  N  N126  1  0.88071909  0.94698170  0.89166923  1.0
  N  N127  1  0.16290448  0.55229987  0.56498814  1.0
