# generated using pymatgen
data_Zn4H16(C4O3)7
_symmetry_space_group_name_H-M   'P 1'
_cell_length_a   18.47299037
_cell_length_b   18.49433892
_cell_length_c   18.50404847
_cell_angle_alpha   90.51732347
_cell_angle_beta   119.32400816
_cell_angle_gamma   119.92085837
_symmetry_Int_Tables_number   1
_chemical_formula_structural   Zn4H16(C4O3)7
_chemical_formula_sum   'Zn8 H32 C56 O42'
_cell_volume   4500.72312560
_cell_formula_units_Z   2
loop_
 _symmetry_equiv_pos_site_id
 _symmetry_equiv_pos_as_xyz
  1  'x, y, z'
loop_
 _atom_site_type_symbol
 _atom_site_label
 _atom_site_symmetry_multiplicity
 _atom_site_fract_x
 _atom_site_fract_y
 _atom_site_fract_z
 _atom_site_occupancy
  Zn  Zn0  1  0.91225135  0.45388879  0.86290400  1.0
  Zn  Zn1  1  0.91359234  0.45750928  0.03509919  1.0
  Zn  Zn2  1  0.09244938  0.62847161  0.03774314  1.0
  Zn  Zn3  1  0.08845797  0.45657205  0.04275610  1.0
  Zn  Zn4  1  0.08995782  0.04774823  0.63092858  1.0
  Zn  Zn5  1  0.92279843  0.88121666  0.45611866  1.0
  Zn  Zn6  1  0.08633120  0.06509866  0.45543550  1.0
  Zn  Zn7  1  0.91030971  0.04637704  0.46076420  1.0
  H  H8  1  0.84727874  0.14632968  0.63167605  1.0
  H  H9  1  0.09596686  0.25826753  0.96737071  1.0
  H  H10  1  0.87189423  0.21605287  0.53629463  1.0
  H  H11  1  0.79615776  0.19743386  0.78280203  1.0
  H  H12  1  0.09561906  0.89808271  0.80651028  1.0
  H  H13  1  0.09449036  0.72551973  0.72038812  1.0
  H  H14  1  0.58809806  0.73255335  0.31277006  1.0
  H  H15  1  0.21207379  0.45928738  0.92676770  1.0
  H  H16  1  0.77822926  0.07526581  0.23989055  1.0
  H  H17  1  0.84705061  0.26668937  0.15680485  1.0
  H  H18  1  0.03918455  0.28110806  0.20016948  1.0
  H  H19  1  0.95030227  0.73280205  0.64130194  1.0
  H  H20  1  0.20705043  0.85164496  0.39188995  1.0
  H  H21  1  0.03111361  0.85295014  0.14516743  1.0
  H  H22  1  0.05227314  0.59641641  0.29271185  1.0
  H  H23  1  0.43687827  0.27474832  0.54250443  1.0
  H  H24  1  0.26818822  0.30400670  0.86881705  1.0
  H  H25  1  0.42309805  0.19276432  0.75120009  1.0
  H  H26  1  0.59355461  0.32291014  0.68410924  1.0
  H  H27  1  0.58452983  0.33111548  0.84584987  1.0
  H  H28  1  0.02878840  0.09792960  0.79198629  1.0
  H  H29  1  0.96367823  0.12522789  0.85561158  1.0
  H  H30  1  0.04850952  0.78630445  0.87845558  1.0
  H  H31  1  0.85311940  0.01416591  0.63221947  1.0
  H  H32  1  0.81819787  0.24318026  0.61865124  1.0
  H  H33  1  0.07247464  0.45798062  0.69844363  1.0
  H  H34  1  0.59310110  0.90171323  0.31258787  1.0
  H  H35  1  0.40593752  0.80284818  0.22392814  1.0
  H  H36  1  0.42522509  0.65137596  0.19137117  1.0
  H  H37  1  0.05504699  0.25501634  0.32312380  1.0
  H  H38  1  0.91855538  0.81107997  0.20771192  1.0
  H  H39  1  0.09620064  0.33495204  0.69702124  1.0
  C  C40  1  0.98686755  0.35341496  0.12235491  1.0
  C  C41  1  0.03860689  0.69180820  0.80356036  1.0
  C  C42  1  0.55681642  0.83031407  0.29324461  1.0
  C  C43  1  0.02115145  0.63440257  0.85834014  1.0
  C  C44  1  0.61794123  0.80255214  0.32695197  1.0
  C  C45  1  0.44700598  0.77314937  0.23359972  1.0
  C  C46  1  0.39111566  0.68647455  0.18757783  1.0
  C  C47  1  0.89729321  0.19734640  0.24059424  1.0
  C  C48  1  0.98017883  0.20408695  0.30779979  1.0
  C  C49  1  0.90694963  0.25596667  0.18861839  1.0
  C  C50  1  0.98073690  0.29345765  0.17459319  1.0
  C  C51  1  0.99022890  0.33154031  0.72179417  1.0
  C  C52  1  0.05375753  0.81847741  0.29280549  1.0
  C  C53  1  0.98673036  0.83845425  0.27439684  1.0
  C  C54  1  0.03691786  0.76256941  0.22183351  1.0
  C  C55  1  0.72710883  0.38441900  0.85861103  1.0
  C  C56  1  0.04712653  0.69423406  0.22795497  1.0
  C  C57  1  0.44592823  0.25985494  0.66441084  1.0
  C  C58  1  0.38704559  0.20221678  0.68819628  1.0
  C  C59  1  0.55628957  0.30823805  0.71855051  1.0
  C  C60  1  0.61575472  0.33858211  0.80720436  1.0
  C  C61  1  0.72961315  0.86445847  0.38177421  1.0
  C  C62  1  0.00099739  0.29936844  0.80300569  1.0
  C  C63  1  0.27421095  0.14584486  0.63385991  1.0
  C  C64  1  0.00859774  0.86570778  0.63299595  1.0
  C  C65  1  0.98378601  0.14841464  0.36455637  1.0
  C  C66  1  0.99327213  0.89134756  0.34162731  1.0
  C  C67  1  0.27900692  0.63262918  0.13055731  1.0
  C  C68  1  0.00470174  0.14498684  0.64175399  1.0
  C  C69  1  0.03039429  0.63995515  0.15353802  1.0
  C  C70  1  0.99487000  0.35314911  0.86091569  1.0
  C  C71  1  0.10707892  0.31122237  0.85718267  1.0
  C  C72  1  0.09999666  0.24133078  0.79937478  1.0
  C  C73  1  0.00795702  0.20549693  0.70281522  1.0
  C  C74  1  0.91055711  0.19774399  0.76776246  1.0
  C  C75  1  0.14727715  0.30889363  0.95275699  1.0
  C  C76  1  0.95489062  0.26965044  0.57538304  1.0
  C  C77  1  0.80393186  0.17779220  0.73183402  1.0
  C  C78  1  0.05701544  0.66874261  0.74004433  1.0
  C  C79  1  0.19704191  0.40707915  0.88111303  1.0
  C  C80  1  0.79128827  0.13201607  0.21551390  1.0
  C  C81  1  0.14674371  0.85702197  0.38465582  1.0
  C  C82  1  0.00014607  0.78174691  0.13681119  1.0
  C  C83  1  0.06149091  0.66052422  0.30300578  1.0
  C  C84  1  0.90583105  0.15029270  0.69532930  1.0
  C  C85  1  0.40440315  0.27773870  0.57916918  1.0
  C  C86  1  0.20012836  0.28244417  0.80245656  1.0
  C  C87  1  0.09476767  0.16637389  0.83724766  1.0
  C  C88  1  0.92889509  0.16195174  0.84575979  1.0
  C  C89  1  0.85612654  0.05220389  0.68179998  1.0
  C  C90  1  0.88508726  0.31301615  0.65459028  1.0
  C  C91  1  0.06050187  0.43348166  0.74881741  1.0
  C  C92  1  0.01684963  0.28691627  0.67447983  1.0
  C  C93  1  0.05179068  0.82775567  0.77037508  1.0
  C  C94  1  0.00176531  0.80243453  0.68195185  1.0
  C  C95  1  0.04633836  0.76812187  0.82061061  1.0
  O  O96  1  0.00136481  0.49862924  0.99233999  1.0
  O  O97  1  0.06331903  0.14885977  0.40071916  1.0
  O  O98  1  0.93986293  0.84508655  0.36888755  1.0
  O  O99  1  0.06250594  0.38658810  0.11615372  1.0
  O  O100  1  0.95555844  0.13688862  0.56084077  1.0
  O  O101  1  0.04306371  0.97456761  0.35807847  1.0
  O  O102  1  0.04036798  0.10081737  0.67387684  1.0
  O  O103  1  0.06447704  0.94830574  0.67640697  1.0
  O  O104  1  0.91060626  0.10560880  0.37354690  1.0
  O  O105  1  0.77727535  0.82891918  0.39550571  1.0
  O  O106  1  0.22802721  0.12017055  0.55070234  1.0
  O  O107  1  0.76862926  0.39563410  0.81719984  1.0
  O  O108  1  0.95652124  0.55161096  0.81777721  1.0
  O  O109  1  0.77252636  0.40857565  0.94221201  1.0
  O  O110  1  0.23620730  0.67299438  0.11253890  1.0
  O  O111  1  0.96695453  0.55684744  0.13111043  1.0
  O  O112  1  0.06050675  0.38054926  0.94303193  1.0
  O  O113  1  0.08312005  0.68014956  0.12389674  1.0
  O  O114  1  0.92109316  0.36025540  0.82113064  1.0
  O  O115  1  0.23750346  0.36304333  0.01022050  1.0
  O  O116  1  0.99250133  0.31685844  0.54113076  1.0
  O  O117  1  0.73270446  0.13744686  0.65502277  1.0
  O  O118  1  0.23401280  0.54862757  0.10455157  1.0
  O  O119  1  0.04050575  0.59764470  0.71443241  1.0
  O  O120  1  0.24814060  0.42314375  0.85209095  1.0
  O  O121  1  0.72251556  0.14044826  0.17006167  1.0
  O  O122  1  0.15932737  0.89754747  0.44697968  1.0
  O  O123  1  0.93800567  0.72510620  0.06411154  1.0
  O  O124  1  0.07979140  0.69731120  0.37118593  1.0
  O  O125  1  0.34563618  0.29890358  0.55300569  1.0
  O  O126  1  0.19780496  0.27564378  0.73573603  1.0
  O  O127  1  0.16099417  0.17987982  0.91147238  1.0
  O  O128  1  0.91007122  0.17657230  0.89653908  1.0
  O  O129  1  0.91836638  0.36791069  0.08846817  1.0
  O  O130  1  0.81403581  0.01449159  0.71734891  1.0
  O  O131  1  0.87703771  0.37322921  0.63790463  1.0
  O  O132  1  0.09947951  0.48369589  0.81952247  1.0
  O  O133  1  0.07208862  0.67510355  0.94044361  1.0
  O  O134  1  0.00349003  0.01118477  0.50232171  1.0
  O  O135  1  0.76982075  0.94742685  0.41014546  1.0
  O  O136  1  0.23435636  0.12580911  0.67732223  1.0
  O  O137  1  0.95618596  0.83037341  0.54958501  1.0
