# generated using pymatgen
data_AlH12(C2O)12
_symmetry_space_group_name_H-M   'P 1'
_cell_length_a   4.21313185
_cell_length_b   24.44960616
_cell_length_c   24.44967710
_cell_angle_alpha   120.00008465
_cell_angle_beta   90.00010089
_cell_angle_gamma   89.99987986
_symmetry_Int_Tables_number   1
_chemical_formula_structural   AlH12(C2O)12
_chemical_formula_sum   'Al2 H24 C48 O24'
_cell_volume   2181.12375421
_cell_formula_units_Z   2
loop_
 _symmetry_equiv_pos_site_id
 _symmetry_equiv_pos_as_xyz
  1  'x, y, z'
loop_
 _atom_site_type_symbol
 _atom_site_label
 _atom_site_symmetry_multiplicity
 _atom_site_fract_x
 _atom_site_fract_y
 _atom_site_fract_z
 _atom_site_occupancy
  Al  Al0  1  0.04888221  0.50000168  0.00000281  1.0
  Al  Al1  1  0.04822376  0.83333473  0.66666873  1.0
  H  H2  1  0.31754708  0.72454384  0.29012355  1.0
  H  H3  1  0.31754585  0.60877842  0.37656078  1.0
  H  H4  1  0.77276706  0.82495547  0.49360168  1.0
  H  H5  1  0.75317093  0.76784822  0.37583569  1.0
  H  H6  1  0.77299046  0.50838729  0.17306100  1.0
  H  H7  1  0.75316223  0.56545966  0.29082510  1.0
  H  H8  1  0.31751692  0.56557952  0.77546104  1.0
  H  H9  1  0.31752104  0.76778269  0.89122437  1.0
  H  H10  1  0.77278044  0.66864764  0.67504963  1.0
  H  H11  1  0.75317098  0.60798854  0.73215623  1.0
  H  H12  1  0.77301469  0.66467277  0.99161223  1.0
  H  H13  1  0.75317843  0.72536330  0.93453821  1.0
  H  H14  1  0.31754601  0.20987880  0.93442247  1.0
  H  H15  1  0.31755974  0.12344274  0.73221955  1.0
  H  H16  1  0.77277577  0.00640120  0.83135727  1.0
  H  H17  1  0.75317712  0.12416750  0.89201571  1.0
  H  H18  1  0.77301357  0.32694267  0.83533300  1.0
  H  H19  1  0.75318786  0.20917900  0.77464055  1.0
  H  H20  1  0.69333110  0.69042386  0.14088324  1.0
  H  H21  1  0.69312687  0.64298123  0.52585169  1.0
  H  H22  1  0.69331425  0.45045764  0.80957904  1.0
  H  H23  1  0.69311524  0.88286799  0.85701987  1.0
  H  H24  1  0.69333977  0.35912074  0.04954534  1.0
  H  H25  1  0.69315380  0.97415060  0.61713150  1.0
  C  C26  1  0.55176498  0.40439056  0.95170344  1.0
  C  C27  1  0.55176247  0.54731270  0.09561292  1.0
  C  C28  1  0.55176173  0.54830156  0.95269218  1.0
  C  C29  1  0.55118194  0.78607091  0.57106012  1.0
  C  C30  1  0.55118031  0.78499006  0.71393268  1.0
  C  C31  1  0.55118893  0.92894254  0.71501257  1.0
  C  C32  1  0.55262658  0.58375805  0.16579419  1.0
  C  C33  1  0.55234246  0.74959558  0.50088025  1.0
  C  C34  1  0.42262095  0.64490507  0.19890465  1.0
  C  C35  1  0.41834399  0.67714746  0.26473815  1.0
  C  C36  1  0.42246303  0.68843816  0.46777261  1.0
  C  C37  1  0.41829022  0.65617695  0.40193911  1.0
  C  C38  1  0.67277984  0.77758191  0.46731705  1.0
  C  C39  1  0.66002909  0.74572598  0.40172394  1.0
  C  C40  1  0.67296258  0.55575482  0.19934986  1.0
  C  C41  1  0.66006970  0.58759240  0.26494061  1.0
  C  C42  1  0.53681202  0.64913234  0.29848272  1.0
  C  C43  1  0.53678605  0.68418554  0.36819220  1.0
  C  C44  1  0.55262056  0.58203594  0.91624525  1.0
  C  C45  1  0.55233898  0.75128516  0.75040748  1.0
  C  C46  1  0.42261499  0.55400009  0.85509957  1.0
  C  C47  1  0.41832328  0.58759067  0.82285590  1.0
  C  C48  1  0.42244013  0.77933486  0.81156413  1.0
  C  C49  1  0.41827021  0.74576178  0.84382479  1.0
  C  C50  1  0.67278605  0.68973606  0.72242229  1.0
  C  C51  1  0.66002394  0.65599834  0.75427679  1.0
  C  C52  1  0.67297023  0.64359335  0.94424522  1.0
  C  C53  1  0.66007684  0.67734799  0.91240819  1.0
  C  C54  1  0.53679548  0.64934962  0.85086957  1.0
  C  C55  1  0.53677373  0.68400539  0.81581633  1.0
  C  C56  1  0.55264106  0.33421065  0.91796955  1.0
  C  C57  1  0.55235645  0.99912278  0.74871765  1.0
  C  C58  1  0.42264073  0.30109760  0.94600334  1.0
  C  C59  1  0.41834724  0.23526304  0.91241114  1.0
  C  C60  1  0.42248218  0.03222966  0.72066656  1.0
  C  C61  1  0.41830454  0.09806401  0.75424034  1.0
  C  C62  1  0.67279287  0.03268544  0.81026733  1.0
  C  C63  1  0.66003966  0.09827862  0.84400499  1.0
  C  C64  1  0.67297899  0.30065296  0.85641112  1.0
  C  C65  1  0.66009094  0.23506121  0.82265504  1.0
  C  C66  1  0.53681957  0.20152097  0.85065246  1.0
  C  C67  1  0.53679133  0.13181101  0.81599669  1.0
  C  C68  1  0.28076174  0.67746247  0.16629685  1.0
  C  C69  1  0.28051674  0.65589644  0.50040022  1.0
  C  C70  1  0.28073265  0.48883362  0.82254165  1.0
  C  C71  1  0.28054583  0.84450218  0.84410348  1.0
  C  C72  1  0.28074880  0.33370587  0.01117138  1.0
  C  C73  1  0.28053918  0.99960271  0.65549783  1.0
  O  O74  1  0.78348735  0.55853038  0.99026746  1.0
  O  O75  1  0.78348549  0.43173854  0.94147494  1.0
  O  O76  1  0.78349041  0.50973702  0.06826618  1.0
  O  O77  1  0.31520867  0.51194522  0.94334243  1.0
  O  O78  1  0.31520429  0.55666209  0.06860626  1.0
  O  O79  1  0.31520701  0.43139671  0.98805883  1.0
  O  O80  1  0.78277934  0.90156351  0.72523638  1.0
  O  O81  1  0.78277679  0.82367233  0.59843807  1.0
  O  O82  1  0.78277511  0.77476636  0.67633099  1.0
  O  O83  1  0.31449800  0.90196909  0.67868642  1.0
  O  O84  1  0.31449397  0.82131761  0.72328522  1.0
  O  O85  1  0.31449835  0.77671849  0.59803603  1.0
  O  O86  1  0.45918456  0.69330611  0.13212392  1.0
  O  O87  1  0.99622946  0.69147632  0.17474738  1.0
  O  O88  1  0.45903267  0.64010701  0.53461380  1.0
  O  O89  1  0.99611983  0.64186247  0.49193943  1.0
  O  O90  1  0.45917020  0.43881675  0.80669670  1.0
  O  O91  1  0.99622173  0.48327207  0.80853209  1.0
  O  O92  1  0.45900668  0.89450575  0.85989414  1.0
  O  O93  1  0.99607259  0.85007902  0.85814303  1.0
  O  O94  1  0.45920042  0.36787965  0.06118647  1.0
  O  O95  1  0.99625936  0.32525561  0.01673200  1.0
  O  O96  1  0.45905953  0.96538798  0.60549505  1.0
  O  O97  1  0.99614548  0.00806335  0.64992335  1.0
