# generated using pymatgen
data_Zn2H30C48S(N2O5)2
_symmetry_space_group_name_H-M   'P 1'
_cell_length_a   14.55207740
_cell_length_b   14.55207943
_cell_length_c   15.90804586
_cell_angle_alpha   99.97689730
_cell_angle_beta   99.97692369
_cell_angle_gamma   118.75321279
_symmetry_Int_Tables_number   1
_chemical_formula_structural   Zn2H30C48S(N2O5)2
_chemical_formula_sum   'Zn4 H60 C96 S2 N8 O20'
_cell_volume   2777.30274396
_cell_formula_units_Z   2
loop_
 _symmetry_equiv_pos_site_id
 _symmetry_equiv_pos_as_xyz
  1  'x, y, z'
loop_
 _atom_site_type_symbol
 _atom_site_label
 _atom_site_symmetry_multiplicity
 _atom_site_fract_x
 _atom_site_fract_y
 _atom_site_fract_z
 _atom_site_occupancy
  Zn  Zn0  1  0.89998267  0.86023800  0.07726169  1.0
  Zn  Zn1  1  0.86023874  0.89998315  0.57726169  1.0
  Zn  Zn2  1  0.73744740  0.73086061  0.86108645  1.0
  Zn  Zn3  1  0.73086058  0.73744758  0.36108666  1.0
  H  H4  1  0.19004851  0.18847942  0.34279997  1.0
  H  H5  1  0.18847926  0.19004749  0.84280023  1.0
  H  H6  1  0.07670709  0.08787351  0.18419991  1.0
  H  H7  1  0.08787354  0.07670769  0.68419983  1.0
  H  H8  1  0.93086231  0.78963509  0.23917072  1.0
  H  H9  1  0.78963464  0.93086277  0.73917114  1.0
  H  H10  1  0.03468122  0.87730183  0.40001238  1.0
  H  H11  1  0.87730160  0.03468062  0.90001223  1.0
  H  H12  1  0.17496519  0.03896122  0.52091366  1.0
  H  H13  1  0.03896178  0.17496624  0.02091407  1.0
  H  H14  1  0.20270535  0.25198365  0.48793176  1.0
  H  H15  1  0.25198358  0.20270552  0.98793223  1.0
  H  H16  1  0.38481228  0.22109121  0.81052788  1.0
  H  H17  1  0.22109154  0.38481286  0.31052755  1.0
  H  H18  1  0.30995980  0.13704399  0.64935711  1.0
  H  H19  1  0.13704367  0.30995942  0.14935652  1.0
  H  H20  1  0.42171122  0.35002287  0.94630436  1.0
  H  H21  1  0.35002298  0.42171075  0.44630385  1.0
  H  H22  1  0.43897872  0.56182801  0.91917443  1.0
  H  H23  1  0.56182831  0.43897889  0.41917534  1.0
  H  H24  1  0.58643573  0.72293833  0.03818030  1.0
  H  H25  1  0.72293875  0.58643484  0.53818070  1.0
  H  H26  1  0.69253482  0.80949474  0.20001154  1.0
  H  H27  1  0.80949501  0.69253481  0.70001142  1.0
  H  H28  1  0.55925004  0.50868032  0.25008378  1.0
  H  H29  1  0.50868004  0.55924993  0.75008352  1.0
  H  H30  1  0.44458659  0.40905058  0.09107436  1.0
  H  H31  1  0.40905030  0.44458662  0.59107413  1.0
  H  H32  1  0.19554636  0.99556625  0.02339457  1.0
  H  H33  1  0.99556604  0.19554602  0.52339446  1.0
  H  H34  1  0.36654274  0.06895840  0.97566782  1.0
  H  H35  1  0.06895806  0.36654250  0.47566722  1.0
  H  H36  1  0.17081284  0.88898082  0.70211364  1.0
  H  H37  1  0.88898048  0.17081326  0.20211397  1.0
  H  H38  1  0.99976026  0.81835094  0.74963425  1.0
  H  H39  1  0.81835062  0.99976001  0.24963368  1.0
  H  H40  1  0.56695434  0.08678642  0.79691616  1.0
  H  H41  1  0.08678696  0.56695495  0.29691643  1.0
  H  H42  1  0.67208245  0.99401624  0.81949660  1.0
  H  H43  1  0.99401635  0.67208241  0.31949686  1.0
  H  H44  1  0.39901219  0.73151923  0.86720298  1.0
  H  H45  1  0.73151990  0.39901346  0.36720291  1.0
  H  H46  1  0.29338408  0.82374519  0.84634973  1.0
  H  H47  1  0.82374522  0.29338367  0.34634933  1.0
  H  H48  1  0.62091335  0.42833139  0.87717863  1.0
  H  H49  1  0.42833072  0.62091335  0.37717867  1.0
  H  H50  1  0.54117351  0.23730846  0.89369359  1.0
  H  H51  1  0.23730818  0.54117259  0.39369290  1.0
  H  H52  1  0.72249167  0.37667375  0.17307312  1.0
  H  H53  1  0.37667286  0.72249059  0.67307256  1.0
  H  H54  1  0.80080946  0.56533390  0.15646867  1.0
  H  H55  1  0.56533409  0.80080975  0.65646914  1.0
  H  H56  1  0.77747986  0.27118900  0.01807301  1.0
  H  H57  1  0.27118812  0.77747976  0.51807257  1.0
  H  H58  1  0.88010317  0.17536065  0.02560970  1.0
  H  H59  1  0.17536111  0.88010319  0.52561008  1.0
  H  H60  1  0.61492245  0.90919034  0.07775602  1.0
  H  H61  1  0.90919023  0.61492253  0.57775589  1.0
  H  H62  1  0.51139630  0.00566979  0.07219794  1.0
  H  H63  1  0.00566943  0.51139650  0.57219888  1.0
  C  C64  1  0.12211407  0.04185887  0.38656342  1.0
  C  C65  1  0.04185818  0.12211356  0.88656366  1.0
  C  C66  1  0.13371210  0.10009796  0.32316701  1.0
  C  C67  1  0.10009807  0.13371146  0.82316800  1.0
  C  C68  1  0.07222757  0.04492510  0.23447187  1.0
  C  C69  1  0.04492525  0.07222740  0.73447168  1.0
  C  C70  1  0.99044252  0.87764564  0.26469153  1.0
  C  C71  1  0.87764556  0.99044260  0.76469195  1.0
  C  C72  1  0.04973820  0.92721334  0.35447320  1.0
  C  C73  1  0.92721354  0.04973789  0.85447380  1.0
  C  C74  1  0.17662835  0.09416729  0.48190057  1.0
  C  C75  1  0.09416759  0.17662820  0.98190102  1.0
  C  C76  1  0.21398607  0.19991194  0.52515908  1.0
  C  C77  1  0.19991234  0.21398576  0.02515865  1.0
  C  C78  1  0.26007276  0.24829403  0.62131149  1.0
  C  C79  1  0.24829476  0.26007310  0.12131184  1.0
  C  C80  1  0.25842333  0.34229311  0.66437544  1.0
  C  C81  1  0.34229330  0.25842370  0.16437510  1.0
  C  C82  1  0.30366693  0.39297780  0.76015509  1.0
  C  C83  1  0.39297832  0.30366788  0.26015552  1.0
  C  C84  1  0.35369325  0.35154176  0.81557804  1.0
  C  C85  1  0.35154177  0.35369334  0.31557761  1.0
  C  C86  1  0.35009818  0.25748243  0.77114396  1.0
  C  C87  1  0.25748236  0.35009859  0.27114418  1.0
  C  C88  1  0.30606756  0.20832321  0.67806075  1.0
  C  C89  1  0.20832294  0.30606835  0.17806100  1.0
  C  C90  1  0.40601582  0.40144487  0.91085287  1.0
  C  C91  1  0.40144510  0.40601583  0.41085246  1.0
  C  C92  1  0.44471262  0.50713150  0.95577785  1.0
  C  C93  1  0.50713163  0.44471261  0.45577806  1.0
  C  C94  1  0.50450673  0.55775150  0.05034695  1.0
  C  C95  1  0.55775077  0.50450612  0.55034719  1.0
  C  C96  1  0.57490020  0.67259582  0.08336449  1.0
  C  C97  1  0.67259536  0.57489987  0.58336420  1.0
  C  C98  1  0.63529501  0.72112116  0.17299628  1.0
  C  C99  1  0.72112054  0.63529499  0.67299664  1.0
  C  C100  1  0.56041632  0.55230031  0.20069495  1.0
  C  C101  1  0.55229958  0.56041569  0.70069455  1.0
  C  C102  1  0.49809431  0.49792922  0.11209158  1.0
  C  C103  1  0.49792891  0.49809453  0.61209202  1.0
  C  C104  1  0.98591389  0.85772028  0.91921681  1.0
  C  C105  1  0.85772053  0.98591378  0.41921699  1.0
  C  C106  1  0.08729845  0.90117260  0.88970783  1.0
  C  C107  1  0.90117203  0.08729835  0.38970807  1.0
  C  C108  1  0.19071214  0.97252039  0.95318315  1.0
  C  C109  1  0.97252032  0.19071207  0.45318283  1.0
  C  C110  1  0.28586518  0.01338820  0.92697018  1.0
  C  C111  1  0.01338800  0.28586443  0.42696953  1.0
  C  C112  1  0.27650712  0.98112000  0.83653211  1.0
  C  C113  1  0.98111989  0.27650699  0.33653176  1.0
  C  C114  1  0.17483671  0.91227730  0.77204614  1.0
  C  C115  1  0.91227649  0.17483673  0.27204634  1.0
  C  C116  1  0.08010722  0.87254841  0.79898518  1.0
  C  C117  1  0.87254799  0.08010747  0.29898487  1.0
  C  C118  1  0.42480333  0.96136960  0.82112442  1.0
  C  C119  1  0.96137039  0.42480346  0.32112423  1.0
  C  C120  1  0.53072410  0.00875927  0.81208555  1.0
  C  C121  1  0.00875940  0.53072450  0.31208572  1.0
  C  C122  1  0.58871125  0.95670932  0.82442965  1.0
  C  C123  1  0.95670993  0.58871230  0.32443017  1.0
  C  C124  1  0.54202146  0.85682625  0.84489229  1.0
  C  C125  1  0.85682780  0.54202265  0.34489297  1.0
  C  C126  1  0.43505862  0.80948881  0.85185389  1.0
  C  C127  1  0.80948936  0.43505924  0.35185433  1.0
  C  C128  1  0.37616425  0.86085309  0.84026996  1.0
  C  C129  1  0.86085277  0.37616370  0.34027010  1.0
  C  C130  1  0.60304971  0.80013249  0.85886193  1.0
  C  C131  1  0.80013244  0.60304934  0.35886209  1.0
  C  C132  1  0.75908210  0.62065041  0.00561956  1.0
  C  C133  1  0.62064987  0.75908240  0.50561931  1.0
  C  C134  1  0.71501649  0.50790060  0.01571719  1.0
  C  C135  1  0.50790052  0.71501706  0.51571642  1.0
  C  C136  1  0.64230193  0.41575121  0.94148262  1.0
  C  C137  1  0.41575173  0.64230279  0.44148235  1.0
  C  C138  1  0.59773653  0.31038197  0.95031801  1.0
  C  C139  1  0.31038201  0.59773681  0.45031756  1.0
  C  C140  1  0.62639011  0.29812996  0.03404753  1.0
  C  C141  1  0.29812898  0.62639056  0.53404657  1.0
  C  C142  1  0.69989668  0.38856445  0.10863897  1.0
  C  C143  1  0.38856476  0.69989763  0.60863830  1.0
  C  C144  1  0.74398717  0.49353371  0.09905767  1.0
  C  C145  1  0.49353360  0.74398820  0.59905758  1.0
  C  C146  1  0.63918975  0.14407312  0.04599899  1.0
  C  C147  1  0.14407223  0.63918934  0.54599914  1.0
  C  C148  1  0.74241628  0.19242198  0.03181081  1.0
  C  C149  1  0.19242187  0.74241642  0.53181115  1.0
  C  C150  1  0.79917346  0.13837638  0.03561942  1.0
  C  C151  1  0.13837702  0.79917420  0.53561932  1.0
  C  C152  1  0.75457741  0.03660475  0.05267670  1.0
  C  C153  1  0.03660476  0.75457802  0.55267647  1.0
  C  C154  1  0.65024478  0.98882566  0.06535854  1.0
  C  C155  1  0.98882544  0.65024502  0.56535843  1.0
  C  C156  1  0.59258068  0.04213567  0.06257765  1.0
  C  C157  1  0.04213561  0.59258103  0.56257803  1.0
  C  C158  1  0.82067798  0.98436110  0.05998183  1.0
  C  C159  1  0.98436108  0.82067799  0.55998167  1.0
  S  S160  1  0.22952834  0.49047270  0.69977770  1.0
  S  S161  1  0.49047188  0.22952825  0.19977716  1.0
  N  N162  1  0.00047435  0.93508512  0.20517756  1.0
  N  N163  1  0.93508494  0.00047442  0.70517754  1.0
  N  N164  1  0.21441111  0.39158874  0.62241253  1.0
  N  N165  1  0.39158840  0.21441152  0.12241213  1.0
  N  N166  1  0.29049040  0.47794089  0.78794245  1.0
  N  N167  1  0.47794083  0.29049014  0.28794199  1.0
  N  N168  1  0.62869153  0.66265530  0.23139535  1.0
  N  N169  1  0.66265517  0.62869112  0.73139572  1.0
  O  O170  1  0.00027729  0.88103814  0.00319873  1.0
  O  O171  1  0.88103821  0.00027839  0.50319890  1.0
  O  O172  1  0.89377327  0.80138599  0.85838246  1.0
  O  O173  1  0.80138595  0.89377341  0.35838265  1.0
  O  O174  1  0.37207055  0.01804622  0.80995114  1.0
  O  O175  1  0.01804672  0.37207035  0.30995068  1.0
  O  O176  1  0.70345864  0.84854802  0.85518751  1.0
  O  O177  1  0.84854870  0.70345886  0.35518786  1.0
  O  O178  1  0.55746264  0.70750865  0.87215305  1.0
  O  O179  1  0.70750906  0.55746269  0.37215459  1.0
  O  O180  1  0.83048358  0.70171601  0.07331750  1.0
  O  O181  1  0.70171567  0.83048362  0.57331724  1.0
  O  O182  1  0.72017145  0.62572549  0.92964834  1.0
  O  O183  1  0.62572557  0.72017155  0.42964853  1.0
  O  O184  1  0.57745967  0.19228349  0.04282320  1.0
  O  O185  1  0.19228327  0.57745963  0.54282290  1.0
  O  O186  1  0.92033129  0.03760177  0.06275081  1.0
  O  O187  1  0.03760178  0.92033184  0.56275054  1.0
  O  O188  1  0.77384490  0.88467824  0.06516563  1.0
  O  O189  1  0.88467749  0.77384504  0.56516537  1.0
