# generated using pymatgen
data_MgH4C7NO3
_symmetry_space_group_name_H-M   'P 1'
_cell_length_a   6.80325128
_cell_length_b   23.21799262
_cell_length_c   23.22108523
_cell_angle_alpha   119.04968402
_cell_angle_beta   95.61515083
_cell_angle_gamma   95.61319240
_symmetry_Int_Tables_number   1
_chemical_formula_structural   MgH4C7NO3
_chemical_formula_sum   'Mg6 H24 C42 N6 O18'
_cell_volume   3146.30048791
_cell_formula_units_Z   6
loop_
 _symmetry_equiv_pos_site_id
 _symmetry_equiv_pos_as_xyz
  1  'x, y, z'
loop_
 _atom_site_type_symbol
 _atom_site_label
 _atom_site_symmetry_multiplicity
 _atom_site_fract_x
 _atom_site_fract_y
 _atom_site_fract_z
 _atom_site_occupancy
  Mg  Mg0  1  0.53908169  0.31575452  0.70081556  1.0
  Mg  Mg1  1  0.79328534  0.67430093  0.38212453  1.0
  Mg  Mg2  1  0.22356285  0.38504462  0.68419067  1.0
  Mg  Mg3  1  0.11893875  0.70788119  0.32569858  1.0
  Mg  Mg4  1  0.83838244  0.29913133  0.61495649  1.0
  Mg  Mg5  1  0.41109072  0.61788835  0.29214971  1.0
  H  H6  1  0.74505549  0.12770626  0.55542478  1.0
  H  H7  1  0.52953534  0.98562845  0.39169473  1.0
  H  H8  1  0.88071964  0.04141724  0.46283554  1.0
  H  H9  1  0.50128057  0.89545218  0.40969777  1.0
  H  H10  1  0.20660503  0.87037138  0.45379581  1.0
  H  H11  1  0.12609025  0.98248581  0.48394552  1.0
  H  H12  1  0.21985281  0.02998568  0.40125070  1.0
  H  H13  1  0.05476838  0.12867153  0.46531391  1.0
  H  H14  1  0.61746036  0.42759709  0.87226042  1.0
  H  H15  1  0.54391490  0.40598258  0.01434834  1.0
  H  H16  1  0.83947637  0.42143811  0.95871058  1.0
  H  H17  1  0.60551398  0.51435295  0.10449035  1.0
  H  H18  1  0.33603809  0.58353305  0.12976315  1.0
  H  H19  1  0.14363572  0.50144823  0.01765221  1.0
  H  H20  1  0.18980896  0.37116241  0.96992533  1.0
  H  H21  1  0.92598345  0.33664840  0.87123506  1.0
  H  H22  1  0.19003254  0.44457591  0.57232163  1.0
  H  H23  1  0.13822667  0.60830141  0.59391872  1.0
  H  H24  1  0.41814915  0.53718728  0.57850714  1.0
  H  H25  1  0.09148441  0.59018214  0.48566382  1.0
  H  H26  1  0.75263401  0.54624271  0.41652750  1.0
  H  H27  1  0.64220997  0.51608951  0.49850684  1.0
  H  H28  1  0.81924947  0.59877524  0.62883903  1.0
  H  H29  1  0.59013559  0.53471957  0.66351796  1.0
  C  C30  1  0.50525751  0.18389331  0.56971693  1.0
  C  C31  1  0.59270998  0.12665660  0.53528376  1.0
  C  C32  1  0.49206302  0.07116955  0.47572523  1.0
  C  C33  1  0.80698054  0.94733952  0.44866383  1.0
  C  C34  1  0.65748403  0.89145751  0.41976667  1.0
  C  C35  1  0.70180930  0.82728637  0.40206123  1.0
  C  C36  1  0.90361105  0.81873813  0.41429029  1.0
  C  C37  1  0.05224164  0.87663178  0.44437192  1.0
  C  C38  1  0.00674572  0.93906398  0.46098743  1.0
  C  C39  1  0.53302384  0.77115513  0.36856145  1.0
  C  C40  1  0.29692648  0.07229695  0.44876967  1.0
  C  C41  1  0.20585137  0.12670448  0.48427261  1.0
  C  C42  1  0.30153873  0.18283174  0.54556231  1.0
  C  C43  1  0.18769304  0.23638725  0.58056851  1.0
  C  C44  1  0.32145979  0.38576644  0.81606551  1.0
  C  C45  1  0.46616685  0.40850582  0.87329493  1.0
  C  C46  1  0.42091159  0.40444682  0.92877370  1.0
  C  C47  1  0.85950236  0.50137930  0.05270682  1.0
  C  C48  1  0.76572047  0.52843940  0.10852845  1.0
  C  C49  1  0.87415442  0.57491439  0.17271654  1.0
  C  C50  1  0.08455077  0.59568781  0.18130131  1.0
  C  C51  1  0.17539799  0.56784024  0.12345603  1.0
  C  C52  1  0.06762978  0.52194776  0.06103075  1.0
  C  C53  1  0.76162509  0.59749763  0.22885821  1.0
  C  C54  1  0.22458714  0.37638480  0.92762617  1.0
  C  C55  1  0.07909534  0.35753886  0.87322220  1.0
  C  C56  1  0.11875840  0.36270255  0.81710650  1.0
  C  C57  1  0.95139776  0.34417088  0.76353310  1.0
  C  C58  1  0.93602359  0.43029664  0.61424183  1.0
  C  C59  1  0.05790137  0.46472578  0.59142546  1.0
  C  C60  1  0.01681762  0.52429970  0.59553032  1.0
  C  C61  1  0.35822935  0.55126301  0.49858270  1.0
  C  C62  1  0.23758188  0.58013114  0.47158319  1.0
  C  C63  1  0.29956332  0.59788414  0.42513873  1.0
  C  C64  1  0.48912120  0.58567361  0.40436930  1.0
  C  C65  1  0.60770994  0.55562696  0.43221116  1.0
  C  C66  1  0.54573748  0.53901388  0.47803272  1.0
  C  C67  1  0.16445812  0.63144995  0.40254925  1.0
  C  C68  1  0.84886097  0.55128407  0.62370152  1.0
  C  C69  1  0.72227381  0.51577373  0.64261003  1.0
  C  C70  1  0.75659831  0.45445361  0.63739490  1.0
  C  C71  1  0.60765643  0.41938753  0.65588038  1.0
  N  N72  1  0.57739710  0.01495209  0.44196446  1.0
  N  N73  1  0.76719329  0.01168592  0.46657552  1.0
  N  N74  1  0.56245055  0.42692680  0.98502101  1.0
  N  N75  1  0.75549730  0.45486650  0.98835946  1.0
  N  N76  1  0.13567808  0.55802210  0.57297587  1.0
  N  N77  1  0.30070958  0.53337928  0.54504992  1.0
  O  O78  1  0.00436754  0.23188438  0.55803872  1.0
  O  O79  1  0.27453769  0.28877732  0.63651495  1.0
  O  O80  1  0.62030590  0.23709354  0.62272978  1.0
  O  O81  1  0.35758431  0.78011114  0.35375817  1.0
  O  O82  1  0.56602218  0.71202922  0.35430761  1.0
  O  O83  1  0.96101664  0.75967146  0.39868638  1.0
  O  O84  1  0.77254903  0.32614985  0.76801205  1.0
  O  O85  1  0.98603284  0.34771184  0.71116077  1.0
  O  O86  1  0.38334831  0.38556387  0.76286933  1.0
  O  O87  1  0.57724393  0.57371911  0.21990530  1.0
  O  O88  1  0.85384024  0.64234186  0.28798129  1.0
  O  O89  1  0.20111800  0.63910248  0.24036886  1.0
  O  O90  1  0.44695141  0.44193535  0.67394742  1.0
  O  O91  1  0.63838054  0.36339856  0.65224922  1.0
  O  O92  1  0.99793837  0.37726400  0.61440683  1.0
  O  O93  1  0.00390674  0.64629149  0.42632388  1.0
  O  O94  1  0.21176079  0.64571308  0.35768977  1.0
  O  O95  1  0.56227502  0.60126452  0.36091288  1.0
