# generated using pymatgen
data_Tb2H40C52O19
_symmetry_space_group_name_H-M   'P 1'
_cell_length_a   7.03094131
_cell_length_b   14.58252014
_cell_length_c   16.69594185
_cell_angle_alpha   104.00992603
_cell_angle_beta   102.03035994
_cell_angle_gamma   90.03097463
_symmetry_Int_Tables_number   1
_chemical_formula_structural   Tb2H40C52O19
_chemical_formula_sum   'Tb2 H40 C52 O19'
_cell_volume   1622.07020169
_cell_formula_units_Z   1
loop_
 _symmetry_equiv_pos_site_id
 _symmetry_equiv_pos_as_xyz
  1  'x, y, z'
loop_
 _atom_site_type_symbol
 _atom_site_label
 _atom_site_symmetry_multiplicity
 _atom_site_fract_x
 _atom_site_fract_y
 _atom_site_fract_z
 _atom_site_occupancy
  Tb  Tb0  1  0.50608655  0.97127042  0.50278759  1.0
  Tb  Tb1  1  0.00342294  0.02919443  0.49721369  1.0
  H  H2  1  0.30695232  0.53480524  0.10733340  1.0
  H  H3  1  0.19910143  0.46450519  0.89231285  1.0
  H  H4  1  0.33381233  0.42840247  0.03030506  1.0
  H  H5  1  0.30344475  0.57083931  0.96921063  1.0
  H  H6  1  0.88350467  0.49968919  0.10763614  1.0
  H  H7  1  0.77560668  0.50004734  0.89249237  1.0
  H  H8  1  0.90392057  0.42460796  0.17969889  1.0
  H  H9  1  0.72500784  0.57548601  0.82073434  1.0
  H  H10  1  0.39408500  0.33852186  0.13135433  1.0
  H  H11  1  0.26312589  0.66104480  0.86849421  1.0
  H  H12  1  0.37510180  0.44144934  0.21347651  1.0
  H  H13  1  0.16246756  0.55811803  0.78641559  1.0
  H  H14  1  0.96102031  0.27859037  0.07568419  1.0
  H  H15  1  0.88652675  0.72112564  0.92460107  1.0
  H  H16  1  0.88226532  0.35438152  0.00606793  1.0
  H  H17  1  0.87669736  0.64550223  0.99434690  1.0
  H  H18  1  0.60699203  0.35283923  0.25467176  1.0
  H  H19  1  0.35294565  0.64705656  0.74495617  1.0
  H  H20  1  0.82572271  0.26778439  0.34518750  1.0
  H  H21  1  0.48097624  0.73266418  0.65446624  1.0
  H  H22  1  0.33312249  0.11261283  0.37268436  1.0
  H  H23  1  0.96049563  0.88723411  0.62774414  1.0
  H  H24  1  0.10981018  0.19717008  0.28176173  1.0
  H  H25  1  0.82852773  0.80224581  0.71885699  1.0
  H  H26  1  0.29181216  0.21694529  0.86233229  1.0
  H  H27  1  0.42998841  0.78225260  0.13741359  1.0
  H  H28  1  0.12940606  0.11812163  0.72006579  1.0
  H  H29  1  0.40966432  0.88139194  0.27972757  1.0
  H  H30  1  0.59045376  0.11548720  0.80230824  1.0
  H  H31  1  0.78947764  0.88527280  0.19787101  1.0
  H  H32  1  0.74946701  0.21226249  0.94468300  1.0
  H  H33  1  0.80619771  0.78807779  0.05551424  1.0
  H  H34  1  0.69710351  0.55776554  0.19275742  1.0
  H  H35  1  0.50387592  0.44269294  0.80729886  1.0
  H  H36  1  0.53477218  0.68242317  0.27992640  1.0
  H  H37  1  0.25415276  0.31837223  0.72029873  1.0
  H  H38  1  0.09062850  0.79670728  0.43546621  1.0
  H  H39  1  0.65442826  0.20350701  0.56430743  1.0
  H  H40  1  0.25739309  0.67539401  0.34757655  1.0
  H  H41  1  0.90922064  0.32448549  0.65193756  1.0
  C  C42  1  0.13015655  0.41201196  0.10683641  1.0
  C  C43  1  0.02365261  0.58750161  0.89322241  1.0
  C  C44  1  0.22836009  0.47160442  0.06141746  1.0
  C  C45  1  0.16680901  0.52775202  0.93837531  1.0
  C  C46  1  0.98613416  0.47003735  0.15310629  1.0
  C  C47  1  0.83321714  0.52976712  0.84703953  1.0
  C  C48  1  0.29399212  0.37938807  0.16748923  1.0
  C  C49  1  0.12713330  0.62013753  0.83247355  1.0
  C  C50  1  0.01005637  0.32798414  0.04261883  1.0
  C  C51  1  0.96814209  0.67166179  0.95758381  1.0
  C  C52  1  0.34386081  0.27866256  0.26132524  1.0
  C  C53  1  0.08311123  0.72099469  0.73874793  1.0
  C  C54  1  0.54559006  0.29972101  0.27924300  1.0
  C  C55  1  0.26690959  0.70018398  0.72058485  1.0
  C  C56  1  0.66880482  0.25233172  0.33009623  1.0
  C  C57  1  0.33909497  0.74784577  0.66972402  1.0
  C  C58  1  0.59388256  0.18398944  0.36308265  1.0
  C  C59  1  0.23096040  0.81615124  0.63697985  1.0
  C  C60  1  0.39157965  0.16463042  0.34596248  1.0
  C  C61  1  0.04578715  0.83524342  0.65432324  1.0
  C  C62  1  0.26683107  0.21181091  0.29561884  1.0
  C  C63  1  0.97162881  0.78781945  0.70472059  1.0
  C  C64  1  0.03052311  0.22257229  0.91143343  1.0
  C  C65  1  0.11996329  0.77713805  0.08853529  1.0
  C  C66  1  0.13859842  0.19348316  0.84872483  1.0
  C  C67  1  0.29050994  0.80602405  0.15110574  1.0
  C  C68  1  0.04819952  0.13812900  0.76983900  1.0
  C  C69  1  0.27899684  0.86160187  0.23001006  1.0
  C  C70  1  0.84913511  0.11123262  0.75233512  1.0
  C  C71  1  0.09765811  0.88892575  0.24765264  1.0
  C  C72  1  0.74425754  0.13792798  0.81629965  1.0
  C  C73  1  0.92908507  0.86248025  0.18380909  1.0
  C  C74  1  0.83333350  0.19293957  0.89575178  1.0
  C  C75  1  0.93874654  0.80724217  0.10436430  1.0
  C  C76  1  0.74280014  0.05999149  0.66710434  1.0
  C  C77  1  0.07633127  0.94035658  0.33289806  1.0
  C  C78  1  0.98875890  0.60850768  0.26487249  1.0
  C  C79  1  0.72344843  0.39164857  0.73497040  1.0
  C  C80  1  0.78462111  0.60977606  0.24579956  1.0
  C  C81  1  0.53829916  0.39062580  0.75418472  1.0
  C  C82  1  0.69285255  0.67951270  0.29496333  1.0
  C  C83  1  0.39722144  0.32106824  0.70509758  1.0
  C  C84  1  0.80155251  0.74747559  0.36352126  1.0
  C  C85  1  0.43731282  0.25300554  0.63646184  1.0
  C  C86  1  0.00533572  0.74421051  0.38234779  1.0
  C  C87  1  0.62231934  0.25608376  0.61747358  1.0
  C  C88  1  0.09906805  0.67607845  0.33354946  1.0
  C  C89  1  0.76496240  0.32404170  0.66616471  1.0
  C  C90  1  0.70230318  0.82314996  0.41276583  1.0
  C  C91  1  0.28880795  0.17741753  0.58726867  1.0
  C  C92  1  0.73126372  0.13396077  0.41443707  1.0
  C  C93  1  0.31680256  0.86640712  0.58558306  1.0
  O  O94  1  0.83018418  0.03807944  0.60431505  1.0
  O  O95  1  0.22602206  0.96212990  0.39566491  1.0
  O  O96  1  0.56250024  0.03875680  0.65415155  1.0
  O  O97  1  0.90907652  0.96189562  0.34590333  1.0
  O  O98  1  0.91281632  0.15434256  0.43076029  1.0
  O  O99  1  0.48219731  0.84624828  0.56919218  1.0
  O  O100  1  0.66694055  0.06727970  0.44338318  1.0
  O  O101  1  0.22344730  0.93300537  0.55670511  1.0
  O  O102  1  0.80378198  0.88953375  0.47310417  1.0
  O  O103  1  0.33024249  0.11088155  0.52696404  1.0
  O  O104  1  0.51812942  0.82503058  0.39687254  1.0
  O  O105  1  0.12033161  0.17569899  0.60313101  1.0
  O  O106  1  0.21280924  0.32065063  0.21047857  1.0
  O  O107  1  0.00300657  0.67881551  0.78965921  1.0
  O  O108  1  0.09281378  0.54430957  0.21954243  1.0
  O  O109  1  0.87303825  0.45555295  0.78031525  1.0
  O  O110  1  0.12741376  0.28088080  0.98616738  1.0
  O  O111  1  0.14198190  0.71858818  0.01378634  1.0
  O  O112  1  0.08378860  0.49974015  0.00003278  1.0
