# generated using pymatgen
data_AlH7C16O5F2
_symmetry_space_group_name_H-M   'P 1'
_cell_length_a   6.65414346
_cell_length_b   24.59037098
_cell_length_c   24.79981731
_cell_angle_alpha   90.03569421
_cell_angle_beta   89.94231365
_cell_angle_gamma   90.42775007
_symmetry_Int_Tables_number   1
_chemical_formula_structural   AlH7C16O5F2
_chemical_formula_sum   'Al4 H28 C64 O20 F8'
_cell_volume   4057.82503027
_cell_formula_units_Z   4
loop_
 _symmetry_equiv_pos_site_id
 _symmetry_equiv_pos_as_xyz
  1  'x, y, z'
loop_
 _atom_site_type_symbol
 _atom_site_label
 _atom_site_symmetry_multiplicity
 _atom_site_fract_x
 _atom_site_fract_y
 _atom_site_fract_z
 _atom_site_occupancy
  Al  Al0  1  0.98335826  0.49897184  0.00086646  1.0
  Al  Al1  1  0.48335480  0.49874724  0.99910689  1.0
  Al  Al2  1  0.01669897  0.00118960  0.50083563  1.0
  Al  Al3  1  0.51668889  0.00100222  0.49906988  1.0
  H  H4  1  0.22920620  0.51421517  0.93045246  1.0
  H  H5  1  0.72860515  0.51651353  0.06895698  1.0
  H  H6  1  0.27090442  0.98554670  0.56941636  1.0
  H  H7  1  0.77141795  0.98362750  0.43092312  1.0
  H  H8  1  0.44730324  0.13804248  0.59302238  1.0
  H  H9  1  0.44233446  0.20778939  0.66666667  1.0
  H  H10  1  0.07479335  0.10918849  0.62375150  1.0
  H  H11  1  0.42545698  0.39052696  0.87632922  1.0
  H  H12  1  0.05310669  0.36191103  0.90706969  1.0
  H  H13  1  0.05842826  0.29213927  0.83346647  1.0
  H  H14  1  0.94559640  0.89120337  0.37970200  1.0
  H  H15  1  0.93563589  0.82099325  0.30681147  1.0
  H  H16  1  0.57690966  0.86158650  0.40295885  1.0
  H  H17  1  0.92305633  0.63853204  0.09672891  1.0
  H  H18  1  0.55426938  0.60886226  0.12015149  1.0
  H  H19  1  0.56398744  0.67903838  0.19306100  1.0
  H  H20  1  0.57642174  0.10792311  0.37519095  1.0
  H  H21  1  0.57428113  0.17816778  0.30213427  1.0
  H  H22  1  0.94817443  0.13664543  0.40528252  1.0
  H  H23  1  0.55145332  0.36321965  0.09470788  1.0
  H  H24  1  0.92322042  0.39209975  0.12469264  1.0
  H  H25  1  0.92481241  0.32172843  0.19763324  1.0
  H  H26  1  0.44590739  0.89290655  0.62232606  1.0
  H  H27  1  0.43642946  0.82237239  0.69481789  1.0
  H  H28  1  0.07694882  0.86317162  0.59810555  1.0
  H  H29  1  0.42332386  0.63692354  0.90201134  1.0
  H  H30  1  0.05446518  0.60725831  0.87795454  1.0
  H  H31  1  0.06448719  0.67815747  0.80579703  1.0
  C  C32  1  0.73030776  0.57185914  0.93383889  1.0
  C  C33  1  0.74104681  0.42517472  0.93651304  1.0
  C  C34  1  0.23944555  0.42671686  0.06504955  1.0
  C  C35  1  0.23006255  0.57336869  0.06457157  1.0
  C  C36  1  0.76975923  0.92809712  0.56612930  1.0
  C  C37  1  0.75907688  0.07469351  0.56352834  1.0
  C  C38  1  0.26052487  0.07328600  0.43494236  1.0
  C  C39  1  0.26995318  0.92669584  0.43523059  1.0
  C  C40  1  0.75966193  0.11910607  0.60436672  1.0
  C  C41  1  0.58247844  0.14746833  0.61604088  1.0
  C  C42  1  0.57987219  0.18621851  0.65671859  1.0
  C  C43  1  0.75460089  0.19762206  0.68726280  1.0
  C  C44  1  0.93107856  0.16946096  0.67330009  1.0
  C  C45  1  0.93671767  0.13085417  0.63284857  1.0
  C  C46  1  0.75253907  0.23447529  0.73079224  1.0
  C  C47  1  0.74832294  0.26532375  0.76932078  1.0
  C  C48  1  0.74612896  0.30218416  0.81285105  1.0
  C  C49  1  0.56952125  0.33028698  0.82680206  1.0
  C  C50  1  0.56363875  0.36889718  0.86723830  1.0
  C  C51  1  0.74063413  0.38073469  0.89571696  1.0
  C  C52  1  0.91795665  0.35243032  0.88406699  1.0
  C  C53  1  0.92080459  0.31366168  0.84340012  1.0
  C  C54  1  0.26153344  0.88167376  0.39495611  1.0
  C  C55  1  0.08067602  0.86922217  0.36844478  1.0
  C  C56  1  0.07511624  0.83040289  0.32787555  1.0
  C  C57  1  0.25105893  0.80241412  0.31259725  1.0
  C  C58  1  0.42808419  0.81420343  0.34169727  1.0
  C  C59  1  0.43663301  0.85308212  0.38191162  1.0
  C  C60  1  0.25091214  0.76530256  0.26928742  1.0
  C  C61  1  0.24863265  0.73472368  0.23053214  1.0
  C  C62  1  0.24860496  0.69763664  0.18719850  1.0
  C  C63  1  0.07168697  0.68588116  0.15803921  1.0
  C  C64  1  0.06330077  0.64702338  0.11780871  1.0
  C  C65  1  0.23841810  0.61841712  0.10481340  1.0
  C  C66  1  0.41917452  0.63085236  0.13137595  1.0
  C  C67  1  0.42459584  0.66965890  0.17195326  1.0
  C  C68  1  0.26289591  0.11749825  0.39396366  1.0
  C  C69  1  0.43960303  0.12983265  0.36538444  1.0
  C  C70  1  0.43824564  0.16861555  0.32477790  1.0
  C  C71  1  0.25980964  0.19652655  0.31164707  1.0
  C  C72  1  0.08706298  0.18438464  0.34250843  1.0
  C  C73  1  0.08508489  0.14562232  0.38279371  1.0
  C  C74  1  0.25251993  0.23415369  0.26887975  1.0
  C  C75  1  0.24629315  0.26559664  0.23088604  1.0
  C  C76  1  0.23922343  0.30326792  0.18814531  1.0
  C  C77  1  0.41212922  0.31540554  0.15735127  1.0
  C  C78  1  0.41441630  0.35424139  0.11714096  1.0
  C  C79  1  0.23675811  0.38243962  0.10596335  1.0
  C  C80  1  0.05991152  0.37011971  0.13448493  1.0
  C  C81  1  0.06095988  0.33126084  0.17502497  1.0
  C  C82  1  0.76161419  0.88327792  0.60657238  1.0
  C  C83  1  0.58106748  0.87084767  0.63330577  1.0
  C  C84  1  0.57575256  0.83183885  0.67364914  1.0
  C  C85  1  0.75160720  0.80362035  0.68845124  1.0
  C  C86  1  0.92852508  0.81559082  0.65929284  1.0
  C  C87  1  0.93680655  0.85463644  0.61928975  1.0
  C  C88  1  0.75161260  0.76599411  0.73127533  1.0
  C  C89  1  0.74958181  0.73471460  0.76944011  1.0
  C  C90  1  0.74933875  0.69692906  0.81212185  1.0
  C  C91  1  0.57221335  0.68482659  0.84114959  1.0
  C  C92  1  0.56360306  0.64556383  0.88094621  1.0
  C  C93  1  0.73867571  0.61684373  0.89359058  1.0
  C  C94  1  0.91944032  0.62939868  0.86701688  1.0
  C  C95  1  0.92502526  0.66861075  0.82687192  1.0
  O  O96  1  0.89537339  0.54823265  0.94479938  1.0
  O  O97  1  0.57502720  0.44919109  0.94540741  1.0
  O  O98  1  0.40751638  0.43812955  0.04304559  1.0
  O  O99  1  0.05831368  0.56107295  0.04504363  1.0
  O  O100  1  0.07444227  0.45103893  0.05593123  1.0
  O  O101  1  0.39508880  0.54957122  0.05385120  1.0
  O  O102  1  0.55840394  0.55956147  0.95331610  1.0
  O  O103  1  0.90836086  0.43711703  0.95853188  1.0
  O  O104  1  0.23226108  0.49947154  0.96662316  1.0
  O  O105  1  0.73201503  0.50045310  0.03332423  1.0
  O  O106  1  0.94163229  0.94033781  0.54659158  1.0
  O  O107  1  0.59175140  0.06279226  0.54150346  1.0
  O  O108  1  0.42563869  0.04902545  0.44407560  1.0
  O  O109  1  0.10488110  0.95044692  0.44600982  1.0
  O  O110  1  0.09251993  0.06185997  0.45697654  1.0
  O  O111  1  0.44171266  0.93899606  0.45474321  1.0
  O  O112  1  0.60461452  0.95164787  0.55509500  1.0
  O  O113  1  0.92503927  0.05066487  0.55460252  1.0
  O  O114  1  0.26784479  0.00042672  0.53330039  1.0
  O  O115  1  0.76802568  0.99955742  0.46661550  1.0
  F  F116  1  0.10183310  0.18037435  0.70163857  1.0
  F  F117  1  0.39876666  0.31929225  0.79847353  1.0
  F  F118  1  0.59807570  0.78659289  0.32873574  1.0
  F  F119  1  0.90166136  0.71349290  0.17097302  1.0
  F  F120  1  0.91467610  0.21165444  0.33137174  1.0
  F  F121  1  0.58438627  0.28806608  0.16849249  1.0
  F  F122  1  0.09846822  0.78782896  0.67182531  1.0
  F  F123  1  0.40240282  0.71264592  0.82864444  1.0
