# generated using pymatgen
data_Ni2H76C57(NO)12
_symmetry_space_group_name_H-M   'P 1'
_cell_length_a   9.28922101
_cell_length_b   18.62603909
_cell_length_c   22.45794173
_cell_angle_alpha   85.64984931
_cell_angle_beta   78.68531381
_cell_angle_gamma   76.44555688
_symmetry_Int_Tables_number   1
_chemical_formula_structural   Ni2H76C57(NO)12
_chemical_formula_sum   'Ni4 H152 C114 N24 O24'
_cell_volume   3702.24209380
_cell_formula_units_Z   2
loop_
 _symmetry_equiv_pos_site_id
 _symmetry_equiv_pos_as_xyz
  1  'x, y, z'
loop_
 _atom_site_type_symbol
 _atom_site_label
 _atom_site_symmetry_multiplicity
 _atom_site_fract_x
 _atom_site_fract_y
 _atom_site_fract_z
 _atom_site_occupancy
  Ni  Ni0  1  0.99999636  0.99999710  0.99999833  1.0
  Ni  Ni1  1  0.99999710  0.50000079  0.50000072  1.0
  Ni  Ni2  1  0.50000281  0.99999823  0.50000239  1.0
  Ni  Ni3  1  0.00001110  0.49999924  0.99999908  1.0
  H  H4  1  0.46219102  0.88154381  0.54986341  1.0
  H  H5  1  0.97648355  0.08698144  0.08098926  1.0
  H  H6  1  0.15945906  0.14239776  0.88215167  1.0
  H  H7  1  0.98131517  0.11508502  0.90506587  1.0
  H  H8  1  0.16471003  0.14342839  0.04723447  1.0
  H  H9  1  0.26076188  0.18732234  0.98369651  1.0
  H  H10  1  0.37605091  0.07530368  0.93669051  1.0
  H  H11  1  0.31213684  0.02834099  0.00563391  1.0
  H  H12  1  0.82060700  0.17633659  0.98791945  1.0
  H  H13  1  0.89181922  0.21033716  0.04560448  1.0
  H  H14  1  0.68423381  0.09561368  0.04354262  1.0
  H  H15  1  0.70426385  0.12695740  0.11401608  1.0
  H  H16  1  0.34200587  0.99925750  0.86964717  1.0
  H  H17  1  0.15476691  0.99993179  0.86102486  1.0
  H  H18  1  0.79605087  0.89789448  0.36455665  1.0
  H  H19  1  0.59299740  0.92033003  0.38669366  1.0
  H  H20  1  0.94733383  0.93884370  0.43456068  1.0
  H  H21  1  0.83672953  0.00687324  0.48705877  1.0
  H  H22  1  0.77613602  0.09104688  0.40424206  1.0
  H  H23  1  0.91900696  0.02784540  0.35693379  1.0
  H  H24  1  0.43599260  0.88780942  0.65694014  1.0
  H  H25  1  0.52657886  0.96358601  0.64607004  1.0
  H  H26  1  0.70256083  0.82723678  0.58070050  1.0
  H  H27  1  0.73959212  0.91768874  0.57294438  1.0
  H  H28  1  0.85841111  0.84138163  0.47968320  1.0
  H  H29  1  0.67617573  0.83355980  0.47186627  1.0
  H  H30  1  0.31361688  0.94788694  0.35059928  1.0
  H  H31  1  0.16778205  0.91695289  0.27711609  1.0
  H  H32  1  0.02556174  0.75122573  0.40491938  1.0
  H  H33  1  0.17882532  0.78035878  0.47584745  1.0
  H  H34  1  0.84631031  0.76842222  0.34705986  1.0
  H  H35  1  0.02048124  0.70888455  0.31382035  1.0
  H  H36  1  0.66281558  0.83032121  0.28421109  1.0
  H  H37  1  0.79470813  0.86981692  0.23024228  1.0
  H  H38  1  0.55069212  0.77170334  0.11602104  1.0
  H  H39  1  0.33423972  0.85221568  0.07498061  1.0
  H  H40  1  0.31160510  0.02053808  0.19828915  1.0
  H  H41  1  0.53165397  0.94219063  0.23878283  1.0
  H  H42  1  0.88347115  0.61532321  0.95590050  1.0
  H  H43  1  0.13957681  0.41334632  0.41934635  1.0
  H  H44  1  0.18217162  0.35910709  0.61861019  1.0
  H  H45  1  0.00111543  0.38484778  0.59477338  1.0
  H  H46  1  0.34872537  0.35872665  0.45377521  1.0
  H  H47  1  0.42550282  0.31553269  0.51755131  1.0
  H  H48  1  0.38556942  0.42757596  0.56503308  1.0
  H  H49  1  0.34415610  0.47424319  0.49581128  1.0
  H  H50  1  0.98168352  0.32237058  0.51172305  1.0
  H  H51  1  0.14154850  0.28962690  0.45447066  1.0
  H  H52  1  0.82124003  0.40215018  0.45582602  1.0
  H  H53  1  0.93966546  0.37139138  0.38558228  1.0
  H  H54  1  0.21307213  0.50337727  0.63115987  1.0
  H  H55  1  0.01927464  0.50095760  0.63912734  1.0
  H  H56  1  0.06410014  0.60053959  0.13550613  1.0
  H  H57  1  0.90327317  0.57467885  0.11558833  1.0
  H  H58  1  0.31842839  0.56355474  0.06122185  1.0
  H  H59  1  0.31898635  0.49349193  0.01072758  1.0
  H  H60  1  0.27753541  0.41004425  0.09625704  1.0
  H  H61  1  0.30893475  0.47772732  0.14140067  1.0
  H  H62  1  0.96762872  0.61758973  0.84898496  1.0
  H  H63  1  0.12460257  0.54306230  0.85695654  1.0
  H  H64  1  0.09075801  0.67682227  0.92382049  1.0
  H  H65  1  0.21689192  0.58893744  0.92999122  1.0
  H  H66  1  0.16910735  0.66063559  0.02609318  1.0
  H  H67  1  0.97306632  0.66508211  0.03291602  1.0
  H  H68  1  0.59659336  0.55854523  0.15432258  1.0
  H  H69  1  0.34925164  0.58937401  0.22657569  1.0
  H  H70  1  0.17531740  0.75144127  0.09569511  1.0
  H  H71  1  0.42552408  0.72174110  0.02589283  1.0
  H  H72  1  0.95482957  0.73426356  0.15352307  1.0
  H  H73  1  0.04012786  0.79471222  0.18641927  1.0
  H  H74  1  0.76937354  0.67277011  0.21649559  1.0
  H  H75  1  0.88726980  0.63374222  0.27059687  1.0
  H  H76  1  0.44038898  0.73145245  0.38410947  1.0
  H  H77  1  0.26263542  0.64991763  0.42512676  1.0
  H  H78  1  0.52148706  0.48105960  0.30341970  1.0
  H  H79  1  0.70428763  0.56045677  0.26297335  1.0
  H  H80  1  0.53781129  0.11845047  0.45014018  1.0
  H  H81  1  0.02351201  0.91301396  0.91900461  1.0
  H  H82  1  0.84052407  0.85759154  0.11783763  1.0
  H  H83  1  0.01866930  0.88490260  0.09492639  1.0
  H  H84  1  0.83527381  0.85656533  0.95275642  1.0
  H  H85  1  0.73922268  0.81266861  0.01629391  1.0
  H  H86  1  0.62393449  0.92468782  0.06330337  1.0
  H  H87  1  0.68784717  0.97165273  0.99435796  1.0
  H  H88  1  0.17937985  0.82365491  0.01207407  1.0
  H  H89  1  0.10816965  0.78965879  0.95438689  1.0
  H  H90  1  0.31575772  0.90438060  0.95645377  1.0
  H  H91  1  0.29573857  0.87303193  0.88598068  1.0
  H  H92  1  0.65799255  0.00073348  0.13034831  1.0
  H  H93  1  0.84523669  0.00005591  0.13896569  1.0
  H  H94  1  0.20395340  0.10210258  0.63544573  1.0
  H  H95  1  0.40701097  0.07966318  0.61330755  1.0
  H  H96  1  0.05267472  0.06114950  0.56544151  1.0
  H  H97  1  0.16327412  0.99312159  0.51294543  1.0
  H  H98  1  0.22386822  0.90894686  0.59575976  1.0
  H  H99  1  0.08099558  0.97214889  0.64306838  1.0
  H  H100  1  0.56400356  0.11218373  0.34306242  1.0
  H  H101  1  0.47342328  0.03640327  0.35393634  1.0
  H  H102  1  0.29744483  0.17275309  0.41930185  1.0
  H  H103  1  0.26041610  0.08230112  0.42706108  1.0
  H  H104  1  0.14160163  0.15861379  0.52032036  1.0
  H  H105  1  0.32383951  0.16643177  0.52813550  1.0
  H  H106  1  0.68639113  0.05211011  0.64940728  1.0
  H  H107  1  0.83222534  0.08305469  0.72288677  1.0
  H  H108  1  0.97442214  0.24877902  0.59507848  1.0
  H  H109  1  0.82115146  0.21964425  0.52415651  1.0
  H  H110  1  0.15368079  0.23158811  0.65293440  1.0
  H  H111  1  0.97951186  0.29112301  0.68617789  1.0
  H  H112  1  0.33718888  0.16968750  0.71578382  1.0
  H  H113  1  0.20528681  0.13019011  0.76975081  1.0
  H  H114  1  0.44930036  0.22830199  0.88397903  1.0
  H  H115  1  0.66575790  0.14778912  0.92501894  1.0
  H  H116  1  0.68838301  0.97946947  0.80170625  1.0
  H  H117  1  0.46833696  0.05782189  0.76121628  1.0
  H  H118  1  0.11654110  0.38467772  0.04410651  1.0
  H  H119  1  0.86042683  0.58665295  0.58065553  1.0
  H  H120  1  0.81781356  0.64089708  0.38139357  1.0
  H  H121  1  0.99887252  0.61515752  0.40522918  1.0
  H  H122  1  0.65126765  0.64126869  0.54622953  1.0
  H  H123  1  0.57448416  0.68446539  0.48245489  1.0
  H  H124  1  0.61442525  0.57242549  0.43496903  1.0
  H  H125  1  0.65583735  0.52575494  0.50418921  1.0
  H  H126  1  0.01830213  0.67763691  0.48828080  1.0
  H  H127  1  0.85843654  0.71037227  0.54553587  1.0
  H  H128  1  0.17875953  0.59785129  0.54417555  1.0
  H  H129  1  0.06033072  0.62861118  0.61441998  1.0
  H  H130  1  0.78692896  0.49662310  0.36884181  1.0
  H  H131  1  0.98072202  0.49904607  0.36087499  1.0
  H  H132  1  0.93592637  0.39946310  0.86449300  1.0
  H  H133  1  0.09674697  0.42532768  0.88441321  1.0
  H  H134  1  0.68159055  0.43644517  0.93877511  1.0
  H  H135  1  0.68102343  0.50650738  0.98927243  1.0
  H  H136  1  0.72247837  0.58995893  0.90374484  1.0
  H  H137  1  0.69108144  0.52227700  0.85859807  1.0
  H  H138  1  0.03238063  0.38241785  0.15102048  1.0
  H  H139  1  0.87540817  0.45694641  0.14304567  1.0
  H  H140  1  0.90926116  0.32317542  0.07617740  1.0
  H  H141  1  0.78312254  0.41105966  0.07000964  1.0
  H  H142  1  0.83092300  0.33936271  0.97390185  1.0
  H  H143  1  0.02696107  0.33492335  0.96708420  1.0
  H  H144  1  0.40341235  0.44147450  0.84568616  1.0
  H  H145  1  0.65075916  0.41065349  0.77343173  1.0
  H  H146  1  0.82468372  0.24855640  0.90429400  1.0
  H  H147  1  0.57448046  0.27825213  0.97410081  1.0
  H  H148  1  0.04516682  0.26573404  0.84647574  1.0
  H  H149  1  0.95986025  0.20529479  0.81357177  1.0
  H  H150  1  0.23062859  0.32723305  0.78350238  1.0
  H  H151  1  0.11273116  0.36626535  0.72940351  1.0
  H  H152  1  0.55960057  0.26855346  0.61588409  1.0
  H  H153  1  0.73735607  0.35008495  0.57486883  1.0
  H  H154  1  0.47853216  0.51893750  0.69658542  1.0
  H  H155  1  0.29572371  0.43954197  0.73703112  1.0
  C  C156  1  0.08394923  0.12037804  0.91958085  1.0
  C  C157  1  0.19207154  0.14607573  0.99746342  1.0
  C  C158  1  0.27664919  0.06968986  0.97109954  1.0
  C  C159  1  0.91295607  0.16501851  0.01373791  1.0
  C  C160  1  0.75650447  0.08643854  0.07808901  1.0
  C  C161  1  0.23098659  0.99182458  0.89402458  1.0
  C  C162  1  0.69719929  0.93691083  0.38883520  1.0
  C  C163  1  0.83912529  0.97931752  0.44548641  1.0
  C  C164  1  0.81377857  0.03340065  0.39048618  1.0
  C  C165  1  0.44889435  0.93781530  0.62853838  1.0
  C  C166  1  0.68029615  0.88113782  0.55585840  1.0
  C  C167  1  0.73832356  0.86949245  0.48786984  1.0
  C  C168  1  0.34483498  0.88285837  0.46173752  1.0
  C  C169  1  0.25530122  0.86573815  0.41785641  1.0
  C  C170  1  0.25093911  0.90450524  0.36179586  1.0
  C  C171  1  0.16941776  0.88804242  0.32112348  1.0
  C  C172  1  0.08795332  0.83260998  0.33663966  1.0
  C  C173  1  0.08998752  0.79367088  0.39244987  1.0
  C  C174  1  0.17428162  0.81034477  0.43234147  1.0
  C  C175  1  0.93611765  0.75947858  0.30644355  1.0
  C  C176  1  0.74692491  0.82058733  0.24199146  1.0
  C  C177  1  0.55488228  0.85214737  0.17895884  1.0
  C  C178  1  0.49761628  0.82644609  0.13351183  1.0
  C  C179  1  0.37721184  0.87100471  0.11125731  1.0
  C  C180  1  0.30897940  0.94147913  0.13403942  1.0
  C  C181  1  0.36505640  0.96584578  0.18048694  1.0
  C  C182  1  0.48811700  0.92189095  0.20321898  1.0
  C  C183  1  0.18041188  0.98870918  0.10730992  1.0
  C  C184  1  0.12238319  0.38047619  0.58079176  1.0
  C  C185  1  0.33040611  0.35603380  0.50355974  1.0
  C  C186  1  0.31497687  0.43263492  0.53014377  1.0
  C  C187  1  0.08736245  0.33471128  0.48632304  1.0
  C  C188  1  0.91748963  0.41206270  0.42154473  1.0
  C  C189  1  0.11906890  0.50981172  0.60645723  1.0
  C  C190  1  0.02562886  0.56031229  0.11240455  1.0
  C  C191  1  0.25999422  0.52142454  0.05257493  1.0
  C  C192  1  0.24192353  0.46818109  0.10877555  1.0
  C  C193  1  0.00461905  0.56570192  0.87450043  1.0
  C  C194  1  0.10456494  0.62253439  0.94817303  1.0
  C  C195  1  0.08641085  0.63196740  0.01589631  1.0
  C  C196  1  0.67579954  0.61876191  0.04378241  1.0
  C  C197  1  0.52573805  0.63840711  0.08579135  1.0
  C  C198  1  0.50322644  0.60102142  0.14242733  1.0
  C  C199  1  0.36642406  0.61741292  0.18221687  1.0
  C  C200  1  0.24777310  0.67167562  0.16522312  1.0
  C  C201  1  0.26762693  0.70961299  0.10900480  1.0
  C  C202  1  0.40682791  0.69275375  0.06983387  1.0
  C  C203  1  0.99692490  0.74393333  0.19412999  1.0
  C  C204  1  0.80413334  0.68280615  0.25867561  1.0
  C  C205  1  0.58295791  0.65075934  0.32197390  1.0
  C  C206  1  0.45724457  0.67637016  0.36695893  1.0
  C  C207  1  0.35870225  0.63124067  0.38922896  1.0
  C  C208  1  0.38070261  0.56032150  0.36688722  1.0
  C  C209  1  0.50493523  0.53605442  0.32091160  1.0
  C  C210  1  0.60711641  0.58056184  0.29822013  1.0
  C  C211  1  0.27229672  0.51247572  0.39346483  1.0
  C  C212  1  0.91603708  0.87960960  0.08041061  1.0
  C  C213  1  0.80792193  0.85391303  0.00252917  1.0
  C  C214  1  0.72334005  0.93030054  0.02889319  1.0
  C  C215  1  0.08703013  0.83497133  0.98625600  1.0
  C  C216  1  0.24349910  0.91355744  0.92190653  1.0
  C  C217  1  0.76901440  0.00816365  0.10596962  1.0
  C  C218  1  0.30281164  0.06308128  0.61116621  1.0
  C  C219  1  0.16087643  0.02067675  0.55451665  1.0
  C  C220  1  0.18622393  0.96659585  0.60951604  1.0
  C  C221  1  0.55111064  0.06217456  0.37146584  1.0
  C  C222  1  0.31971037  0.11885537  0.44414362  1.0
  C  C223  1  0.26168614  0.13050296  0.51213346  1.0
  C  C224  1  0.65514871  0.11714025  0.53826840  1.0
  C  C225  1  0.74469164  0.13426217  0.58214937  1.0
  C  C226  1  0.74906460  0.09549623  0.63820945  1.0
  C  C227  1  0.83058176  0.11196236  0.67888105  1.0
  C  C228  1  0.91204680  0.16739650  0.66335869  1.0
  C  C229  1  0.91000738  0.20633223  0.60755229  1.0
  C  C230  1  0.82570938  0.18965889  0.56765988  1.0
  C  C231  1  0.06387360  0.24052952  0.69355406  1.0
  C  C232  1  0.25308004  0.17941805  0.75800584  1.0
  C  C233  1  0.44510739  0.14785408  0.82104042  1.0
  C  C234  1  0.50237117  0.17355701  0.86648776  1.0
  C  C235  1  0.62277832  0.12899784  0.88874202  1.0
  C  C236  1  0.69100741  0.05852121  0.86595765  1.0
  C  C237  1  0.63492366  0.03415952  0.81950771  1.0
  C  C238  1  0.51187076  0.07811381  0.79677826  1.0
  C  C239  1  0.81957549  0.01128893  0.89269004  1.0
  C  C240  1  0.87760279  0.61952632  0.41921203  1.0
  C  C241  1  0.66958321  0.64396540  0.49644572  1.0
  C  C242  1  0.68501920  0.56736322  0.46985743  1.0
  C  C243  1  0.91262743  0.66528904  0.51368008  1.0
  C  C244  1  0.08250705  0.58793931  0.57845612  1.0
  C  C245  1  0.88092626  0.49019084  0.39354494  1.0
  C  C246  1  0.97438873  0.43969425  0.88759387  1.0
  C  C247  1  0.74002906  0.47857536  0.94742674  1.0
  C  C248  1  0.75809864  0.53182271  0.89122177  1.0
  C  C249  1  0.99539102  0.43430180  0.12550162  1.0
  C  C250  1  0.89545375  0.37746716  0.05182683  1.0
  C  C251  1  0.91360976  0.36803527  0.98410326  1.0
  C  C252  1  0.32420993  0.38123294  0.95622375  1.0
  C  C253  1  0.47426574  0.36159546  0.91421447  1.0
  C  C254  1  0.49678964  0.39899173  0.85757736  1.0
  C  C255  1  0.63358202  0.38260514  0.81779235  1.0
  C  C256  1  0.75223792  0.32833532  0.83477530  1.0
  C  C257  1  0.73237231  0.29038907  0.89099098  1.0
  C  C258  1  0.59318564  0.30724450  0.93015922  1.0
  C  C259  1  0.00307045  0.25607480  0.80586557  1.0
  C  C260  1  0.19586328  0.31720308  0.74132152  1.0
  C  C261  1  0.41703987  0.34924213  0.67802607  1.0
  C  C262  1  0.54275115  0.32363243  0.63303799  1.0
  C  C263  1  0.64129385  0.36875969  0.61076988  1.0
  C  C264  1  0.61930146  0.43967777  0.63311422  1.0
  C  C265  1  0.49507426  0.46394431  0.67909367  1.0
  C  C266  1  0.39289188  0.41943744  0.70178264  1.0
  C  C267  1  0.72770938  0.48752356  0.60653678  1.0
  C  C268  1  0.87130301  0.75175777  0.25024729  1.0
  C  C269  1  0.12868413  0.24825309  0.74974857  1.0
  N  N270  1  0.51883619  0.91670883  0.56520985  1.0
  N  N271  1  0.71339843  0.94065078  0.45332915  1.0
  N  N272  1  0.69733366  0.01087661  0.36393967  1.0
  N  N273  1  0.16528287  0.04730618  0.94124454  1.0
  N  N274  1  0.90807393  0.09440453  0.04821702  1.0
  N  N275  1  0.05209496  0.16718586  0.97132625  1.0
  N  N276  1  0.99099847  0.58271352  0.93934946  1.0
  N  N277  1  0.10163811  0.55824291  0.04703013  1.0
  N  N278  1  0.07933844  0.48682724  0.13630740  1.0
  N  N279  1  0.15350908  0.45402334  0.55929355  1.0
  N  N280  1  0.04707743  0.40524523  0.45188827  1.0
  N  N281  1  0.18655208  0.33369814  0.52921570  1.0
  N  N282  1  0.48117221  0.08328490  0.43479571  1.0
  N  N283  1  0.28660575  0.05934185  0.54667216  1.0
  N  N284  1  0.30266842  0.98911600  0.63606387  1.0
  N  N285  1  0.83471025  0.95268259  0.05874609  1.0
  N  N286  1  0.09191786  0.90558975  0.95177794  1.0
  N  N287  1  0.94788455  0.83281005  0.02866575  1.0
  N  N288  1  0.00901435  0.41728689  0.06065373  1.0
  N  N289  1  0.89837405  0.44176028  0.95297113  1.0
  N  N290  1  0.92067689  0.51317872  0.86369371  1.0
  N  N291  1  0.84648096  0.54597754  0.44070911  1.0
  N  N292  1  0.95291899  0.59475734  0.54811256  1.0
  N  N293  1  0.81343688  0.66630272  0.47078928  1.0
  O  O294  1  0.38928228  0.94381646  0.45036807  1.0
  O  O295  1  0.36903387  0.83790288  0.50570184  1.0
  O  O296  1  0.00714621  0.82097889  0.29496951  1.0
  O  O297  1  0.67926805  0.80460219  0.19413151  1.0
  O  O298  1  0.11169307  0.05002118  0.13018781  1.0
  O  O299  1  0.15195195  0.96098474  0.06106232  1.0
  O  O300  1  0.76479885  0.55952034  0.05839304  1.0
  O  O301  1  0.70335278  0.66061594  0.99753142  1.0
  O  O302  1  0.11509424  0.68296088  0.20616450  1.0
  O  O303  1  0.67594913  0.69878605  0.30652251  1.0
  O  O304  1  0.28524335  0.45080884  0.37069997  1.0
  O  O305  1  0.17249847  0.54001462  0.43936225  1.0
  O  O306  1  0.61073009  0.05617565  0.54963298  1.0
  O  O307  1  0.63091515  0.16210996  0.49431244  1.0
  O  O308  1  0.99285329  0.17902980  0.70502834  1.0
  O  O309  1  0.32072451  0.19540424  0.80586907  1.0
  O  O310  1  0.88829080  0.94997307  0.86980743  1.0
  O  O311  1  0.84803435  0.03901171  0.93893848  1.0
  O  O312  1  0.23520101  0.44047058  0.94161606  1.0
  O  O313  1  0.29667980  0.33938008  0.00247871  1.0
  O  O314  1  0.88490985  0.31705004  0.79383429  1.0
  O  O315  1  0.32404388  0.30122096  0.69347379  1.0
  O  O316  1  0.71477134  0.54918658  0.62930618  1.0
  O  O317  1  0.82750107  0.45998632  0.56063497  1.0
