# generated using pymatgen
data_Zn2H22C27(N4O5)2
_symmetry_space_group_name_H-M   'P 1'
_cell_length_a   9.80826165
_cell_length_b   11.10290742
_cell_length_c   22.23043554
_cell_angle_alpha   89.98409706
_cell_angle_beta   90.32859846
_cell_angle_gamma   89.58297079
_symmetry_Int_Tables_number   1
_chemical_formula_structural   Zn2H22C27(N4O5)2
_chemical_formula_sum   'Zn4 H44 C54 N16 O20'
_cell_volume   2420.79528266
_cell_formula_units_Z   2
loop_
 _symmetry_equiv_pos_site_id
 _symmetry_equiv_pos_as_xyz
  1  'x, y, z'
loop_
 _atom_site_type_symbol
 _atom_site_label
 _atom_site_symmetry_multiplicity
 _atom_site_fract_x
 _atom_site_fract_y
 _atom_site_fract_z
 _atom_site_occupancy
  Zn  Zn0  1  0.35324485  0.49649276  0.50416017  1.0
  Zn  Zn1  1  0.64376663  0.49771812  0.49683721  1.0
  Zn  Zn2  1  0.64886664  0.50632050  0.00780860  1.0
  Zn  Zn3  1  0.35948121  0.51255675  0.00173254  1.0
  H  H4  1  0.87942258  0.59784720  0.36578950  1.0
  H  H5  1  0.86859764  0.72279570  0.41595355  1.0
  H  H6  1  0.12597655  0.72897728  0.42195035  1.0
  H  H7  1  0.13540878  0.60382694  0.37158512  1.0
  H  H8  1  0.82819359  0.87878202  0.52830364  1.0
  H  H9  1  0.80329540  0.88402099  0.44862649  1.0
  H  H10  1  0.80713702  0.10905522  0.45135090  1.0
  H  H11  1  0.82562534  0.10423914  0.53121993  1.0
  H  H12  1  0.40433401  0.30822540  0.13971775  1.0
  H  H13  1  0.31551874  0.13278451  0.19481372  1.0
  H  H14  1  0.36959456  0.31696407  0.36372502  1.0
  H  H15  1  0.29752890  0.13723127  0.30665080  1.0
  H  H16  1  0.19151448  0.42599702  0.81428501  1.0
  H  H17  1  0.19112296  0.58474903  0.80358236  1.0
  H  H18  1  0.18496967  0.55182437  0.69146560  1.0
  H  H19  1  0.19778767  0.39297875  0.70423611  1.0
  H  H20  1  0.14542480  0.60823432  0.13396030  1.0
  H  H21  1  0.12865040  0.73803928  0.08707958  1.0
  H  H22  1  0.87230844  0.72459328  0.09463728  1.0
  H  H23  1  0.88981069  0.59564348  0.14163762  1.0
  H  H24  1  0.20559485  0.88754865  0.95069265  1.0
  H  H25  1  0.18134557  0.89575217  0.03009807  1.0
  H  H26  1  0.17580530  0.12238462  0.02385100  1.0
  H  H27  1  0.20587650  0.11194105  0.94468147  1.0
  H  H28  1  0.23040120  0.38344190  0.59746252  1.0
  H  H29  1  0.07298400  0.34375280  0.62366596  1.0
  H  H30  1  0.75947763  0.31095556  0.55673850  1.0
  H  H31  1  0.91274526  0.26080247  0.58497803  1.0
  H  H32  1  0.24858634  0.20151188  0.49270323  1.0
  H  H33  1  0.17261470  0.06400371  0.48135790  1.0
  H  H34  1  0.25991852  0.78478361  0.52360832  1.0
  H  H35  1  0.18259576  0.92048559  0.53992181  1.0
  H  H36  1  0.74932513  0.52689311  0.64639001  1.0
  H  H37  1  0.82008154  0.58612023  0.71068565  1.0
  H  H38  1  0.75587945  0.53662721  0.85715629  1.0
  H  H39  1  0.83942003  0.49802099  0.79107710  1.0
  H  H40  1  0.76297860  0.33446138  0.93605907  1.0
  H  H41  1  0.90969289  0.32587938  0.89150848  1.0
  H  H42  1  0.24218194  0.38388682  0.91442329  1.0
  H  H43  1  0.11300770  0.28025799  0.91684260  1.0
  H  H44  1  0.75028938  0.21756073  0.02810701  1.0
  H  H45  1  0.81465048  0.08469570  0.05573119  1.0
  H  H46  1  0.75529778  0.79809614  0.01599143  1.0
  H  H47  1  0.83658273  0.93279972  0.00126886  1.0
  C  C48  1  0.50710570  0.73032913  0.50680119  1.0
  C  C49  1  0.48132117  0.51610114  0.38439043  1.0
  C  C50  1  0.49797360  0.25867257  0.49710190  1.0
  C  C51  1  0.50460244  0.48583207  0.62058389  1.0
  C  C52  1  0.50775245  0.74277191  0.00534421  1.0
  C  C53  1  0.49745237  0.51314236  0.12125238  1.0
  C  C54  1  0.50146444  0.27163789  0.00466117  1.0
  C  C55  1  0.50949148  0.51071518  0.88493063  1.0
  C  C56  1  0.92985192  0.55133547  0.46002542  1.0
  C  C57  1  0.06951613  0.42458039  0.54228540  1.0
  C  C58  1  0.06937990  0.55447757  0.46319332  1.0
  C  C59  1  0.92291129  0.41263652  0.53499956  1.0
  C  C60  1  0.92066831  0.63695601  0.40734293  1.0
  C  C61  1  0.08257233  0.64072826  0.41087067  1.0
  C  C62  1  0.49985681  0.86350271  0.50499365  1.0
  C  C63  1  0.49615855  0.12574286  0.50017078  1.0
  C  C64  1  0.61831028  0.93261286  0.49946727  1.0
  C  C65  1  0.37355376  0.05852661  0.50293257  1.0
  C  C66  1  0.61727842  0.05715899  0.49911323  1.0
  C  C67  1  0.37587885  0.92946215  0.50827661  1.0
  C  C68  1  0.77112321  0.92321854  0.49167044  1.0
  C  C69  1  0.77087696  0.06540382  0.49262185  1.0
  C  C70  1  0.49066431  0.51819247  0.18909199  1.0
  C  C71  1  0.44062032  0.41487743  0.22020119  1.0
  C  C72  1  0.52380124  0.61984198  0.22145477  1.0
  C  C73  1  0.39800668  0.31051529  0.18866888  1.0
  C  C74  1  0.34747084  0.21267830  0.21950726  1.0
  C  C75  1  0.47435355  0.52159514  0.31665125  1.0
  C  C76  1  0.51884723  0.62043893  0.28516566  1.0
  C  C77  1  0.42994448  0.41741705  0.28450105  1.0
  C  C78  1  0.37825345  0.31520571  0.31486493  1.0
  C  C79  1  0.33747708  0.21511859  0.28283296  1.0
  C  C80  1  0.51130203  0.51309978  0.81828287  1.0
  C  C81  1  0.50991593  0.49381871  0.68716137  1.0
  C  C82  1  0.39123605  0.50097982  0.78403511  1.0
  C  C83  1  0.63257699  0.51332382  0.71982365  1.0
  C  C84  1  0.39090459  0.48945708  0.72205453  1.0
  C  C85  1  0.63353469  0.52080424  0.78452885  1.0
  C  C86  1  0.23707277  0.49938681  0.78837127  1.0
  C  C87  1  0.23687276  0.48143602  0.71804978  1.0
  C  C88  1  0.07525438  0.56590862  0.04204009  1.0
  C  C89  1  0.93002442  0.42527268  0.96846064  1.0
  C  C90  1  0.93616767  0.55763840  0.04632391  1.0
  C  C91  1  0.07754114  0.43324972  0.96431849  1.0
  C  C92  1  0.08882130  0.64774840  0.09603159  1.0
  C  C93  1  0.92751288  0.63916547  0.10071613  1.0
  C  C94  1  0.51046852  0.87594274  0.00793575  1.0
  C  C95  1  0.50666821  0.13848207  0.00637344  1.0
  C  C96  1  0.39024263  0.94421350  0.00150493  1.0
  C  C97  1  0.62985531  0.07267270  0.01518270  1.0
  C  C98  1  0.38844138  0.06872474  0.00013005  1.0
  C  C99  1  0.63215392  0.94314342  0.01451094  1.0
  C  C100  1  0.23769355  0.93393858  0.99202842  1.0
  C  C101  1  0.23595908  0.07621606  0.98909869  1.0
  N  N102  1  0.85213263  0.48149929  0.49560129  1.0
  N  N103  1  0.14362232  0.49367283  0.50490326  1.0
  N  N104  1  0.15000628  0.50512594  0.00106222  1.0
  N  N105  1  0.85852790  0.48998110  0.00924677  1.0
  N  N106  1  0.13138197  0.36043203  0.58709154  1.0
  N  N107  1  0.85660537  0.33250988  0.57065598  1.0
  N  N108  1  0.24542597  0.11213201  0.50336040  1.0
  N  N109  1  0.24980277  0.87436233  0.51368410  1.0
  N  N110  1  0.75869948  0.52227603  0.69221533  1.0
  N  N111  1  0.75919015  0.53974399  0.81123907  1.0
  N  N112  1  0.86505424  0.34856102  0.93084113  1.0
  N  N113  1  0.13992171  0.36838661  0.91973479  1.0
  N  N114  1  0.75601399  0.12646445  0.02388856  1.0
  N  N115  1  0.75881582  0.88926583  0.02191063  1.0
  N  N116  1  0.57573391  0.72347212  0.31825366  1.0
  N  N117  1  0.54906670  0.73411831  0.18976319  1.0
  O  O118  1  0.39682421  0.67199376  0.51788261  1.0
  O  O119  1  0.62240078  0.68061271  0.49737616  1.0
  O  O120  1  0.59942691  0.49841922  0.40630682  1.0
  O  O121  1  0.36933623  0.52379569  0.41192729  1.0
  O  O122  1  0.61270308  0.31165849  0.50383856  1.0
  O  O123  1  0.38568992  0.31611087  0.48765878  1.0
  O  O124  1  0.38918839  0.46250724  0.59583724  1.0
  O  O125  1  0.61342204  0.50340085  0.59048705  1.0
  O  O126  1  0.61978802  0.68467937  0.01539805  1.0
  O  O127  1  0.39419904  0.69308122  0.99308280  1.0
  O  O128  1  0.38758313  0.53870301  0.09367476  1.0
  O  O129  1  0.60950361  0.47900730  0.09884780  1.0
  O  O130  1  0.38860897  0.32540164  0.01416254  1.0
  O  O131  1  0.61374671  0.32718783  0.99324775  1.0
  O  O132  1  0.62029338  0.53027409  0.91404558  1.0
  O  O133  1  0.39589609  0.48654684  0.91055980  1.0
  O  O134  1  0.51359042  0.75953147  0.36305978  1.0
  O  O135  1  0.68456784  0.76488603  0.29927333  1.0
  O  O136  1  0.62990889  0.73319102  0.14737976  1.0
  O  O137  1  0.48286122  0.82279468  0.20742517  1.0
