# generated using pymatgen
data_AlH9C15S4NO19
_symmetry_space_group_name_H-M   'P 1'
_cell_length_a   6.58632157
_cell_length_b   20.39948764
_cell_length_c   22.38511117
_cell_angle_alpha   89.95577357
_cell_angle_beta   89.90894633
_cell_angle_gamma   92.80888481
_symmetry_Int_Tables_number   1
_chemical_formula_structural   AlH9C15S4NO19
_chemical_formula_sum   'Al4 H36 C60 S16 N4 O76'
_cell_volume   3003.99111482
_cell_formula_units_Z   4
loop_
 _symmetry_equiv_pos_site_id
 _symmetry_equiv_pos_as_xyz
  1  'x, y, z'
loop_
 _atom_site_type_symbol
 _atom_site_label
 _atom_site_symmetry_multiplicity
 _atom_site_fract_x
 _atom_site_fract_y
 _atom_site_fract_z
 _atom_site_occupancy
  Al  Al0  1  0.99276710  0.30946897  0.50023987  1.0
  Al  Al1  1  0.00053747  0.68669953  0.99943192  1.0
  Al  Al2  1  0.48603843  0.31011381  0.49682077  1.0
  Al  Al3  1  0.50555990  0.68530934  0.99543910  1.0
  H  H4  1  0.03399082  0.50164932  0.05384767  1.0
  H  H5  1  0.96059542  0.49300450  0.55193130  1.0
  H  H6  1  0.50548810  0.19418219  0.34658311  1.0
  H  H7  1  0.48803649  0.80622401  0.84722958  1.0
  H  H8  1  0.05425443  0.89313020  0.24335133  1.0
  H  H9  1  0.94809547  0.11602026  0.75020828  1.0
  H  H10  1  0.96408880  0.01771072  0.35878460  1.0
  H  H11  1  0.04014445  0.97880873  0.86565979  1.0
  H  H12  1  0.80320175  0.18323347  0.25500208  1.0
  H  H13  1  0.21163469  0.82070460  0.74912022  1.0
  H  H14  1  0.62007611  0.99254634  0.09811961  1.0
  H  H15  1  0.49134496  0.96602694  0.66666667  1.0
  H  H16  1  0.74020675  0.82685795  0.08226201  1.0
  H  H17  1  0.48265714  0.99325868  0.55647170  1.0
  H  H18  1  0.81571383  0.08531448  0.43101246  1.0
  H  H19  1  0.18181768  0.90558290  0.93819543  1.0
  H  H20  1  0.86409617  0.68287939  0.17340418  1.0
  H  H21  1  0.09918996  0.32553010  0.67406800  1.0
  H  H22  1  0.45342125  0.31762071  0.20192336  1.0
  H  H23  1  0.54971545  0.67792079  0.73367847  1.0
  H  H24  1  0.87487243  0.31681047  0.12244742  1.0
  H  H25  1  0.06498830  0.68264487  0.60722862  1.0
  H  H26  1  0.42620323  0.70083349  0.12766294  1.0
  H  H27  1  0.54261888  0.30054009  0.63044032  1.0
  H  H28  1  0.32891970  0.51414738  0.47972308  1.0
  H  H29  1  0.67801767  0.48311636  0.97136542  1.0
  H  H30  1  0.68954030  0.49813372  0.22159076  1.0
  H  H31  1  0.32239017  0.51381717  0.71493678  1.0
  H  H32  1  0.86142813  0.58604135  0.29502324  1.0
  H  H33  1  0.36794368  0.34312358  0.83525195  1.0
  H  H34  1  0.91847760  0.26803980  0.31707164  1.0
  H  H35  1  0.08195855  0.73230633  0.81104584  1.0
  H  H36  1  0.74257098  0.28320659  0.42781713  1.0
  H  H37  1  0.24831214  0.71146694  0.92582244  1.0
  H  H38  1  0.23614442  0.27163953  0.56897839  1.0
  H  H39  1  0.74198628  0.65561624  0.07115138  1.0
  C  C40  1  0.73236076  0.39475019  0.57125387  1.0
  C  C41  1  0.25752929  0.60151757  0.07117818  1.0
  C  C42  1  0.74518004  0.22046857  0.57370397  1.0
  C  C43  1  0.24857186  0.77802413  0.07163972  1.0
  C  C44  1  0.23333129  0.22133892  0.42733615  1.0
  C  C45  1  0.75666272  0.77543893  0.92883923  1.0
  C  C46  1  0.23867092  0.39959231  0.42647093  1.0
  C  C47  1  0.75665580  0.59769906  0.92363166  1.0
  C  C48  1  0.05577943  0.44492119  0.13396877  1.0
  C  C49  1  0.93878601  0.55337688  0.62960493  1.0
  C  C50  1  0.24508590  0.54694761  0.11608223  1.0
  C  C51  1  0.74724684  0.45048309  0.61514685  1.0
  C  C52  1  0.41671787  0.50263527  0.39708529  1.0
  C  C53  1  0.57474875  0.49658775  0.89157724  1.0
  C  C54  1  0.55723206  0.53157030  0.35597692  1.0
  C  C55  1  0.42425114  0.47458339  0.85037713  1.0
  C  C56  1  0.54098090  0.51360827  0.29592677  1.0
  C  C57  1  0.44779105  0.49392080  0.79047573  1.0
  C  C58  1  0.35568719  0.48468597  0.27412036  1.0
  C  C59  1  0.64222238  0.51795972  0.77071338  1.0
  C  C60  1  0.22712400  0.44722566  0.31694274  1.0
  C  C61  1  0.77448329  0.55280210  0.81373975  1.0
  C  C62  1  0.28931203  0.49199287  0.21252525  1.0
  C  C63  1  0.70850027  0.50883087  0.70969329  1.0
  C  C64  1  0.15598073  0.43933528  0.18988966  1.0
  C  C65  1  0.84459247  0.56031992  0.68625393  1.0
  C  C66  1  0.10247789  0.38638117  0.22937822  1.0
  C  C67  1  0.90349425  0.61274648  0.72579795  1.0
  C  C68  1  0.09055137  0.39847406  0.29064459  1.0
  C  C69  1  0.91551414  0.60011499  0.78713656  1.0
  C  C70  1  0.33032229  0.54717819  0.17312302  1.0
  C  C71  1  0.66034623  0.45299287  0.67190701  1.0
  C  C72  1  0.11023840  0.49629370  0.09650467  1.0
  C  C73  1  0.88439358  0.50018226  0.59439987  1.0
  C  C74  1  0.27031351  0.45361079  0.37907295  1.0
  C  C75  1  0.72769566  0.54488344  0.87549591  1.0
  C  C76  1  0.25984657  0.83662550  0.11322990  1.0
  C  C77  1  0.74246182  0.16348484  0.61719673  1.0
  C  C78  1  0.13142891  0.83893881  0.16406934  1.0
  C  C79  1  0.86971953  0.16503186  0.66872290  1.0
  C  C80  1  0.15257081  0.89111396  0.20427151  1.0
  C  C81  1  0.85275153  0.11465459  0.71049973  1.0
  C  C82  1  0.29460899  0.94267204  0.19506069  1.0
  C  C83  1  0.71869645  0.06025114  0.70138398  1.0
  C  C84  1  0.42450366  0.94308127  0.14434159  1.0
  C  C85  1  0.60167971  0.05555457  0.64862757  1.0
  C  C86  1  0.40377530  0.88942291  0.10372950  1.0
  C  C87  1  0.61375526  0.10771039  0.60723151  1.0
  C  C88  1  0.39148868  0.10272094  0.30900664  1.0
  C  C89  1  0.61038909  0.89844050  0.81254038  1.0
  C  C90  1  0.38413052  0.15620055  0.34715275  1.0
  C  C91  1  0.61179958  0.84334729  0.84909005  1.0
  C  C92  1  0.23539255  0.05208667  0.31442928  1.0
  C  C93  1  0.76979657  0.94809774  0.81946869  1.0
  C  C94  1  0.22478245  0.16304231  0.38775304  1.0
  C  C95  1  0.76867883  0.83410290  0.88975520  1.0
  C  C96  1  0.06798763  0.11357850  0.39191074  1.0
  C  C97  1  0.92760265  0.88254722  0.89593402  1.0
  C  C98  1  0.08050659  0.05751623  0.35643217  1.0
  C  C99  1  0.92140423  0.93994635  0.86182774  1.0
  S  S100  1  0.60039245  0.09937657  0.25816972  1.0
  S  S101  1  0.39975389  0.90730898  0.76417254  1.0
  S  S102  1  0.54883889  0.89652588  0.03592506  1.0
  S  S103  1  0.47226475  0.09498062  0.53902924  1.0
  S  S104  1  0.91319807  0.78687712  0.18386072  1.0
  S  S105  1  0.08570076  0.22109564  0.68373537  1.0
  S  S106  1  0.12233425  0.30387613  0.20449367  1.0
  S  S107  1  0.87078969  0.69590057  0.70463574  1.0
  S  S108  1  0.79601594  0.41740935  0.11667242  1.0
  S  S109  1  0.18780513  0.58678549  0.60808797  1.0
  S  S110  1  0.47228148  0.62247941  0.19518287  1.0
  S  S111  1  0.50069037  0.38104200  0.69515269  1.0
  S  S112  1  0.75998264  0.58498232  0.38582243  1.0
  S  S113  1  0.21130274  0.42200722  0.87361911  1.0
  S  S114  1  0.84663164  0.36794256  0.32079236  1.0
  S  S115  1  0.15315801  0.63259438  0.81814287  1.0
  N  N116  1  0.30863746  0.99909031  0.23090379  1.0
  N  N117  1  0.69740271  0.00532924  0.73821509  1.0
  N  N118  1  0.21953028  0.99397764  0.28076790  1.0
  N  N119  1  0.79703568  0.00649842  0.78646966  1.0
  O  O120  1  0.58096400  0.25068865  0.56626868  1.0
  O  O121  1  0.41217115  0.74658931  0.06450169  1.0
  O  O122  1  0.89883807  0.36847621  0.56067035  1.0
  O  O123  1  0.09063866  0.62700060  0.05947394  1.0
  O  O124  1  0.07091757  0.38637089  0.45237532  1.0
  O  O125  1  0.92453809  0.61062613  0.94948097  1.0
  O  O126  1  0.91442777  0.23509036  0.55029548  1.0
  O  O127  1  0.07769416  0.76220551  0.04989937  1.0
  O  O128  1  0.06854677  0.24690617  0.44178859  1.0
  O  O129  1  0.91885302  0.74841340  0.94290955  1.0
  O  O130  1  0.56170116  0.38268774  0.54696260  1.0
  O  O131  1  0.42795231  0.61387465  0.04646452  1.0
  O  O132  1  0.74074522  0.30727844  0.46526913  1.0
  O  O133  1  0.25120298  0.68911087  0.96417587  1.0
  O  O134  1  0.41057825  0.24272167  0.44292549  1.0
  O  O135  1  0.57930435  0.75534425  0.94541880  1.0
  O  O136  1  0.40260451  0.37151129  0.43724754  1.0
  O  O137  1  0.59166046  0.62563870  0.93482664  1.0
  O  O138  1  0.24215385  0.30514124  0.53725171  1.0
  O  O139  1  0.74997688  0.68465415  0.03662024  1.0
  O  O140  1  0.69824441  0.03841776  0.26586408  1.0
  O  O141  1  0.55287865  0.12511426  0.20014828  1.0
  O  O142  1  0.75283383  0.15557644  0.28836972  1.0
  O  O143  1  0.29909456  0.96595525  0.77924552  1.0
  O  O144  1  0.44372722  0.89341519  0.70162733  1.0
  O  O145  1  0.25485411  0.84540025  0.78509991  1.0
  O  O146  1  0.55628987  0.99380087  0.13875023  1.0
  O  O147  1  0.48232210  0.00201426  0.63619874  1.0
  O  O148  1  0.42177304  0.87497287  0.98684755  1.0
  O  O149  1  0.63406144  0.96370598  0.03183306  1.0
  O  O150  1  0.72907176  0.85085384  0.04167682  1.0
  O  O151  1  0.25908161  0.09707368  0.55165350  1.0
  O  O152  1  0.56730658  0.13379889  0.49253805  1.0
  O  O153  1  0.52739534  0.02156906  0.52230389  1.0
  O  O154  1  0.91738627  0.12171834  0.43127872  1.0
  O  O155  1  0.07240815  0.87154784  0.93588473  1.0
  O  O156  1  0.87188944  0.79518954  0.24615787  1.0
  O  O157  1  0.74366912  0.79996575  0.14389216  1.0
  O  O158  1  0.98256724  0.71588783  0.17060965  1.0
  O  O159  1  0.15060327  0.20838281  0.74379338  1.0
  O  O160  1  0.23632396  0.21693912  0.63671897  1.0
  O  O161  1  0.98926210  0.29018560  0.67976203  1.0
  O  O162  1  0.00310879  0.25760898  0.24051858  1.0
  O  O163  1  0.11064021  0.29910121  0.13992503  1.0
  O  O164  1  0.34791850  0.29180555  0.22429415  1.0
  O  O165  1  0.01581715  0.74231367  0.73213838  1.0
  O  O166  1  0.83427486  0.70048173  0.64112708  1.0
  O  O167  1  0.66739537  0.70955207  0.73975631  1.0
  O  O168  1  0.66998272  0.45170625  0.15841092  1.0
  O  O169  1  0.76461402  0.42753284  0.05400389  1.0
  O  O170  1  0.75366946  0.34287638  0.13291791  1.0
  O  O171  1  0.33209222  0.56355012  0.65107288  1.0
  O  O172  1  0.21642047  0.57103047  0.54622785  1.0
  O  O173  1  0.19763790  0.66340285  0.61692209  1.0
  O  O174  1  0.44409786  0.63214287  0.25771150  1.0
  O  O175  1  0.67667452  0.62160518  0.16938222  1.0
  O  O176  1  0.35734529  0.67702605  0.16246651  1.0
  O  O177  1  0.52194036  0.37209527  0.75848166  1.0
  O  O178  1  0.30130992  0.38600018  0.66861395  1.0
  O  O179  1  0.60882057  0.32265504  0.66598346  1.0
  O  O180  1  0.45158389  0.51678745  0.45483678  1.0
  O  O181  1  0.55218582  0.47665001  0.94850945  1.0
  O  O182  1  0.70312472  0.52423305  0.25913306  1.0
  O  O183  1  0.29233178  0.48869652  0.75221046  1.0
  O  O184  1  0.67245491  0.63636793  0.41907648  1.0
  O  O185  1  0.90721769  0.54440941  0.41283773  1.0
  O  O186  1  0.85340031  0.61905026  0.32723369  1.0
  O  O187  1  0.15414352  0.43570084  0.93390810  1.0
  O  O188  1  0.06125890  0.41987857  0.82713921  1.0
  O  O189  1  0.32146156  0.35376007  0.87600400  1.0
  O  O190  1  0.79151678  0.41128850  0.36705150  1.0
  O  O191  1  0.71638830  0.35867874  0.26936104  1.0
  O  O192  1  0.88112910  0.29836388  0.34951612  1.0
  O  O193  1  0.20654202  0.59106914  0.86598333  1.0
  O  O194  1  0.29087336  0.64267380  0.76806592  1.0
  O  O195  1  0.11213795  0.70304331  0.84517618  1.0
