# generated using pymatgen
data_AlH11(C3O)6
_symmetry_space_group_name_H-M   'P 1'
_cell_length_a   6.65958720
_cell_length_b   24.59256241
_cell_length_c   27.43639018
_cell_angle_alpha   84.36435562
_cell_angle_beta   89.99983319
_cell_angle_gamma   89.99979477
_symmetry_Int_Tables_number   1
_chemical_formula_structural   AlH11(C3O)6
_chemical_formula_sum   'Al4 H44 C72 O24'
_cell_volume   4471.71185039
_cell_formula_units_Z   4
loop_
 _symmetry_equiv_pos_site_id
 _symmetry_equiv_pos_as_xyz
  1  'x, y, z'
loop_
 _atom_site_type_symbol
 _atom_site_label
 _atom_site_symmetry_multiplicity
 _atom_site_fract_x
 _atom_site_fract_y
 _atom_site_fract_z
 _atom_site_occupancy
  Al  Al0  1  0.79997846  0.24975419  0.75096059  1.0
  Al  Al1  1  0.20002211  0.75024656  0.24903924  1.0
  Al  Al2  1  0.29997751  0.25024604  0.74903872  1.0
  Al  Al3  1  0.70002156  0.74975394  0.25096074  1.0
  H  H4  1  0.25813214  0.63123834  0.16081585  1.0
  H  H5  1  0.74187294  0.36876148  0.83918507  1.0
  H  H6  1  0.75812895  0.86875914  0.33918520  1.0
  H  H7  1  0.24186712  0.13124080  0.66081463  1.0
  H  H8  1  0.28499798  0.56461047  0.09835469  1.0
  H  H9  1  0.71500409  0.43538984  0.90164551  1.0
  H  H10  1  0.78500067  0.93538736  0.40164671  1.0
  H  H11  1  0.21499840  0.06461169  0.59835385  1.0
  H  H12  1  0.66449300  0.59565205  0.06038746  1.0
  H  H13  1  0.33551508  0.40435025  0.93961309  1.0
  H  H14  1  0.16448921  0.90435085  0.43961327  1.0
  H  H15  1  0.83551437  0.09564719  0.56038913  1.0
  H  H16  1  0.68862880  0.50477329  0.04904023  1.0
  H  H17  1  0.31137478  0.49522824  0.95095996  1.0
  H  H18  1  0.18864319  0.99523387  0.45095462  1.0
  H  H19  1  0.81136038  0.00476372  0.54904814  1.0
  H  H20  1  0.70834548  0.44086939  0.98569345  1.0
  H  H21  1  0.29165810  0.55913213  0.01430674  1.0
  H  H22  1  0.20835890  0.05913834  0.51430113  1.0
  H  H23  1  0.79164468  0.94085929  0.48570127  1.0
  H  H24  1  0.34213016  0.44164907  0.56005833  1.0
  H  H25  1  0.65787041  0.55835102  0.43994004  1.0
  H  H26  1  0.84212984  0.05835067  0.93994132  1.0
  H  H27  1  0.15786323  0.94165025  0.06006070  1.0
  H  H28  1  0.35986704  0.36961957  0.63124366  1.0
  H  H29  1  0.64013354  0.63038163  0.36875580  1.0
  H  H30  1  0.85986663  0.13038065  0.86875525  1.0
  H  H31  1  0.14013094  0.86961958  0.13124568  1.0
  H  H32  1  0.71695678  0.35997438  0.63471561  1.0
  H  H33  1  0.28304079  0.64002674  0.36528458  1.0
  H  H34  1  0.21695587  0.14002588  0.86528411  1.0
  H  H35  1  0.78303870  0.85997332  0.13471499  1.0
  H  H36  1  0.69627979  0.43155897  0.56325636  1.0
  H  H37  1  0.30371929  0.56844256  0.43674383  1.0
  H  H38  1  0.19627594  0.06844250  0.93674374  1.0
  H  H39  1  0.80371562  0.93155781  0.06325645  1.0
  H  H40  1  0.50409353  0.65420173  0.10197975  1.0
  H  H41  1  0.49591305  0.34580101  0.89802044  1.0
  H  H42  1  0.00408801  0.84580171  0.39802108  1.0
  H  H43  1  0.99590956  0.15419848  0.60198021  1.0
  H  H44  1  0.54785721  0.31795917  0.76240965  1.0
  H  H45  1  0.45214186  0.68204114  0.23759054  1.0
  H  H46  1  0.04785730  0.18204080  0.73759054  1.0
  H  H47  1  0.95214028  0.81796003  0.26240855  1.0
  C  C48  1  0.54780521  0.18082572  0.81966379  1.0
  C  C49  1  0.45219086  0.81917369  0.18033713  1.0
  C  C50  1  0.04780869  0.31917425  0.68033640  1.0
  C  C51  1  0.95219339  0.68082642  0.31966416  1.0
  C  C52  1  0.55191284  0.18748981  0.68668584  1.0
  C  C53  1  0.44807573  0.81250887  0.31331436  1.0
  C  C54  1  0.05192230  0.31250934  0.81331436  1.0
  C  C55  1  0.94808879  0.68748930  0.18668620  1.0
  C  C56  1  0.12935708  0.62285946  0.13825568  1.0
  C  C57  1  0.87065100  0.37714048  0.86174415  1.0
  C  C58  1  0.62935201  0.87713985  0.36174472  1.0
  C  C59  1  0.37064256  0.12286046  0.63825548  1.0
  C  C60  1  0.14495610  0.58656953  0.10281404  1.0
  C  C61  1  0.85504598  0.41343123  0.89718579  1.0
  C  C62  1  0.64495613  0.91342883  0.39718745  1.0
  C  C63  1  0.35504445  0.08657017  0.60281348  1.0
  C  C64  1  0.97626313  0.57568549  0.07433035  1.0
  C  C65  1  0.02374045  0.42431644  0.92566984  1.0
  C  C66  1  0.47626074  0.92431545  0.42567056  1.0
  C  C67  1  0.52373833  0.07568344  0.57433147  1.0
  C  C68  1  0.79593190  0.60233171  0.08292018  1.0
  C  C69  1  0.20407468  0.39766929  0.91708111  1.0
  C  C70  1  0.29592547  0.89766892  0.41708157  1.0
  C  C71  1  0.70407361  0.10232949  0.58292119  1.0
  C  C72  1  0.77941690  0.63891621  0.11880637  1.0
  C  C73  1  0.22058817  0.36108572  0.88119382  1.0
  C  C74  1  0.27941289  0.86108543  0.38119357  1.0
  C  C75  1  0.72058618  0.13891439  0.61880736  1.0
  C  C76  1  0.94904880  0.64972418  0.14736206  1.0
  C  C77  1  0.05095628  0.35027605  0.85263887  1.0
  C  C78  1  0.44904377  0.85027594  0.35263923  1.0
  C  C79  1  0.55095380  0.14972384  0.64736206  1.0
  C  C80  1  0.82461034  0.50363463  0.02697651  1.0
  C  C81  1  0.17539173  0.49636731  0.97302368  1.0
  C  C82  1  0.32461995  0.99636973  0.47302046  1.0
  C  C83  1  0.67537912  0.00362656  0.52698304  1.0
  C  C84  1  0.83585617  0.46742077  0.99121686  1.0
  C  C85  1  0.16414590  0.53258116  0.00878333  1.0
  C  C86  1  0.33586250  0.03258336  0.50877985  1.0
  C  C87  1  0.66414258  0.96741313  0.49122182  1.0
  C  C88  1  0.01161609  0.46292772  0.96348049  1.0
  C  C89  1  0.98838898  0.53707385  0.03651933  1.0
  C  C90  1  0.51161344  0.03707095  0.53652083  1.0
  C  C91  1  0.48838713  0.96292457  0.46348231  1.0
  C  C92  1  0.20580041  0.42349343  0.57644957  1.0
  C  C93  1  0.79419566  0.57650691  0.42355026  1.0
  C  C94  1  0.70580305  0.07650713  0.92355126  1.0
  C  C95  1  0.29419452  0.92349343  0.07645040  1.0
  C  C96  1  0.21584760  0.38364491  0.61590402  1.0
  C  C97  1  0.78415447  0.61635670  0.38409544  1.0
  C  C98  1  0.71584419  0.11635666  0.88409497  1.0
  C  C99  1  0.28415038  0.88364398  0.11590595  1.0
  C  C100  1  0.03934869  0.36086916  0.63703916  1.0
  C  C101  1  0.96064888  0.63913033  0.36296104  1.0
  C  C102  1  0.53934974  0.13913041  0.86296104  1.0
  C  C103  1  0.46064783  0.86086868  0.13703915  1.0
  C  C104  1  0.85219187  0.37823797  0.61780015  1.0
  C  C105  1  0.14780870  0.62176205  0.38219894  1.0
  C  C106  1  0.35218949  0.12176266  0.88219875  1.0
  C  C107  1  0.64780508  0.87823647  0.11780108  1.0
  C  C108  1  0.84110858  0.41788211  0.57829090  1.0
  C  C109  1  0.15888899  0.58211668  0.42170820  1.0
  C  C110  1  0.34111075  0.08211800  0.92170912  1.0
  C  C111  1  0.65888682  0.91788271  0.07829108  1.0
  C  C112  1  0.01797195  0.44140352  0.55702394  1.0
  C  C113  1  0.98202412  0.55859654  0.44297479  1.0
  C  C114  1  0.51797158  0.05859681  0.94297700  1.0
  C  C115  1  0.48201998  0.94140415  0.05702466  1.0
  C  C116  1  0.00628651  0.48229049  0.51715840  1.0
  C  C117  1  0.99371256  0.51770997  0.48284033  1.0
  C  C118  1  0.50628921  0.01771262  0.98283559  1.0
  C  C119  1  0.49370536  0.98228834  0.01716607  1.0
  O  O120  1  0.38035246  0.20258426  0.70116596  1.0
  O  O121  1  0.61964360  0.79741835  0.29883167  1.0
  O  O122  1  0.88035371  0.29741805  0.79883220  1.0
  O  O123  1  0.11964987  0.70258393  0.20116763  1.0
  O  O124  1  0.72070030  0.19640728  0.80397142  1.0
  O  O125  1  0.27930027  0.80359479  0.19603133  1.0
  O  O126  1  0.22069929  0.30359430  0.69603123  1.0
  O  O127  1  0.77929828  0.69640785  0.30397079  1.0
  O  O128  1  0.71971734  0.20121837  0.70375012  1.0
  O  O129  1  0.28027723  0.79877777  0.29625484  1.0
  O  O130  1  0.21972118  0.29877724  0.79625510  1.0
  O  O131  1  0.78028390  0.70121841  0.20375060  1.0
  O  O132  1  0.87959598  0.30322693  0.69864588  1.0
  O  O133  1  0.12040460  0.69677312  0.30135285  1.0
  O  O134  1  0.37959359  0.19677257  0.80135191  1.0
  O  O135  1  0.62040398  0.80322549  0.19864646  1.0
  O  O136  1  0.55020902  0.28318901  0.74861081  1.0
  O  O137  1  0.44978855  0.71681097  0.25138865  1.0
  O  O138  1  0.05020998  0.21681145  0.75138865  1.0
  O  O139  1  0.94978909  0.78318930  0.24861118  1.0
  O  O140  1  0.60262646  0.66490946  0.12560322  1.0
  O  O141  1  0.39738163  0.33509280  0.87439770  1.0
  O  O142  1  0.10261836  0.83509341  0.37439829  1.0
  O  O143  1  0.89737921  0.16490714  0.62560337  1.0
