# generated using pymatgen
data_Zn4H25C40I2N16F
_symmetry_space_group_name_H-M   'P 1'
_cell_length_a   12.95219056
_cell_length_b   13.06136785
_cell_length_c   14.88226651
_cell_angle_alpha   64.24032638
_cell_angle_beta   65.42991245
_cell_angle_gamma   75.90388047
_symmetry_Int_Tables_number   1
_chemical_formula_structural   Zn4H25C40I2N16F
_chemical_formula_sum   'Zn4 H25 C40 I2 N16 F1'
_cell_volume   2056.09582133
_cell_formula_units_Z   1
loop_
 _symmetry_equiv_pos_site_id
 _symmetry_equiv_pos_as_xyz
  1  'x, y, z'
loop_
 _atom_site_type_symbol
 _atom_site_label
 _atom_site_symmetry_multiplicity
 _atom_site_fract_x
 _atom_site_fract_y
 _atom_site_fract_z
 _atom_site_occupancy
  Zn  Zn0  1  0.82733939  0.66923823  0.00145258  1.0
  Zn  Zn1  1  0.11515582  0.36568157  0.00588573  1.0
  Zn  Zn2  1  0.99134615  0.52565907  0.14408183  1.0
  Zn  Zn3  1  0.96408380  0.49152216  0.86041460  1.0
  H  H4  1  0.85474921  0.92744563  0.98123321  1.0
  H  H5  1  0.34304098  0.26817024  0.84001907  1.0
  H  H6  1  0.08579721  0.81821430  0.53473446  1.0
  H  H7  1  0.51636992  0.35193530  0.66220695  1.0
  H  H8  1  0.67857647  0.37810675  0.49310727  1.0
  H  H9  1  0.45813350  0.36308660  0.34875816  1.0
  H  H10  1  0.29557985  0.33739181  0.51810382  1.0
  H  H11  1  0.53135366  0.55106260  0.81476611  1.0
  H  H12  1  0.15232534  0.89459781  0.98512044  1.0
  H  H13  1  0.16073498  0.07980353  0.93154359  1.0
  H  H14  1  0.19397611  0.70316975  0.03283720  1.0
  H  H15  1  0.19506713  0.13736919  0.18758253  1.0
  H  H16  1  0.14594039  0.65523116  0.67045862  1.0
  H  H17  1  0.34308802  0.49221961  0.84467411  1.0
  H  H18  1  0.97694455  0.87989854  0.84258648  1.0
  H  H19  1  0.16000084  0.46331450  0.62409615  1.0
  H  H20  1  0.04487390  0.71264954  0.18528127  1.0
  H  H21  1  0.60256279  0.75339831  0.92496947  1.0
  H  H22  1  0.83597963  0.32864529  0.32957876  1.0
  H  H23  1  0.93101585  0.25033392  0.87138663  1.0
  H  H24  1  0.03347377  0.13970711  0.14281834  1.0
  H  H25  1  0.75692478  0.49260364  0.79304080  1.0
  H  H26  1  0.03491096  0.34665052  0.37609088  1.0
  H  H27  1  0.15936426  0.19374330  0.49245524  1.0
  H  H28  1  0.10030735  0.98146987  0.36634299  1.0
  C  C29  1  0.89107521  0.85859915  0.03658440  1.0
  C  C30  1  0.66599822  0.50516744  0.20712258  1.0
  C  C31  1  0.73622133  0.55645351  0.82762647  1.0
  C  C32  1  0.28275497  0.31952964  0.80097720  1.0
  C  C33  1  0.07267152  0.31114666  0.31449076  1.0
  C  C34  1  0.63458192  0.62559480  0.85045568  1.0
  C  C35  1  0.12182296  0.20041752  0.32228500  1.0
  C  C36  1  0.67248026  0.41662820  0.30289693  1.0
  C  C37  1  0.99649210  0.14617321  0.00582847  1.0
  C  C38  1  0.13490032  0.01764738  0.59682973  1.0
  C  C39  1  0.14245518  0.11133894  0.50149776  1.0
  C  C40  1  0.29357482  0.35626376  0.69384749  1.0
  C  C41  1  0.12836580  0.10120715  0.41722193  1.0
  C  C42  1  0.11322715  0.99224826  0.42952622  1.0
  C  C43  1  0.10551708  0.90003723  0.52446303  1.0
  C  C44  1  0.21222830  0.64368492  0.99438565  1.0
  C  C45  1  0.11227539  0.90935023  0.61294174  1.0
  C  C46  1  0.50333535  0.35254199  0.59408826  1.0
  C  C47  1  0.59495326  0.36715904  0.49868446  1.0
  C  C48  1  0.57993691  0.37760452  0.40654110  1.0
  C  C49  1  0.47127743  0.36199458  0.41689106  1.0
  C  C50  1  0.37951058  0.34770897  0.51236728  1.0
  C  C51  1  0.31543339  0.61884787  0.92056897  1.0
  C  C52  1  0.39253876  0.34821502  0.60137786  1.0
  C  C53  1  0.52914431  0.61308766  0.84652964  1.0
  C  C54  1  0.42449460  0.65598901  0.89313542  1.0
  C  C55  1  0.06916069  0.93901957  0.01325029  1.0
  C  C56  1  0.09482593  0.69541061  0.72727785  1.0
  C  C57  1  0.07467449  0.05118824  0.98170965  1.0
  C  C58  1  0.28987294  0.53568775  0.89822037  1.0
  C  C59  1  0.00977645  0.80953059  0.81583701  1.0
  C  C60  1  0.18844694  0.41773955  0.69161405  1.0
  C  C61  1  0.98811421  0.74927261  0.14004164  1.0
  C  C62  1  0.08208933  0.81070887  0.71415117  1.0
  C  C63  1  0.97816033  0.86158298  0.06852975  1.0
  C  C64  1  0.65743723  0.68955076  0.89491040  1.0
  C  C65  1  0.15238264  0.20389522  0.21881257  1.0
  C  C66  1  0.79039242  0.39206311  0.27956067  1.0
  C  C67  1  0.94763262  0.24138817  0.94041128  1.0
  C  C68  1  0.00095858  0.18540191  0.07799636  1.0
  I  I69  1  0.52282830  0.60292437  0.17691236  1.0
  I  I70  1  0.15686327  0.04821959  0.71605376  1.0
  N  N71  1  0.85676563  0.75205271  0.08100229  1.0
  N  N72  1  0.13258922  0.57849778  0.01545255  1.0
  N  N73  1  0.03259293  0.63239830  0.82805976  1.0
  N  N74  1  0.18035817  0.51276828  0.95627000  1.0
  N  N75  1  0.98007362  0.70285617  0.88241890  1.0
  N  N76  1  0.12156466  0.41818277  0.78884136  1.0
  N  N77  1  0.91730400  0.68346841  0.14706309  1.0
  N  N78  1  0.76233078  0.65903696  0.90008171  1.0
  N  N79  1  0.12349683  0.30781889  0.15507823  1.0
  N  N80  1  0.84805559  0.46073868  0.17932612  1.0
  N  N81  1  0.92826143  0.33092619  0.96976141  1.0
  N  N82  1  0.96317549  0.29747572  0.05446933  1.0
  N  N83  1  0.77111574  0.53078548  0.13420194  1.0
  N  N84  1  0.81171067  0.57618474  0.85763393  1.0
  N  N85  1  0.07341312  0.37457781  0.21459919  1.0
  N  N86  1  0.17957349  0.35624060  0.85732974  1.0
  F  F87  1  0.41562662  0.73424456  0.93598840  1.0
