# generated using pymatgen
data_ZnH7C15(NO2)2
_symmetry_space_group_name_H-M   'P 1'
_cell_length_a   9.78731958
_cell_length_b   11.02355357
_cell_length_c   16.10456599
_cell_angle_alpha   92.44995747
_cell_angle_beta   90.08204836
_cell_angle_gamma   91.08648205
_symmetry_Int_Tables_number   1
_chemical_formula_structural   ZnH7C15(NO2)2
_chemical_formula_sum   'Zn2 H14 C30 N4 O8'
_cell_volume   1735.63370878
_cell_formula_units_Z   2
loop_
 _symmetry_equiv_pos_site_id
 _symmetry_equiv_pos_as_xyz
  1  'x, y, z'
loop_
 _atom_site_type_symbol
 _atom_site_label
 _atom_site_symmetry_multiplicity
 _atom_site_fract_x
 _atom_site_fract_y
 _atom_site_fract_z
 _atom_site_occupancy
  Zn  Zn0  1  0.63625912  0.51035555  0.50772551  1.0
  Zn  Zn1  1  0.35218105  0.50359873  0.50349493  1.0
  H  H2  1  0.72513409  0.46195149  0.07392317  1.0
  H  H3  1  0.83570224  0.90558632  0.48366400  1.0
  H  H4  1  0.84778656  0.52453966  0.31891821  1.0
  H  H5  1  0.11884548  0.67157652  0.35150512  1.0
  H  H6  1  0.71771070  0.48657286  0.92072496  1.0
  H  H7  1  0.28871513  0.50663667  0.08630171  1.0
  H  H8  1  0.29106434  0.11183361  0.55578332  1.0
  H  H9  1  0.76743650  0.90837788  0.38031485  1.0
  H  H10  1  0.13248918  0.43993920  0.62526310  1.0
  H  H11  1  0.85922295  0.67675685  0.36068061  1.0
  H  H12  1  0.10860488  0.51913746  0.30990611  1.0
  H  H13  1  0.28146457  0.53120334  0.93328887  1.0
  H  H14  1  0.29543113  0.88637425  0.54382476  1.0
  H  H15  1  0.75322362  0.13154120  0.39012573  1.0
  C  C16  1  0.50123901  0.74083996  0.49156598  1.0
  C  C17  1  0.62842454  0.47752984  0.04283225  1.0
  C  C18  1  0.49443402  0.52647448  0.83050506  1.0
  C  C19  1  0.50961632  0.47409572  0.17781841  1.0
  C  C20  1  0.50504907  0.46979520  0.25334346  1.0
  C  C21  1  0.48843174  0.53764750  0.75568002  1.0
  C  C22  1  0.61484884  0.94822330  0.47965464  1.0
  C  C23  1  0.50150925  0.87623628  0.49871169  1.0
  C  C24  1  0.38566519  0.93955017  0.52742330  1.0
  C  C25  1  0.38361416  0.06624199  0.53494617  1.0
  C  C26  1  0.49878620  0.13806667  0.51542558  1.0
  C  C27  1  0.49946622  0.47396632  0.34302413  1.0
  C  C28  1  0.61295297  0.07429923  0.48857651  1.0
  C  C29  1  0.75535501  0.09033804  0.45121052  1.0
  C  C30  1  0.75814073  0.94546695  0.44441180  1.0
  C  C31  1  0.06242870  0.53699116  0.44356712  1.0
  C  C32  1  0.07197114  0.46879864  0.57311826  1.0
  C  C33  1  0.92841646  0.47133127  0.57808892  1.0
  C  C34  1  0.92023519  0.53963230  0.44847378  1.0
  C  C35  1  0.90430814  0.58645531  0.36227236  1.0
  C  C36  1  0.06660088  0.58323406  0.35678634  1.0
  C  C37  1  0.49633740  0.27334552  0.51902270  1.0
  C  C38  1  0.48215130  0.53847007  0.66629991  1.0
  C  C39  1  0.62459013  0.49156851  0.95763613  1.0
  C  C40  1  0.49937339  0.51196042  0.91730231  1.0
  C  C41  1  0.37810371  0.51650703  0.96464483  1.0
  C  C42  1  0.38220139  0.50272150  0.04971688  1.0
  C  C43  1  0.50749442  0.48375193  0.09042498  1.0
  C  C44  1  0.86743219  0.43389601  0.65362943  1.0
  C  C45  1  0.86311715  0.14991890  0.50064725  1.0
  N  N46  1  0.14137212  0.50258564  0.50507601  1.0
  N  N47  1  0.84879427  0.50814882  0.51434352  1.0
  N  N48  1  0.82975673  0.40307911  0.71824785  1.0
  N  N49  1  0.95385036  0.19473084  0.53855565  1.0
  O  O50  1  0.61600646  0.69018275  0.47870234  1.0
  O  O51  1  0.38645560  0.68624582  0.50005701  1.0
  O  O52  1  0.61288607  0.46540110  0.38131776  1.0
  O  O53  1  0.38180028  0.48751369  0.37566641  1.0
  O  O54  1  0.61165017  0.32855382  0.52660124  1.0
  O  O55  1  0.38044261  0.32216078  0.51210647  1.0
  O  O56  1  0.59430955  0.55813816  0.62846893  1.0
  O  O57  1  0.36561092  0.51777221  0.63270275  1.0
