# generated using pymatgen
data_Al4H28C40O21
_symmetry_space_group_name_H-M   'P 1'
_cell_length_a   6.99422090
_cell_length_b   13.90425927
_cell_length_c   15.94424755
_cell_angle_alpha   89.45698844
_cell_angle_beta   89.89948453
_cell_angle_gamma   89.93501421
_symmetry_Int_Tables_number   1
_chemical_formula_structural   Al4H28C40O21
_chemical_formula_sum   'Al4 H28 C40 O21'
_cell_volume   1550.49648700
_cell_formula_units_Z   1
loop_
 _symmetry_equiv_pos_site_id
 _symmetry_equiv_pos_as_xyz
  1  'x, y, z'
loop_
 _atom_site_type_symbol
 _atom_site_label
 _atom_site_symmetry_multiplicity
 _atom_site_fract_x
 _atom_site_fract_y
 _atom_site_fract_z
 _atom_site_occupancy
  Al  Al0  1  0.09885633  0.49973139  0.49954486  1.0
  Al  Al1  1  0.59850243  0.50232546  0.49953931  1.0
  Al  Al2  1  0.62964675  0.99633505  0.00334035  1.0
  Al  Al3  1  0.13033587  0.99453468  0.00201985  1.0
  H  H4  1  0.82102199  0.67300910  0.11438204  1.0
  H  H5  1  0.11532543  0.62450364  0.23096402  1.0
  H  H6  1  0.91233901  0.82286527  0.38836826  1.0
  H  H7  1  0.61978695  0.87108845  0.27071739  1.0
  H  H8  1  0.55231475  0.66862190  0.24878271  1.0
  H  H9  1  0.17199068  0.80222474  0.80551470  1.0
  H  H10  1  0.15474984  0.68724660  0.68615246  1.0
  H  H11  1  0.41047818  0.64969877  0.73469993  1.0
  H  H12  1  0.40882506  0.74769132  0.66131555  1.0
  H  H13  1  0.42710275  0.76901539  0.85461807  1.0
  H  H14  1  0.42892819  0.86575939  0.78076490  1.0
  H  H15  1  0.05679224  0.30510964  0.30559420  1.0
  H  H16  1  0.07153487  0.18692255  0.18860056  1.0
  H  H17  1  0.81694253  0.24548182  0.15918175  1.0
  H  H18  1  0.81581529  0.14844526  0.23361335  1.0
  H  H19  1  0.80079494  0.36510733  0.27789996  1.0
  H  H20  1  0.80137240  0.26837004  0.35202929  1.0
  H  H21  1  0.05735836  0.30438042  0.69824624  1.0
  H  H22  1  0.07436418  0.18407926  0.81572617  1.0
  H  H23  1  0.81893012  0.14837667  0.76862081  1.0
  H  H24  1  0.81881806  0.24367011  0.84286417  1.0
  H  H25  1  0.80242506  0.27034173  0.64978775  1.0
  H  H26  1  0.80172771  0.36584351  0.72348656  1.0
  H  H27  1  0.30932634  0.79653375  0.28267094  1.0
  H  H28  1  0.34497364  0.62779495  0.51081874  1.0
  H  H29  1  0.84583814  0.37311823  0.50046274  1.0
  H  H30  1  0.37982823  0.88247640  0.04677659  1.0
  H  H31  1  0.88176202  0.12072177  0.02055100  1.0
  C  C32  1  0.35163341  0.38740352  0.38862235  1.0
  C  C33  1  0.35067659  0.38798262  0.61324845  1.0
  C  C34  1  0.84761024  0.61533977  0.61023470  1.0
  C  C35  1  0.85065733  0.61107278  0.38416320  1.0
  C  C36  1  0.00508959  0.67955339  0.23924928  1.0
  C  C37  1  0.84075079  0.70479794  0.17626734  1.0
  C  C38  1  0.87771712  0.81617788  0.18967384  1.0
  C  C39  1  0.04233516  0.78973135  0.25269722  1.0
  C  C40  1  0.89186375  0.79058402  0.32667034  1.0
  C  C41  1  0.72816766  0.81502876  0.26307441  1.0
  C  C42  1  0.69104095  0.70495222  0.24949766  1.0
  C  C43  1  0.85521491  0.67951644  0.31237249  1.0
  C  C44  1  0.69884928  0.78500066  0.78607238  1.0
  C  C45  1  0.87053346  0.81641070  0.81940264  1.0
  C  C46  1  0.03558856  0.77930719  0.78104271  1.0
  C  C47  1  0.02594768  0.71536799  0.71450836  1.0
  C  C48  1  0.85120455  0.68361333  0.68126533  1.0
  C  C49  1  0.68899556  0.72068108  0.71952673  1.0
  C  C50  1  0.47411894  0.71978321  0.71921233  1.0
  C  C51  1  0.48561734  0.79354367  0.79417047  1.0
  C  C52  1  0.52934122  0.28575258  0.28456639  1.0
  C  C53  1  0.35857707  0.31852868  0.31814092  1.0
  C  C54  1  0.19269558  0.28105646  0.28116051  1.0
  C  C55  1  0.20084932  0.21539974  0.21585796  1.0
  C  C56  1  0.37459307  0.18239785  0.18234734  1.0
  C  C57  1  0.53758262  0.22007218  0.21902817  1.0
  C  C58  1  0.75238343  0.21847071  0.21761830  1.0
  C  C59  1  0.74273961  0.29335020  0.29178167  1.0
  C  C60  1  0.53057135  0.28602531  0.71784427  1.0
  C  C61  1  0.35893785  0.31872413  0.68463579  1.0
  C  C62  1  0.19371734  0.28019265  0.72227543  1.0
  C  C63  1  0.20304236  0.21326422  0.78765729  1.0
  C  C64  1  0.37778278  0.17977955  0.82024355  1.0
  C  C65  1  0.54005352  0.21892846  0.78333403  1.0
  C  C66  1  0.75477224  0.21795824  0.78442979  1.0
  C  C67  1  0.74398984  0.29421145  0.71010903  1.0
  C  C68  1  0.38143987  0.10754713  0.88941555  1.0
  C  C69  1  0.37704532  0.11240572  0.11242232  1.0
  C  C70  1  0.87882174  0.88470438  0.11791965  1.0
  C  C71  1  0.87947414  0.88364510  0.89117376  1.0
  O  O72  1  0.51291462  0.41493726  0.58455558  1.0
  O  O73  1  0.18734326  0.41143235  0.41643853  1.0
  O  O74  1  0.01385653  0.58459859  0.41173196  1.0
  O  O75  1  0.18584873  0.41315618  0.58646362  1.0
  O  O76  1  0.00965188  0.58851737  0.58163659  1.0
  O  O77  1  0.51380003  0.41561555  0.41554585  1.0
  O  O78  1  0.34744572  0.55962958  0.49884994  1.0
  O  O79  1  0.68301410  0.59015528  0.58358038  1.0
  O  O80  1  0.68631655  0.58850918  0.41315252  1.0
  O  O81  1  0.84850872  0.44275899  0.50051556  1.0
  O  O82  1  0.21444859  0.08397424  0.08619880  1.0
  O  O83  1  0.54542294  0.07996207  0.91510918  1.0
  O  O84  1  0.71823807  0.90812306  0.92191656  1.0
  O  O85  1  0.54199268  0.08833188  0.08487842  1.0
  O  O86  1  0.71410107  0.91266928  0.09282665  1.0
  O  O87  1  0.21962376  0.07990930  0.91741563  1.0
  O  O88  1  0.38044027  0.93586994  0.00696460  1.0
  O  O89  1  0.04118509  0.90630611  0.08647355  1.0
  O  O90  1  0.04429104  0.90986447  0.91609707  1.0
  O  O91  1  0.88053880  0.05441691  0.00237232  1.0
  O  O92  1  0.21864362  0.83537338  0.25056658  1.0
