# generated using pymatgen
data_Al6H24C72O29
_symmetry_space_group_name_H-M   'P 1'
_cell_length_a   13.06217023
_cell_length_b   13.12831215
_cell_length_c   26.71264081
_cell_angle_alpha   83.07690305
_cell_angle_beta   83.00030925
_cell_angle_gamma   61.91526465
_symmetry_Int_Tables_number   1
_chemical_formula_structural   Al6H24C72O29
_chemical_formula_sum   'Al6 H24 C72 O29'
_cell_volume   4000.84772670
_cell_formula_units_Z   1
loop_
 _symmetry_equiv_pos_site_id
 _symmetry_equiv_pos_as_xyz
  1  'x, y, z'
loop_
 _atom_site_type_symbol
 _atom_site_label
 _atom_site_symmetry_multiplicity
 _atom_site_fract_x
 _atom_site_fract_y
 _atom_site_fract_z
 _atom_site_occupancy
  Al  Al0  1  0.41199712  0.40958867  0.50891177  1.0
  Al  Al1  1  0.65111761  0.42719090  0.49401707  1.0
  Al  Al2  1  0.42751466  0.64858052  0.49744379  1.0
  Al  Al3  1  0.92412664  0.92845184  0.97893430  1.0
  Al  Al4  1  0.90994473  0.68831989  0.99571688  1.0
  Al  Al5  1  0.68559774  0.91014543  0.99249883  1.0
  H  H6  1  0.23909286  0.79417214  0.19589018  1.0
  H  H7  1  0.06742795  0.86993436  0.27763544  1.0
  H  H8  1  0.25645469  0.48019736  0.21720762  1.0
  H  H9  1  0.08302502  0.55611500  0.29887745  1.0
  H  H10  1  0.95073142  0.76258880  0.23929222  1.0
  H  H11  1  0.54554402  0.04453049  0.24658453  1.0
  H  H12  1  0.73964232  0.95191661  0.30589819  1.0
  H  H13  1  0.47518118  0.26729919  0.28028432  1.0
  H  H14  1  0.91782116  0.67738775  0.72613260  1.0
  H  H15  1  0.42969257  0.62126656  0.17280768  1.0
  H  H16  1  0.64469069  0.52583117  0.17047404  1.0
  H  H17  1  0.60793341  0.31148054  0.19682508  1.0
  H  H18  1  0.74509298  0.42806874  0.24910135  1.0
  H  H19  1  0.62887806  0.41935059  0.32900002  1.0
  H  H20  1  0.41397640  0.50910297  0.33088998  1.0
  H  H21  1  0.80293164  0.21789702  0.25570634  1.0
  H  H22  1  0.87308212  0.99612643  0.22193726  1.0
  H  H23  1  0.50077643  0.82513035  0.77750713  1.0
  H  H24  1  0.65277779  0.83715639  0.69450139  1.0
  H  H25  1  0.50912484  0.62838792  0.73974465  1.0
  H  H26  1  0.70229525  0.48278114  0.79700297  1.0
  H  H27  1  0.85494905  0.49282291  0.71409590  1.0
  H  H28  1  0.34301052  0.28036547  0.54640619  1.0
  H  H29  1  0.04192487  0.00832821  0.99582351  1.0
  C  C30  1  0.61989517  0.28569065  0.43533314  1.0
  C  C31  1  0.14048787  0.68124660  0.19746150  1.0
  C  C32  1  0.11721665  0.60910728  0.27547471  1.0
  C  C33  1  0.60788621  0.61610786  0.41854695  1.0
  C  C34  1  0.18092737  0.66919939  0.29723744  1.0
  C  C35  1  0.21277978  0.56697246  0.23094379  1.0
  C  C36  1  0.27865588  0.62669892  0.25096956  1.0
  C  C37  1  0.11681337  0.68946119  0.14659330  1.0
  C  C38  1  0.20449403  0.66120979  0.34810876  1.0
  C  C39  1  0.71062457  0.03144223  0.28104810  1.0
  C  C40  1  0.60234198  0.08360956  0.24893074  1.0
  C  C41  1  0.66915043  0.70027021  0.27340032  1.0
  C  C42  1  0.69154698  0.07722625  0.10557082  1.0
  C  C43  1  0.65449696  0.22088079  0.39136240  1.0
  C  C44  1  0.78477100  0.05646709  0.23547853  1.0
  C  C45  1  0.28729300  0.61680725  0.43768479  1.0
  C  C46  1  0.67653444  0.10824894  0.20212969  1.0
  C  C47  1  0.74588760  0.17927503  0.25321203  1.0
  C  C48  1  0.67160000  0.15542829  0.30015843  1.0
  C  C49  1  0.63736950  0.23189404  0.22149394  1.0
  C  C50  1  0.56324704  0.20654397  0.26677623  1.0
  C  C51  1  0.68167880  0.09006948  0.15069168  1.0
  C  C52  1  0.65263581  0.67838110  0.32330563  1.0
  C  C53  1  0.66545583  0.18520564  0.34992124  1.0
  C  C54  1  0.66347946  0.75857153  0.71758160  1.0
  C  C55  1  0.57921712  0.75158844  0.76305446  1.0
  C  C56  1  0.70801711  0.69341006  0.88998462  1.0
  C  C57  1  0.61520759  0.29116841  0.57565144  1.0
  C  C58  1  0.64292675  0.62693618  0.60213090  1.0
  C  C59  1  0.77136702  0.67624546  0.74874085  1.0
  C  C60  1  0.68565229  0.67096085  0.79581573  1.0
  C  C61  1  0.77632638  0.56672385  0.72831099  1.0
  C  C62  1  0.66942959  0.64819767  0.69596318  1.0
  C  C63  1  0.63650429  0.65385525  0.36841271  1.0
  C  C64  1  0.69131718  0.56111117  0.77372533  1.0
  C  C65  1  0.58404702  0.64248950  0.74296231  1.0
  C  C66  1  0.69736333  0.68199429  0.84648380  1.0
  C  C67  1  0.65656959  0.63736564  0.64532922  1.0
  C  C68  1  0.09341564  0.69563489  0.86289638  1.0
  C  C69  1  0.61405717  0.60570686  0.55583875  1.0
  C  C70  1  0.12195025  0.68174509  0.81781126  1.0
  C  C71  1  0.15138439  0.66902194  0.76835200  1.0
  C  C72  1  0.17723099  0.65986061  0.72254615  1.0
  C  C73  1  0.20860597  0.64831678  0.67312934  1.0
  C  C74  1  0.10850832  0.78351944  0.26361857  1.0
  C  C75  1  0.23958053  0.63660347  0.62806224  1.0
  C  C76  1  0.69893596  0.09553227  0.86113778  1.0
  C  C77  1  0.68809928  0.12551416  0.81599272  1.0
  C  C78  1  0.67710198  0.15575054  0.76646813  1.0
  C  C79  1  0.66797543  0.18110937  0.72065634  1.0
  C  C80  1  0.65589744  0.21094494  0.67114808  1.0
  C  C81  1  0.29393907  0.60818326  0.57815249  1.0
  C  C82  1  0.64344069  0.24016695  0.62600465  1.0
  C  C83  1  0.04656905  0.72501684  0.05461740  1.0
  C  C84  1  0.72867388  0.74018290  0.07583350  1.0
  C  C85  1  0.20407292  0.74147247  0.21902294  1.0
  C  C86  1  0.72054034  0.04051255  0.05513429  1.0
  C  C87  1  0.04162894  0.72628150  0.91299231  1.0
  C  C88  1  0.72995779  0.72064966  0.93644213  1.0
  C  C89  1  0.72444757  0.04299715  0.91150451  1.0
  C  C90  1  0.70677387  0.72550033  0.12972978  1.0
  C  C91  1  0.69508760  0.72129845  0.17615275  1.0
  C  C92  1  0.68203426  0.71321979  0.22688355  1.0
  C  C93  1  0.40654464  0.57276646  0.25217931  1.0
  C  C94  1  0.47324188  0.57638538  0.20711777  1.0
  C  C95  1  0.59426260  0.52293476  0.20578762  1.0
  C  C96  1  0.09455202  0.69916297  0.10274310  1.0
  C  C97  1  0.65054185  0.46740045  0.24978736  1.0
  C  C98  1  0.58529895  0.46311290  0.29466793  1.0
  C  C99  1  0.46407535  0.51411642  0.29581122  1.0
  C  C100  1  0.23039080  0.64937679  0.39151621  1.0
  C  C101  1  0.04418307  0.72375212  0.24349092  1.0
  O  O102  1  0.31134280  0.51718638  0.45838592  1.0
  O  O103  1  0.65351371  0.83135066  0.05311647  1.0
  O  O104  1  0.64274928  0.02870655  0.03411556  1.0
  O  O105  1  0.51739521  0.31625433  0.45455656  1.0
  O  O106  1  0.81901509  0.02641438  0.92678996  1.0
  O  O107  1  0.01778144  0.82599017  0.92423953  1.0
  O  O108  1  0.02070341  0.64997860  0.94086138  1.0
  O  O109  1  0.82506859  0.64967009  0.95647643  1.0
  O  O110  1  0.65551945  0.81723210  0.95415151  1.0
  O  O111  1  0.64932680  0.01386288  0.93551668  1.0
  O  O112  1  0.83902606  0.84088734  0.98925107  1.0
  O  O113  1  0.68666532  0.51365956  0.53424423  1.0
  O  O114  1  0.69463622  0.31190508  0.45049861  1.0
  O  O115  1  0.67835740  0.51448533  0.43550431  1.0
  O  O116  1  0.51205050  0.68556776  0.44092433  1.0
  O  O117  1  0.31395278  0.69060913  0.45285836  1.0
  O  O118  1  0.31905255  0.50912671  0.56555454  1.0
  O  O119  1  0.51855979  0.30867951  0.56208205  1.0
  O  O120  1  0.68975044  0.31816321  0.54959454  1.0
  O  O121  1  0.86414668  0.69402581  0.75636538  1.0
  O  O122  1  0.51450480  0.67803936  0.54001258  1.0
  O  O123  1  0.31566096  0.68560723  0.55165173  1.0
  O  O124  1  0.49788978  0.49604578  0.50033737  1.0
  O  O125  1  0.82134962  0.01784549  0.03561224  1.0
  O  O126  1  0.02549048  0.82198395  0.03164481  1.0
  O  O127  1  0.02415499  0.64801073  0.03962103  1.0
  O  O128  1  0.82373732  0.66377031  0.05585139  1.0
  O  O129  1  0.33211264  0.33238708  0.51639454  1.0
  O  O130  1  0.00047899  0.00911836  0.96805955  1.0
