# generated using pymatgen
data_AlH9(C5O3)3
_symmetry_space_group_name_H-M   'P 1'
_cell_length_a   3.93061734
_cell_length_b   17.18739692
_cell_length_c   17.18748320
_cell_angle_alpha   119.99951552
_cell_angle_beta   89.99997202
_cell_angle_gamma   89.99977376
_symmetry_Int_Tables_number   1
_chemical_formula_structural   AlH9(C5O3)3
_chemical_formula_sum   'Al2 H18 C30 O18'
_cell_volume   1005.57834134
_cell_formula_units_Z   2
loop_
 _symmetry_equiv_pos_site_id
 _symmetry_equiv_pos_as_xyz
  1  'x, y, z'
loop_
 _atom_site_type_symbol
 _atom_site_label
 _atom_site_symmetry_multiplicity
 _atom_site_fract_x
 _atom_site_fract_y
 _atom_site_fract_z
 _atom_site_occupancy
  Al  Al0  1  0.01702620  0.49999912  0.00000040  1.0
  Al  Al1  1  0.98272591  0.83333325  0.66666694  1.0
  H  H2  1  0.25854993  0.52461137  0.41454131  1.0
  H  H3  1  0.71107422  0.52840392  0.42032554  1.0
  H  H4  1  0.74151564  0.44343148  0.25226964  1.0
  H  H5  1  0.28895316  0.44145712  0.24655057  1.0
  H  H6  1  0.25854989  0.88993102  0.97538880  1.0
  H  H7  1  0.71107931  0.89192157  0.97159483  1.0
  H  H8  1  0.74152296  0.80883806  0.05656808  1.0
  H  H9  1  0.28895541  0.80509466  0.05854478  1.0
  H  H10  1  0.25855707  0.08545797  0.61006613  1.0
  H  H11  1  0.71108146  0.07967325  0.60807738  1.0
  H  H12  1  0.74152301  0.24772947  0.69116066  1.0
  H  H13  1  0.28895791  0.25345053  0.69490488  1.0
  H  H14  1  0.38739340  0.72510560  0.18278142  1.0
  H  H15  1  0.61237172  0.87571650  0.48388037  1.0
  H  H16  1  0.38739102  0.45767720  0.77489360  1.0
  H  H17  1  0.61236222  0.60816143  0.62428415  1.0
  H  H18  1  0.38739190  0.31721556  0.04232108  1.0
  H  H19  1  0.61235927  0.01611875  0.89183467  1.0
  C  C20  1  0.51657492  0.36147026  0.93240910  1.0
  C  C21  1  0.51657802  0.57093788  0.13852544  1.0
  C  C22  1  0.51658592  0.56759088  0.92906208  1.0
  C  C23  1  0.48321477  0.76582762  0.52818690  1.0
  C  C24  1  0.48318912  0.76236241  0.73417628  1.0
  C  C25  1  0.48321789  0.97181260  0.73764088  1.0
  C  C26  1  0.49530246  0.71573237  0.42921660  1.0
  C  C27  1  0.50469132  0.61983396  0.23752127  1.0
  C  C28  1  0.48877761  0.62199187  0.37979349  1.0
  C  C29  1  0.48769314  0.71469976  0.28573310  1.0
  C  C30  1  0.51122242  0.57556984  0.28696297  1.0
  C  C31  1  0.51262510  0.76230322  0.38094051  1.0
  C  C32  1  0.48931004  0.53724435  0.38655903  1.0
  C  C33  1  0.51081105  0.48405676  0.28024503  1.0
  C  C34  1  0.49530321  0.71348637  0.78426267  1.0
  C  C35  1  0.50468666  0.61768200  0.88016857  1.0
  C  C36  1  0.48877958  0.75780170  0.87801963  1.0
  C  C37  1  0.48768982  0.57104077  0.78529842  1.0
  C  C38  1  0.51122169  0.71140231  0.92443007  1.0
  C  C39  1  0.51261686  0.61863570  0.73770555  1.0
  C  C40  1  0.48931044  0.84931309  0.96275451  1.0
  C  C41  1  0.51081381  0.79618798  0.01594233  1.0
  C  C42  1  0.49530098  0.07077962  0.78651131  1.0
  C  C43  1  0.50468455  0.26248071  0.88231485  1.0
  C  C44  1  0.48877746  0.12020873  0.74219696  1.0
  C  C45  1  0.48769012  0.21426169  0.92895976  1.0
  C  C46  1  0.51121840  0.21303219  0.78860023  1.0
  C  C47  1  0.51261835  0.11906233  0.88136199  1.0
  C  C48  1  0.48931443  0.11344115  0.65068445  1.0
  C  C49  1  0.51081646  0.21975347  0.70380994  1.0
  O  O50  1  0.75332968  0.58607954  0.98633965  1.0
  O  O51  1  0.75332623  0.40025948  0.91391960  1.0
  O  O52  1  0.75332761  0.51365864  0.09974112  1.0
  O  O53  1  0.28794043  0.50697796  0.91019350  1.0
  O  O54  1  0.28794461  0.58980523  0.09678637  1.0
  O  O55  1  0.28793866  0.40321272  0.99302036  1.0
  O  O56  1  0.71174975  0.93004676  0.75652524  1.0
  O  O57  1  0.71175592  0.82647893  0.56995259  1.0
  O  O58  1  0.71175650  0.74347265  0.67352061  1.0
  O  O59  1  0.24642850  0.93304973  0.68036204  1.0
  O  O60  1  0.24643701  0.81963431  0.75268562  1.0
  O  O61  1  0.24643528  0.74731295  0.56694795  1.0
  O  O62  1  0.46654342  0.76461881  0.24442919  1.0
  O  O63  1  0.53377873  0.85351859  0.42218080  1.0
  O  O64  1  0.46653367  0.47980814  0.73538352  1.0
  O  O65  1  0.53377182  0.56866540  0.64648138  1.0
  O  O66  1  0.46654032  0.25557287  0.02019001  1.0
  O  O67  1  0.53376799  0.07781790  0.93133441  1.0
