# generated using pymatgen
data_ZnH10C22Br3NO4
_symmetry_space_group_name_H-M   'P 1'
_cell_length_a   16.52779872
_cell_length_b   17.34027645
_cell_length_c   17.67373691
_cell_angle_alpha   90.90167683
_cell_angle_beta   90.02604543
_cell_angle_gamma   95.34810394
_symmetry_Int_Tables_number   1
_chemical_formula_structural   ZnH10C22Br3NO4
_chemical_formula_sum   'Zn2 H20 C44 Br6 N2 O8'
_cell_volume   5042.54901719
_cell_formula_units_Z   2
loop_
 _symmetry_equiv_pos_site_id
 _symmetry_equiv_pos_as_xyz
  1  'x, y, z'
loop_
 _atom_site_type_symbol
 _atom_site_label
 _atom_site_symmetry_multiplicity
 _atom_site_fract_x
 _atom_site_fract_y
 _atom_site_fract_z
 _atom_site_occupancy
  Zn  Zn0  1  0.58265507  0.49884950  0.51399292  1.0
  Zn  Zn1  1  0.41306029  0.48924360  0.50146070  1.0
  H  H2  1  0.39755438  0.71807965  0.41471327  1.0
  H  H3  1  0.61647085  0.25767453  0.51054325  1.0
  H  H4  1  0.87983067  0.59398178  0.57588998  1.0
  H  H5  1  0.12472435  0.42359503  0.39709077  1.0
  H  H6  1  0.69461050  0.39967327  0.44071512  1.0
  H  H7  1  0.29166712  0.55717118  0.59904691  1.0
  H  H8  1  0.35940788  0.24129823  0.47069972  1.0
  H  H9  1  0.64943947  0.74529077  0.47726427  1.0
  H  H10  1  0.41974407  0.98900528  0.44565585  1.0
  H  H11  1  0.60059258  0.99308240  0.40572907  1.0
  H  H12  1  0.60870588  0.47802518  0.11264605  1.0
  H  H13  1  0.36991696  0.51381818  0.89675859  1.0
  H  H14  1  0.40137311  0.56846981  0.28742289  1.0
  H  H15  1  0.60970405  0.58507096  0.73602064  1.0
  H  H16  1  0.40231841  0.60850868  0.15228489  1.0
  H  H17  1  0.61865830  0.61063663  0.87517104  1.0
  H  H18  1  0.72736429  0.59420298  0.58017894  1.0
  H  H19  1  0.27759913  0.42593706  0.40084759  1.0
  H  H20  1  0.65530607  0.88548728  0.44602292  1.0
  H  H21  1  0.36213374  0.10137248  0.43779449  1.0
  C  C22  1  0.49020900  0.52021930  0.65331525  1.0
  C  C23  1  0.49938063  0.48538864  0.35967614  1.0
  C  C24  1  0.56397464  0.49911133  0.15106420  1.0
  C  C25  1  0.42231060  0.53098325  0.86153295  1.0
  C  C26  1  0.56316457  0.47858722  0.22689326  1.0
  C  C27  1  0.41811633  0.51823132  0.78354469  1.0
  C  C28  1  0.50420493  0.50269329  0.27681675  1.0
  C  C29  1  0.48601968  0.53651714  0.73696098  1.0
  C  C30  1  0.44675810  0.54963272  0.24824369  1.0
  C  C31  1  0.55723382  0.57081768  0.77215549  1.0
  C  C32  1  0.44721394  0.57181773  0.17317173  1.0
  C  C33  1  0.56239776  0.58475468  0.84951335  1.0
  C  C34  1  0.50550281  0.54570489  0.12305985  1.0
  C  C35  1  0.49498313  0.56298772  0.89586144  1.0
  C  C36  1  0.50339811  0.56097403  0.04455085  1.0
  C  C37  1  0.50042459  0.56676325  0.97588942  1.0
  C  C38  1  0.84048000  0.55021672  0.54534428  1.0
  C  C39  1  0.15992765  0.45401820  0.44232416  1.0
  C  C40  1  0.75677698  0.55048430  0.54811161  1.0
  C  C41  1  0.24379806  0.45470809  0.44420889  1.0
  C  C42  1  0.73799583  0.44137382  0.46953722  1.0
  C  C43  1  0.25231358  0.52945341  0.55506244  1.0
  C  C44  1  0.51531228  0.64197639  0.47784274  1.0
  C  C45  1  0.48980583  0.34365023  0.50938359  1.0
  C  C46  1  0.82152503  0.43737808  0.46362517  1.0
  C  C47  1  0.16837787  0.53187338  0.55670453  1.0
  C  C48  1  0.87535235  0.49261687  0.50225657  1.0
  C  C49  1  0.11960615  0.49316140  0.49957447  1.0
  C  C50  1  0.96046707  0.49155891  0.49917139  1.0
  C  C51  1  0.03430544  0.49291307  0.49941222  1.0
  C  C52  1  0.52196045  0.72403144  0.45171633  1.0
  C  C53  1  0.48819301  0.25866522  0.49202336  1.0
  C  C54  1  0.45374593  0.75545175  0.42225400  1.0
  C  C55  1  0.56081183  0.22320638  0.49368521  1.0
  C  C56  1  0.45770228  0.83342988  0.40404332  1.0
  C  C57  1  0.56207453  0.14515564  0.47506368  1.0
  C  C58  1  0.52901938  0.88366774  0.41608751  1.0
  C  C59  1  0.49072471  0.09837191  0.45358341  1.0
  C  C60  1  0.59867399  0.84831993  0.43894662  1.0
  C  C61  1  0.41825344  0.13620311  0.45348145  1.0
  C  C62  1  0.59571043  0.77060349  0.45708868  1.0
  C  C63  1  0.41616793  0.21406038  0.47183220  1.0
  C  C64  1  0.53853696  0.96829701  0.41547820  1.0
  C  C65  1  0.48159970  0.01529946  0.43698145  1.0
  Br  Br66  1  0.86026547  0.35741885  0.40418968  1.0
  Br  Br67  1  0.12207157  0.58627126  0.63648321  1.0
  Br  Br68  1  0.66648474  0.10655914  0.48559736  1.0
  Br  Br69  1  0.36224921  0.86793187  0.35900107  1.0
  Br  Br70  1  0.64230160  0.41194980  0.25788527  1.0
  Br  Br71  1  0.31699103  0.46912732  0.74709344  1.0
  N  N72  1  0.70686775  0.49684933  0.51105335  1.0
  N  N73  1  0.28871348  0.49150153  0.49982212  1.0
  O  O74  1  0.56038478  0.50962759  0.62765361  1.0
  O  O75  1  0.42841037  0.46867497  0.38629218  1.0
  O  O76  1  0.42527667  0.51884036  0.61452157  1.0
  O  O77  1  0.56542391  0.49291114  0.39682375  1.0
  O  O78  1  0.57978508  0.61641459  0.50326862  1.0
  O  O79  1  0.42214788  0.37284853  0.51574086  1.0
  O  O80  1  0.44562832  0.60401659  0.47320231  1.0
  O  O81  1  0.55988313  0.38091012  0.51492334  1.0
