# generated using pymatgen
data_Zn4H40C62O13
_symmetry_space_group_name_H-M   'P 1'
_cell_length_a   21.64078806
_cell_length_b   21.64081437
_cell_length_c   34.51555862
_cell_angle_alpha   89.99979992
_cell_angle_beta   90.00003938
_cell_angle_gamma   89.99997326
_symmetry_Int_Tables_number   1
_chemical_formula_structural   Zn4H40C62O13
_chemical_formula_sum   'Zn8 H80 C124 O26'
_cell_volume   16164.47404369
_cell_formula_units_Z   2
loop_
 _symmetry_equiv_pos_site_id
 _symmetry_equiv_pos_as_xyz
  1  'x, y, z'
loop_
 _atom_site_type_symbol
 _atom_site_label
 _atom_site_symmetry_multiplicity
 _atom_site_fract_x
 _atom_site_fract_y
 _atom_site_fract_z
 _atom_site_occupancy
  Zn  Zn0  1  0.44769490  0.44769568  0.96714921  1.0
  Zn  Zn1  1  0.44769991  0.55230433  0.03285276  1.0
  Zn  Zn2  1  0.55230151  0.55230494  0.96714825  1.0
  Zn  Zn3  1  0.55230518  0.44769549  0.03285058  1.0
  Zn  Zn4  1  0.55230266  0.55230199  0.53285251  1.0
  Zn  Zn5  1  0.44769645  0.55230589  0.46714966  1.0
  Zn  Zn6  1  0.44769466  0.44769458  0.53285058  1.0
  Zn  Zn7  1  0.55230634  0.44769844  0.46714951  1.0
  H  H8  1  0.56968992  0.74321368  0.95570364  1.0
  H  H9  1  0.56993018  0.85836323  0.95557923  1.0
  H  H10  1  0.43031049  0.74321394  0.04429608  1.0
  H  H11  1  0.43006879  0.85836395  0.04442054  1.0
  H  H12  1  0.49988647  0.94285562  0.06238453  1.0
  H  H13  1  0.50011245  0.94285642  0.93761476  1.0
  H  H14  1  0.43031202  0.25678701  0.95570328  1.0
  H  H15  1  0.43007038  0.14163746  0.95557911  1.0
  H  H16  1  0.56968907  0.25678674  0.04429665  1.0
  H  H17  1  0.56993031  0.14163719  0.04442106  1.0
  H  H18  1  0.49989039  0.05714622  0.93761486  1.0
  H  H19  1  0.50010987  0.05714542  0.06238463  1.0
  H  H20  1  0.43061182  0.43060747  0.84894080  1.0
  H  H21  1  0.56938492  0.56938918  0.84894155  1.0
  H  H22  1  0.56938897  0.56938558  0.65105832  1.0
  H  H23  1  0.43060755  0.43061264  0.65105902  1.0
  H  H24  1  0.43061649  0.56938977  0.15105827  1.0
  H  H25  1  0.56938873  0.43060707  0.15105903  1.0
  H  H26  1  0.56939115  0.43061299  0.34894168  1.0
  H  H27  1  0.43060967  0.56938691  0.34894092  1.0
  H  H28  1  0.74320490  0.57062078  0.95628593  1.0
  H  H29  1  0.85835366  0.57080790  0.95613471  1.0
  H  H30  1  0.74320443  0.42938048  0.04371531  1.0
  H  H31  1  0.85835273  0.42919192  0.04386454  1.0
  H  H32  1  0.94285103  0.40047129  0.00006289  1.0
  H  H33  1  0.94285107  0.59952895  0.99993669  1.0
  H  H34  1  0.25679697  0.57062112  0.04371447  1.0
  H  H35  1  0.14164775  0.57080922  0.04386510  1.0
  H  H36  1  0.25679751  0.42938129  0.95628569  1.0
  H  H37  1  0.14164920  0.42919278  0.95613558  1.0
  H  H38  1  0.05715079  0.59952870  0.00006307  1.0
  H  H39  1  0.05715139  0.40047149  0.99993700  1.0
  H  H40  1  0.25678665  0.43030985  0.54429670  1.0
  H  H41  1  0.14163696  0.43006867  0.54442184  1.0
  H  H42  1  0.25678565  0.56968840  0.45570404  1.0
  H  H43  1  0.14163596  0.56993010  0.45558030  1.0
  H  H44  1  0.05714551  0.50011071  0.43761599  1.0
  H  H45  1  0.05714512  0.49989041  0.56238581  1.0
  H  H46  1  0.74321345  0.56968989  0.54429607  1.0
  H  H47  1  0.85836314  0.56993153  0.54442068  1.0
  H  H48  1  0.74321436  0.43031137  0.45570371  1.0
  H  H49  1  0.85836405  0.43007013  0.45557945  1.0
  H  H50  1  0.94285455  0.50011339  0.56238571  1.0
  H  H51  1  0.94285540  0.49988870  0.43761590  1.0
  H  H52  1  0.42938068  0.25679739  0.54371429  1.0
  H  H53  1  0.42919218  0.14164877  0.54386478  1.0
  H  H54  1  0.57061995  0.25679622  0.45628505  1.0
  H  H55  1  0.57080805  0.14164760  0.45613452  1.0
  H  H56  1  0.59952886  0.05715111  0.49993690  1.0
  H  H57  1  0.40047141  0.05715162  0.50006259  1.0
  H  H58  1  0.42938006  0.74320586  0.45628478  1.0
  H  H59  1  0.42919196  0.85835402  0.45613516  1.0
  H  H60  1  0.57061988  0.74320466  0.54371437  1.0
  H  H61  1  0.57080746  0.85835328  0.54386519  1.0
  H  H62  1  0.40047120  0.94285119  0.49993675  1.0
  H  H63  1  0.59952865  0.94285114  0.50006312  1.0
  H  H64  1  0.32685167  0.38452041  0.71691225  1.0
  H  H65  1  0.37857620  0.37839135  0.67750743  1.0
  H  H66  1  0.38437963  0.32686037  0.71702619  1.0
  H  H67  1  0.38452014  0.32685279  0.78308741  1.0
  H  H68  1  0.37839098  0.37857671  0.82249248  1.0
  H  H69  1  0.32686003  0.38438021  0.78297376  1.0
  H  H70  1  0.67314677  0.61548068  0.71691265  1.0
  H  H71  1  0.62142405  0.62160996  0.67750751  1.0
  H  H72  1  0.61562067  0.67314026  0.71702586  1.0
  H  H73  1  0.61548023  0.67314747  0.78308708  1.0
  H  H74  1  0.62160943  0.62142426  0.82249227  1.0
  H  H75  1  0.67313988  0.61562143  0.78297359  1.0
  H  H76  1  0.32685416  0.61548104  0.28308706  1.0
  H  H77  1  0.37857734  0.62161008  0.32249191  1.0
  H  H78  1  0.38438024  0.67314106  0.28297344  1.0
  H  H79  1  0.38452114  0.67314771  0.21691251  1.0
  H  H80  1  0.37839196  0.62142519  0.17750715  1.0
  H  H81  1  0.32686197  0.61562124  0.21702584  1.0
  H  H82  1  0.67314844  0.38452108  0.28308710  1.0
  H  H83  1  0.62142484  0.37839182  0.32249251  1.0
  H  H84  1  0.61562189  0.32686060  0.28297387  1.0
  H  H85  1  0.61548138  0.32685293  0.21691236  1.0
  H  H86  1  0.62161052  0.37857706  0.17750746  1.0
  H  H87  1  0.67314147  0.38437986  0.21702617  1.0
  C  C88  1  0.33270649  0.50000465  0.99999895  1.0
  C  C89  1  0.49999972  0.66730424  0.00000109  1.0
  C  C90  1  0.49999793  0.49999797  0.89509586  1.0
  C  C91  1  0.66729542  0.50000366  0.00000159  1.0
  C  C92  1  0.50000080  0.33269482  0.99999946  1.0
  C  C93  1  0.49999935  0.49999832  0.10490411  1.0
  C  C94  1  0.50000322  0.66729499  0.49999821  1.0
  C  C95  1  0.33269559  0.49999865  0.50000067  1.0
  C  C96  1  0.50000009  0.49999970  0.60490413  1.0
  C  C97  1  0.50000376  0.33270546  0.50000031  1.0
  C  C98  1  0.66730447  0.49999949  0.49999930  1.0
  C  C99  1  0.50000043  0.49999982  0.39509642  1.0
  C  C100  1  0.49999970  0.73621154  0.00000043  1.0
  C  C101  1  0.53903115  0.76892569  0.97485932  1.0
  C  C102  1  0.53875804  0.83317328  0.97475640  1.0
  C  C103  1  0.46096739  0.76892559  0.02514093  1.0
  C  C104  1  0.46124047  0.83317455  0.02524285  1.0
  C  C105  1  0.49999976  0.86637529  0.99999946  1.0
  C  C106  1  0.49999974  0.93454879  0.99999938  1.0
  C  C107  1  0.49963646  0.96786030  0.03494268  1.0
  C  C108  1  0.50036292  0.96786094  0.96505656  1.0
  C  C109  1  0.50000128  0.26378937  0.99999925  1.0
  C  C110  1  0.46096943  0.23107581  0.97485844  1.0
  C  C111  1  0.46124207  0.16682684  0.97475653  1.0
  C  C112  1  0.53903214  0.23107520  0.02514038  1.0
  C  C113  1  0.53875906  0.16682715  0.02524330  1.0
  C  C114  1  0.50000085  0.13362607  0.99999997  1.0
  C  C115  1  0.50000040  0.06545257  0.99999976  1.0
  C  C116  1  0.49963858  0.03214107  0.96505642  1.0
  C  C117  1  0.50036124  0.03214043  0.03494284  1.0
  C  C118  1  0.46038752  0.46038597  0.83182820  1.0
  C  C119  1  0.45921887  0.45922254  0.79120507  1.0
  C  C120  1  0.41845603  0.41846259  0.77000568  1.0
  C  C121  1  0.53961059  0.53961171  0.83182842  1.0
  C  C122  1  0.54077966  0.54077721  0.79120558  1.0
  C  C123  1  0.58154247  0.58153774  0.77000525  1.0
  C  C124  1  0.53961050  0.53961217  0.66817179  1.0
  C  C125  1  0.54077591  0.54078114  0.70879434  1.0
  C  C126  1  0.58153691  0.58154340  0.72999431  1.0
  C  C127  1  0.46038605  0.46038735  0.66817157  1.0
  C  C128  1  0.45922206  0.45921953  0.70879470  1.0
  C  C129  1  0.41846155  0.41845715  0.72999416  1.0
  C  C130  1  0.49999930  0.49999901  0.85184667  1.0
  C  C131  1  0.49999925  0.49999970  0.77054044  1.0
  C  C132  1  0.49999919  0.50000004  0.64815361  1.0
  C  C133  1  0.49999923  0.50000028  0.72945926  1.0
  C  C134  1  0.46038945  0.53961080  0.16817175  1.0
  C  C135  1  0.45922177  0.54077747  0.20879430  1.0
  C  C136  1  0.41845939  0.58153836  0.22999396  1.0
  C  C137  1  0.53961394  0.46038595  0.16817186  1.0
  C  C138  1  0.54078259  0.45922229  0.20879499  1.0
  C  C139  1  0.58154499  0.41846220  0.22999476  1.0
  C  C140  1  0.53961311  0.46038826  0.33182907  1.0
  C  C141  1  0.54077801  0.45921975  0.29120594  1.0
  C  C142  1  0.58153900  0.41845747  0.27000628  1.0
  C  C143  1  0.46038815  0.53961173  0.33182838  1.0
  C  C144  1  0.45922413  0.54078093  0.29120554  1.0
  C  C145  1  0.41846450  0.58154379  0.27000519  1.0
  C  C146  1  0.50000076  0.49999820  0.14815359  1.0
  C  C147  1  0.50000219  0.50000028  0.22945953  1.0
  C  C148  1  0.49999995  0.49999994  0.35184694  1.0
  C  C149  1  0.50000175  0.50000063  0.27054071  1.0
  C  C150  1  0.73620141  0.50000133  0.00000016  1.0
  C  C151  1  0.76892071  0.54007797  0.97551324  1.0
  C  C152  1  0.83317160  0.54023968  0.97569085  1.0
  C  C153  1  0.76892021  0.45992282  0.02448656  1.0
  C  C154  1  0.83317064  0.45975969  0.02430781  1.0
  C  C155  1  0.86638761  0.49999944  0.99999936  1.0
  C  C156  1  0.93456858  0.49999989  0.99999966  1.0
  C  C157  1  0.96785842  0.44424506  0.00022539  1.0
  C  C158  1  0.96785802  0.55575471  0.99977420  1.0
  C  C159  1  0.26379995  0.50000144  0.00000064  1.0
  C  C160  1  0.23108118  0.54007843  0.02448752  1.0
  C  C161  1  0.16683028  0.54024064  0.02430932  1.0
  C  C162  1  0.23108126  0.45992307  0.97551437  1.0
  C  C163  1  0.16683129  0.45975996  0.97569282  1.0
  C  C164  1  0.13361430  0.50000008  0.00000061  1.0
  C  C165  1  0.06543379  0.50000056  0.00000031  1.0
  C  C166  1  0.03214386  0.55575494  0.00022564  1.0
  C  C167  1  0.03214443  0.44424526  0.99977470  1.0
  C  C168  1  0.26378867  0.49999866  0.49999950  1.0
  C  C169  1  0.23107454  0.46096726  0.52514095  1.0
  C  C170  1  0.16682688  0.46124037  0.52524408  1.0
  C  C171  1  0.23107449  0.53903100  0.47485919  1.0
  C  C172  1  0.16682545  0.53875839  0.47475691  1.0
  C  C173  1  0.13362566  0.49999962  0.50000092  1.0
  C  C174  1  0.06545208  0.50000009  0.50000091  1.0
  C  C175  1  0.03214089  0.50036202  0.46505782  1.0
  C  C176  1  0.03214047  0.49963865  0.53494427  1.0
  C  C177  1  0.73621185  0.50000040  0.50000076  1.0
  C  C178  1  0.76892508  0.53903259  0.52514098  1.0
  C  C179  1  0.83317413  0.53875994  0.52524385  1.0
  C  C180  1  0.76892646  0.46096912  0.47485939  1.0
  C  C181  1  0.83317458  0.46124220  0.47475714  1.0
  C  C182  1  0.86637532  0.50000083  0.50000050  1.0
  C  C183  1  0.93454844  0.50000128  0.50000080  1.0
  C  C184  1  0.96786009  0.50036391  0.53494389  1.0
  C  C185  1  0.96786051  0.49963816  0.46505773  1.0
  C  C186  1  0.50000008  0.26379909  0.49999923  1.0
  C  C187  1  0.45992254  0.23108122  0.52448589  1.0
  C  C188  1  0.45975944  0.16683086  0.52430778  1.0
  C  C189  1  0.54007718  0.23108041  0.47551206  1.0
  C  C190  1  0.54024031  0.16683006  0.47569089  1.0
  C  C191  1  0.49999965  0.13361452  0.49999937  1.0
  C  C192  1  0.50000013  0.06543363  0.49999974  1.0
  C  C193  1  0.55575504  0.03214420  0.49977467  1.0
  C  C194  1  0.44424524  0.03214469  0.50022517  1.0
  C  C195  1  0.50000044  0.73620229  0.49999929  1.0
  C  C196  1  0.45992239  0.76892156  0.47551319  1.0
  C  C197  1  0.45975972  0.83317191  0.47569159  1.0
  C  C198  1  0.54007800  0.76892140  0.52448648  1.0
  C  C199  1  0.54023972  0.83317176  0.52430881  1.0
  C  C200  1  0.49999948  0.86638824  0.50000031  1.0
  C  C201  1  0.49999993  0.93456913  0.49999994  1.0
  C  C202  1  0.44424456  0.96785717  0.49977420  1.0
  C  C203  1  0.55575528  0.96785668  0.50022533  1.0
  C  C204  1  0.37527459  0.37526107  0.70902453  1.0
  C  C205  1  0.37526031  0.37527516  0.79097539  1.0
  C  C206  1  0.62472432  0.62473914  0.70902460  1.0
  C  C207  1  0.62473869  0.62472459  0.79097517  1.0
  C  C208  1  0.37527615  0.62474036  0.29097539  1.0
  C  C209  1  0.37526270  0.62472534  0.20902423  1.0
  C  C210  1  0.62472645  0.37526125  0.29097543  1.0
  C  C211  1  0.62474073  0.37527580  0.20902456  1.0
  O  O212  1  0.49999929  0.50000092  0.00000011  1.0
  O  O213  1  0.35943887  0.46257081  0.97677324  1.0
  O  O214  1  0.46270673  0.64056813  0.02331233  1.0
  O  O215  1  0.53720314  0.53720723  0.91191318  1.0
  O  O216  1  0.35944064  0.53744033  0.02322406  1.0
  O  O217  1  0.46279228  0.46278861  0.91191179  1.0
  O  O218  1  0.53729557  0.64056915  0.97668994  1.0
  O  O219  1  0.64056124  0.53743946  0.97677554  1.0
  O  O220  1  0.53729835  0.35942989  0.02330947  1.0
  O  O221  1  0.64056259  0.46257016  0.02322681  1.0
  O  O222  1  0.46270547  0.35943141  0.97668936  1.0
  O  O223  1  0.46279413  0.53720539  0.08808729  1.0
  O  O224  1  0.53720687  0.46278811  0.08808797  1.0
  O  O225  1  0.50000003  0.50000092  0.50000013  1.0
  O  O226  1  0.53743487  0.64056117  0.52322516  1.0
  O  O227  1  0.35943073  0.53729628  0.47668999  1.0
  O  O228  1  0.46279026  0.46279275  0.58808797  1.0
  O  O229  1  0.46257066  0.64056224  0.47677160  1.0
  O  O230  1  0.53720759  0.53720490  0.58808704  1.0
  O  O231  1  0.35942938  0.46270238  0.52330992  1.0
  O  O232  1  0.46257168  0.35943868  0.52322777  1.0
  O  O233  1  0.64057162  0.46270383  0.47668955  1.0
  O  O234  1  0.53743399  0.35943880  0.47677309  1.0
  O  O235  1  0.64056793  0.53729563  0.52331048  1.0
  O  O236  1  0.46278922  0.53720541  0.41191314  1.0
  O  O237  1  0.53720935  0.46279645  0.41191353  1.0
