# generated using pymatgen
data_ZnH24C30NO4
_symmetry_space_group_name_H-M   'P 1'
_cell_length_a   17.90928570
_cell_length_b   18.21570374
_cell_length_c   19.69003240
_cell_angle_alpha   89.98204779
_cell_angle_beta   90.31768998
_cell_angle_gamma   89.89139663
_symmetry_Int_Tables_number   1
_chemical_formula_structural   ZnH24C30NO4
_chemical_formula_sum   'Zn2 H48 C60 N2 O8'
_cell_volume   6423.37342694
_cell_formula_units_Z   2
loop_
 _symmetry_equiv_pos_site_id
 _symmetry_equiv_pos_as_xyz
  1  'x, y, z'
loop_
 _atom_site_type_symbol
 _atom_site_label
 _atom_site_symmetry_multiplicity
 _atom_site_fract_x
 _atom_site_fract_y
 _atom_site_fract_z
 _atom_site_occupancy
  Zn  Zn0  1  0.50026539  0.42386913  0.50050630  1.0
  Zn  Zn1  1  0.49999732  0.57611281  0.50052069  1.0
  H  H2  1  0.87777386  0.38161331  0.47921232  1.0
  H  H3  1  0.12182893  0.61839510  0.47939941  1.0
  H  H4  1  0.12270949  0.38171826  0.47890559  1.0
  H  H5  1  0.87778082  0.61827583  0.47852938  1.0
  H  H6  1  0.73834288  0.38263581  0.48973524  1.0
  H  H7  1  0.26139622  0.61786024  0.48995244  1.0
  H  H8  1  0.26228954  0.38268043  0.48951686  1.0
  H  H9  1  0.73839192  0.61781383  0.48916327  1.0
  H  H10  1  0.50159043  0.61715444  0.71737662  1.0
  H  H11  1  0.49834104  0.38212527  0.28290180  1.0
  H  H12  1  0.50192037  0.61725914  0.28348665  1.0
  H  H13  1  0.49815157  0.38196809  0.71781893  1.0
  H  H14  1  0.50154303  0.61794823  0.84434560  1.0
  H  H15  1  0.49836950  0.38189530  0.15593931  1.0
  H  H16  1  0.50211686  0.61821700  0.15652074  1.0
  H  H17  1  0.49783316  0.38165540  0.84475205  1.0
  H  H18  1  0.41321594  0.41827551  0.93734734  1.0
  H  H19  1  0.58665092  0.58190393  0.06345650  1.0
  H  H20  1  0.41347293  0.41841132  0.06314111  1.0
  H  H21  1  0.58642863  0.58168025  0.93766331  1.0
  H  H22  1  0.42685692  0.30762454  0.58080404  1.0
  H  H23  1  0.58827936  0.69208678  0.43330762  1.0
  H  H24  1  0.57319462  0.30778882  0.41960269  1.0
  H  H25  1  0.41151540  0.69268863  0.56697632  1.0
  H  H26  1  0.42332971  0.16944253  0.58398209  1.0
  H  H27  1  0.59232143  0.83024854  0.43013603  1.0
  H  H28  1  0.57644331  0.16961012  0.41563218  1.0
  H  H29  1  0.40762396  0.83083741  0.56982233  1.0
  H  H30  1  0.29556798  0.04340434  0.45959847  1.0
  H  H31  1  0.32851606  0.12904760  0.48991678  1.0
  H  H32  1  0.28345797  0.12383960  0.40950055  1.0
  H  H33  1  0.42249971  0.13441781  0.39661847  1.0
  H  H34  1  0.38908930  0.05207296  0.36212271  1.0
  H  H35  1  0.54554290  0.95666907  0.68558269  1.0
  H  H36  1  0.51215759  0.87104264  0.65553890  1.0
  H  H37  1  0.60082597  0.87617320  0.69608149  1.0
  H  H38  1  0.61431777  0.86579041  0.56957931  1.0
  H  H39  1  0.65213487  0.94814183  0.59994843  1.0
  H  H40  1  0.70458992  0.04329414  0.54010921  1.0
  H  H41  1  0.67132581  0.12897266  0.50980077  1.0
  H  H42  1  0.71627352  0.12367333  0.59024708  1.0
  H  H43  1  0.57724794  0.13422305  0.60303867  1.0
  H  H44  1  0.61093734  0.05183334  0.63752468  1.0
  H  H45  1  0.45449415  0.95659991  0.31416273  1.0
  H  H46  1  0.48801109  0.87093216  0.34430806  1.0
  H  H47  1  0.39929212  0.87625251  0.30382095  1.0
  H  H48  1  0.38590945  0.86605350  0.43032388  1.0
  H  H49  1  0.34796144  0.94847715  0.39986064  1.0
  C  C50  1  0.50047899  0.49937170  0.36679204  1.0
  C  C51  1  0.49962059  0.49940984  0.63392858  1.0
  C  C52  1  0.49965293  0.49981494  0.85337461  1.0
  C  C53  1  0.50034365  0.50007562  0.14740613  1.0
  C  C54  1  0.49954152  0.49955206  0.71007509  1.0
  C  C55  1  0.50044438  0.49965614  0.29066357  1.0
  C  C56  1  0.45224552  0.45335886  0.96496924  1.0
  C  C57  1  0.54763697  0.54680630  0.03583209  1.0
  C  C58  1  0.45237983  0.45345448  0.03567568  1.0
  C  C59  1  0.54749097  0.54670574  0.96513224  1.0
  C  C60  1  0.50011415  0.50016073  0.07246781  1.0
  C  C61  1  0.49980078  0.49995718  0.92833511  1.0
  C  C62  1  0.45884659  0.27423639  0.54533702  1.0
  C  C63  1  0.54952359  0.72562685  0.46253308  1.0
  C  C64  1  0.54120998  0.27431433  0.45491309  1.0
  C  C65  1  0.45034459  0.72595188  0.53768975  1.0
  C  C66  1  0.45730025  0.19795721  0.54661066  1.0
  C  C67  1  0.55123031  0.80190919  0.46115154  1.0
  C  C68  1  0.54254773  0.19803524  0.45318296  1.0
  C  C69  1  0.44871602  0.80224452  0.53889475  1.0
  C  C70  1  0.49993193  0.15806584  0.49982161  1.0
  C  C71  1  0.50002599  0.84202587  0.50000880  1.0
  C  C72  1  0.45118636  0.03878559  0.45544368  1.0
  C  C73  1  0.54921149  0.96132116  0.54396188  1.0
  C  C74  1  0.54888291  0.03869895  0.54418273  1.0
  C  C75  1  0.45092310  0.96141264  0.45578353  1.0
  C  C76  1  0.50006698  0.92384870  0.49991628  1.0
  C  C77  1  0.50000543  0.07625117  0.49978532  1.0
  C  C78  1  0.35320797  0.50047197  0.49735970  1.0
  C  C79  1  0.64699302  0.50050565  0.49638871  1.0
  C  C80  1  0.84695817  0.43323843  0.48118521  1.0
  C  C81  1  0.15284089  0.56687492  0.48165236  1.0
  C  C82  1  0.15334792  0.43332484  0.48138412  1.0
  C  C83  1  0.84697791  0.56677333  0.48081696  1.0
  C  C84  1  0.76973024  0.43371569  0.48703072  1.0
  C  C85  1  0.23012054  0.56667418  0.48767136  1.0
  C  C86  1  0.23062801  0.43376640  0.48739085  1.0
  C  C87  1  0.76976346  0.56660278  0.48666563  1.0
  C  C88  1  0.73035234  0.50025443  0.49002737  1.0
  C  C89  1  0.26977768  0.50028986  0.49092710  1.0
  C  C90  1  0.88702729  0.49991708  0.47837608  1.0
  C  C91  1  0.11301443  0.50003958  0.47885651  1.0
  C  C92  1  0.96589841  0.49981821  0.47521538  1.0
  C  C93  1  0.03411372  0.49993227  0.47535488  1.0
  C  C94  1  0.50107124  0.56595612  0.74603546  1.0
  C  C95  1  0.49888997  0.43344265  0.25444411  1.0
  C  C96  1  0.50181748  0.56610731  0.25477769  1.0
  C  C97  1  0.49817172  0.43328803  0.74626871  1.0
  C  C98  1  0.50149209  0.56603471  0.81670082  1.0
  C  C99  1  0.49847615  0.43367203  0.18379446  1.0
  C  C100  1  0.50219713  0.56626568  0.18411772  1.0
  C  C101  1  0.49779508  0.43346070  0.81692307  1.0
  C  C102  1  0.39772512  0.08133244  0.41028014  1.0
  C  C103  1  0.32192521  0.09515950  0.44416056  1.0
  C  C104  1  0.59923809  0.91881369  0.59228011  1.0
  C  C105  1  0.56243500  0.90493668  0.66138657  1.0
  C  C106  1  0.60221560  0.08114815  0.58936734  1.0
  C  C107  1  0.67798125  0.09501096  0.55553416  1.0
  C  C108  1  0.40089918  0.91901749  0.40754507  1.0
  C  C109  1  0.43768174  0.90494280  0.33845125  1.0
  N  N110  1  0.50012396  0.31155847  0.50026933  1.0
  N  N111  1  0.49995163  0.68846712  0.50019817  1.0
  O  O112  1  0.50091592  0.43696224  0.39614310  1.0
  O  O113  1  0.50010295  0.56163899  0.60430890  1.0
  O  O114  1  0.49928278  0.43704057  0.60452231  1.0
  O  O115  1  0.49999604  0.56156767  0.39644072  1.0
  O  O116  1  0.38577703  0.43824646  0.49922862  1.0
  O  O117  1  0.61473591  0.56290524  0.49837405  1.0
  O  O118  1  0.61468456  0.43831808  0.49912761  1.0
  O  O119  1  0.38528775  0.56282283  0.50009477  1.0
