# generated using pymatgen
data_AlH9C27(OF)6
_symmetry_space_group_name_H-M   'P 1'
_cell_length_a   4.02206306
_cell_length_b   27.81302573
_cell_length_c   27.84625683
_cell_angle_alpha   60.06687476
_cell_angle_beta   89.78836833
_cell_angle_gamma   89.58980811
_symmetry_Int_Tables_number   1
_chemical_formula_structural   AlH9C27(OF)6
_chemical_formula_sum   'Al3 H27 C81 O18 F18'
_cell_volume   2699.45256673
_cell_formula_units_Z   3
loop_
 _symmetry_equiv_pos_site_id
 _symmetry_equiv_pos_as_xyz
  1  'x, y, z'
loop_
 _atom_site_type_symbol
 _atom_site_label
 _atom_site_symmetry_multiplicity
 _atom_site_fract_x
 _atom_site_fract_y
 _atom_site_fract_z
 _atom_site_occupancy
  Al  Al0  1  0.00001730  0.99996128  0.49997670  1.0
  Al  Al1  1  0.05329806  0.33365513  0.83337366  1.0
  Al  Al2  1  0.93262086  0.66746827  0.16618857  1.0
  H  H3  1  0.48388130  0.00040158  0.92253308  1.0
  H  H4  1  0.49351930  0.91110182  0.83348805  1.0
  H  H5  1  0.48469114  0.08945644  0.74445847  1.0
  H  H6  1  0.23750855  0.07526775  0.91107204  1.0
  H  H7  1  0.78887579  0.14813298  0.75617397  1.0
  H  H8  1  0.73414443  0.92606874  0.98529780  1.0
  H  H9  1  0.18887057  0.85205298  0.90413180  1.0
  H  H10  1  0.22583558  0.92204857  0.76080556  1.0
  H  H11  1  0.75783322  0.07835930  0.68298009  1.0
  H  H12  1  0.48384913  0.42287033  0.07742411  1.0
  H  H13  1  0.49406413  0.24457083  0.16636028  1.0
  H  H14  1  0.48369563  0.33387331  0.25549064  1.0
  H  H15  1  0.73496612  0.48509156  0.08912949  1.0
  H  H16  1  0.18067759  0.40548263  0.24377037  1.0
  H  H17  1  0.23587726  0.41112937  0.01494875  1.0
  H  H18  1  0.79662222  0.25640659  0.09521015  1.0
  H  H19  1  0.76555544  0.18309668  0.23902682  1.0
  H  H20  1  0.21760859  0.26101763  0.31704807  1.0
  H  H21  1  0.52928144  0.57681188  0.49950075  1.0
  H  H22  1  0.52046749  0.75509514  0.41064570  1.0
  H  H23  1  0.52579585  0.66594065  0.58874929  1.0
  H  H24  1  0.27520150  0.51484502  0.57326061  1.0
  H  H25  1  0.82147017  0.59445428  0.64877240  1.0
  H  H26  1  0.76696820  0.58856096  0.42377764  1.0
  H  H27  1  0.21018405  0.74359387  0.35291790  1.0
  H  H28  1  0.24815405  0.81645414  0.42190911  1.0
  H  H29  1  0.78955773  0.73895588  0.57767011  1.0
  C  C30  1  0.50438439  0.92629913  0.50001820  1.0
  C  C31  1  0.49795581  0.00006720  0.57343696  1.0
  C  C32  1  0.49778603  0.07352908  0.42649030  1.0
  C  C33  1  0.55441139  0.26048661  0.83276388  1.0
  C  C34  1  0.54998140  0.33291507  0.90719405  1.0
  C  C35  1  0.55177258  0.40746907  0.76040777  1.0
  C  C36  1  0.43234416  0.74019724  0.09224950  1.0
  C  C37  1  0.43655346  0.59321145  0.16767125  1.0
  C  C38  1  0.43419041  0.66839455  0.23911217  1.0
  C  C39  1  0.47657714  0.94966508  0.88409120  1.0
  C  C40  1  0.48512086  0.00038491  0.88340098  1.0
  C  C41  1  0.49602873  0.05105474  0.83350266  1.0
  C  C42  1  0.49293472  0.05031418  0.78353277  1.0
  C  C43  1  0.48875730  0.00028464  0.78279002  1.0
  C  C44  1  0.48288525  0.95029614  0.83344173  1.0
  C  C45  1  0.39276915  0.15932071  0.87642340  1.0
  C  C46  1  0.37147091  0.10918176  0.87722652  1.0
  C  C47  1  0.51009652  0.10417703  0.83353867  1.0
  C  C48  1  0.66684593  0.15041907  0.78993362  1.0
  C  C49  1  0.67894100  0.19984160  0.79070132  1.0
  C  C50  1  0.54405070  0.20614632  0.83347353  1.0
  C  C51  1  0.60345221  0.89183074  0.98551346  1.0
  C  C52  1  0.58704046  0.84157417  0.03466790  1.0
  C  C53  1  0.44029566  0.79440040  0.03864362  1.0
  C  C54  1  0.30417368  0.80047021  0.98988753  1.0
  C  C55  1  0.31154482  0.84998818  0.93989882  1.0
  C  C56  1  0.46459179  0.89655618  0.93711422  1.0
  C  C57  1  0.34931542  0.95641290  0.72576449  1.0
  C  C58  1  0.35294699  0.95715570  0.67561705  1.0
  C  C59  1  0.49602292  0.00009945  0.62697772  1.0
  C  C60  1  0.63665405  0.04310686  0.63282339  1.0
  C  C61  1  0.63577783  0.04396878  0.68217060  1.0
  C  C62  1  0.49126626  0.00023303  0.72973578  1.0
  C  C63  1  0.49949549  0.33372811  0.11578585  1.0
  C  C64  1  0.48499486  0.38372040  0.11653686  1.0
  C  C65  1  0.47265271  0.38448181  0.16647595  1.0
  C  C66  1  0.47753957  0.33378001  0.21641504  1.0
  C  C67  1  0.48855170  0.28303834  0.21710897  1.0
  C  C68  1  0.49787096  0.28371707  0.16642615  1.0
  C  C69  1  0.59078251  0.53491505  0.12426771  1.0
  C  C70  1  0.60369575  0.48569157  0.12307032  1.0
  C  C71  1  0.46080458  0.43763590  0.16655717  1.0
  C  C72  1  0.30670161  0.44088902  0.21021422  1.0
  C  C73  1  0.30275482  0.49094340  0.20983541  1.0
  C  C74  1  0.44347819  0.53933374  0.16736832  1.0
  C  C75  1  0.37055797  0.37728443  0.01448847  1.0
  C  C76  1  0.38836771  0.37636365  0.96520947  1.0
  C  C77  1  0.54046161  0.33340838  0.96089765  1.0
  C  C78  1  0.67999868  0.29075872  0.00948967  1.0
  C  C79  1  0.67121419  0.29009921  0.05960807  1.0
  C  C80  1  0.51337541  0.33370437  0.06269276  1.0
  C  C81  1  0.64000532  0.18232654  0.27409841  1.0
  C  C82  1  0.64083641  0.13295758  0.32426657  1.0
  C  C83  1  0.49595332  0.12712020  0.37298063  1.0
  C  C84  1  0.34851664  0.17581101  0.36716904  1.0
  C  C85  1  0.34484246  0.22598123  0.31780614  1.0
  C  C86  1  0.49118781  0.22994613  0.27015289  1.0
  C  C87  1  0.51345812  0.66596110  0.44899684  1.0
  C  C88  1  0.52850309  0.61596895  0.49957404  1.0
  C  C89  1  0.53940296  0.61527684  0.55023292  1.0
  C  C90  1  0.53424499  0.66599681  0.54960185  1.0
  C  C91  1  0.52466573  0.71672103  0.49969679  1.0
  C  C92  1  0.51634591  0.71597536  0.44975634  1.0
  C  C93  1  0.40824400  0.46534262  0.65849067  1.0
  C  C94  1  0.40239211  0.51432317  0.60794923  1.0
  C  C95  1  0.54655180  0.56226631  0.60342878  1.0
  C  C96  1  0.69487695  0.55914857  0.65051827  1.0
  C  C97  1  0.69184691  0.50936204  0.70028811  1.0
  C  C98  1  0.54960051  0.46108540  0.70616502  1.0
  C  C99  1  0.63025109  0.62262567  0.39026452  1.0
  C  C100  1  0.60408263  0.62389510  0.33999639  1.0
  C  C101  1  0.44907587  0.66716412  0.29360983  1.0
  C  C102  1  0.31497508  0.70969714  0.30055093  1.0
  C  C103  1  0.33183242  0.70998616  0.35012136  1.0
  C  C104  1  0.49313383  0.66616241  0.39586222  1.0
  C  C105  1  0.37143312  0.81733445  0.45618705  1.0
  C  C106  1  0.36760337  0.86672253  0.45710519  1.0
  C  C107  1  0.50900268  0.87267971  0.49999462  1.0
  C  C108  1  0.65615549  0.82409711  0.54278009  1.0
  C  C109  1  0.66289711  0.77391235  0.54345972  1.0
  C  C110  1  0.51997718  0.76983757  0.49975882  1.0
  O  O111  1  0.26102595  0.06528490  0.46009425  1.0
  O  O112  1  0.26655523  0.95980134  0.47468602  1.0
  O  O113  1  0.26321107  0.97464385  0.56518873  1.0
  O  O114  1  0.73569168  0.03992151  0.43469058  1.0
  O  O115  1  0.73402020  0.02543529  0.53989614  1.0
  O  O116  1  0.73924791  0.93466935  0.52538367  1.0
  O  O117  1  0.31566382  0.39948852  0.79382996  1.0
  O  O118  1  0.32051613  0.29456324  0.80710395  1.0
  O  O119  1  0.31717020  0.30743373  0.89883120  1.0
  O  O120  1  0.79085450  0.37437628  0.76822822  1.0
  O  O121  1  0.78874548  0.35803037  0.87453799  1.0
  O  O122  1  0.79377018  0.26792324  0.85776455  1.0
  O  O123  1  0.19399933  0.64355397  0.23174754  1.0
  O  O124  1  0.19215570  0.73287530  0.12476014  1.0
  O  O125  1  0.19711999  0.62603364  0.14236198  1.0
  O  O126  1  0.66550446  0.69420327  0.20484861  1.0
  O  O127  1  0.67059126  0.60162959  0.19293475  1.0
  O  O128  1  0.66728951  0.70620097  0.10069579  1.0
  F  F129  1  0.83233311  0.24414768  0.74832666  1.0
  F  F130  1  0.25655451  0.16355643  0.91886107  1.0
  F  F131  1  0.72311699  0.83761223  0.08107823  1.0
  F  F132  1  0.15420900  0.75584639  0.99198835  1.0
  F  F133  1  0.21338956  0.91341420  0.67484883  1.0
  F  F134  1  0.77821923  0.08679289  0.58850589  1.0
  F  F135  1  0.15204824  0.49347051  0.25226867  1.0
  F  F136  1  0.73118523  0.58095241  0.08202729  1.0
  F  F137  1  0.24765879  0.41870123  0.91904330  1.0
  F  F138  1  0.83442624  0.24837951  0.00713578  1.0
  F  F139  1  0.78683384  0.08861038  0.32498211  1.0
  F  F140  1  0.20438735  0.17507583  0.41152361  1.0
  F  F141  1  0.83688699  0.50698611  0.74540918  1.0
  F  F142  1  0.26624465  0.41943346  0.66223078  1.0
  F  F143  1  0.73886054  0.58158751  0.33518642  1.0
  F  F144  1  0.15750099  0.75230085  0.25673816  1.0
  F  F145  1  0.22212825  0.91094789  0.41359253  1.0
  F  F146  1  0.79669428  0.82494335  0.58643691  1.0
