# generated using pymatgen
data_ZnH8C15S2NO4
_symmetry_space_group_name_H-M   'P 1'
_cell_length_a   13.87203835
_cell_length_b   14.10200000
_cell_length_c   14.18071133
_cell_angle_alpha   86.93691411
_cell_angle_beta   70.86108576
_cell_angle_gamma   70.52848928
_symmetry_Int_Tables_number   1
_chemical_formula_structural   ZnH8C15S2NO4
_chemical_formula_sum   'Zn4 H32 C60 S8 N4 O16'
_cell_volume   2465.99679812
_cell_formula_units_Z   4
loop_
 _symmetry_equiv_pos_site_id
 _symmetry_equiv_pos_as_xyz
  1  'x, y, z'
loop_
 _atom_site_type_symbol
 _atom_site_label
 _atom_site_symmetry_multiplicity
 _atom_site_fract_x
 _atom_site_fract_y
 _atom_site_fract_z
 _atom_site_occupancy
  Zn  Zn0  1  0.86271327  0.13586251  0.82596125  1.0
  Zn  Zn1  1  0.63737959  0.17388812  0.86395975  1.0
  Zn  Zn2  1  0.13728579  0.86413795  0.17403860  1.0
  Zn  Zn3  1  0.36261923  0.82611249  0.13603860  1.0
  H  H4  1  0.54733094  0.70448771  0.90857429  1.0
  H  H5  1  0.95262206  0.09155806  0.29774949  1.0
  H  H6  1  0.45266786  0.29551564  0.09142630  1.0
  H  H7  1  0.04737929  0.90844165  0.70225035  1.0
  H  H8  1  0.50969820  0.53303926  0.91028028  1.0
  H  H9  1  0.98940883  0.08992701  0.46869712  1.0
  H  H10  1  0.49029810  0.46696581  0.08971657  1.0
  H  H11  1  0.01059046  0.91007400  0.53130422  1.0
  H  H12  1  0.98285108  0.77307663  0.81954714  1.0
  H  H13  1  0.51834309  0.18013416  0.22516672  1.0
  H  H14  1  0.01715183  0.22692197  0.18045046  1.0
  H  H15  1  0.48166010  0.81986298  0.77483013  1.0
  H  H16  1  0.94139201  0.60205016  0.82807934  1.0
  H  H17  1  0.55889225  0.17187290  0.39562820  1.0
  H  H18  1  0.05861084  0.39794823  0.17192275  1.0
  H  H19  1  0.44110887  0.82812767  0.60437015  1.0
  H  H20  1  0.21658403  0.21319723  0.69750035  1.0
  H  H21  1  0.28274668  0.30328430  0.78635623  1.0
  H  H22  1  0.78341733  0.78680247  0.30249949  1.0
  H  H23  1  0.71725391  0.69671495  0.21364362  1.0
  H  H24  1  0.04403247  0.19717758  0.69070556  1.0
  H  H25  1  0.45532218  0.30991537  0.80225313  1.0
  H  H26  1  0.95596838  0.80282233  0.30929354  1.0
  H  H27  1  0.54467764  0.69008413  0.19774671  1.0
  H  H28  1  0.98376852  0.07523148  0.96670588  1.0
  H  H29  1  0.51671891  0.03277768  0.92526473  1.0
  H  H30  1  0.01623054  0.92476827  0.03329397  1.0
  H  H31  1  0.48328119  0.96722177  0.07473437  1.0
  H  H32  1  0.15369900  0.08236282  0.98553909  1.0
  H  H33  1  0.34700522  0.01387436  0.91810421  1.0
  H  H34  1  0.84630033  0.91763617  0.01446001  1.0
  H  H35  1  0.65299460  0.98612514  0.08189564  1.0
  C  C36  1  0.80075243  0.95855011  0.84013645  1.0
  C  C37  1  0.70006351  0.15985129  0.04161002  1.0
  C  C38  1  0.19924204  0.04145044  0.15986339  1.0
  C  C39  1  0.29993482  0.84014882  0.95838758  1.0
  C  C40  1  0.69875008  0.34890782  0.85245235  1.0
  C  C41  1  0.80029990  0.14761659  0.65095470  1.0
  C  C42  1  0.30123495  0.65109578  0.14754825  1.0
  C  C43  1  0.19969610  0.85238345  0.34904515  1.0
  C  C44  1  0.68384872  0.45682455  0.85784107  1.0
  C  C45  1  0.81520414  0.14237699  0.54341369  1.0
  C  C46  1  0.31614648  0.54317705  0.14216102  1.0
  C  C47  1  0.18479644  0.85762368  0.45658615  1.0
  C  C48  1  0.72118132  0.61710537  0.85445077  1.0
  C  C49  1  0.77859803  0.14573037  0.38307148  1.0
  C  C50  1  0.27881817  0.38289466  0.14555431  1.0
  C  C51  1  0.22140359  0.85427071  0.61692762  1.0
  C  C52  1  0.81347435  0.85123713  0.83707524  1.0
  C  C53  1  0.68747601  0.16288647  0.14852278  1.0
  C  C54  1  0.18652853  0.14876136  0.16292460  1.0
  C  C55  1  0.31252844  0.83710879  0.85147483  1.0
  C  C56  1  0.61070510  0.63118297  0.88542188  1.0
  C  C57  1  0.88892728  0.11479250  0.37018418  1.0
  C  C58  1  0.38929263  0.36881914  0.11458171  1.0
  C  C59  1  0.11107255  0.88520770  0.62981566  1.0
  C  C60  1  0.58995234  0.53973686  0.88709197  1.0
  C  C61  1  0.90921279  0.11316531  0.46149995  1.0
  C  C62  1  0.41004313  0.46026753  0.11290937  1.0
  C  C63  1  0.09078726  0.88683474  0.53850139  1.0
  C  C64  1  0.77350750  0.69144846  0.84497994  1.0
  C  C65  1  0.72672155  0.15510804  0.30841250  1.0
  C  C66  1  0.22649352  0.30855037  0.15502514  1.0
  C  C67  1  0.27328007  0.84489232  0.69158660  1.0
  C  C68  1  0.90410351  0.76731099  0.82819377  1.0
  C  C69  1  0.59691123  0.17165151  0.23143125  1.0
  C  C70  1  0.09589987  0.23268801  0.17180682  1.0
  C  C71  1  0.40309116  0.82834577  0.76856785  1.0
  C  C72  1  0.88171167  0.67654048  0.83247931  1.0
  C  C73  1  0.61881660  0.16747001  0.32207464  1.0
  C  C74  1  0.11828912  0.32345921  0.16752427  1.0
  C  C75  1  0.38118555  0.83252955  0.67792296  1.0
  C  C76  1  0.16730200  0.18232341  0.75912544  1.0
  C  C77  1  0.33222133  0.24133428  0.81750683  1.0
  C  C78  1  0.83269832  0.81767659  0.24087515  1.0
  C  C79  1  0.66777697  0.75866572  0.18249301  1.0
  C  C80  1  0.07232814  0.17332161  0.75425578  1.0
  C  C81  1  0.42725687  0.24617238  0.82644290  1.0
  C  C82  1  0.92767245  0.82667834  0.24574407  1.0
  C  C83  1  0.57274346  0.75382691  0.17355769  1.0
  C  C84  1  0.03947059  0.10326535  0.90847407  1.0
  C  C85  1  0.46078620  0.09133553  0.89701603  1.0
  C  C86  1  0.96052923  0.89673486  0.09152578  1.0
  C  C87  1  0.53921412  0.90866377  0.10298456  1.0
  C  C88  1  0.13393619  0.10832543  0.91830091  1.0
  C  C89  1  0.36632647  0.08148601  0.89199753  1.0
  C  C90  1  0.86606336  0.89167412  0.08169969  1.0
  C  C91  1  0.63367232  0.91851379  0.10800306  1.0
  C  C92  1  0.19977505  0.14934352  0.84261504  1.0
  C  C93  1  0.30008630  0.15753511  0.85076431  1.0
  C  C94  1  0.80022374  0.85065628  0.15738555  1.0
  C  C95  1  0.69991403  0.84246490  0.14923629  1.0
  S  S96  1  0.70109717  0.81814542  0.84940161  1.0
  S  S97  1  0.79931130  0.15074859  0.18278620  1.0
  S  S98  1  0.29890487  0.18185382  0.15060272  1.0
  S  S99  1  0.20069109  0.84924940  0.81721290  1.0
  S  S100  1  0.79799603  0.49104529  0.82745259  1.0
  S  S101  1  0.70142882  0.17273545  0.50810020  1.0
  S  S102  1  0.20200063  0.50895347  0.17255399  1.0
  S  S103  1  0.29857101  0.82726618  0.49189964  1.0
  N  N104  1  0.00929828  0.13486798  0.82806363  1.0
  N  N105  1  0.49063795  0.17204708  0.86515716  1.0
  N  N106  1  0.99070104  0.86513243  0.17193546  1.0
  N  N107  1  0.50936111  0.82795409  0.13484269  1.0
  O  O108  1  0.88304952  0.98311991  0.83452561  1.0
  O  O109  1  0.61773332  0.16526293  0.01705901  1.0
  O  O110  1  0.11695203  0.01688166  0.16547798  1.0
  O  O111  1  0.38227419  0.83473772  0.98293859  1.0
  O  O112  1  0.61421362  0.32314694  0.87738554  1.0
  O  O113  1  0.88504276  0.12257822  0.67675921  1.0
  O  O114  1  0.38577890  0.67685807  0.12260907  1.0
  O  O115  1  0.11495985  0.87741891  0.32324138  1.0
  O  O116  1  0.70558759  0.01933482  0.85011811  1.0
  O  O117  1  0.79484044  0.15008932  0.98122662  1.0
  O  O118  1  0.29441586  0.98066227  0.14987800  1.0
  O  O119  1  0.20516680  0.84991137  0.01877173  1.0
  O  O120  1  0.79689971  0.28969573  0.82379828  1.0
  O  O121  1  0.70232300  0.17612715  0.70967713  1.0
  O  O122  1  0.20309377  0.71030239  0.17620007  1.0
  O  O123  1  0.29767965  0.82387080  0.29032122  1.0
