# generated using pymatgen
data_ZnH12C20N3O4
_symmetry_space_group_name_H-M   'P 1'
_cell_length_a   15.31433846
_cell_length_b   15.37466244
_cell_length_c   17.99132943
_cell_angle_alpha   91.42782898
_cell_angle_beta   97.86865017
_cell_angle_gamma   99.90554405
_symmetry_Int_Tables_number   1
_chemical_formula_structural   ZnH12C20N3O4
_chemical_formula_sum   'Zn6 H72 C120 N18 O24'
_cell_volume   4128.56703952
_cell_formula_units_Z   6
loop_
 _symmetry_equiv_pos_site_id
 _symmetry_equiv_pos_as_xyz
  1  'x, y, z'
loop_
 _atom_site_type_symbol
 _atom_site_label
 _atom_site_symmetry_multiplicity
 _atom_site_fract_x
 _atom_site_fract_y
 _atom_site_fract_z
 _atom_site_occupancy
  Zn  Zn0  1  0.98705603  0.99422552  0.91935209  1.0
  Zn  Zn1  1  0.01294814  0.00577815  0.08065049  1.0
  Zn  Zn2  1  0.22490970  0.32563813  0.24651156  1.0
  Zn  Zn3  1  0.77508920  0.67436152  0.75349036  1.0
  Zn  Zn4  1  0.25109512  0.33688170  0.40680208  1.0
  Zn  Zn5  1  0.74890387  0.66311861  0.59319875  1.0
  H  H6  1  0.98055382  0.71566992  0.88077146  1.0
  H  H7  1  0.01943929  0.28433096  0.11922542  1.0
  H  H8  1  0.97817503  0.55645873  0.87908849  1.0
  H  H9  1  0.02181889  0.44354350  0.12090295  1.0
  H  H10  1  0.02182365  0.56839191  0.12213018  1.0
  H  H11  1  0.97819095  0.43161194  0.87786185  1.0
  H  H12  1  0.02359323  0.72875232  0.12206251  1.0
  H  H13  1  0.97641297  0.27124810  0.87793410  1.0
  H  H14  1  0.69416585  0.99128093  0.87112078  1.0
  H  H15  1  0.30584183  0.00871621  0.12887868  1.0
  H  H16  1  0.53778181  0.00321750  0.87668408  1.0
  H  H17  1  0.46221997  0.99677232  0.12330901  1.0
  H  H18  1  0.58391472  0.98443136  0.11781270  1.0
  H  H19  1  0.41607526  0.01556289  0.88217867  1.0
  H  H20  1  0.74119099  0.97389866  0.11039200  1.0
  H  H21  1  0.25880088  0.02610219  0.88961086  1.0
  H  H22  1  0.97143765  0.85457909  0.79412260  1.0
  H  H23  1  0.02856301  0.14542321  0.20588013  1.0
  H  H24  1  0.97550029  0.85280964  0.65500346  1.0
  H  H25  1  0.02449950  0.14719134  0.34499914  1.0
  H  H26  1  0.02497223  0.13812163  0.67197310  1.0
  H  H27  1  0.97503014  0.86187939  0.32802588  1.0
  H  H28  1  0.01956561  0.12849874  0.81090863  1.0
  H  H29  1  0.98043744  0.87150624  0.18909163  1.0
  H  H30  1  0.54232016  0.34763087  0.45313537  1.0
  H  H31  1  0.45768214  0.65237739  0.54686768  1.0
  H  H32  1  0.70235622  0.34229957  0.44854023  1.0
  H  H33  1  0.29764347  0.65770470  0.55146410  1.0
  H  H34  1  0.65327544  0.34326569  0.20657077  1.0
  H  H35  1  0.34672599  0.65674520  0.79343336  1.0
  H  H36  1  0.49484773  0.35249769  0.21314757  1.0
  H  H37  1  0.50515268  0.64751516  0.78685483  1.0
  H  H38  1  0.94168755  0.35770126  0.20331484  1.0
  H  H39  1  0.05831524  0.64229777  0.79669026  1.0
  H  H40  1  0.78596940  0.37524972  0.20925277  1.0
  H  H41  1  0.21403379  0.62475196  0.79074910  1.0
  H  H42  1  0.81216171  0.29337490  0.43819873  1.0
  H  H43  1  0.18783467  0.70662536  0.56180460  1.0
  H  H44  1  0.97119693  0.28688880  0.43344365  1.0
  H  H45  1  0.02879836  0.71310485  0.56655885  1.0
  H  H46  1  0.16556708  0.59323430  0.21498272  1.0
  H  H47  1  0.83443525  0.40675814  0.78501939  1.0
  H  H48  1  0.15857576  0.75323407  0.21623923  1.0
  H  H49  1  0.84142608  0.24675969  0.78375953  1.0
  H  H50  1  0.31341605  0.78736465  0.43748971  1.0
  H  H51  1  0.68658060  0.21263364  0.56250860  1.0
  H  H52  1  0.31516495  0.62592497  0.43612570  1.0
  H  H53  1  0.68482982  0.37407329  0.56388018  1.0
  H  H54  1  0.24143970  0.05656706  0.44873686  1.0
  H  H55  1  0.75855379  0.94342789  0.55126325  1.0
  H  H56  1  0.23990503  0.89479149  0.44866485  1.0
  H  H57  1  0.76009085  0.10520613  0.55133281  1.0
  H  H58  1  0.22307828  0.88698110  0.20691430  1.0
  H  H59  1  0.77692264  0.11302320  0.79308294  1.0
  H  H60  1  0.21947687  0.04646769  0.20812918  1.0
  H  H61  1  0.78052601  0.95353597  0.79187548  1.0
  H  H62  1  0.24508426  0.46153336  0.13738679  1.0
  H  H63  1  0.75491727  0.53846632  0.86261485  1.0
  H  H64  1  0.24340862  0.47314210  0.99753015  1.0
  H  H65  1  0.75659623  0.52685763  0.00247241  1.0
  H  H66  1  0.20718857  0.18832455  0.97912430  1.0
  H  H67  1  0.79281108  0.81167576  0.02087605  1.0
  H  H68  1  0.21102295  0.18824606  0.11927761  1.0
  H  H69  1  0.78897714  0.81175295  0.88072275  1.0
  H  H70  1  0.20433740  0.20389609  0.51490744  1.0
  H  H71  1  0.79565851  0.79610549  0.48509309  1.0
  H  H72  1  0.18895106  0.19685285  0.65249629  1.0
  H  H73  1  0.81104208  0.80314803  0.34750281  1.0
  H  H74  1  0.27559970  0.48042050  0.67222441  1.0
  H  H75  1  0.72439817  0.51958111  0.32777522  1.0
  H  H76  1  0.28789737  0.47500154  0.53438874  1.0
  H  H77  1  0.71210184  0.52499613  0.46561149  1.0
  C  C78  1  0.00300809  0.73311338  0.00168718  1.0
  C  C79  1  0.99698433  0.26688750  0.99830685  1.0
  C  C80  1  0.99071840  0.68334444  0.93365721  1.0
  C  C81  1  0.00927259  0.31665971  0.06633785  1.0
  C  C82  1  0.98950224  0.59280103  0.93329706  1.0
  C  C83  1  0.01049701  0.40719731  0.06669763  1.0
  C  C84  1  0.00085726  0.54827766  0.00046247  1.0
  C  C85  1  0.99915215  0.45172678  0.99952846  1.0
  C  C86  1  0.01330380  0.59947479  0.06850200  1.0
  C  C87  1  0.98670719  0.40052703  0.93149126  1.0
  C  C88  1  0.01443330  0.69003617  0.06911176  1.0
  C  C89  1  0.98556971  0.30996487  0.93088452  1.0
  C  C90  1  0.00154833  0.83015195  0.00195949  1.0
  C  C91  1  0.99844864  0.16984833  0.99803779  1.0
  C  C92  1  0.72822168  0.98237165  0.99044772  1.0
  C  C93  1  0.27177763  0.01763064  0.00955264  1.0
  C  C94  1  0.66948732  0.98999924  0.92507880  1.0
  C  C95  1  0.33051585  0.00999849  0.07492131  1.0
  C  C96  1  0.58088348  0.99677581  0.92888353  1.0
  C  C97  1  0.41911982  0.00321535  0.07110865  1.0
  C  C98  1  0.54707475  0.99572960  0.99794582  1.0
  C  C99  1  0.45292140  0.00425816  0.00204551  1.0
  C  C100  1  0.60671944  0.98630723  0.06305318  1.0
  C  C101  1  0.39327354  0.01368509  0.93694014  1.0
  C  C102  1  0.69548491  0.98006524  0.05956172  1.0
  C  C103  1  0.30451134  0.01993436  0.94043936  1.0
  C  C104  1  0.82487533  0.97963265  0.98753241  1.0
  C  C105  1  0.17513111  0.02037237  0.01247545  1.0
  C  C106  1  0.98381487  0.91576484  0.76496889  1.0
  C  C107  1  0.01618402  0.08423876  0.23503312  1.0
  C  C108  1  0.98642377  0.91489817  0.68805775  1.0
  C  C109  1  0.01357424  0.08510014  0.31194349  1.0
  C  C110  1  0.00085198  0.99557107  0.65327042  1.0
  C  C111  1  0.99914512  0.00442987  0.34672856  1.0
  C  C112  1  0.01377057  0.07443114  0.69732786  1.0
  C  C113  1  0.98622884  0.92557181  0.30267197  1.0
  C  C114  1  0.01032473  0.06961253  0.77374927  1.0
  C  C115  1  0.98967458  0.93038580  0.22625043  1.0
  C  C116  1  0.00080758  0.99772637  0.57167095  1.0
  C  C117  1  0.99919418  0.00227463  0.42833131  1.0
  C  C118  1  0.50859552  0.35011520  0.33337167  1.0
  C  C119  1  0.49140193  0.64988772  0.66666667  1.0
  C  C120  1  0.56789679  0.34719693  0.39950503  1.0
  C  C121  1  0.43210480  0.65281066  0.60050237  1.0
  C  C122  1  0.65736485  0.34336721  0.39628321  1.0
  C  C123  1  0.34263627  0.65663773  0.60372186  1.0
  C  C124  1  0.69082885  0.34127015  0.32715704  1.0
  C  C125  1  0.30917224  0.65873480  0.67284524  1.0
  C  C126  1  0.63054408  0.34533117  0.26127214  1.0
  C  C127  1  0.36945407  0.65467571  0.73873265  1.0
  C  C128  1  0.54129616  0.35012397  0.26434365  1.0
  C  C129  1  0.45870816  0.64988037  0.73566174  1.0
  C  C130  1  0.41104669  0.34948502  0.33562045  1.0
  C  C131  1  0.58895557  0.65051466  0.66438683  1.0
  C  C132  1  0.96665329  0.32148183  0.31799045  1.0
  C  C133  1  0.03334649  0.67851518  0.68201150  1.0
  C  C134  1  0.91293928  0.34473787  0.25487244  1.0
  C  C135  1  0.08706152  0.65526113  0.74513189  1.0
  C  C136  1  0.82458266  0.35302836  0.25830524  1.0
  C  C137  1  0.17541941  0.64697462  0.74169599  1.0
  C  C138  1  0.78553673  0.33471279  0.32399570  1.0
  C  C139  1  0.21446374  0.66529215  0.67600985  1.0
  C  C140  1  0.83992862  0.30953320  0.38658835  1.0
  C  C141  1  0.16007355  0.69047045  0.61341179  1.0
  C  C142  1  0.92924464  0.30455667  0.38419783  1.0
  C  C143  1  0.07075188  0.69544029  0.61580654  1.0
  C  C144  1  0.06333038  0.31767008  0.31608796  1.0
  C  C145  1  0.93666875  0.68232693  0.68391391  1.0
  C  C146  1  0.23971636  0.59948438  0.32608892  1.0
  C  C147  1  0.76028422  0.40051726  0.67391545  1.0
  C  C148  1  0.19687332  0.63631874  0.26383682  1.0
  C  C149  1  0.80312814  0.36367632  0.73616748  1.0
  C  C150  1  0.19371048  0.72621194  0.26472885  1.0
  C  C151  1  0.80628325  0.27378104  0.73526345  1.0
  C  C152  1  0.23448466  0.78258138  0.32739379  1.0
  C  C153  1  0.76551564  0.21742291  0.67260673  1.0
  C  C154  1  0.27857304  0.74501887  0.38915656  1.0
  C  C155  1  0.72142776  0.25498014  0.61084777  1.0
  C  C156  1  0.28061675  0.65497298  0.38862761  1.0
  C  C157  1  0.71937740  0.34502198  0.61137146  1.0
  C  C158  1  0.24143411  0.50232778  0.32639729  1.0
  C  C159  1  0.75856860  0.49767059  0.67361001  1.0
  C  C160  1  0.23153328  0.06214100  0.32865302  1.0
  C  C161  1  0.76846769  0.93785934  0.67134747  1.0
  C  C162  1  0.23709663  0.01834956  0.39612133  1.0
  C  C163  1  0.76290007  0.98164873  0.60388031  1.0
  C  C164  1  0.23707726  0.92787315  0.39568572  1.0
  C  C165  1  0.76291877  0.07212118  0.60431409  1.0
  C  C166  1  0.23235274  0.87825436  0.32785871  1.0
  C  C167  1  0.76764392  0.12173998  0.67213950  1.0
  C  C168  1  0.22617968  0.92292071  0.26051795  1.0
  C  C169  1  0.77381697  0.07707758  0.73948035  1.0
  C  C170  1  0.22549464  0.01324039  0.26085524  1.0
  C  C171  1  0.77450569  0.98675993  0.73914684  1.0
  C  C172  1  0.23129121  0.15953733  0.32864118  1.0
  C  C173  1  0.76871141  0.84046501  0.67135953  1.0
  C  C174  1  0.23791601  0.40326274  0.09975506  1.0
  C  C175  1  0.76208617  0.59673695  0.90024554  1.0
  C  C176  1  0.23715065  0.40927555  0.02287387  1.0
  C  C177  1  0.76285395  0.59072287  0.97712640  1.0
  C  C178  1  0.22521745  0.33107474  0.97804206  1.0
  C  C179  1  0.77478672  0.66892498  0.02195987  1.0
  C  C180  1  0.21718580  0.25004266  0.01267051  1.0
  C  C181  1  0.78281658  0.74995440  0.98732838  1.0
  C  C182  1  0.21885509  0.24978649  0.09014096  1.0
  C  C183  1  0.78114491  0.75021185  0.90986104  1.0
  C  C184  1  0.21866588  0.33405179  0.89589460  1.0
  C  C185  1  0.78133717  0.66594528  0.10410547  1.0
  C  C186  1  0.22109641  0.33776605  0.75305421  1.0
  C  C187  1  0.77890851  0.66223435  0.24694615  1.0
  C  C188  1  0.21988761  0.26280238  0.55258397  1.0
  C  C189  1  0.78010631  0.73719521  0.44741569  1.0
  C  C190  1  0.21135651  0.25951752  0.62831717  1.0
  C  C191  1  0.78864014  0.74048869  0.37168244  1.0
  C  C192  1  0.23109566  0.33849713  0.67289304  1.0
  C  C193  1  0.76890267  0.66149921  0.32710707  1.0
  C  C194  1  0.25966048  0.41783561  0.63946562  1.0
  C  C195  1  0.74033794  0.58216535  0.36053350  1.0
  C  C196  1  0.26679630  0.41519599  0.56327144  1.0
  C  C197  1  0.73320224  0.58480563  0.43672882  1.0
  N  N198  1  0.99481026  0.99182560  0.80669420  1.0
  N  N199  1  0.00519036  0.00818066  0.19330584  1.0
  N  N200  1  0.97446980  0.92054968  0.53037293  1.0
  N  N201  1  0.02553426  0.07944938  0.46962897  1.0
  N  N202  1  0.02643948  0.07700998  0.54280934  1.0
  N  N203  1  0.97356392  0.92298907  0.45719138  1.0
  N  N204  1  0.22802451  0.32506001  0.13262109  1.0
  N  N205  1  0.77197549  0.67493833  0.86738035  1.0
  N  N206  1  0.23341612  0.41408702  0.86565358  1.0
  N  N207  1  0.76658782  0.58591138  0.13434663  1.0
  N  N208  1  0.23472164  0.41605188  0.79270958  1.0
  N  N209  1  0.76528220  0.58394586  0.20729171  1.0
  N  N210  1  0.19208124  0.25914201  0.78154798  1.0
  N  N211  1  0.80792314  0.74085508  0.21845224  1.0
  N  N212  1  0.19083853  0.25710552  0.85450643  1.0
  N  N213  1  0.80916585  0.74289157  0.14549379  1.0
  N  N214  1  0.24727211  0.33922037  0.52073654  1.0
  N  N215  1  0.75272577  0.66078124  0.47926309  1.0
  O  O216  1  0.98718594  0.86339829  0.93821897  1.0
  O  O217  1  0.01282237  0.13660678  0.06178020  1.0
  O  O218  1  0.01386195  0.87184777  0.06565788  1.0
  O  O219  1  0.98613242  0.12815247  0.93434245  1.0
  O  O220  1  0.85027339  0.97583465  0.92296198  1.0
  O  O221  1  0.14972934  0.02415975  0.07704689  1.0
  O  O222  1  0.87494195  0.98136998  0.05031726  1.0
  O  O223  1  0.12505838  0.01865012  0.94968808  1.0
  O  O224  1  0.36256993  0.35545899  0.27318636  1.0
  O  O225  1  0.63742883  0.64454000  0.72681330  1.0
  O  O226  1  0.38376079  0.34139591  0.39935988  1.0
  O  O227  1  0.61623842  0.65860176  0.60064035  1.0
  O  O228  1  0.08788451  0.30468323  0.25224156  1.0
  O  O229  1  0.91211386  0.69530915  0.74776068  1.0
  O  O230  1  0.11382862  0.32790105  0.37912151  1.0
  O  O231  1  0.88616894  0.67210253  0.62087924  1.0
  O  O232  1  0.21875855  0.45859849  0.26353264  1.0
  O  O233  1  0.78124433  0.54139725  0.73647072  1.0
  O  O234  1  0.26459882  0.47083954  0.38945541  1.0
  O  O235  1  0.73540142  0.52916011  0.61054888  1.0
  O  O236  1  0.22878243  0.19493856  0.26515522  1.0
  O  O237  1  0.77121936  0.80506244  0.73484982  1.0
  O  O238  1  0.23309182  0.19971081  0.39173819  1.0
  O  O239  1  0.76690805  0.80028687  0.60826212  1.0
