# generated using pymatgen
data_Al2H9C12NO12
_symmetry_space_group_name_H-M   'P 1'
_cell_length_a   6.67618521
_cell_length_b   13.38319468
_cell_length_c   17.04934608
_cell_angle_alpha   89.47222498
_cell_angle_beta   89.82042522
_cell_angle_gamma   89.68456041
_symmetry_Int_Tables_number   1
_chemical_formula_structural   Al2H9C12NO12
_chemical_formula_sum   'Al4 H18 C24 N2 O24'
_cell_volume   1523.24172146
_cell_formula_units_Z   2
loop_
 _symmetry_equiv_pos_site_id
 _symmetry_equiv_pos_as_xyz
  1  'x, y, z'
loop_
 _atom_site_type_symbol
 _atom_site_label
 _atom_site_symmetry_multiplicity
 _atom_site_fract_x
 _atom_site_fract_y
 _atom_site_fract_z
 _atom_site_occupancy
  Al  Al0  1  0.88930908  0.50649227  0.50283900  1.0
  Al  Al1  1  0.39190331  0.50229626  0.50172393  1.0
  Al  Al2  1  0.38446259  0.00059478  0.99608878  1.0
  Al  Al3  1  0.88273415  0.99845238  0.99520632  1.0
  H  H4  1  0.96700368  0.20540120  0.18813129  1.0
  H  H5  1  0.42452820  0.29485331  0.30924800  1.0
  H  H6  1  0.29253868  0.28383392  0.68820786  1.0
  H  H7  1  0.83070700  0.18805530  0.80017536  1.0
  H  H8  1  0.93718325  0.80935802  0.19198774  1.0
  H  H9  1  0.47728700  0.79147775  0.19165625  1.0
  H  H10  1  0.93923353  0.69652144  0.30613000  1.0
  H  H11  1  0.47846776  0.71078777  0.30619033  1.0
  H  H12  1  0.93451461  0.79547492  0.81281599  1.0
  H  H13  1  0.47843192  0.81631250  0.78956664  1.0
  H  H14  1  0.93541217  0.70110354  0.68820284  1.0
  H  H15  1  0.47743739  0.68668576  0.70861938  1.0
  H  H16  1  0.83469770  0.31435961  0.69310838  1.0
  H  H17  1  0.28763556  0.21757259  0.80921633  1.0
  H  H18  1  0.64770684  0.37545783  0.47834741  1.0
  H  H19  1  0.14451855  0.62727375  0.47103306  1.0
  H  H20  1  0.63681116  0.12305024  0.02865034  1.0
  H  H21  1  0.13700253  0.87581777  0.02655689  1.0
  C  C22  1  0.64076010  0.62471031  0.39403416  1.0
  C  C23  1  0.63413780  0.61506006  0.61240588  1.0
  C  C24  1  0.13724608  0.38196809  0.60609417  1.0
  C  C25  1  0.14158022  0.39033062  0.39090518  1.0
  C  C26  1  0.27595321  0.21781962  0.21460264  1.0
  C  C27  1  0.11950419  0.18430158  0.17255675  1.0
  C  C28  1  0.27826036  0.28204455  0.28246888  1.0
  C  C29  1  0.12440604  0.32858823  0.31840291  1.0
  C  C30  1  0.97821125  0.28443564  0.71360114  1.0
  C  C31  1  0.14371770  0.31194180  0.67323793  1.0
  C  C32  1  0.97554914  0.21737512  0.78100370  1.0
  C  C33  1  0.13826579  0.18953176  0.82281777  1.0
  C  C34  1  0.79220572  0.78398573  0.21422462  1.0
  C  C35  1  0.62794727  0.81379812  0.17416751  1.0
  C  C36  1  0.79327069  0.72076871  0.28387703  1.0
  C  C37  1  0.62988674  0.68976059  0.32393451  1.0
  C  C38  1  0.79084191  0.78092204  0.78459776  1.0
  C  C39  1  0.62638887  0.82466841  0.81560159  1.0
  C  C40  1  0.79104888  0.71772325  0.71577995  1.0
  C  C41  1  0.62663301  0.67670302  0.68351761  1.0
  C  C42  1  0.63087462  0.88745029  0.88626285  1.0
  C  C43  1  0.63724989  0.87906942  0.10393829  1.0
  C  C44  1  0.13251175  0.11703559  0.10411761  1.0
  C  C45  1  0.12904678  0.11964494  0.89017140  1.0
  N  N46  1  0.48438455  0.18596487  0.19356061  1.0
  N  N47  1  0.91551772  0.32368746  0.29090177  1.0
  O  O48  1  0.46523888  0.58486296  0.58714852  1.0
  O  O49  1  0.81249137  0.59815700  0.41980353  1.0
  O  O50  1  0.97435587  0.41306953  0.42169715  1.0
  O  O51  1  0.80401215  0.59699325  0.58091630  1.0
  O  O52  1  0.96785745  0.41550677  0.58348186  1.0
  O  O53  1  0.47159140  0.60021525  0.42407157  1.0
  O  O54  1  0.64254773  0.44287200  0.49844640  1.0
  O  O55  1  0.30631135  0.40335906  0.57488751  1.0
  O  O56  1  0.31562593  0.41266501  0.41389346  1.0
  O  O57  1  0.14171647  0.56406346  0.49925650  1.0
  O  O58  1  0.80859766  0.90801989  0.07972917  1.0
  O  O59  1  0.46055685  0.91899234  0.90998608  1.0
  O  O60  1  0.29699221  0.09907734  0.92231921  1.0
  O  O61  1  0.46816745  0.90069379  0.07268157  1.0
  O  O62  1  0.30477653  0.08675025  0.08237753  1.0
  O  O63  1  0.79880495  0.90503618  0.91850171  1.0
  O  O64  1  0.63364354  0.06107877  0.99948281  1.0
  O  O65  1  0.96502934  0.09606729  0.07308187  1.0
  O  O66  1  0.95928719  0.08584278  0.91151893  1.0
  O  O67  1  0.13498942  0.93879368  0.99801720  1.0
  O  O68  1  0.57593120  0.23970213  0.14651632  1.0
  O  O69  1  0.55166838  0.11248555  0.22881816  1.0
  O  O70  1  0.80933336  0.25641872  0.31861850  1.0
  O  O71  1  0.86141268  0.38901815  0.24387920  1.0
