# generated using pymatgen
data_Al2H18C29(NO3)4
_symmetry_space_group_name_H-M   'P 1'
_cell_length_a   6.67074301
_cell_length_b   22.35501291
_cell_length_c   25.59061019
_cell_angle_alpha   89.44743935
_cell_angle_beta   89.99170621
_cell_angle_gamma   89.91093716
_symmetry_Int_Tables_number   1
_chemical_formula_structural   Al2H18C29(NO3)4
_chemical_formula_sum   'Al4 H36 C58 N8 O24'
_cell_volume   3816.00602247
_cell_formula_units_Z   2
loop_
 _symmetry_equiv_pos_site_id
 _symmetry_equiv_pos_as_xyz
  1  'x, y, z'
loop_
 _atom_site_type_symbol
 _atom_site_label
 _atom_site_symmetry_multiplicity
 _atom_site_fract_x
 _atom_site_fract_y
 _atom_site_fract_z
 _atom_site_occupancy
  Al  Al0  1  0.71717666  0.74523558  0.74820985  1.0
  Al  Al1  1  0.28281899  0.25476551  0.25178987  1.0
  Al  Al2  1  0.21873822  0.74752295  0.74833384  1.0
  Al  Al3  1  0.78126042  0.25247903  0.25166979  1.0
  H  H4  1  0.27846207  0.87477428  0.86358493  1.0
  H  H5  1  0.72149298  0.12524648  0.13642403  1.0
  H  H6  1  0.36181737  0.14198914  0.13213975  1.0
  H  H7  1  0.63815747  0.85798824  0.86787072  1.0
  H  H8  1  0.23022206  0.00332118  0.00169314  1.0
  H  H9  1  0.76963715  0.99668257  0.99830855  1.0
  H  H10  1  0.62274433  0.93067905  0.94122580  1.0
  H  H11  1  0.37716601  0.06930190  0.05877684  1.0
  H  H12  1  0.73301938  0.05220511  0.06419633  1.0
  H  H13  1  0.26687567  0.94781922  0.93580635  1.0
  H  H14  1  0.23533761  0.90027515  0.65062812  1.0
  H  H15  1  0.76469249  0.09973041  0.34937821  1.0
  H  H16  1  0.22814509  0.97554708  0.57735167  1.0
  H  H17  1  0.77190299  0.02446520  0.42266633  1.0
  H  H18  1  0.32042439  0.10273077  0.47863419  1.0
  H  H19  1  0.67953942  0.89733024  0.52139359  1.0
  H  H20  1  0.21884559  0.37686679  0.13069393  1.0
  H  H21  1  0.78115308  0.62312938  0.86930388  1.0
  H  H22  1  0.23173555  0.45083462  0.05570014  1.0
  H  H23  1  0.76826761  0.54916289  0.94429922  1.0
  H  H24  1  0.12613341  0.56317857  0.94665077  1.0
  H  H25  1  0.87386824  0.43682252  0.05335169  1.0
  H  H26  1  0.13937547  0.63672141  0.87091943  1.0
  H  H27  1  0.86062768  0.36327923  0.12908381  1.0
  H  H28  1  0.21913618  0.37764474  0.37082812  1.0
  H  H29  1  0.78086691  0.62236172  0.62916922  1.0
  H  H30  1  0.23140875  0.45053031  0.44508424  1.0
  H  H31  1  0.76859436  0.54947436  0.55491350  1.0
  H  H32  1  0.12668885  0.56437212  0.55150191  1.0
  H  H33  1  0.87330837  0.43562091  0.44850492  1.0
  H  H34  1  0.13910620  0.63689459  0.62638498  1.0
  H  H35  1  0.86089552  0.36309755  0.37362303  1.0
  H  H36  1  0.47271262  0.82563916  0.74086797  1.0
  H  H37  1  0.52728748  0.17435524  0.25909234  1.0
  H  H38  1  0.97306246  0.67089010  0.73289620  1.0
  H  H39  1  0.02694217  0.32911233  0.26710156  1.0
  C  C40  1  0.46692065  0.67632633  0.82082663  1.0
  C  C41  1  0.53307502  0.32367029  0.17917235  1.0
  C  C42  1  0.46579759  0.67435868  0.67773424  1.0
  C  C43  1  0.53420853  0.32564420  0.32226547  1.0
  C  C44  1  0.96610211  0.81632554  0.67453325  1.0
  C  C45  1  0.03389046  0.18368717  0.32547185  1.0
  C  C46  1  0.96599947  0.81922852  0.81739953  1.0
  C  C47  1  0.03398873  0.18076674  0.18260806  1.0
  C  C48  1  0.95900630  0.86224019  0.86133157  1.0
  C  C49  1  0.04095039  0.13776088  0.13867520  1.0
  C  C50  1  0.13585809  0.88755458  0.88103131  1.0
  C  C51  1  0.86407604  0.11245634  0.11897499  1.0
  C  C52  1  0.12792214  0.92817411  0.92159399  1.0
  C  C53  1  0.87198496  0.07184128  0.07840877  1.0
  C  C54  1  0.94283809  0.94461187  0.94421104  1.0
  C  C55  1  0.05706009  0.05539322  0.05579180  1.0
  C  C56  1  0.76686080  0.91864144  0.92402210  1.0
  C  C57  1  0.23305846  0.08135158  0.07598044  1.0
  C  C58  1  0.77415229  0.87816014  0.88327945  1.0
  C  C59  1  0.22579549  0.12182841  0.11672781  1.0
  C  C60  1  0.92415756  0.98667355  0.98697433  1.0
  C  C61  1  0.07570762  0.01333378  0.01302771  1.0
  C  C62  1  0.03568300  0.14318430  0.37248293  1.0
  C  C63  1  0.96432753  0.85683513  0.62752837  1.0
  C  C64  1  0.88548431  0.09963099  0.37798619  1.0
  C  C65  1  0.11453222  0.90038799  0.62202316  1.0
  C  C66  1  0.88927187  0.05797453  0.41848227  1.0
  C  C67  1  0.11075661  0.94205206  0.58153209  1.0
  C  C68  1  0.04763356  0.05882858  0.45480815  1.0
  C  C69  1  0.95236785  0.94121365  0.54521899  1.0
  C  C70  1  0.19899861  0.10198722  0.45018041  1.0
  C  C71  1  0.80097727  0.89805993  0.54984239  1.0
  C  C72  1  0.18936408  0.14376574  0.40982159  1.0
  C  C73  1  0.81061787  0.85626844  0.59018959  1.0
  C  C74  1  0.46076898  0.63382531  0.86607136  1.0
  C  C75  1  0.53922967  0.36617488  0.13392837  1.0
  C  C76  1  0.63900672  0.60954493  0.88672892  1.0
  C  C77  1  0.36099194  0.39045303  0.11326887  1.0
  C  C78  1  0.63236854  0.56894446  0.92799024  1.0
  C  C79  1  0.36763312  0.43105350  0.07200912  1.0
  C  C80  1  0.44563622  0.55230426  0.94940268  1.0
  C  C81  1  0.55436693  0.44769504  0.05059862  1.0
  C  C82  1  0.26788419  0.57690351  0.92906876  1.0
  C  C83  1  0.73211746  0.42309714  0.07093253  1.0
  C  C84  1  0.27532800  0.61732978  0.88753984  1.0
  C  C85  1  0.72467065  0.38267042  0.11246184  1.0
  C  C86  1  0.46032637  0.63267296  0.63271691  1.0
  C  C87  1  0.53967677  0.36732947  0.36728397  1.0
  C  C88  1  0.63852783  0.60867619  0.61221217  1.0
  C  C89  1  0.36147529  0.39132714  0.38778675  1.0
  C  C90  1  0.63238140  0.56876070  0.57113377  1.0
  C  C91  1  0.36762172  0.43124308  0.42886515  1.0
  C  C92  1  0.44594583  0.55247039  0.54963854  1.0
  C  C93  1  0.55405434  0.44752801  0.45036434  1.0
  C  C94  1  0.26824227  0.57728895  0.56940155  1.0
  C  C95  1  0.73175491  0.42270766  0.43060290  1.0
  C  C96  1  0.27538132  0.61703715  0.61074058  1.0
  C  C97  1  0.72461887  0.38295812  0.38926427  1.0
  N  N98  1  0.07020226  0.01887865  0.49754568  1.0
  N  N99  1  0.92979910  0.98117119  0.50248218  1.0
  N  N100  1  0.41947940  0.51130329  0.99120033  1.0
  N  N101  1  0.58052525  0.48869690  0.00880135  1.0
  N  N102  1  0.41984776  0.51202333  0.50810076  1.0
  N  N103  1  0.58015390  0.48797552  0.49190133  1.0
  N  N104  1  0.34311268  0.19128250  0.41004343  1.0
  N  N105  1  0.65686475  0.80875213  0.58996189  1.0
  O  O106  1  0.29716230  0.69214120  0.69531881  1.0
  O  O107  1  0.70283785  0.30785944  0.30468287  1.0
  O  O108  1  0.63839509  0.69162549  0.80332844  1.0
  O  O109  1  0.36159010  0.30836844  0.19666587  1.0
  O  O110  1  0.79834700  0.80153095  0.79950286  1.0
  O  O111  1  0.20165323  0.19846074  0.20050514  1.0
  O  O112  1  0.63680784  0.68857565  0.69622601  1.0
  O  O113  1  0.36319974  0.31143215  0.30376741  1.0
  O  O114  1  0.79579888  0.80056841  0.69215252  1.0
  O  O115  1  0.20420569  0.19944341  0.30785337  1.0
  O  O116  1  0.29868458  0.69357424  0.80257492  1.0
  O  O117  1  0.70130507  0.30642729  0.19742832  1.0
  O  O118  1  0.46924454  0.78290978  0.74701258  1.0
  O  O119  1  0.53075410  0.21709220  0.25299105  1.0
  O  O120  1  0.13675042  0.80367119  0.69363196  1.0
  O  O121  1  0.86324070  0.19633482  0.30637163  1.0
  O  O122  1  0.13776038  0.80359461  0.80040205  1.0
  O  O123  1  0.86223680  0.19640379  0.19960473  1.0
  O  O124  1  0.96926223  0.71058202  0.74773268  1.0
  O  O125  1  0.03073790  0.28941952  0.25226587  1.0
  O  O126  1  0.52067966  0.17502548  0.41040467  1.0
  O  O127  1  0.28278094  0.24344308  0.41227519  1.0
  O  O128  1  0.47929620  0.82501766  0.58959277  1.0
  O  O129  1  0.71719350  0.75659290  0.58773559  1.0
