# generated using pymatgen
data_ZnH6C17N3O4
_symmetry_space_group_name_H-M   'P 1'
_cell_length_a   9.65919710
_cell_length_b   10.97171461
_cell_length_c   15.34878638
_cell_angle_alpha   90.83769316
_cell_angle_beta   92.13345275
_cell_angle_gamma   90.12396748
_symmetry_Int_Tables_number   1
_chemical_formula_structural   ZnH6C17N3O4
_chemical_formula_sum   'Zn2 H12 C34 N6 O8'
_cell_volume   1625.32574182
_cell_formula_units_Z   2
loop_
 _symmetry_equiv_pos_site_id
 _symmetry_equiv_pos_as_xyz
  1  'x, y, z'
loop_
 _atom_site_type_symbol
 _atom_site_label
 _atom_site_symmetry_multiplicity
 _atom_site_fract_x
 _atom_site_fract_y
 _atom_site_fract_z
 _atom_site_occupancy
  Zn  Zn0  1  0.35518508  0.50039620  0.49551491  1.0
  Zn  Zn1  1  0.64481302  0.49959309  0.50448265  1.0
  H  H2  1  0.34365858  0.63558623  0.21988162  1.0
  H  H3  1  0.65633750  0.36441038  0.78011726  1.0
  H  H4  1  0.26722979  0.73383296  0.91798370  1.0
  H  H5  1  0.73277456  0.26617640  0.08201404  1.0
  H  H6  1  0.72230486  0.88709898  0.51575112  1.0
  H  H7  1  0.27768434  0.11288861  0.48425937  1.0
  H  H8  1  0.72155589  0.11580979  0.51310183  1.0
  H  H9  1  0.27843217  0.88417777  0.48690539  1.0
  H  H10  1  0.86001496  0.35814204  0.40915777  1.0
  H  H11  1  0.13998312  0.64185636  0.59083854  1.0
  H  H12  1  0.87573575  0.64124557  0.59276788  1.0
  H  H13  1  0.12426240  0.35874921  0.40723102  1.0
  C  C14  1  0.50045607  0.73653045  0.50281069  1.0
  C  C15  1  0.49953807  0.26345708  0.49719268  1.0
  C  C16  1  0.33086807  0.66812615  0.95385032  1.0
  C  C17  1  0.66913834  0.33188594  0.04614680  1.0
  C  C18  1  0.62559466  0.93749001  0.50894381  1.0
  C  C19  1  0.37438939  0.06250032  0.49106730  1.0
  C  C20  1  0.62525466  0.06409697  0.50735025  1.0
  C  C21  1  0.37474159  0.93589786  0.49265384  1.0
  C  C22  1  0.49961879  0.12730578  0.49837726  1.0
  C  C23  1  0.50037539  0.87268996  0.50162681  1.0
  C  C24  1  0.92332331  0.42076388  0.44971960  1.0
  C  C25  1  0.07667279  0.57923364  0.55027994  1.0
  C  C26  1  0.93263766  0.57854583  0.55170117  1.0
  C  C27  1  0.06735946  0.42144895  0.44829771  1.0
  C  C28  1  0.50508122  0.50128667  0.67157935  1.0
  C  C29  1  0.49493457  0.49871997  0.32841979  1.0
  C  C30  1  0.58777820  0.41798411  0.18600685  1.0
  C  C31  1  0.41223343  0.58203163  0.81399164  1.0
  C  C32  1  0.49837534  0.49670436  0.23046681  1.0
  C  C33  1  0.50163418  0.50330226  0.76953096  1.0
  C  C34  1  0.41222345  0.57601481  0.18389475  1.0
  C  C35  1  0.58778104  0.42398821  0.81610751  1.0
  C  C36  1  0.41409707  0.58142527  0.09280361  1.0
  C  C37  1  0.58590324  0.41858047  0.90719732  1.0
  C  C38  1  0.49990701  0.49937089  0.04636599  1.0
  C  C39  1  0.50009426  0.50063574  0.95363235  1.0
  C  C40  1  0.58649327  0.41557574  0.09333829  1.0
  C  C41  1  0.41351641  0.58443366  0.90666406  1.0
  C  C42  1  0.33095786  0.66748535  0.04353651  1.0
  C  C43  1  0.66904550  0.33251673  0.95646313  1.0
  C  C44  1  0.68037971  0.33921704  0.23276868  1.0
  C  C45  1  0.31963599  0.66080233  0.76722728  1.0
  C  C46  1  0.24896175  0.75338087  0.08941402  1.0
  C  C47  1  0.75102507  0.24663852  0.91058553  1.0
  N  N48  1  0.14230306  0.50042036  0.49835721  1.0
  N  N49  1  0.85769405  0.49957351  0.50164167  1.0
  N  N50  1  0.75945632  0.27358928  0.26735759  1.0
  N  N51  1  0.24056157  0.72642375  0.73264226  1.0
  N  N52  1  0.18341157  0.82313791  0.12859845  1.0
  N  N53  1  0.81658935  0.17686770  0.87138945  1.0
  O  O54  1  0.38299241  0.68313061  0.49755993  1.0
  O  O55  1  0.61699104  0.31685954  0.50243292  1.0
  O  O56  1  0.38233045  0.31693681  0.49145057  1.0
  O  O57  1  0.61765867  0.68305350  0.50855732  1.0
  O  O58  1  0.38843367  0.50150819  0.63089675  1.0
  O  O59  1  0.61156857  0.49849478  0.36910027  1.0
  O  O60  1  0.37565462  0.50186990  0.36021029  1.0
  O  O61  1  0.62434773  0.49811761  0.63979057  1.0
