# generated using pymatgen
data_Al2H3C19SCl2O13
_symmetry_space_group_name_H-M   'P 1'
_cell_length_a   6.79948453
_cell_length_b   19.34265498
_cell_length_c   21.35175962
_cell_angle_alpha   86.91132721
_cell_angle_beta   85.88824153
_cell_angle_gamma   86.09700430
_symmetry_Int_Tables_number   1
_chemical_formula_structural   Al2H3C19SCl2O13
_chemical_formula_sum   'Al4 H6 C38 S2 Cl4 O26'
_cell_volume   2791.07103165
_cell_formula_units_Z   2
loop_
 _symmetry_equiv_pos_site_id
 _symmetry_equiv_pos_as_xyz
  1  'x, y, z'
loop_
 _atom_site_type_symbol
 _atom_site_label
 _atom_site_symmetry_multiplicity
 _atom_site_fract_x
 _atom_site_fract_y
 _atom_site_fract_z
 _atom_site_occupancy
  Al  Al0  1  0.79340705  0.26356605  0.25999779  1.0
  Al  Al1  1  0.21254649  0.73617713  0.73891329  1.0
  Al  Al2  1  0.29350672  0.26296196  0.26134386  1.0
  Al  Al3  1  0.71219214  0.73706673  0.73780891  1.0
  H  H4  1  0.57117390  0.00390012  0.91668935  1.0
  H  H5  1  0.56891873  0.16325164  0.01737393  1.0
  H  H6  1  0.56370448  0.17393192  0.24912246  1.0
  H  H7  1  0.44072885  0.82369971  0.75646065  1.0
  H  H8  1  0.02679851  0.35454693  0.26131421  1.0
  H  H9  1  0.97682066  0.64521770  0.74368584  1.0
  C  C10  1  0.54557835  0.34814871  0.17365240  1.0
  C  C11  1  0.46118744  0.65123872  0.82516018  1.0
  C  C12  1  0.51026725  0.34338852  0.34334941  1.0
  C  C13  1  0.49553922  0.65707808  0.65533711  1.0
  C  C14  1  0.03886670  0.17627976  0.34519909  1.0
  C  C15  1  0.96584503  0.82349876  0.65391058  1.0
  C  C16  1  0.07884164  0.18326577  0.17773480  1.0
  C  C17  1  0.92834215  0.81641962  0.82147449  1.0
  C  C18  1  0.90240335  0.03556406  0.95529405  1.0
  C  C19  1  0.11764795  0.96386757  0.04357163  1.0
  C  C20  1  0.11868208  0.04963188  0.96934884  1.0
  C  C21  1  0.89953729  0.94978726  0.02921015  1.0
  C  C22  1  0.09413205  0.13525453  0.12785760  1.0
  C  C23  1  0.91581394  0.86433133  0.87140452  1.0
  C  C24  1  0.84271877  0.03002920  0.02762061  1.0
  C  C25  1  0.17584875  0.96965243  0.97078580  1.0
  C  C26  1  0.05938567  0.04522711  0.04261647  1.0
  C  C27  1  0.95871279  0.95453017  0.95594837  1.0
  C  C28  1  0.09217845  0.09320343  0.08772310  1.0
  C  C29  1  0.92436005  0.90652855  0.91102097  1.0
  C  C30  1  0.97125647  0.87668956  0.60407794  1.0
  C  C31  1  0.03345987  0.12334244  0.39520027  1.0
  C  C32  1  0.98271850  0.92399287  0.56363001  1.0
  C  C33  1  0.02224181  0.07607375  0.43569311  1.0
  C  C34  1  0.99595208  0.97598601  0.51972360  1.0
  C  C35  1  0.00922874  0.02411486  0.47964301  1.0
  C  C36  1  0.54194885  0.39485705  0.11877949  1.0
  C  C37  1  0.46432069  0.60469383  0.88017111  1.0
  C  C38  1  0.52819889  0.43522315  0.07273206  1.0
  C  C39  1  0.47755430  0.56458344  0.92639998  1.0
  C  C40  1  0.51145240  0.47951077  0.02258758  1.0
  C  C41  1  0.49401539  0.52041606  0.97664119  1.0
  C  C42  1  0.49666413  0.39119252  0.39307730  1.0
  C  C43  1  0.50952303  0.60895763  0.60580783  1.0
  C  C44  1  0.49749346  0.43291518  0.43432055  1.0
  C  C45  1  0.50814638  0.56691790  0.56486531  1.0
  C  C46  1  0.50014566  0.47865511  0.47920618  1.0
  C  C47  1  0.50508470  0.52094367  0.52020516  1.0
  S  S48  1  0.36588288  0.92551149  0.92455780  1.0
  S  S49  1  0.63432426  0.06872083  0.06950364  1.0
  Cl  Cl50  1  0.24438544  0.11456262  0.92895311  1.0
  Cl  Cl51  1  0.76785926  0.88600947  0.06704961  1.0
  Cl  Cl52  1  0.77900506  0.08416238  0.89773454  1.0
  Cl  Cl53  1  0.24130518  0.91780512  0.10065234  1.0
  O  O54  1  0.34908211  0.32428091  0.32515614  1.0
  O  O55  1  0.65636855  0.67583021  0.67399371  1.0
  O  O56  1  0.71423960  0.32996042  0.19375342  1.0
  O  O57  1  0.29294444  0.66858342  0.80438772  1.0
  O  O58  1  0.90305817  0.20171772  0.19740275  1.0
  O  O59  1  0.10389212  0.79717542  0.80212289  1.0
  O  O60  1  0.68526808  0.32581428  0.32195693  1.0
  O  O61  1  0.32031972  0.67517153  0.67608534  1.0
  O  O62  1  0.87212087  0.19705027  0.32498924  1.0
  O  O63  1  0.13226093  0.80301457  0.67443328  1.0
  O  O64  1  0.37699188  0.33057753  0.19663523  1.0
  O  O65  1  0.62990344  0.66924013  0.80263470  1.0
  O  O66  1  0.55159295  0.22212314  0.26017817  1.0
  O  O67  1  0.45388802  0.77787334  0.73954035  1.0
  O  O68  1  0.20851614  0.19590347  0.32554432  1.0
  O  O69  1  0.79631447  0.80356796  0.67318527  1.0
  O  O70  1  0.23933096  0.20120054  0.19726452  1.0
  O  O71  1  0.76743262  0.79965186  0.80139335  1.0
  O  O72  1  0.03613823  0.30444051  0.25984413  1.0
  O  O73  1  0.96950825  0.69542655  0.73921264  1.0
  O  O74  1  0.38272893  0.85491357  0.94781695  1.0
  O  O75  1  0.33532173  0.94574344  0.85997683  1.0
  O  O76  1  0.55378844  0.96134083  0.94378921  1.0
  O  O77  1  0.46279440  0.04816084  0.04181208  1.0
  O  O78  1  0.66172268  0.05830178  0.13504988  1.0
  O  O79  1  0.65807294  0.14957560  0.05069738  1.0
