# generated using pymatgen
data_Zn4H34C59N4(ClO13)2
_symmetry_space_group_name_H-M   'P 1'
_cell_length_a   9.76665343
_cell_length_b   11.06974232
_cell_length_c   21.83451666
_cell_angle_alpha   89.73356386
_cell_angle_beta   89.02449343
_cell_angle_gamma   89.66779238
_symmetry_Int_Tables_number   1
_chemical_formula_structural   Zn4H34C59N4(ClO13)2
_chemical_formula_sum   'Zn4 H34 C59 N4 Cl2 O26'
_cell_volume   2360.21802063
_cell_formula_units_Z   1
loop_
 _symmetry_equiv_pos_site_id
 _symmetry_equiv_pos_as_xyz
  1  'x, y, z'
loop_
 _atom_site_type_symbol
 _atom_site_label
 _atom_site_symmetry_multiplicity
 _atom_site_fract_x
 _atom_site_fract_y
 _atom_site_fract_z
 _atom_site_occupancy
  Zn  Zn0  1  0.34383911  0.47420202  0.51145509  1.0
  Zn  Zn1  1  0.62742172  0.47242059  0.49995722  1.0
  Zn  Zn2  1  0.66278016  0.52506279  0.00368791  1.0
  Zn  Zn3  1  0.37705221  0.52546242  0.00186655  1.0
  H  H4  1  0.83008900  0.36920135  0.57804017  1.0
  H  H5  1  0.89237029  0.56143033  0.36299496  1.0
  H  H6  1  0.88290554  0.69453444  0.40922822  1.0
  H  H7  1  0.14278075  0.68661151  0.42097078  1.0
  H  H8  1  0.14983509  0.55458819  0.37436217  1.0
  H  H9  1  0.26785759  0.87306682  0.47494523  1.0
  H  H10  1  0.76503139  0.83352609  0.56983319  1.0
  H  H11  1  0.81409356  0.84912335  0.49123450  1.0
  H  H12  1  0.82394498  0.07492795  0.50233922  1.0
  H  H13  1  0.77139416  0.05998342  0.58114008  1.0
  H  H14  1  0.29873355  0.34669744  0.12825228  1.0
  H  H15  1  0.24747251  0.32331976  0.35497885  1.0
  H  H16  1  0.66407007  0.54494317  0.31712522  1.0
  H  H17  1  0.68210313  0.56551585  0.20321856  1.0
  H  H18  1  0.74099459  0.56883723  0.80768292  1.0
  H  H19  1  0.19897786  0.49447591  0.80976959  1.0
  H  H20  1  0.20210262  0.65504694  0.81019975  1.0
  H  H21  1  0.20779978  0.65339626  0.69409769  1.0
  H  H22  1  0.20192296  0.49301746  0.69592929  1.0
  H  H23  1  0.16068263  0.45832533  0.90923580  1.0
  H  H24  1  0.13718282  0.52191849  0.14558592  1.0
  H  H25  1  0.12376180  0.67422865  0.11931409  1.0
  H  H26  1  0.86392925  0.65397859  0.11748744  1.0
  H  H27  1  0.88002851  0.49983434  0.14229276  1.0
  H  H28  1  0.75164328  0.91408916  0.02709769  1.0
  H  H29  1  0.23858993  0.89842511  0.94803338  1.0
  H  H30  1  0.20399760  0.90393072  0.02848460  1.0
  H  H31  1  0.19809475  0.13147452  0.02395000  1.0
  H  H32  1  0.23122537  0.12622875  0.94348632  1.0
  H  H33  1  0.94711883  0.21779019  0.59440669  1.0
  H  H34  1  0.17887104  0.07529762  0.55834321  1.0
  H  H35  1  0.86672556  0.46373769  0.74562588  1.0
  H  H36  1  0.74244010  0.33368122  0.93161100  1.0
  H  H37  1  0.85270031  0.09588652  0.95249107  1.0
  C  C38  1  0.47366960  0.70830559  0.49203623  1.0
  C  C39  1  0.47535453  0.44903543  0.38567038  1.0
  C  C40  1  0.49837165  0.23747928  0.51188224  1.0
  C  C41  1  0.51516925  0.52313351  0.61946838  1.0
  C  C42  1  0.54036891  0.75767186  0.01235730  1.0
  C  C43  1  0.50610758  0.49299388  0.12007457  1.0
  C  C44  1  0.52202957  0.28543602  0.99926758  1.0
  C  C45  1  0.52167523  0.55061228  0.88521838  1.0
  C  C46  1  0.92435163  0.52712821  0.46087820  1.0
  C  C47  1  0.04161859  0.40176358  0.55007918  1.0
  C  C48  1  0.06672207  0.52218160  0.46714679  1.0
  C  C49  1  0.89955211  0.41040630  0.54454624  1.0
  C  C50  1  0.93106531  0.60520646  0.40420089  1.0
  C  C51  1  0.09282693  0.60053020  0.41125276  1.0
  C  C52  1  0.47968580  0.84297727  0.49596835  1.0
  C  C53  1  0.49107758  0.10324859  0.50649519  1.0
  C  C54  1  0.59937946  0.90326412  0.51078964  1.0
  C  C55  1  0.36869844  0.04286646  0.49117047  1.0
  C  C56  1  0.60418750  0.02895104  0.51607175  1.0
  C  C57  1  0.36380959  0.91667431  0.48659727  1.0
  C  C58  1  0.74797764  0.88619989  0.52785581  1.0
  C  C59  1  0.75354971  0.02846575  0.53421597  1.0
  C  C60  1  0.49767051  0.46830544  0.18738433  1.0
  C  C61  1  0.38570248  0.40333532  0.21435613  1.0
  C  C62  1  0.59709227  0.51636091  0.22429759  1.0
  C  C63  1  0.28710136  0.34562869  0.17786156  1.0
  C  C64  1  0.17467346  0.28931886  0.20381815  1.0
  C  C65  1  0.47643965  0.44841838  0.31668287  1.0
  C  C66  1  0.58645187  0.50576806  0.28817781  1.0
  C  C67  1  0.37263100  0.39497256  0.28011051  1.0
  C  C68  1  0.25793927  0.33295090  0.30556398  1.0
  C  C69  1  0.15912542  0.28420531  0.26866630  1.0
  C  C70  1  0.52196316  0.56441006  0.81754504  1.0
  C  C71  1  0.52347842  0.55646771  0.68554342  1.0
  C  C72  1  0.40187191  0.57084511  0.78437955  1.0
  C  C73  1  0.64793782  0.56221038  0.71869356  1.0
  C  C74  1  0.40362746  0.56822747  0.72026231  1.0
  C  C75  1  0.64520867  0.56549206  0.78280875  1.0
  C  C76  1  0.24693365  0.57409678  0.78868143  1.0
  C  C77  1  0.24892919  0.57225575  0.71646056  1.0
  C  C78  1  0.08500670  0.53867952  0.04812913  1.0
  C  C79  1  0.95542936  0.46568879  0.94834246  1.0
  C  C80  1  0.94275795  0.52849142  0.04659627  1.0
  C  C81  1  0.09837554  0.47808923  0.94979172  1.0
  C  C82  1  0.08483336  0.58226092  0.11347457  1.0
  C  C83  1  0.92288283  0.56992088  0.11200919  1.0
  C  C84  1  0.53653555  0.89222196  0.01144686  1.0
  C  C85  1  0.52895255  0.15209924  0.00565889  1.0
  C  C86  1  0.41562256  0.95615583  0.00222836  1.0
  C  C87  1  0.65286246  0.08809644  0.01621334  1.0
  C  C88  1  0.41229787  0.08215714  0.99958367  1.0
  C  C89  1  0.65562532  0.96166851  0.01857589  1.0
  C  C90  1  0.26372363  0.94470851  0.99074859  1.0
  C  C91  1  0.25982381  0.08750790  0.98790637  1.0
  C  C92  1  0.09992245  0.32789638  0.60157192  1.0
  C  C93  1  0.23992073  0.11108476  0.47593253  1.0
  C  C94  1  0.78426108  0.57562582  0.68636009  1.0
  C  C95  1  0.89693911  0.41888023  0.88905081  1.0
  C  C96  1  0.78361546  0.15238908  0.03053544  1.0
  N  N97  1  0.83791423  0.47386111  0.49939116  1.0
  N  N98  1  0.12955611  0.46215710  0.51137432  1.0
  N  N99  1  0.16597573  0.51578768  0.00002204  1.0
  N  N100  1  0.87396751  0.49410080  0.99781184  1.0
  Cl  Cl101  1  0.05216482  0.23064699  0.15651169  1.0
  Cl  Cl102  1  0.01624774  0.21778341  0.30138543  1.0
  O  O103  1  0.35769499  0.65859498  0.48548237  1.0
  O  O104  1  0.58882820  0.65412635  0.49665049  1.0
  O  O105  1  0.59335519  0.45783194  0.40944605  1.0
  O  O106  1  0.36224943  0.44424812  0.41516203  1.0
  O  O107  1  0.61632757  0.28455475  0.50670429  1.0
  O  O108  1  0.38545557  0.29370003  0.52078891  1.0
  O  O109  1  0.40047788  0.54195570  0.59415756  1.0
  O  O110  1  0.61894148  0.47295454  0.59417676  1.0
  O  O111  1  0.65502201  0.70573409  0.02224947  1.0
  O  O112  1  0.42699039  0.70601877  0.00211892  1.0
  O  O113  1  0.39491896  0.52344812  0.09416691  1.0
  O  O114  1  0.62313486  0.48459464  0.09368684  1.0
  O  O115  1  0.40759852  0.33636006  0.00847644  1.0
  O  O116  1  0.63326008  0.34126566  0.98461509  1.0
  O  O117  1  0.63380918  0.56511821  0.91333799  1.0
  O  O118  1  0.40722953  0.52205654  0.91052372  1.0
  O  O119  1  0.01924419  0.23669206  0.62333507  1.0
  O  O120  1  0.20946499  0.34831991  0.62438678  1.0
  O  O121  1  0.13995556  0.10893375  0.52093118  1.0
  O  O122  1  0.21577221  0.15757374  0.42683970  1.0
  O  O123  1  0.89077922  0.50872828  0.70812162  1.0
  O  O124  1  0.80512918  0.64549134  0.64392258  1.0
  O  O125  1  0.79504527  0.34056070  0.89118760  1.0
  O  O126  1  0.95156009  0.44865450  0.84024388  1.0
  O  O127  1  0.88770111  0.13863634  0.98798760  1.0
  O  O128  1  0.80349235  0.20812178  0.07721039  1.0
