# generated using pymatgen
data_ZnH4C18N3(ClO)4
_symmetry_space_group_name_H-M   'P 1'
_cell_length_a   14.82304706
_cell_length_b   16.16588341
_cell_length_c   19.40263577
_cell_angle_alpha   90.00391236
_cell_angle_beta   90.02337531
_cell_angle_gamma   89.56453618
_symmetry_Int_Tables_number   1
_chemical_formula_structural   ZnH4C18N3(ClO)4
_chemical_formula_sum   'Zn2 H8 C36 N6 Cl8 O8'
_cell_volume   4649.27334324
_cell_formula_units_Z   2
loop_
 _symmetry_equiv_pos_site_id
 _symmetry_equiv_pos_as_xyz
  1  'x, y, z'
loop_
 _atom_site_type_symbol
 _atom_site_label
 _atom_site_symmetry_multiplicity
 _atom_site_fract_x
 _atom_site_fract_y
 _atom_site_fract_z
 _atom_site_occupancy
  Zn  Zn0  1  0.40546141  0.50375848  0.50003567  1.0
  Zn  Zn1  1  0.59453929  0.49624044  0.49996389  1.0
  H  H2  1  0.41318133  0.39345496  0.84936726  1.0
  H  H3  1  0.58680986  0.60655883  0.15063694  1.0
  H  H4  1  0.41310998  0.39344237  0.15058176  1.0
  H  H5  1  0.58688527  0.60656708  0.84941523  1.0
  H  H6  1  0.35953799  0.92130985  0.52363760  1.0
  H  H7  1  0.64046069  0.07869031  0.47635991  1.0
  H  H8  1  0.35634014  0.07555390  0.52352813  1.0
  H  H9  1  0.64365786  0.92444627  0.47646937  1.0
  C  C10  1  0.49995732  0.66062955  0.50002487  1.0
  C  C11  1  0.50003865  0.33937247  0.49997572  1.0
  C  C12  1  0.49659325  0.17479915  0.49990352  1.0
  C  C13  1  0.50340339  0.82520473  0.50009605  1.0
  C  C14  1  0.50364544  0.74981057  0.50010625  1.0
  C  C15  1  0.49635326  0.25018526  0.49989383  1.0
  C  C16  1  0.04734854  0.50021907  0.56375038  1.0
  C  C17  1  0.95265079  0.49978542  0.43624764  1.0
  C  C18  1  0.04732183  0.49930041  0.43626874  1.0
  C  C19  1  0.95267953  0.50070345  0.56372876  1.0
  C  C20  1  0.09355738  0.49961628  0.50001525  1.0
  C  C21  1  0.90644196  0.50038697  0.49998431  1.0
  C  C22  1  0.18916764  0.49978220  0.50002971  1.0
  C  C23  1  0.81083508  0.50021919  0.49996934  1.0
  C  C24  1  0.49996441  0.50001155  0.63424365  1.0
  C  C25  1  0.50003563  0.49998737  0.36576055  1.0
  C  C26  1  0.45154819  0.44065565  0.74964727  1.0
  C  C27  1  0.54845047  0.55934698  0.25035538  1.0
  C  C28  1  0.45147354  0.44069239  0.25033004  1.0
  C  C29  1  0.54852918  0.55930899  0.74967056  1.0
  C  C30  1  0.45102970  0.44006300  0.82137973  1.0
  C  C31  1  0.54896354  0.55994583  0.17862241  1.0
  C  C32  1  0.45095625  0.44007130  0.17859538  1.0
  C  C33  1  0.54904442  0.55993628  0.82140315  1.0
  C  C34  1  0.50003581  0.50000880  0.85753241  1.0
  C  C35  1  0.49995673  0.50000437  0.14246716  1.0
  C  C36  1  0.50004589  0.49998009  0.71195012  1.0
  C  C37  1  0.49995615  0.50002129  0.28804893  1.0
  C  C38  1  0.49997576  0.50000296  0.06669292  1.0
  C  C39  1  0.50001338  0.50001579  0.93330768  1.0
  C  C40  1  0.41893495  0.04202892  0.51325800  1.0
  C  C41  1  0.58106507  0.95797310  0.48673951  1.0
  C  C42  1  0.42068557  0.95622587  0.51335101  1.0
  C  C43  1  0.57931177  0.04377121  0.48664804  1.0
  C  C44  1  0.49815870  0.08725628  0.49991622  1.0
  C  C45  1  0.50183863  0.91274326  0.50008180  1.0
  N  N46  1  0.55131525  0.55683557  0.96613236  1.0
  N  N47  1  0.44866442  0.44318939  0.03386823  1.0
  N  N48  1  0.55129191  0.55682676  0.03392393  1.0
  N  N49  1  0.44868776  0.44319820  0.96607563  1.0
  N  N50  1  0.73262853  0.49956692  0.49998958  1.0
  N  N51  1  0.26736813  0.50043201  0.50000999  1.0
  Cl  Cl52  1  0.39223577  0.36423400  0.70703386  1.0
  Cl  Cl53  1  0.60775816  0.63577175  0.29297086  1.0
  Cl  Cl54  1  0.39220944  0.36425441  0.29291433  1.0
  Cl  Cl55  1  0.60779871  0.63574015  0.70708162  1.0
  Cl  Cl56  1  0.89307070  0.50174684  0.63859429  1.0
  Cl  Cl57  1  0.10692864  0.49825703  0.36140424  1.0
  Cl  Cl58  1  0.89300738  0.49975745  0.36135259  1.0
  Cl  Cl59  1  0.10699262  0.50024827  0.63864594  1.0
  O  O60  1  0.42140491  0.62937838  0.50018684  1.0
  O  O61  1  0.57859243  0.37061993  0.49981375  1.0
  O  O62  1  0.42477306  0.37835414  0.50020029  1.0
  O  O63  1  0.57522562  0.62164541  0.49980082  1.0
  O  O64  1  0.42368659  0.50885770  0.60553441  1.0
  O  O65  1  0.57631411  0.49114246  0.39446670  1.0
  O  O66  1  0.42390813  0.50880649  0.39459248  1.0
  O  O67  1  0.57609664  0.49118933  0.60540554  1.0
