# generated using pymatgen
data_ZnH12C10(NO2)2
_symmetry_space_group_name_H-M   'P 1'
_cell_length_a   10.20639219
_cell_length_b   17.60834267
_cell_length_c   17.61240991
_cell_angle_alpha   60.00081515
_cell_angle_beta   89.99993223
_cell_angle_gamma   90.00003173
_symmetry_Int_Tables_number   1
_chemical_formula_structural   ZnH12C10(NO2)2
_chemical_formula_sum   'Zn6 H72 C60 N12 O24'
_cell_volume   2741.21889915
_cell_formula_units_Z   6
loop_
 _symmetry_equiv_pos_site_id
 _symmetry_equiv_pos_as_xyz
  1  'x, y, z'
loop_
 _atom_site_type_symbol
 _atom_site_label
 _atom_site_symmetry_multiplicity
 _atom_site_fract_x
 _atom_site_fract_y
 _atom_site_fract_z
 _atom_site_occupancy
  Zn  Zn0  1  0.00955360  0.07747791  0.45829566  1.0
  Zn  Zn1  1  0.17635415  0.54149181  0.53587067  1.0
  Zn  Zn2  1  0.34284824  0.46408186  0.07743096  1.0
  Zn  Zn3  1  0.50955532  0.92252110  0.54170328  1.0
  Zn  Zn4  1  0.67635551  0.45850839  0.46412940  1.0
  Zn  Zn5  1  0.84284882  0.53591816  0.92256957  1.0
  H  H6  1  0.78118193  0.09870134  0.33584732  1.0
  H  H7  1  0.94811772  0.66387235  0.43465451  1.0
  H  H8  1  0.11466578  0.56533610  0.09875047  1.0
  H  H9  1  0.28118164  0.90129725  0.66415262  1.0
  H  H10  1  0.44811799  0.33612866  0.56534525  1.0
  H  H11  1  0.61466630  0.43466282  0.90125098  1.0
  H  H12  1  0.71944142  0.20491782  0.18016374  1.0
  H  H13  1  0.88634479  0.81958113  0.38522352  1.0
  H  H14  1  0.05309154  0.61475255  0.20502867  1.0
  H  H15  1  0.21944071  0.79508185  0.81983628  1.0
  H  H16  1  0.38634383  0.18041983  0.61477630  1.0
  H  H17  1  0.55309223  0.38524688  0.79497285  1.0
  H  H18  1  0.08958329  0.33558580  0.15348047  1.0
  H  H19  1  0.25639536  0.84627153  0.48925035  1.0
  H  H20  1  0.42326819  0.51067251  0.33554516  1.0
  H  H21  1  0.58958317  0.66441409  0.84651903  1.0
  H  H22  1  0.75639437  0.15372898  0.51075028  1.0
  H  H23  1  0.92326729  0.48932734  0.66445463  1.0
  H  H24  1  0.13368584  0.22665569  0.30999227  1.0
  H  H25  1  0.30049603  0.68972373  0.53685100  1.0
  H  H26  1  0.46710160  0.46302292  0.22663989  1.0
  H  H27  1  0.63368711  0.77334447  0.69000785  1.0
  H  H28  1  0.80049627  0.31027601  0.46314893  1.0
  H  H29  1  0.96710150  0.53697697  0.77335985  1.0
  H  H30  1  0.93557778  0.35115124  0.01508657  1.0
  H  H31  1  0.10258312  0.98467939  0.36629820  1.0
  H  H32  1  0.26934803  0.63363792  0.35111033  1.0
  H  H33  1  0.43557855  0.64884919  0.98491320  1.0
  H  H34  1  0.60258175  0.01532074  0.63370195  1.0
  H  H35  1  0.76934704  0.36636170  0.64889095  1.0
  H  H36  1  0.76609768  0.33944425  0.04391768  1.0
  H  H37  1  0.93304795  0.95597323  0.38328275  1.0
  H  H38  1  0.09986013  0.61664475  0.33932408  1.0
  H  H39  1  0.26609852  0.66055660  0.95608228  1.0
  H  H40  1  0.43304587  0.04402687  0.61671768  1.0
  H  H41  1  0.59985816  0.38335596  0.66067606  1.0
  H  H42  1  0.74321388  0.38531029  0.16543333  1.0
  H  H43  1  0.90986519  0.83457340  0.55066905  1.0
  H  H44  1  0.07654520  0.44924509  0.38530555  1.0
  H  H45  1  0.24321395  0.61469021  0.83456731  1.0
  H  H46  1  0.40986455  0.16542611  0.44933141  1.0
  H  H47  1  0.57654446  0.55075535  0.61469397  1.0
  H  H48  1  0.90251113  0.47449805  0.19023855  1.0
  H  H49  1  0.06911743  0.80979261  0.66466647  1.0
  H  H50  1  0.23585600  0.33523257  0.47445317  1.0
  H  H51  1  0.40251214  0.52550236  0.80976125  1.0
  H  H52  1  0.56911684  0.19020774  0.33533437  1.0
  H  H53  1  0.73585555  0.66476678  0.52554749  1.0
  H  H54  1  0.74376457  0.52008031  0.17935863  1.0
  H  H55  1  0.91032748  0.82069834  0.69929086  1.0
  H  H56  1  0.07710445  0.30052159  0.52005781  1.0
  H  H57  1  0.24376649  0.47992027  0.82064072  1.0
  H  H58  1  0.41032716  0.17930174  0.30070959  1.0
  H  H59  1  0.57710510  0.69947876  0.47994303  1.0
  H  H60  1  0.85808813  0.57033399  0.09009723  1.0
  H  H61  1  0.02466299  0.90997962  0.66028748  1.0
  H  H62  1  0.19146608  0.33957340  0.57026208  1.0
  H  H63  1  0.35808787  0.42966604  0.90990329  1.0
  H  H64  1  0.52466229  0.09002101  0.33971276  1.0
  H  H65  1  0.69146778  0.66042738  0.42973797  1.0
  H  H66  1  0.09383299  0.14376454  0.62814450  1.0
  H  H67  1  0.26086362  0.37178838  0.77189652  1.0
  H  H68  1  0.42736373  0.22794365  0.14387019  1.0
  H  H69  1  0.59383402  0.85623487  0.37185369  1.0
  H  H70  1  0.76086464  0.62821247  0.22810344  1.0
  H  H71  1  0.92736270  0.77205718  0.85612763  1.0
  H  H72  1  0.96182995  0.45097009  0.06592264  1.0
  H  H73  1  0.12853531  0.93408179  0.51687946  1.0
  H  H74  1  0.29527474  0.48297799  0.45101877  1.0
  H  H75  1  0.46183073  0.54902914  0.93407842  1.0
  H  H76  1  0.62853625  0.06591837  0.48312066  1.0
  H  H77  1  0.79527312  0.51702198  0.54898183  1.0
  C  C78  1  0.84542899  0.15311981  0.29333904  1.0
  C  C79  1  0.01231007  0.70637401  0.44662187  1.0
  C  C80  1  0.17891467  0.55334145  0.15318224  1.0
  C  C81  1  0.34542954  0.84688022  0.70666149  1.0
  C  C82  1  0.51231010  0.29362694  0.55337773  1.0
  C  C83  1  0.67891433  0.44665875  0.84681783  1.0
  C  C84  1  0.81254482  0.21193814  0.20644448  1.0
  C  C85  1  0.97939526  0.79327253  0.41856464  1.0
  C  C86  1  0.14612831  0.58139597  0.21203195  1.0
  C  C87  1  0.31254513  0.78806251  0.79355477  1.0
  C  C88  1  0.47939341  0.20672737  0.58143509  1.0
  C  C89  1  0.64612905  0.41860477  0.78796815  1.0
  C  C90  1  0.89838425  0.28032525  0.15423446  1.0
  C  C91  1  0.06520543  0.84551518  0.43473495  1.0
  C  C92  1  0.23202832  0.56520816  0.28038349  1.0
  C  C93  1  0.39838537  0.71967482  0.84576601  1.0
  C  C94  1  0.56520433  0.15448493  0.56526523  1.0
  C  C95  1  0.73202823  0.43479176  0.71961718  1.0
  C  C96  1  0.01690623  0.28536023  0.19157766  1.0
  C  C97  1  0.18371346  0.80816891  0.47713051  1.0
  C  C98  1  0.35049621  0.52278696  0.28538258  1.0
  C  C99  1  0.51690721  0.71464129  0.80842193  1.0
  C  C100  1  0.68371150  0.19183064  0.52287086  1.0
  C  C101  1  0.85049519  0.47721283  0.71461729  1.0
  C  C102  1  0.04255866  0.22525325  0.27861655  1.0
  C  C103  1  0.20937476  0.72111182  0.50407531  1.0
  C  C104  1  0.37601556  0.49581790  0.22528324  1.0
  C  C105  1  0.54256085  0.77474796  0.72138367  1.0
  C  C106  1  0.70937587  0.27888931  0.49592406  1.0
  C  C107  1  0.87601640  0.50418158  0.77471726  1.0
  C  C108  1  0.86423813  0.35069248  0.06214553  1.0
  C  C109  1  0.03112098  0.93768671  0.41286144  1.0
  C  C110  1  0.19792904  0.58705786  0.35066711  1.0
  C  C111  1  0.36423899  0.64930756  0.93785498  1.0
  C  C112  1  0.53111974  0.06231280  0.58713878  1.0
  C  C113  1  0.69792712  0.41294260  0.64933359  1.0
  C  C114  1  0.76970815  0.44957769  0.10919963  1.0
  C  C115  1  0.93638192  0.89082468  0.55866992  1.0
  C  C116  1  0.10309418  0.44120993  0.44955322  1.0
  C  C117  1  0.26970804  0.55042260  0.89080033  1.0
  C  C118  1  0.43638222  0.10917485  0.44133051  1.0
  C  C119  1  0.60309358  0.55879053  0.55044627  1.0
  C  C120  1  0.64237919  0.48769661  0.05734190  1.0
  C  C121  1  0.80906861  0.94270195  0.54493772  1.0
  C  C122  1  0.97580606  0.45499971  0.48766842  1.0
  C  C123  1  0.14237894  0.51230300  0.94265820  1.0
  C  C124  1  0.30906785  0.05729926  0.45506154  1.0
  C  C125  1  0.47580475  0.54500051  0.51233066  1.0
  C  C126  1  0.82171477  0.50773557  0.14405068  1.0
  C  C127  1  0.98831887  0.85599605  0.65167358  1.0
  C  C128  1  0.15506151  0.34818391  0.50769400  1.0
  C  C129  1  0.32171467  0.49226476  0.85594923  1.0
  C  C130  1  0.48831842  0.14400466  0.34832680  1.0
  C  C131  1  0.65506210  0.65181627  0.49230609  1.0
  C  C132  1  0.09164419  0.10630458  0.59251709  1.0
  C  C133  1  0.25844170  0.40742299  0.69882206  1.0
  C  C134  1  0.42506426  0.30103970  0.10638838  1.0
  C  C135  1  0.59164616  0.89369563  0.40748177  1.0
  C  C136  1  0.75844449  0.59257752  0.30117858  1.0
  C  C137  1  0.92506505  0.69896104  0.89361076  1.0
  N  N138  1  0.86752729  0.43878647  0.05369482  1.0
  N  N139  1  0.03426501  0.94628205  0.49240420  1.0
  N  N140  1  0.20101619  0.50746155  0.43877071  1.0
  N  N141  1  0.36752806  0.56121390  0.94630503  1.0
  N  N142  1  0.53426491  0.05371802  0.50759603  1.0
  N  N143  1  0.70101550  0.49253868  0.56122932  1.0
  N  N144  1  0.95783793  0.16048558  0.32932182  1.0
  N  N145  1  0.12470036  0.67040260  0.48998629  1.0
  N  N146  1  0.29125894  0.50994092  0.16052252  1.0
  N  N147  1  0.45783854  0.83951520  0.67067727  1.0
  N  N148  1  0.62470052  0.32959755  0.51001384  1.0
  N  N149  1  0.79125964  0.49005816  0.83947873  1.0
  O  O150  1  0.64557631  0.52581734  0.97387157  1.0
  O  O151  1  0.81226715  0.02618909  0.49959039  1.0
  O  O152  1  0.97905601  0.50035038  0.52579860  1.0
  O  O153  1  0.14557585  0.47418251  0.02612918  1.0
  O  O154  1  0.31226726  0.97380977  0.50041018  1.0
  O  O155  1  0.47905661  0.49965131  0.47419982  1.0
  O  O156  1  0.54243883  0.47947602  0.10315644  1.0
  O  O157  1  0.70917429  0.89685403  0.58259276  1.0
  O  O158  1  0.87584320  0.41742174  0.47944538  1.0
  O  O159  1  0.04243966  0.52052146  0.89684443  1.0
  O  O160  1  0.20917561  0.10314530  0.41740793  1.0
  O  O161  1  0.37584192  0.58257774  0.52055512  1.0
  O  O162  1  0.01241451  0.13926528  0.52624131  1.0
  O  O163  1  0.17925217  0.47373350  0.66559029  1.0
  O  O164  1  0.34580607  0.33433572  0.13936163  1.0
  O  O165  1  0.51241240  0.86073227  0.47375828  1.0
  O  O166  1  0.67925288  0.52626760  0.33440912  1.0
  O  O167  1  0.84580885  0.66566391  0.86063627  1.0
  O  O168  1  0.16162185  0.03992434  0.61838922  1.0
  O  O169  1  0.32813530  0.38151350  0.65824018  1.0
  O  O170  1  0.49492743  0.34158279  0.03997826  1.0
  O  O171  1  0.66162001  0.96007211  0.38161153  1.0
  O  O172  1  0.82813706  0.61848578  0.34175841  1.0
  O  O173  1  0.99492510  0.65841939  0.96002146  1.0
