# generated using pymatgen
data_Zn8H39C62N13(Cl5O13)2
_symmetry_space_group_name_H-M   'P 1'
_cell_length_a   18.30100724
_cell_length_b   18.41021703
_cell_length_c   18.45988988
_cell_angle_alpha   119.82696685
_cell_angle_beta   90.06345821
_cell_angle_gamma   119.78960468
_symmetry_Int_Tables_number   1
_chemical_formula_structural   Zn8H39C62N13(Cl5O13)2
_chemical_formula_sum   'Zn8 H39 C62 N13 Cl10 O26'
_cell_volume   4420.89264209
_cell_formula_units_Z   1
loop_
 _symmetry_equiv_pos_site_id
 _symmetry_equiv_pos_as_xyz
  1  'x, y, z'
loop_
 _atom_site_type_symbol
 _atom_site_label
 _atom_site_symmetry_multiplicity
 _atom_site_fract_x
 _atom_site_fract_y
 _atom_site_fract_z
 _atom_site_occupancy
  Zn  Zn0  1  0.05164283  0.59432309  0.45651046  1.0
  Zn  Zn1  1  0.87281832  0.42535261  0.45954684  1.0
  Zn  Zn2  1  0.04767761  0.59446034  0.62883368  1.0
  Zn  Zn3  1  0.04131957  0.41521488  0.45686392  1.0
  Zn  Zn4  1  0.46114899  0.41766384  0.04337011  1.0
  Zn  Zn5  1  0.45470678  0.41725203  0.87090443  1.0
  Zn  Zn6  1  0.63292469  0.59808471  0.04279997  1.0
  Zn  Zn7  1  0.45910553  0.59188897  0.04673297  1.0
  H  H8  1  0.13138601  0.51050874  0.23310343  1.0
  H  H9  1  0.45352705  0.50560305  0.24871415  1.0
  H  H10  1  0.20426121  0.90564359  0.81484773  1.0
  H  H11  1  0.30380534  0.09561504  0.91438645  1.0
  H  H12  1  0.25624255  0.10859633  0.63626232  1.0
  H  H13  1  0.35698097  0.66089826  0.97246161  1.0
  H  H14  1  0.30818040  0.71310740  0.95140503  1.0
  H  H15  1  0.22308412  0.25968015  0.71029398  1.0
  H  H16  1  0.14017192  0.19670576  0.61873698  1.0
  H  H17  1  0.17417360  0.33476525  0.47846760  1.0
  H  H18  1  0.27178146  0.36495405  0.52148520  1.0
  H  H19  1  0.16662263  0.91597641  0.53225921  1.0
  H  H20  1  0.05402054  0.25933726  0.58889079  1.0
  H  H21  1  0.05510087  0.20558526  0.48638206  1.0
  H  H22  1  0.59654298  0.05788608  0.32133810  1.0
  H  H23  1  0.69594679  0.17896752  0.37255701  1.0
  H  H24  1  0.93200976  0.89255447  0.20198775  1.0
  H  H25  1  0.82873024  0.83282537  0.20170310  1.0
  H  H26  1  0.04922542  0.13811419  0.33438412  1.0
  H  H27  1  0.96768051  0.05948341  0.35062370  1.0
  H  H28  1  0.93204652  0.09217014  0.16102412  1.0
  H  H29  1  0.99182477  0.20095840  0.25925217  1.0
  H  H30  1  0.26807393  0.92377984  0.53925985  1.0
  H  H31  1  0.47015106  0.33557875  0.56871353  1.0
  H  H32  1  0.48633072  0.34928005  0.66757413  1.0
  H  H33  1  0.69049430  0.57990807  0.62007545  1.0
  H  H34  1  0.74436283  0.53469128  0.55698215  1.0
  H  H35  1  0.65128092  0.28943619  0.03843620  1.0
  H  H36  1  0.54448825  0.20810675  0.01777140  1.0
  H  H37  1  0.58990239  0.21423398  0.22086983  1.0
  H  H38  1  0.67864932  0.31866261  0.31226892  1.0
  H  H39  1  0.52746813  0.50260055  0.42882296  1.0
  H  H40  1  0.54507459  0.49915148  0.33578557  1.0
  H  H41  1  0.22398419  0.64052836  0.80969874  1.0
  H  H42  1  0.30936384  0.34403606  0.62718785  1.0
  H  H43  1  0.27557550  0.50952780  0.45220489  1.0
  H  H44  1  0.58370150  0.90666866  0.22217172  1.0
  H  H45  1  0.86413215  0.92831153  0.12752134  1.0
  H  H46  1  0.54729784  0.30814893  0.15917942  1.0
  C  C47  1  0.85595503  0.23173649  0.36339563  1.0
  C  C48  1  0.20052773  0.89678363  0.69409295  1.0
  C  C49  1  0.22793147  0.95011629  0.78705886  1.0
  C  C50  1  0.14163007  0.78329981  0.63631914  1.0
  C  C51  1  0.28371646  0.05652694  0.84283856  1.0
  C  C52  1  0.31413111  0.11616594  0.80889006  1.0
  C  C53  1  0.28650985  0.06280269  0.71700270  1.0
  C  C54  1  0.28877499  0.07371765  0.64078600  1.0
  C  C55  1  0.23191973  0.95323539  0.57734846  1.0
  C  C56  1  0.20504971  0.42233707  0.66183096  1.0
  C  C57  1  0.19212856  0.50044091  0.69376452  1.0
  C  C58  1  0.41400206  0.50688600  0.29282735  1.0
  C  C59  1  0.23328212  0.57908566  0.78380147  1.0
  C  C60  1  0.28640694  0.58220086  0.84256156  1.0
  C  C61  1  0.30081089  0.50284000  0.80859925  1.0
  C  C62  1  0.86791649  0.52119908  0.37365813  1.0
  C  C63  1  0.25851560  0.42515068  0.71764379  1.0
  C  C64  1  0.24739570  0.32690501  0.64384667  1.0
  C  C65  1  0.17977168  0.31968321  0.57972053  1.0
  C  C66  1  0.83738123  0.06464170  0.27208317  1.0
  C  C67  1  0.79972990  0.11961540  0.30986380  1.0
  C  C68  1  0.70491440  0.05952154  0.29143688  1.0
  C  C69  1  0.33759310  0.50447858  0.27466452  1.0
  C  C70  1  0.65561681  0.95137314  0.23573931  1.0
  C  C71  1  0.69496763  0.89943456  0.19714251  1.0
  C  C72  1  0.78758647  0.95900823  0.21659164  1.0
  C  C73  1  0.86546509  0.95336592  0.19617263  1.0
  C  C74  1  0.13745059  0.50209823  0.63607939  1.0
  C  C75  1  0.92636574  0.07693239  0.26338323  1.0
  C  C76  1  0.72365758  0.46620947  0.66681428  1.0
  C  C77  1  0.80747831  0.48816275  0.69410502  1.0
  C  C78  1  0.82949723  0.49984019  0.77467611  1.0
  C  C79  1  0.77255358  0.49801619  0.82704596  1.0
  C  C80  1  0.28535023  0.50550288  0.33312252  1.0
  C  C81  1  0.69192890  0.48519404  0.80136197  1.0
  C  C82  1  0.66905478  0.46578459  0.71886035  1.0
  C  C83  1  0.59757692  0.44480355  0.65564854  1.0
  C  C84  1  0.66078259  0.44643184  0.59404730  1.0
  C  C85  1  0.73283157  0.44488668  0.25821476  1.0
  C  C86  1  0.86765357  0.50237051  0.64063955  1.0
  C  C87  1  0.81211273  0.53207578  0.32607817  1.0
  C  C88  1  0.83548881  0.62540281  0.34131429  1.0
  C  C89  1  0.78212463  0.62779610  0.28776574  1.0
  C  C90  1  0.70336659  0.53704507  0.21754137  1.0
  C  C91  1  0.21032501  0.50726679  0.31593833  1.0
  C  C92  1  0.68052716  0.44693881  0.20599642  1.0
  C  C93  1  0.61132193  0.33163423  0.14660613  1.0
  C  C94  1  0.67325106  0.32986753  0.20890493  1.0
  C  C95  1  0.35726318  0.50184953  0.86411760  1.0
  C  C96  1  0.64564828  0.53122825  0.15461667  1.0
  C  C97  1  0.37058778  0.22962554  0.86774637  1.0
  C  C98  1  0.14999394  0.50613455  0.37049584  1.0
  C  C99  1  0.63936102  0.78578381  0.13886781  1.0
  C  C100  1  0.63453837  0.49520524  0.85812370  1.0
  C  C101  1  0.36461719  0.50126672  0.13860407  1.0
  C  C102  1  0.18838192  0.50850545  0.24490965  1.0
  C  C103  1  0.31372815  0.50904525  0.40708952  1.0
  C  C104  1  0.38867038  0.51151142  0.42265209  1.0
  C  C105  1  0.44139982  0.51021601  0.36548032  1.0
  C  C106  1  0.23832896  0.50530643  0.18709648  1.0
  C  C107  1  0.31173044  0.50333000  0.20049329  1.0
  C  C108  1  0.23256955  0.95626492  0.66094939  1.0
  N  N109  1  0.32426440  0.66240500  0.92938305  1.0
  N  N110  1  0.68660108  0.51663539  0.57145607  1.0
  N  N111  1  0.59581072  0.28355697  0.05368349  1.0
  N  N112  1  0.63372642  0.29159332  0.25741717  1.0
  N  N113  1  0.51710856  0.51549068  0.38370278  1.0
  N  N114  1  0.20813610  0.23818892  0.64670222  1.0
  N  N115  1  0.20463371  0.31434091  0.50350731  1.0
  N  N116  1  0.08720251  0.23537769  0.54969798  1.0
  N  N117  1  0.65950005  0.10278643  0.32425221  1.0
  N  N118  1  0.88527201  0.90314452  0.22554928  1.0
  N  N119  1  0.98890617  0.11855775  0.34408690  1.0
  N  N120  1  0.97347090  0.12720358  0.22184613  1.0
  N  N121  1  0.51331662  0.35851092  0.62220293  1.0
  Cl  Cl122  1  0.39622549  0.13919214  0.63109759  1.0
  Cl  Cl123  1  0.20193330  0.49939394  0.09633587  1.0
  Cl  Cl124  1  0.92451148  0.51271318  0.81034044  1.0
  Cl  Cl125  1  0.80147515  0.50790063  0.92162504  1.0
  Cl  Cl126  1  0.60127991  0.56935652  0.70956522  1.0
  Cl  Cl127  1  0.61164271  0.31901434  0.49265916  1.0
  Cl  Cl128  1  0.42203971  0.51703867  0.51449214  1.0
  Cl  Cl129  1  0.92815528  0.73911420  0.42813371  1.0
  Cl  Cl130  1  0.81297150  0.74377740  0.31084959  1.0
  Cl  Cl131  1  0.73231568  0.27338120  0.14330721  1.0
  O  O132  1  0.00246061  0.50724341  0.49939041  1.0
  O  O133  1  0.68153115  0.74366011  0.11528368  1.0
  O  O134  1  0.55055333  0.43304903  0.81753747  1.0
  O  O135  1  0.93819807  0.27585887  0.36887919  1.0
  O  O136  1  0.39892397  0.57533900  0.13068238  1.0
  O  O137  1  0.67424724  0.56617719  0.93991686  1.0
  O  O138  1  0.37166235  0.42639720  0.09988141  1.0
  O  O139  1  0.40319027  0.27277077  0.95039805  1.0
  O  O140  1  0.55492045  0.73899945  0.11679967  1.0
  O  O141  1  0.37407695  0.43466305  0.82406827  1.0
  O  O142  1  0.68388644  0.57643637  0.11827630  1.0
  O  O143  1  0.95136243  0.57457647  0.39004820  1.0
  O  O144  1  0.12819659  0.74048045  0.55333997  1.0
  O  O145  1  0.82406329  0.45458723  0.39035759  1.0
  O  O146  1  0.13183991  0.57819026  0.67218255  1.0
  O  O147  1  0.82866034  0.46407705  0.56099783  1.0
  O  O148  1  0.13175495  0.45168827  0.40020436  1.0
  O  O149  1  0.95103091  0.55388773  0.67785712  1.0
  O  O150  1  0.11937539  0.55851773  0.38093004  1.0
  O  O151  1  0.10041662  0.42690573  0.55432662  1.0
  O  O152  1  0.81968581  0.27975019  0.40084954  1.0
  O  O153  1  0.10950456  0.73835551  0.67467889  1.0
  O  O154  1  0.50304791  0.50518167  0.00032443  1.0
  O  O155  1  0.38618999  0.56747367  0.94877505  1.0
  O  O156  1  0.56226792  0.47701934  0.14145046  1.0
  O  O157  1  0.38062040  0.27382295  0.82939052  1.0
