# generated using pymatgen
data_Zn2H19C20N7O9
_symmetry_space_group_name_H-M   'P 1'
_cell_length_a   9.77359430
_cell_length_b   11.01365310
_cell_length_c   11.20869800
_cell_angle_alpha   97.06115818
_cell_angle_beta   91.75512084
_cell_angle_gamma   90.56903775
_symmetry_Int_Tables_number   1
_chemical_formula_structural   Zn2H19C20N7O9
_chemical_formula_sum   'Zn2 H19 C20 N7 O9'
_cell_volume   1196.71080208
_cell_formula_units_Z   1
loop_
 _symmetry_equiv_pos_site_id
 _symmetry_equiv_pos_as_xyz
  1  'x, y, z'
loop_
 _atom_site_type_symbol
 _atom_site_label
 _atom_site_symmetry_multiplicity
 _atom_site_fract_x
 _atom_site_fract_y
 _atom_site_fract_z
 _atom_site_occupancy
  Zn  Zn0  1  0.63662343  0.52656785  0.49379875  1.0
  Zn  Zn1  1  0.35096579  0.53262444  0.49514243  1.0
  H  H2  1  0.36551878  0.94294198  0.63223053  1.0
  H  H3  1  0.71489141  0.55859210  0.84692894  1.0
  H  H4  1  0.04940678  0.25446895  0.35523373  1.0
  H  H5  1  0.21895010  0.30612105  0.39895508  1.0
  H  H6  1  0.68082819  0.80300967  0.02304038  1.0
  H  H7  1  0.74941658  0.72757846  0.12781791  1.0
  H  H8  1  0.79406308  0.98680816  0.04716843  1.0
  H  H9  1  0.62214851  0.29841697  0.29907795  1.0
  H  H10  1  0.66783149  0.23666071  0.15876633  1.0
  H  H11  1  0.20549916  0.63066300  0.05528753  1.0
  H  H12  1  0.26598884  0.59440237  0.19577568  1.0
  H  H13  1  0.85623534  0.37956612  0.35879766  1.0
  H  H14  1  0.90519959  0.57167862  0.56006738  1.0
  H  H15  1  0.09386103  0.60185443  0.50410029  1.0
  H  H16  1  0.61720748  0.75564797  0.30299946  1.0
  H  H17  1  0.36480950  0.16628297  0.60982530  1.0
  H  H18  1  0.58037592  0.45699726  0.08777647  1.0
  H  H19  1  0.29972730  0.52854267  0.87418168  1.0
  H  H20  1  0.66150245  0.56375793  0.99599457  1.0
  C  C21  1  0.50214536  0.52785070  0.72704020  1.0
  C  C22  1  0.51204082  0.53295602  0.86249021  1.0
  C  C23  1  0.91409551  0.44218250  0.42630837  1.0
  C  C24  1  0.49494365  0.76505428  0.50409695  1.0
  C  C25  1  0.06645522  0.43193591  0.43235260  1.0
  C  C26  1  0.49724157  0.51695814  0.25887183  1.0
  C  C27  1  0.49562889  0.28376832  0.46432391  1.0
  C  C28  1  0.61940515  0.85275300  0.29381269  1.0
  C  C29  1  0.67572367  0.89203296  0.19362876  1.0
  C  C30  1  0.67999820  0.01761521  0.18135293  1.0
  C  C31  1  0.62221574  0.10578720  0.26447536  1.0
  C  C32  1  0.56087877  0.93745421  0.38252592  1.0
  C  C33  1  0.55938214  0.06650441  0.36805262  1.0
  C  C34  1  0.49278083  0.89656718  0.48210026  1.0
  C  C35  1  0.41975225  0.97734123  0.55948163  1.0
  C  C36  1  0.41813859  0.10219562  0.54588522  1.0
  C  C37  1  0.48944605  0.14705394  0.45494909  1.0
  C  C38  1  0.38748557  0.53936764  0.05651367  1.0
  C  C39  1  0.49446300  0.50512312  0.12943710  1.0
  C  C40  1  0.39554432  0.53161103  0.92692069  1.0
  N  N41  1  0.84658874  0.51739614  0.49657583  1.0
  N  N42  1  0.14504653  0.52290169  0.47977466  1.0
  N  N43  1  0.64398969  0.53983876  0.90663347  1.0
  N  N44  1  0.11506630  0.32325790  0.38726911  1.0
  N  N45  1  0.73818295  0.81240805  0.10159789  1.0
  N  N46  1  0.62185117  0.22401463  0.23610811  1.0
  N  N47  1  0.26701664  0.58063450  0.10393459  1.0
  O  O48  1  0.61575343  0.54290119  0.67695980  1.0
  O  O49  1  0.38599544  0.50948329  0.67421745  1.0
  O  O50  1  0.60864108  0.70937973  0.49312709  1.0
  O  O51  1  0.38274621  0.71789634  0.53304609  1.0
  O  O52  1  0.61170544  0.49260607  0.31195891  1.0
  O  O53  1  0.38978570  0.55188100  0.31757903  1.0
  O  O54  1  0.61169823  0.33534436  0.48871154  1.0
  O  O55  1  0.38319955  0.34094954  0.45389847  1.0
  O  O56  1  0.74185834  0.05677630  0.08344812  1.0
