# generated using pymatgen
data_ZnH20C20NO5
_symmetry_space_group_name_H-M   'P 1'
_cell_length_a   10.83795593
_cell_length_b   13.94089713
_cell_length_c   15.34319279
_cell_angle_alpha   89.83555376
_cell_angle_beta   90.10743553
_cell_angle_gamma   89.60860861
_symmetry_Int_Tables_number   1
_chemical_formula_structural   ZnH20C20NO5
_chemical_formula_sum   'Zn2 H40 C40 N2 O10'
_cell_volume   2318.14791673
_cell_formula_units_Z   2
loop_
 _symmetry_equiv_pos_site_id
 _symmetry_equiv_pos_as_xyz
  1  'x, y, z'
loop_
 _atom_site_type_symbol
 _atom_site_label
 _atom_site_symmetry_multiplicity
 _atom_site_fract_x
 _atom_site_fract_y
 _atom_site_fract_z
 _atom_site_occupancy
  Zn  Zn0  1  0.50136432  0.40144600  0.50075739  1.0
  Zn  Zn1  1  0.49954045  0.59987512  0.50085850  1.0
  H  H2  1  0.09298438  0.35879125  0.44765967  1.0
  H  H3  1  0.10590648  0.63982119  0.54863528  1.0
  H  H4  1  0.58413736  0.64122219  0.78194133  1.0
  H  H5  1  0.41062786  0.36598837  0.77605923  1.0
  H  H6  1  0.46336293  0.93300025  0.36117133  1.0
  H  H7  1  0.34513928  0.07053815  0.40940050  1.0
  H  H8  1  0.46713424  0.75249880  0.36811054  1.0
  H  H9  1  0.35227873  0.25081096  0.41392085  1.0
  H  H10  1  0.53545189  0.75268635  0.63271441  1.0
  H  H11  1  0.64540278  0.24761406  0.58661672  1.0
  H  H12  1  0.53521350  0.93312812  0.63849753  1.0
  H  H13  1  0.65151708  0.06749119  0.59061800  1.0
  H  H14  1  0.90038847  0.48038221  0.35928263  1.0
  H  H15  1  0.89204672  0.63414315  0.43170627  1.0
  H  H16  1  0.88419290  0.37086181  0.41643399  1.0
  H  H17  1  0.89054657  0.64429204  0.54625781  1.0
  H  H18  1  0.11905258  0.38786243  0.59047188  1.0
  H  H19  1  0.10900810  0.50479237  0.63395132  1.0
  H  H20  1  0.90297978  0.37655272  0.58540595  1.0
  H  H21  1  0.89483049  0.48790240  0.63957010  1.0
  H  H22  1  0.53734350  0.35206931  0.06133233  1.0
  H  H23  1  0.43335724  0.65088074  0.05984893  1.0
  H  H24  1  0.53972266  0.35389161  0.22423268  1.0
  H  H25  1  0.43692886  0.65105775  0.22252116  1.0
  H  H26  1  0.57895833  0.63954302  0.94450799  1.0
  H  H27  1  0.40007855  0.36465966  0.93876527  1.0
  H  H28  1  0.19247695  0.56094477  0.30041528  1.0
  H  H29  1  0.03079606  0.54829828  0.29082476  1.0
  H  H30  1  0.22411301  0.44329907  0.17989661  1.0
  H  H31  1  0.06294775  0.42418599  0.17359692  1.0
  H  H32  1  0.02875842  0.59703469  0.13082373  1.0
  H  H33  1  0.13485931  0.54187565  0.05797847  1.0
  H  H34  1  0.18943277  0.61912821  0.14083594  1.0
  H  H35  1  0.20858909  0.77134767  0.37536492  1.0
  H  H36  1  0.21542464  0.75087226  0.48994098  1.0
  H  H37  1  0.98561131  0.81880300  0.38858107  1.0
  H  H38  1  0.99379110  0.80355440  0.50273455  1.0
  H  H39  1  0.15896282  0.93132460  0.51138367  1.0
  H  H40  1  0.02173145  0.97758983  0.46323237  1.0
  H  H41  1  0.14959305  0.94707302  0.39656871  1.0
  C  C42  1  0.49441449  0.50417036  0.33042005  1.0
  C  C43  1  0.93321916  0.45147531  0.58207375  1.0
  C  C44  1  0.51387916  0.41761715  0.09652015  1.0
  C  C45  1  0.45860436  0.58588120  0.09565331  1.0
  C  C46  1  0.51616610  0.41828637  0.18718509  1.0
  C  C47  1  0.45993323  0.58630289  0.18624893  1.0
  C  C48  1  0.48979900  0.50281809  0.23292490  1.0
  C  C49  1  0.48628404  0.50165460  0.04917412  1.0
  C  C50  1  0.53958343  0.58028162  0.90766521  1.0
  C  C51  1  0.44228091  0.42482792  0.90458927  1.0
  C  C52  1  0.54358630  0.58118638  0.81707550  1.0
  C  C53  1  0.44701062  0.42548072  0.81395985  1.0
  C  C54  1  0.49752068  0.50373347  0.76928220  1.0
  C  C55  1  0.48875252  0.50215435  0.95303340  1.0
  C  C56  1  0.47866556  0.89621548  0.42305469  1.0
  C  C57  1  0.41421231  0.10672883  0.44893884  1.0
  C  C58  1  0.26230830  0.49832070  0.49708488  1.0
  C  C59  1  0.48116210  0.79658101  0.42588854  1.0
  C  C60  1  0.41692826  0.20640860  0.45118171  1.0
  C  C61  1  0.52065965  0.79662929  0.57459522  1.0
  C  C62  1  0.58056047  0.20461610  0.54916004  1.0
  C  C63  1  0.52083772  0.89623785  0.57681202  1.0
  C  C64  1  0.58283574  0.10500868  0.55104217  1.0
  C  C65  1  0.49906507  0.94819650  0.49979554  1.0
  C  C66  1  0.49850816  0.05400407  0.49980226  1.0
  C  C67  1  0.50208713  0.50441357  0.67170819  1.0
  C  C68  1  0.73939703  0.49534523  0.49972469  1.0
  C  C69  1  0.06977006  0.43061515  0.42247195  1.0
  C  C70  1  0.06984066  0.60387528  0.49003522  1.0
  C  C71  1  0.92782139  0.44169736  0.41888266  1.0
  C  C72  1  0.92728798  0.60140202  0.49199505  1.0
  C  C73  1  0.07561544  0.45857459  0.58106058  1.0
  C  C74  1  0.12182799  0.50059055  0.49269063  1.0
  C  C75  1  0.88015367  0.49816441  0.49874194  1.0
  C  C76  1  0.11941418  0.50991900  0.28262773  1.0
  C  C77  1  0.13353302  0.47828752  0.18837814  1.0
  C  C78  1  0.12085873  0.56365543  0.12602420  1.0
  C  C79  1  0.15321744  0.75070509  0.43261319  1.0
  C  C80  1  0.04828643  0.82329788  0.44495810  1.0
  C  C81  1  0.09708562  0.92534843  0.45469449  1.0
  N  N82  1  0.50135125  0.74782308  0.50037350  1.0
  N  N83  1  0.49899816  0.25409082  0.50026766  1.0
  O  O84  1  0.52302728  0.42596475  0.36870424  1.0
  O  O85  1  0.46997333  0.58373586  0.36775784  1.0
  O  O86  1  0.31498537  0.41825190  0.48238626  1.0
  O  O87  1  0.31652092  0.57524390  0.51938072  1.0
  O  O88  1  0.47880367  0.42577398  0.63317718  1.0
  O  O89  1  0.52870777  0.58363103  0.63453758  1.0
  O  O90  1  0.68916349  0.41533257  0.51785659  1.0
  O  O91  1  0.68220498  0.57285868  0.48155450  1.0
  O  O92  1  0.12609415  0.42739251  0.33830821  1.0
  O  O93  1  0.11378055  0.65572573  0.41542465  1.0
