# generated using pymatgen
data_AlH12C17O5
_symmetry_space_group_name_H-M   'P 1'
_cell_length_a   6.65349426
_cell_length_b   20.29136965
_cell_length_c   23.96194413
_cell_angle_alpha   90.40009570
_cell_angle_beta   90.83084637
_cell_angle_gamma   90.73015191
_symmetry_Int_Tables_number   1
_chemical_formula_structural   AlH12C17O5
_chemical_formula_sum   'Al4 H48 C68 O20'
_cell_volume   3234.38050954
_cell_formula_units_Z   4
loop_
 _symmetry_equiv_pos_site_id
 _symmetry_equiv_pos_as_xyz
  1  'x, y, z'
loop_
 _atom_site_type_symbol
 _atom_site_label
 _atom_site_symmetry_multiplicity
 _atom_site_fract_x
 _atom_site_fract_y
 _atom_site_fract_z
 _atom_site_occupancy
  Al  Al0  1  0.90053956  0.50197261  0.49839929  1.0
  Al  Al1  1  0.40079585  0.49844945  0.50259743  1.0
  Al  Al2  1  0.27716877  0.99789304  0.00186118  1.0
  Al  Al3  1  0.77708687  0.00117331  0.99742769  1.0
  H  H4  1  0.76615730  0.63579970  0.17287249  1.0
  H  H5  1  0.98718488  0.62680814  0.34628393  1.0
  H  H6  1  0.38805875  0.70513665  0.47244562  1.0
  H  H7  1  0.41283744  0.86382490  0.32690324  1.0
  H  H8  1  0.72750340  0.69459397  0.08525352  1.0
  H  H9  1  0.79026922  0.79444473  0.02737827  1.0
  H  H10  1  0.19012313  0.87317340  0.15359031  1.0
  H  H11  1  0.89518459  0.62940853  0.26860325  1.0
  H  H12  1  0.28332892  0.87032033  0.23123581  1.0
  H  H13  1  0.45201922  0.80481850  0.41452060  1.0
  H  H14  1  0.16077196  0.36931518  0.23254159  1.0
  H  H15  1  0.08982847  0.29830492  0.15716633  1.0
  H  H16  1  0.78037329  0.18391340  0.24359534  1.0
  H  H17  1  0.76619244  0.24784696  0.19424671  1.0
  H  H18  1  0.81597509  0.32819309  0.26424968  1.0
  H  H19  1  0.79838917  0.26485266  0.31399174  1.0
  H  H20  1  0.33977826  0.16700545  0.24017932  1.0
  H  H21  1  0.11776321  0.13003647  0.26545832  1.0
  H  H22  1  0.35256858  0.23175724  0.32165003  1.0
  H  H23  1  0.32243232  0.26011113  0.17055664  1.0
  H  H24  1  0.37598334  0.32406769  0.25140690  1.0
  H  H25  1  0.11366024  0.20251011  0.34190048  1.0
  H  H26  1  0.25746436  0.74716661  0.80108948  1.0
  H  H27  1  0.33529291  0.66378324  0.73658748  1.0
  H  H28  1  0.89110725  0.68873013  0.75215389  1.0
  H  H29  1  0.69274070  0.63383186  0.76851257  1.0
  H  H30  1  0.58378711  0.70155505  0.84147307  1.0
  H  H31  1  0.81173638  0.74609166  0.83432017  1.0
  H  H32  1  0.59564858  0.79807967  0.65889421  1.0
  H  H33  1  0.84293714  0.77640579  0.67846708  1.0
  H  H34  1  0.60483312  0.87158764  0.73493439  1.0
  H  H35  1  0.29938817  0.72280975  0.68391819  1.0
  H  H36  1  0.27255326  0.80878411  0.74959015  1.0
  H  H37  1  0.82750523  0.83706853  0.76214049  1.0
  H  H38  1  0.28107188  0.36385817  0.82653656  1.0
  H  H39  1  0.49275480  0.37374077  0.65387579  1.0
  H  H40  1  0.87783167  0.29546229  0.52858469  1.0
  H  H41  1  0.89664894  0.13576051  0.67340707  1.0
  H  H42  1  0.24162835  0.30422604  0.91366052  1.0
  H  H43  1  0.30044842  0.20407980  0.97133481  1.0
  H  H44  1  0.68642914  0.12615426  0.84609275  1.0
  H  H45  1  0.40592595  0.37088964  0.73137045  1.0
  H  H46  1  0.77200414  0.12877747  0.76859122  1.0
  H  H47  1  0.93573917  0.19518886  0.58622411  1.0
  H  H48  1  0.63677279  0.53561031  0.43469173  1.0
  H  H49  1  0.14213811  0.47119601  0.56917527  1.0
  H  H50  1  0.54104396  0.96561945  0.06614131  1.0
  H  H51  1  0.03673089  0.03178228  0.93237359  1.0
  C  C52  1  0.65850431  0.57719530  0.57867305  1.0
  C  C53  1  0.65644236  0.40040194  0.55509134  1.0
  C  C54  1  0.14823110  0.42323482  0.42278703  1.0
  C  C55  1  0.15562760  0.60017415  0.44555916  1.0
  C  C56  1  0.99672207  0.83853410  0.08800412  1.0
  C  C57  1  0.18065759  0.66128486  0.41191452  1.0
  C  C58  1  0.82680880  0.73422649  0.10051509  1.0
  C  C59  1  0.86271807  0.78875439  0.06811878  1.0
  C  C60  1  0.08805303  0.83362409  0.14013007  1.0
  C  C61  1  0.04198070  0.78059908  0.17600586  1.0
  C  C62  1  0.91119878  0.72942844  0.15492893  1.0
  C  C63  1  0.11664958  0.77711392  0.23302397  1.0
  C  C64  1  0.06177105  0.72266886  0.26683097  1.0
  C  C65  1  0.93586524  0.67182101  0.24337359  1.0
  C  C66  1  0.86366160  0.67500822  0.18974278  1.0
  C  C67  1  0.24278802  0.82790448  0.25647216  1.0
  C  C68  1  0.31509467  0.82465768  0.31008710  1.0
  C  C69  1  0.26763397  0.77023307  0.34489866  1.0
  C  C70  1  0.13641614  0.71919354  0.32384280  1.0
  C  C71  1  0.35225395  0.76531192  0.39928583  1.0
  C  C72  1  0.31539047  0.71086582  0.43172299  1.0
  C  C73  1  0.08964931  0.66624159  0.35975772  1.0
  C  C74  1  0.17939078  0.27368935  0.18959688  1.0
  C  C75  1  0.85690882  0.22886085  0.22914437  1.0
  C  C76  1  0.87929935  0.28060347  0.27662185  1.0
  C  C77  1  0.14068942  0.37552407  0.37780956  1.0
  C  C78  1  0.06659485  0.20995768  0.20725037  1.0
  C  C79  1  0.21501254  0.31935800  0.24085067  1.0
  C  C80  1  0.10440500  0.29133280  0.29224159  1.0
  C  C81  1  0.19688474  0.22381904  0.30693668  1.0
  C  C82  1  0.18830687  0.17763152  0.25531176  1.0
  C  C83  1  0.12575248  0.33680525  0.33899694  1.0
  C  C84  1  0.04876145  0.16436395  0.16045239  1.0
  C  C85  1  0.03678876  0.12527429  0.12183606  1.0
  C  C86  1  0.38539285  0.71258892  0.72229650  1.0
  C  C87  1  0.72932105  0.68591551  0.76082370  1.0
  C  C88  1  0.67559538  0.72927035  0.81166078  1.0
  C  C89  1  0.51667636  0.87455212  0.87679622  1.0
  C  C90  1  0.61197703  0.70912327  0.70827327  1.0
  C  C91  1  0.35116028  0.76617933  0.76723798  1.0
  C  C92  1  0.55575839  0.79022195  0.79199763  1.0
  C  C93  1  0.67685274  0.82477811  0.74540431  1.0
  C  C94  1  0.68810468  0.77933096  0.69354158  1.0
  C  C95  1  0.52999919  0.83566933  0.83825760  1.0
  C  C96  1  0.64133882  0.66376569  0.66211901  1.0
  C  C97  1  0.65811510  0.62492480  0.62366618  1.0
  C  C98  1  0.49995255  0.16041445  0.91123234  1.0
  C  C99  1  0.67887268  0.33932265  0.58872461  1.0
  C  C100  1  0.33676757  0.26468439  0.89854217  1.0
  C  C101  1  0.37070463  0.20997660  0.93083726  1.0
  C  C102  1  0.58803771  0.16557826  0.85936940  1.0
  C  C103  1  0.54353962  0.21875779  0.82355752  1.0
  C  C104  1  0.41847112  0.26985725  0.84446198  1.0
  C  C105  1  0.61502114  0.22248782  0.76682596  1.0
  C  C106  1  0.56356169  0.27731422  0.73316564  1.0
  C  C107  1  0.44381140  0.32818187  0.75648851  1.0
  C  C108  1  0.37407243  0.32464369  0.80981410  1.0
  C  C109  1  0.73429895  0.17151985  0.74349186  1.0
  C  C110  1  0.80393577  0.17502100  0.69015114  1.0
  C  C111  1  0.75971377  0.22983169  0.65550394  1.0
  C  C112  1  0.63493560  0.28102446  0.67641485  1.0
  C  C113  1  0.84118853  0.23487724  0.60137851  1.0
  C  C114  1  0.80765811  0.28960596  0.56909150  1.0
  C  C115  1  0.59084125  0.33423182  0.64060147  1.0
  C  C116  1  0.52273963  0.09928407  0.94480133  1.0
  C  C117  1  0.51698267  0.92227264  0.92178022  1.0
  C  C118  1  0.02076360  0.89971209  0.05448905  1.0
  C  C119  1  0.03124467  0.07709907  0.07718322  1.0
  O  O120  1  0.48293501  0.42484454  0.54752021  1.0
  O  O121  1  0.82789010  0.55909141  0.56029598  1.0
  O  O122  1  0.98007847  0.57824376  0.45586438  1.0
  O  O123  1  0.82088975  0.42416409  0.53712091  1.0
  O  O124  1  0.97972816  0.44668972  0.43704207  1.0
  O  O125  1  0.48522269  0.55712196  0.56223316  1.0
  O  O126  1  0.64640455  0.50759131  0.46718858  1.0
  O  O127  1  0.32064351  0.43810624  0.44329388  1.0
  O  O128  1  0.32012265  0.57393262  0.46068113  1.0
  O  O129  1  0.14909636  0.49363363  0.53370769  1.0
  O  O130  1  0.68982243  0.94398338  0.93705387  1.0
  O  O131  1  0.35792047  0.07436867  0.96141788  1.0
  O  O132  1  0.20109371  0.05543927  0.06213525  1.0
  O  O133  1  0.34776536  0.93880795  0.94126754  1.0
  O  O134  1  0.19576918  0.92315735  0.04576428  1.0
  O  O135  1  0.69696172  0.07599140  0.95362725  1.0
  O  O136  1  0.53162129  0.99246075  0.03294622  1.0
  O  O137  1  0.85605681  0.92456060  0.03784959  1.0
  O  O138  1  0.85893646  0.06008610  0.05778907  1.0
  O  O139  1  0.02867620  0.00633038  0.96633695  1.0
