# generated using pymatgen
data_Zn4H49C80N22F
_symmetry_space_group_name_H-M   'P 1'
_cell_length_a   18.64798922
_cell_length_b   18.92777088
_cell_length_c   20.60298889
_cell_angle_alpha   102.01147389
_cell_angle_beta   108.30608519
_cell_angle_gamma   112.53395704
_symmetry_Int_Tables_number   1
_chemical_formula_structural   Zn4H49C80N22F
_chemical_formula_sum   'Zn4 H49 C80 N22 F1'
_cell_volume   5912.69792281
_cell_formula_units_Z   1
loop_
 _symmetry_equiv_pos_site_id
 _symmetry_equiv_pos_as_xyz
  1  'x, y, z'
loop_
 _atom_site_type_symbol
 _atom_site_label
 _atom_site_symmetry_multiplicity
 _atom_site_fract_x
 _atom_site_fract_y
 _atom_site_fract_z
 _atom_site_occupancy
  Zn  Zn0  1  0.38533343  0.40650809  0.52601278  1.0
  Zn  Zn1  1  0.59460514  0.60828102  0.50500871  1.0
  Zn  Zn2  1  0.38565975  0.50543045  0.41430304  1.0
  Zn  Zn3  1  0.59715936  0.49791439  0.60767383  1.0
  H  H4  1  0.30960234  0.23450312  0.39929019  1.0
  H  H5  1  0.25153783  0.81870391  0.49369285  1.0
  H  H6  1  0.63291946  0.51194483  0.38073060  1.0
  H  H7  1  0.25577402  0.95104040  0.49446077  1.0
  H  H8  1  0.34103275  0.10064159  0.53070201  1.0
  H  H9  1  0.60223290  0.23527204  0.70266136  1.0
  H  H10  1  0.67334505  0.15889299  0.75378302  1.0
  H  H11  1  0.67046519  0.02679143  0.75039501  1.0
  H  H12  1  0.01584935  0.25988727  0.42819689  1.0
  H  H13  1  0.05078545  0.43539919  0.32088151  1.0
  H  H14  1  0.93522010  0.46836243  0.26885024  1.0
  H  H15  1  0.61164715  0.76106914  0.62590439  1.0
  H  H16  1  0.80817679  0.47786449  0.27343749  1.0
  H  H17  1  0.36184987  0.56306206  0.26789185  1.0
  H  H18  1  0.67773494  0.29289837  0.44876839  1.0
  H  H19  1  0.75734141  0.21242971  0.45412471  1.0
  H  H20  1  0.88250750  0.20118317  0.44741628  1.0
  H  H21  1  0.37424645  0.59719785  0.16879187  1.0
  H  H22  1  0.38882191  0.63068651  0.06182640  1.0
  H  H23  1  0.35630607  0.65224299  0.87311605  1.0
  H  H24  1  0.36004841  0.61159050  0.75170011  1.0
  H  H25  1  0.64910712  0.75149722  0.30015678  1.0
  H  H26  1  0.77492446  0.64247029  0.75965566  1.0
  H  H27  1  0.62223514  0.71600585  0.98490784  1.0
  H  H28  1  0.66257261  0.78206697  0.19155971  1.0
  H  H29  1  0.61906335  0.34247053  0.65189464  1.0
  H  H30  1  0.62669444  0.67335579  0.86472453  1.0
  H  H31  1  0.81301459  0.76884255  0.85872852  1.0
  H  H32  1  0.91960852  0.89324089  0.97285054  1.0
  H  H33  1  0.04857304  0.04997184  0.16680230  1.0
  H  H34  1  0.16917660  0.15763500  0.28709099  1.0
  H  H35  1  0.91048787  0.89676399  0.72947394  1.0
  H  H36  1  0.19206837  0.15283830  0.05198245  1.0
  H  H37  1  0.76278933  0.78780493  0.62394434  1.0
  H  H38  1  0.01582369  0.02153398  0.84442440  1.0
  H  H39  1  0.31478103  0.25827457  0.17177547  1.0
  H  H40  1  0.64039643  0.69515945  0.38813037  1.0
  H  H41  1  0.62345962  0.35824212  0.51082441  1.0
  H  H42  1  0.37785354  0.39179455  0.27871262  1.0
  H  H43  1  0.35236586  0.52060664  0.64488898  1.0
  H  H44  1  0.20516804  0.41134690  0.27439000  1.0
  H  H45  1  0.10441414  0.38263154  0.26364693  1.0
  H  H46  1  0.30453977  0.17932347  0.57435813  1.0
  H  H47  1  0.28997574  0.25710629  0.55887012  1.0
  H  H48  1  0.17803136  0.34901902  0.50383871  1.0
  H  H49  1  0.63149549  0.63584990  0.75360487  1.0
  H  H50  1  0.33290195  0.62151116  0.50462237  1.0
  H  H51  1  0.59653192  0.87389718  0.68832875  1.0
  H  H52  1  0.33079547  0.74348222  0.52561466  1.0
  C  C53  1  0.33451024  0.28430963  0.38054998  1.0
  C  C54  1  0.19170813  0.37028633  0.46180163  1.0
  C  C55  1  0.56298916  0.59951522  0.71728499  1.0
  C  C56  1  0.62666869  0.48147843  0.41924072  1.0
  C  C57  1  0.40223674  0.64517332  0.52895034  1.0
  C  C58  1  0.49224589  0.59816207  0.72930645  1.0
  C  C59  1  0.46963993  0.72339718  0.58058183  1.0
  C  C60  1  0.13419545  0.36916774  0.39755077  1.0
  C  C61  1  0.79545377  0.74821399  0.72037480  1.0
  C  C62  1  0.53739257  0.87385028  0.65635201  1.0
  C  C63  1  0.46455437  0.79923605  0.60397613  1.0
  C  C64  1  0.64250401  0.41578851  0.42727475  1.0
  C  C65  1  0.38833079  0.80070102  0.56601595  1.0
  C  C66  1  0.38564091  0.87471448  0.57341986  1.0
  C  C67  1  0.46212728  0.95086569  0.62197732  1.0
  C  C68  1  0.42928102  0.59058089  0.30634000  1.0
  C  C69  1  0.53782326  0.94968799  0.66592089  1.0
  C  C70  1  0.31041711  0.87708546  0.52938879  1.0
  C  C71  1  0.31275958  0.95017744  0.52984075  1.0
  C  C72  1  0.39001980  0.02736781  0.57545450  1.0
  C  C73  1  0.46406820  0.02684924  0.62330865  1.0
  C  C74  1  0.54136738  0.10326460  0.66972431  1.0
  C  C75  1  0.50389389  0.64302995  0.30211082  1.0
  C  C76  1  0.61485014  0.10057576  0.71693527  1.0
  C  C77  1  0.61320244  0.02731416  0.71510015  1.0
  C  C78  1  0.39586274  0.10255443  0.57233197  1.0
  C  C79  1  0.47185859  0.17813102  0.61699172  1.0
  C  C80  1  0.55206871  0.32876813  0.62853816  1.0
  C  C81  1  0.54323265  0.17717228  0.66641475  1.0
  C  C82  1  0.99239662  0.29559709  0.40096048  1.0
  C  C83  1  0.04429619  0.34940861  0.37672885  1.0
  C  C84  1  0.01105890  0.39165510  0.33852389  1.0
  C  C85  1  0.93150316  0.38686793  0.32971547  1.0
  C  C86  1  0.47756604  0.25512311  0.61016385  1.0
  C  C87  1  0.88352625  0.33876652  0.36123028  1.0
  C  C88  1  0.91317688  0.29015693  0.39481511  1.0
  C  C89  1  0.90006714  0.43431393  0.29541273  1.0
  C  C90  1  0.82993057  0.43974354  0.29787424  1.0
  C  C91  1  0.78614911  0.39821155  0.33571517  1.0
  C  C92  1  0.57110070  0.65845033  0.36790818  1.0
  C  C93  1  0.81120012  0.34480198  0.36472360  1.0
  C  C94  1  0.76760620  0.30291584  0.40220702  1.0
  C  C95  1  0.79320800  0.24787748  0.42874837  1.0
  C  C96  1  0.86260165  0.24161574  0.42505139  1.0
  C  C97  1  0.42065154  0.54149204  0.66153047  1.0
  C  C98  1  0.72413097  0.41284326  0.35125472  1.0
  C  C99  1  0.68741742  0.38105928  0.39559650  1.0
  C  C100  1  0.70705573  0.32186304  0.41652635  1.0
  C  C101  1  0.49286544  0.63665769  0.79873714  1.0
  C  C102  1  0.56751184  0.67020773  0.86595135  1.0
  C  C103  1  0.56579574  0.69415174  0.93337414  1.0
  C  C104  1  0.41016375  0.27360236  0.58174309  1.0
  C  C105  1  0.48828585  0.68516375  0.93618296  1.0
  C  C106  1  0.41537037  0.65758046  0.86995848  1.0
  C  C107  1  0.41786607  0.63442336  0.80248182  1.0
  C  C108  1  0.54434450  0.71593246  0.59093812  1.0
  C  C109  1  0.44494693  0.65745446  0.11472108  1.0
  C  C110  1  0.43761759  0.63909131  0.17472009  1.0
  C  C111  1  0.52679764  0.70798958  0.12006557  1.0
  C  C112  1  0.51086834  0.67040621  0.24223459  1.0
  C  C113  1  0.59161372  0.72483040  0.24818681  1.0
  C  C114  1  0.59967376  0.74273019  0.18803366  1.0
  C  C115  1  0.25086948  0.21566099  0.23826305  1.0
  C  C116  1  0.62140099  0.40259702  0.48529972  1.0
  C  C117  1  0.25591825  0.21344457  0.17086805  1.0
  C  C118  1  0.18806368  0.15491850  0.10393559  1.0
  C  C119  1  0.18828365  0.40497910  0.36517030  1.0
  C  C120  1  0.11259268  0.09557081  0.10238494  1.0
  C  C121  1  0.10750499  0.09636477  0.16916691  1.0
  C  C122  1  0.17524178  0.15569659  0.23587145  1.0
  C  C123  1  0.91662743  0.89291014  0.91913067  1.0
  C  C124  1  0.85819798  0.82387428  0.85546139  1.0
  C  C125  1  0.97488407  0.96446594  0.91545326  1.0
  C  C126  1  0.85533739  0.82309882  0.78595612  1.0
  C  C127  1  0.91144779  0.89596624  0.78255587  1.0
  C  C128  1  0.37034199  0.36413354  0.31905994  1.0
  C  C129  1  0.97047727  0.96560355  0.84636365  1.0
  C  C130  1  0.76073805  0.66604140  0.71611961  1.0
  C  C131  1  0.31774145  0.28208578  0.30823214  1.0
  C  C132  1  0.75594844  0.74014549  0.64690759  1.0
  N  N133  1  0.39071920  0.36197620  0.42956788  1.0
  N  N134  1  0.54241881  0.71861603  0.05947913  1.0
  N  N135  1  0.04144664  0.03125190  0.03860453  1.0
  N  N136  1  0.60076519  0.50554528  0.46956759  1.0
  N  N137  1  0.04199723  0.03471493  0.97776271  1.0
  N  N138  1  0.45071558  0.57637812  0.36915623  1.0
  N  N139  1  0.53165975  0.38570324  0.61249421  1.0
  N  N140  1  0.53908980  0.61873443  0.40750412  1.0
  N  N141  1  0.44261278  0.35105939  0.58300206  1.0
  N  N142  1  0.59736655  0.45725644  0.51012904  1.0
  N  N143  1  0.41226838  0.41172753  0.39174039  1.0
  N  N144  1  0.52256035  0.64011551  0.54745770  1.0
  N  N145  1  0.44757504  0.51130155  0.61456495  1.0
  N  N146  1  0.16789779  0.41858740  0.29948840  1.0
  N  N147  1  0.32115671  0.22394247  0.55327649  1.0
  N  N148  1  0.27059501  0.42810166  0.40861269  1.0
  N  N149  1  0.70487459  0.61371629  0.64621812  1.0
  N  N150  1  0.70161013  0.66022820  0.60317094  1.0
  N  N151  1  0.27279778  0.40532383  0.46867346  1.0
  N  N152  1  0.53500346  0.54709902  0.64878862  1.0
  N  N153  1  0.43517783  0.59669055  0.50963817  1.0
  N  N154  1  0.47508877  0.69218464  0.00014984  1.0
  F  F155  1  0.70387847  0.46725126  0.32565887  1.0
