# generated using pymatgen
data_ZnH10C22N4O11
_symmetry_space_group_name_H-M   'P 1'
_cell_length_a   9.65230470
_cell_length_b   10.99834357
_cell_length_c   23.63982011
_cell_angle_alpha   88.83110711
_cell_angle_beta   86.61139589
_cell_angle_gamma   87.38787478
_symmetry_Int_Tables_number   1
_chemical_formula_structural   ZnH10C22N4O11
_chemical_formula_sum   'Zn2 H20 C44 N8 O22'
_cell_volume   2502.20296058
_cell_formula_units_Z   2
loop_
 _symmetry_equiv_pos_site_id
 _symmetry_equiv_pos_as_xyz
  1  'x, y, z'
loop_
 _atom_site_type_symbol
 _atom_site_label
 _atom_site_symmetry_multiplicity
 _atom_site_fract_x
 _atom_site_fract_y
 _atom_site_fract_z
 _atom_site_occupancy
  Zn  Zn0  1  0.36798213  0.49113438  0.49815188  1.0
  Zn  Zn1  1  0.65430314  0.48136169  0.49323406  1.0
  H  H2  1  0.19750163  0.39533609  0.06347828  1.0
  H  H3  1  0.73041657  0.77074845  0.03987699  1.0
  H  H4  1  0.73141503  0.76071211  0.93301028  1.0
  H  H5  1  0.28338839  0.64905044  0.22952925  1.0
  H  H6  1  0.30355510  0.61188289  0.33347350  1.0
  H  H7  1  0.71704720  0.45713733  0.30148271  1.0
  H  H8  1  0.69480010  0.48819240  0.19740169  1.0
  H  H9  1  0.34622542  0.69038183  0.77385764  1.0
  H  H10  1  0.73004833  0.85559582  0.49640108  1.0
  H  H11  1  0.18981534  0.90593928  0.54998837  1.0
  H  H12  1  0.20066900  0.12704562  0.46897908  1.0
  H  H13  1  0.19725058  0.13282065  0.54476599  1.0
  H  H14  1  0.86151009  0.54821321  0.58023336  1.0
  H  H15  1  0.12144891  0.55200538  0.58101051  1.0
  H  H16  1  0.16504763  0.43461593  0.36757331  1.0
  H  H17  1  0.16920513  0.28698263  0.39996235  1.0
  H  H18  1  0.90185397  0.43247414  0.36787259  1.0
  H  H19  1  0.90712125  0.28392052  0.40046895  1.0
  H  H20  1  0.33247789  0.63418365  0.62729031  1.0
  H  H21  1  0.06641555  0.93099127  0.46438703  1.0
  C  C22  1  0.52270198  0.25350721  0.50054047  1.0
  C  C23  1  0.51969248  0.50528608  0.38574692  1.0
  C  C24  1  0.50400966  0.72047088  0.49833255  1.0
  C  C25  1  0.50154185  0.48957347  0.60867738  1.0
  C  C26  1  0.57035144  0.63276817  0.87175230  1.0
  C  C27  1  0.37613842  0.48695595  0.88033930  1.0
  C  C28  1  0.36912811  0.50161762  0.94248798  1.0
  C  C29  1  0.46588152  0.57371760  0.96791110  1.0
  C  C30  1  0.56443549  0.63970167  0.93438784  1.0
  C  C31  1  0.27324228  0.44113006  0.97760685  1.0
  C  C32  1  0.27186951  0.44581648  0.03684503  1.0
  C  C33  1  0.36795501  0.51391538  0.06188089  1.0
  C  C34  1  0.46549878  0.57987603  0.02807064  1.0
  C  C35  1  0.56310470  0.65080606  0.05325813  1.0
  C  C36  1  0.65704804  0.71616368  0.01937412  1.0
  C  C37  1  0.65754040  0.71058016  0.96005853  1.0
  C  C38  1  0.36941034  0.51318518  0.12462612  1.0
  C  C39  1  0.56787518  0.65381097  0.11582760  1.0
  C  C40  1  0.37748679  0.60604168  0.24551049  1.0
  C  C41  1  0.38870789  0.58486162  0.30335432  1.0
  C  C42  1  0.51053609  0.53019690  0.32361256  1.0
  C  C43  1  0.62201167  0.49826582  0.28543003  1.0
  C  C44  1  0.60985211  0.51570829  0.22746399  1.0
  C  C45  1  0.48723681  0.56899373  0.20783941  1.0
  C  C46  1  0.56486629  0.43776140  0.76591223  1.0
  C  C47  1  0.56841716  0.42223497  0.70729303  1.0
  C  C48  1  0.49416186  0.50064406  0.67178963  1.0
  C  C49  1  0.40955914  0.59668734  0.69681972  1.0
  C  C50  1  0.41009779  0.61580651  0.75523433  1.0
  C  C51  1  0.48614702  0.53776289  0.78922814  1.0
  C  C52  1  0.39691006  0.05939731  0.50430059  1.0
  C  C53  1  0.52194712  0.11804617  0.50376273  1.0
  C  C54  1  0.64113743  0.03824067  0.50081429  1.0
  C  C55  1  0.63452425  0.91230692  0.49829850  1.0
  C  C56  1  0.50648525  0.85588557  0.49917053  1.0
  C  C57  1  0.38788035  0.93316006  0.50198794  1.0
  C  C58  1  0.22914282  0.94098003  0.50816840  1.0
  C  C59  1  0.24140795  0.08422667  0.50735477  1.0
  C  C60  1  0.94843438  0.43135338  0.45785184  1.0
  C  C61  1  0.92789999  0.51579039  0.54432430  1.0
  C  C62  1  0.07206498  0.51766029  0.54467764  1.0
  C  C63  1  0.09262089  0.43319864  0.45807811  1.0
  C  C64  1  0.11473791  0.37671876  0.40022904  1.0
  C  C65  1  0.95010057  0.37465072  0.40026318  1.0
  N  N66  1  0.47398156  0.55637654  0.84937466  1.0
  N  N67  1  0.47325898  0.58043931  0.14755215  1.0
  N  N68  1  0.86330709  0.47395447  0.49957993  1.0
  N  N69  1  0.15774669  0.47785011  0.50052564  1.0
  N  N70  1  0.16512516  0.36709659  0.95494999  1.0
  N  N71  1  0.65396120  0.31998223  0.68093910  1.0
  N  N72  1  0.78321046  0.08265196  0.50325929  1.0
  N  N73  1  0.63298944  0.34712691  0.80250846  1.0
  O  O74  1  0.40896269  0.31025328  0.51549246  1.0
  O  O75  1  0.63344716  0.30168141  0.48132187  1.0
  O  O76  1  0.40690165  0.47731013  0.41291944  1.0
  O  O77  1  0.63707856  0.51355620  0.40690093  1.0
  O  O78  1  0.38885419  0.67514055  0.48939023  1.0
  O  O79  1  0.61786873  0.66142642  0.50729301  1.0
  O  O80  1  0.38946310  0.52548425  0.58485292  1.0
  O  O81  1  0.61266580  0.45232438  0.58301275  1.0
  O  O82  1  0.65216406  0.68766300  0.84022527  1.0
  O  O83  1  0.30397364  0.41727333  0.85634867  1.0
  O  O84  1  0.28734352  0.45550442  0.15508831  1.0
  O  O85  1  0.64990346  0.71443780  0.13970493  1.0
  O  O86  1  0.18817991  0.25588798  0.95548953  1.0
  O  O87  1  0.05773988  0.42287024  0.94172436  1.0
  O  O88  1  0.59056291  0.23883089  0.66032078  1.0
  O  O89  1  0.78105589  0.32768319  0.68125448  1.0
  O  O90  1  0.32889824  0.67132893  0.66600407  1.0
  O  O91  1  0.80824682  0.14704206  0.54303199  1.0
  O  O92  1  0.87059982  0.04651069  0.46540673  1.0
  O  O93  1  0.15935363  0.89146717  0.46353712  1.0
  O  O94  1  0.67974469  0.38305583  0.84672203  1.0
  O  O95  1  0.63762546  0.24005196  0.78703545  1.0
