# generated using pymatgen
data_AlH6C24N3(OF)6
_symmetry_space_group_name_H-M   'P 1'
_cell_length_a   3.96569241
_cell_length_b   15.80477505
_cell_length_c   15.83055642
_cell_angle_alpha   60.16119660
_cell_angle_beta   84.99521678
_cell_angle_gamma   85.32916295
_symmetry_Int_Tables_number   1
_chemical_formula_structural   AlH6C24N3(OF)6
_chemical_formula_sum   'Al1 H6 C24 N3 O6 F6'
_cell_volume   856.55939018
_cell_formula_units_Z   1
loop_
 _symmetry_equiv_pos_site_id
 _symmetry_equiv_pos_as_xyz
  1  'x, y, z'
loop_
 _atom_site_type_symbol
 _atom_site_label
 _atom_site_symmetry_multiplicity
 _atom_site_fract_x
 _atom_site_fract_y
 _atom_site_fract_z
 _atom_site_occupancy
  Al  Al0  1  0.00004480  0.49946136  0.50019080  1.0
  H  H1  1  0.60348815  0.40924520  0.13535371  1.0
  H  H2  1  0.60410132  0.13646009  0.40861170  1.0
  H  H3  1  0.55855885  0.41015742  0.94983282  1.0
  H  H4  1  0.50821707  0.13684330  0.95125981  1.0
  H  H5  1  0.50850924  0.95015957  0.13735200  1.0
  H  H6  1  0.56998078  0.95093428  0.40861178  1.0
  C  C7  1  0.48104972  0.64903186  0.42696467  1.0
  C  C8  1  0.54870667  0.42592846  0.42316611  1.0
  C  C9  1  0.47652747  0.42362888  0.64975216  1.0
  C  C10  1  0.56214551  0.21345842  0.06932147  1.0
  C  C11  1  0.59912213  0.21292894  0.21214079  1.0
  C  C12  1  0.56552504  0.06984432  0.21254506  1.0
  C  C13  1  0.59251734  0.41850942  0.26661642  1.0
  C  C14  1  0.60299119  0.36915480  0.21455503  1.0
  C  C15  1  0.60588577  0.26687981  0.26594926  1.0
  C  C16  1  0.60035471  0.21581947  0.36815774  1.0
  C  C17  1  0.58391837  0.26851437  0.41696005  1.0
  C  C18  1  0.57922492  0.37074007  0.36867267  1.0
  C  C19  1  0.53668673  0.36984223  0.91155077  1.0
  C  C20  1  0.50632202  0.41881579  0.81148577  1.0
  C  C21  1  0.48265257  0.37037436  0.75863510  1.0
  C  C22  1  0.48522284  0.26833715  0.81224662  1.0
  C  C23  1  0.51004506  0.21611620  0.91235391  1.0
  C  C24  1  0.53796849  0.26753304  0.96231891  1.0
  C  C25  1  0.51103722  0.91172928  0.21649946  1.0
  C  C26  1  0.48173061  0.81140789  0.26936656  1.0
  C  C27  1  0.49071383  0.75773228  0.37132225  1.0
  C  C28  1  0.52494861  0.81169023  0.41838507  1.0
  C  C29  1  0.54889529  0.91208468  0.36884777  1.0
  C  C30  1  0.54396523  0.96243044  0.26685264  1.0
  N  N31  1  0.58886969  0.26533339  0.11452536  1.0
  N  N32  1  0.59265124  0.11505526  0.26438867  1.0
  N  N33  1  0.54823860  0.11565820  0.11515600  1.0
  O  O34  1  0.72750162  0.40500027  0.60503091  1.0
  O  O35  1  0.70272882  0.60412726  0.48997062  1.0
  O  O36  1  0.77208143  0.48689404  0.40453691  1.0
  O  O37  1  0.22759057  0.48256812  0.61065778  1.0
  O  O38  1  0.29696183  0.40732821  0.48429342  1.0
  O  O39  1  0.25682892  0.60898457  0.40782030  1.0
  F  F40  1  0.57760974  0.21925299  0.51564742  1.0
  F  F41  1  0.58222520  0.51736936  0.21696508  1.0
  F  F42  1  0.50756056  0.51760816  0.76207154  1.0
  F  F43  1  0.45714516  0.21912998  0.76357295  1.0
  F  F44  1  0.45416387  0.76298733  0.22004547  1.0
  F  F45  1  0.52599160  0.76392041  0.51688746  1.0
