# generated using pymatgen
data_Zn2H11C38N8O5F6
_symmetry_space_group_name_H-M   'P 1'
_cell_length_a   19.59672362
_cell_length_b   19.64592222
_cell_length_c   19.75872866
_cell_angle_alpha   112.60038032
_cell_angle_beta   97.01048123
_cell_angle_gamma   116.17601761
_symmetry_Int_Tables_number   1
_chemical_formula_structural   Zn2H11C38N8O5F6
_chemical_formula_sum   'Zn4 H22 C76 N16 O10 F12'
_cell_volume   5899.43471553
_cell_formula_units_Z   2
loop_
 _symmetry_equiv_pos_site_id
 _symmetry_equiv_pos_as_xyz
  1  'x, y, z'
loop_
 _atom_site_type_symbol
 _atom_site_label
 _atom_site_symmetry_multiplicity
 _atom_site_fract_x
 _atom_site_fract_y
 _atom_site_fract_z
 _atom_site_occupancy
  Zn  Zn0  1  0.62847691  0.63015633  0.50048187  1.0
  Zn  Zn1  1  0.37687760  0.38150998  0.50751377  1.0
  Zn  Zn2  1  0.50129087  0.60250699  0.61660190  1.0
  Zn  Zn3  1  0.50717888  0.40943456  0.39852786  1.0
  H  H4  1  0.03729668  0.97087207  0.87406313  1.0
  H  H5  1  0.99500980  0.04496180  0.13040782  1.0
  H  H6  1  0.35407816  0.18744632  0.47522970  1.0
  H  H7  1  0.51938536  0.64313293  0.37825593  1.0
  H  H8  1  0.59722109  0.36455543  0.50327889  1.0
  H  H9  1  0.37355713  0.65407911  0.69005218  1.0
  H  H10  1  0.45579254  0.33291050  0.62356776  1.0
  H  H11  1  0.70057125  0.65327719  0.35936829  1.0
  H  H12  1  0.76762683  0.64388068  0.62412667  1.0
  H  H13  1  0.21139815  0.37837902  0.52478227  1.0
  H  H14  1  0.49310832  0.21825889  0.32284720  1.0
  H  H15  1  0.37450398  0.62149673  0.52700487  1.0
  H  H16  1  0.84633686  0.83759487  0.64338462  1.0
  H  H17  1  0.16344514  0.19426581  0.34387265  1.0
  H  H18  1  0.06479931  0.71178146  0.63611246  1.0
  H  H19  1  0.90660538  0.30081138  0.60216395  1.0
  H  H20  1  0.28426224  0.74778984  0.45788254  1.0
  H  H21  1  0.50158068  0.00561247  0.30622725  1.0
  H  H22  1  0.75747919  0.65323798  0.17912419  1.0
  H  H23  1  0.54880766  0.31221736  0.79444576  1.0
  H  H24  1  0.98387448  0.62546705  0.81440274  1.0
  H  H25  1  0.00058754  0.40310082  0.45231314  1.0
  C  C26  1  0.72963502  0.77932410  0.66089161  1.0
  C  C27  1  0.27470376  0.29905992  0.34977870  1.0
  C  C28  1  0.42177492  0.16800831  0.39228116  1.0
  C  C29  1  0.42871199  0.64573226  0.43802733  1.0
  C  C30  1  0.56309267  0.46778844  0.71000438  1.0
  C  C31  1  0.63019604  0.51138226  0.26619369  1.0
  C  C32  1  0.70822356  0.50002976  0.58022382  1.0
  C  C33  1  0.26264363  0.51911313  0.61173091  1.0
  C  C34  1  0.01672958  0.50290781  0.68859022  1.0
  C  C35  1  0.95496078  0.51751896  0.57139085  1.0
  C  C36  1  0.99729461  0.57463989  0.69926835  1.0
  C  C37  1  0.97434369  0.44536807  0.56085218  1.0
  C  C38  1  0.77318524  0.49311937  0.60765955  1.0
  C  C39  1  0.19465791  0.52367408  0.62094393  1.0
  C  C40  1  0.93238161  0.42882081  0.62042531  1.0
  C  C41  1  0.03823974  0.59098892  0.63860223  1.0
  C  C42  1  0.91014438  0.49901302  0.62943722  1.0
  C  C43  1  0.06068869  0.52047081  0.62992579  1.0
  C  C44  1  0.83511949  0.49315686  0.62522325  1.0
  C  C45  1  0.13426758  0.52566656  0.62677478  1.0
  C  C46  1  0.33768630  0.84061071  0.41697406  1.0
  C  C47  1  0.44232499  0.90738729  0.34018815  1.0
  C  C48  1  0.38955058  0.20940906  0.44160227  1.0
  C  C49  1  0.49118927  0.63284306  0.42030019  1.0
  C  C50  1  0.38172847  0.80183680  0.38663989  1.0
  C  C51  1  0.40060202  0.94805506  0.37304268  1.0
  C  C52  1  0.43121285  0.83558349  0.34747663  1.0
  C  C53  1  0.34846409  0.91213099  0.40930265  1.0
  C  C54  1  0.38288803  0.73592542  0.39846258  1.0
  C  C55  1  0.41042567  0.02334812  0.37282471  1.0
  C  C56  1  0.41616299  0.09021607  0.37927021  1.0
  C  C57  1  0.39850161  0.68829246  0.41326284  1.0
  C  C58  1  0.69400053  0.55408032  0.97634533  1.0
  C  C59  1  0.60787891  0.41265701  0.99682555  1.0
  C  C60  1  0.63934430  0.47209228  0.90944024  1.0
  C  C61  1  0.65802164  0.49571241  0.06374367  1.0
  C  C62  1  0.59745925  0.39869191  0.92045978  1.0
  C  C63  1  0.70453938  0.56808474  0.05282186  1.0
  C  C64  1  0.62158221  0.46605424  0.83524197  1.0
  C  C65  1  0.65678115  0.50432583  0.13765675  1.0
  C  C66  1  0.64593013  0.50712419  0.19802507  1.0
  C  C67  1  0.59759975  0.46536733  0.77474287  1.0
  C  C68  1  0.09300827  0.04482241  0.99905677  1.0
  C  C69  1  0.93938392  0.97066358  0.00552745  1.0
  C  C70  1  0.58328326  0.54211105  0.70254818  1.0
  C  C71  1  0.57785380  0.44261652  0.27712340  1.0
  C  C72  1  0.08422025  0.07058800  0.07309913  1.0
  C  C73  1  0.94778375  0.95031613  0.93140404  1.0
  C  C74  1  0.00491989  0.02907735  0.07480590  1.0
  C  C75  1  0.02742352  0.98672282  0.92968832  1.0
  C  C76  1  0.15089448  0.13921750  0.14201423  1.0
  C  C77  1  0.87863067  0.90002887  0.86324035  1.0
  C  C78  1  0.81722421  0.86117386  0.80641338  1.0
  C  C79  1  0.20639534  0.20328575  0.20153308  1.0
  C  C80  1  0.62864714  0.43452213  0.52676525  1.0
  C  C81  1  0.34548591  0.58573933  0.64760921  1.0
  C  C82  1  0.49242055  0.40198136  0.64296452  1.0
  C  C83  1  0.65812630  0.58508281  0.34004990  1.0
  C  C84  1  0.71563116  0.57775496  0.58834893  1.0
  C  C85  1  0.26257192  0.44463172  0.56246194  1.0
  C  C86  1  0.46036806  0.22429785  0.36315237  1.0
  C  C87  1  0.41708175  0.62199631  0.49653591  1.0
  C  C88  1  0.66536185  0.77007891  0.74364235  1.0
  C  C89  1  0.34726664  0.33833172  0.28047514  1.0
  C  C90  1  0.74466629  0.81136414  0.74297686  1.0
  C  C91  1  0.26967351  0.27484922  0.27044753  1.0
  C  C92  1  0.78056797  0.78837771  0.61440266  1.0
  C  C93  1  0.22449920  0.25222979  0.38266269  1.0
  C  C94  1  0.09456371  0.68008100  0.65141391  1.0
  C  C95  1  0.87969884  0.34179624  0.61283420  1.0
  C  C96  1  0.28325669  0.80330464  0.45573408  1.0
  C  C97  1  0.49729375  0.94548834  0.30212506  1.0
  C  C98  1  0.76047409  0.65468487  0.12360088  1.0
  C  C99  1  0.54404638  0.31134588  0.84983967  1.0
  C  C100  1  0.00542377  0.64467880  0.77126669  1.0
  C  C101  1  0.96441337  0.37773763  0.48581327  1.0
  N  N102  1  0.64902862  0.72375733  0.61996117  1.0
  N  N103  1  0.34896955  0.37100737  0.39907309  1.0
  N  N104  1  0.40787015  0.28368893  0.44211072  1.0
  N  N105  1  0.51568854  0.60648766  0.46628515  1.0
  N  N106  1  0.52992595  0.52439710  0.63978696  1.0
  N  N107  1  0.57406405  0.47129955  0.34874639  1.0
  N  N108  1  0.59318831  0.47129659  0.50412794  1.0
  N  N109  1  0.39002959  0.55256754  0.62137581  1.0
  N  N110  1  0.47344030  0.43635827  0.60259521  1.0
  N  N111  1  0.62474808  0.56092024  0.38829951  1.0
  N  N112  1  0.64692819  0.55919436  0.54215430  1.0
  N  N113  1  0.33878340  0.46537911  0.56834740  1.0
  N  N114  1  0.45122523  0.29265781  0.39317603  1.0
  N  N115  1  0.47021183  0.59976143  0.51340336  1.0
  N  N116  1  0.60959230  0.71752801  0.67058424  1.0
  N  N117  1  0.39446566  0.39432999  0.35690941  1.0
  O  O118  1  0.75164452  0.74050641  0.54135330  1.0
  O  O119  1  0.24980453  0.27340897  0.45340582  1.0
  O  O120  1  0.16823738  0.71558138  0.67617443  1.0
  O  O121  1  0.81319262  0.31740135  0.61969316  1.0
  O  O122  1  0.24027981  0.82772737  0.48276897  1.0
  O  O123  1  0.53510635  0.91683173  0.26919244  1.0
  O  O124  1  0.80660711  0.72208258  0.12441786  1.0
  O  O125  1  0.49895821  0.24377575  0.84923337  1.0
  O  O126  1  0.03145055  0.71859612  0.78202051  1.0
  O  O127  1  0.92039853  0.29956115  0.46131060  1.0
  F  F128  1  0.04807568  0.49564288  0.74895532  1.0
  F  F129  1  0.92234023  0.52350804  0.51060527  1.0
  F  F130  1  0.30883553  0.95092115  0.43882190  1.0
  F  F131  1  0.47144948  0.79738578  0.31842253  1.0
  F  F132  1  0.73477980  0.62194199  0.96459332  1.0
  F  F133  1  0.56724243  0.34491196  0.00870830  1.0
  F  F134  1  0.16885499  0.08093074  0.99622389  1.0
  F  F135  1  0.86368362  0.93376764  0.00839969  1.0
  F  F136  1  0.64671507  0.62295400  0.75114889  1.0
  F  F137  1  0.53500964  0.35722835  0.22608864  1.0
  F  F138  1  0.64231416  0.77639017  0.80525784  1.0
  F  F139  1  0.37693268  0.34611516  0.22486898  1.0
