# generated using pymatgen
data_Cu2H20C20N4O9
_symmetry_space_group_name_H-M   'P 1'
_cell_length_a   8.54128252
_cell_length_b   12.85861949
_cell_length_c   15.52228436
_cell_angle_alpha   114.42357283
_cell_angle_beta   102.78725409
_cell_angle_gamma   90.01969028
_symmetry_Int_Tables_number   1
_chemical_formula_structural   Cu2H20C20N4O9
_chemical_formula_sum   'Cu4 H40 C40 N8 O18'
_cell_volume   1505.62223509
_cell_formula_units_Z   2
loop_
 _symmetry_equiv_pos_site_id
 _symmetry_equiv_pos_as_xyz
  1  'x, y, z'
loop_
 _atom_site_type_symbol
 _atom_site_label
 _atom_site_symmetry_multiplicity
 _atom_site_fract_x
 _atom_site_fract_y
 _atom_site_fract_z
 _atom_site_occupancy
  Cu  Cu0  1  0.60582006  0.57196288  0.57507548  1.0
  Cu  Cu1  1  0.10588483  0.00318614  0.57514222  1.0
  Cu  Cu2  1  0.39420591  0.42802535  0.42491105  1.0
  Cu  Cu3  1  0.89409368  0.99683196  0.42487174  1.0
  H  H4  1  0.78495490  0.80704466  0.63663363  1.0
  H  H5  1  0.28544874  0.82940715  0.63655504  1.0
  H  H6  1  0.21502411  0.19295810  0.36335863  1.0
  H  H7  1  0.71453820  0.17060071  0.36344493  1.0
  H  H8  1  0.99376730  0.95344442  0.77184254  1.0
  H  H9  1  0.49437376  0.81812506  0.77174078  1.0
  H  H10  1  0.00621040  0.04656761  0.22814437  1.0
  H  H11  1  0.50562696  0.18187880  0.22825410  1.0
  H  H12  1  0.02770433  0.72765559  0.91796128  1.0
  H  H13  1  0.52750709  0.18974834  0.91808798  1.0
  H  H14  1  0.97231312  0.27235341  0.08202559  1.0
  H  H15  1  0.47247250  0.81025563  0.08192726  1.0
  H  H16  1  0.81136869  0.59264956  0.77583119  1.0
  H  H17  1  0.31130773  0.18274445  0.77590443  1.0
  H  H18  1  0.18866004  0.40734750  0.22415385  1.0
  H  H19  1  0.68865376  0.81726478  0.22411636  1.0
  H  H20  1  0.54917181  0.79437701  0.40890917  1.0
  H  H21  1  0.04945878  0.61479540  0.40934465  1.0
  H  H22  1  0.45084935  0.20560360  0.59107750  1.0
  H  H23  1  0.95051460  0.38521648  0.59066391  1.0
  H  H24  1  0.34539066  0.78875123  0.41681980  1.0
  H  H25  1  0.84563851  0.62819343  0.41724813  1.0
  H  H26  1  0.65464967  0.21124446  0.58316633  1.0
  H  H27  1  0.15433361  0.37180891  0.58274639  1.0
  H  H28  1  0.39624784  0.69587473  0.30664689  1.0
  H  H29  1  0.89651982  0.61103280  0.30705011  1.0
  H  H30  1  0.60378408  0.30411468  0.69334078  1.0
  H  H31  1  0.10348313  0.38899152  0.69295772  1.0
  H  H32  1  0.18526360  0.68274050  0.71244065  1.0
  H  H33  1  0.68555633  0.02932142  0.71252700  1.0
  H  H34  1  0.81480288  0.31724708  0.28757522  1.0
  H  H35  1  0.31438884  0.97065905  0.28746733  1.0
  H  H36  1  0.04174865  0.56987197  0.61454204  1.0
  H  H37  1  0.54199007  0.04457451  0.61473420  1.0
  H  H38  1  0.95830589  0.43010727  0.38548723  1.0
  H  H39  1  0.45796898  0.95540054  0.38525708  1.0
  H  H40  1  0.09053170  0.69572830  0.60326835  1.0
  H  H41  1  0.59044452  0.90739608  0.60335980  1.0
  H  H42  1  0.90950182  0.30424933  0.39674647  1.0
  H  H43  1  0.40952559  0.09258583  0.39662527  1.0
  C  C44  1  0.83973493  0.79433812  0.70138979  1.0
  C  C45  1  0.34008958  0.90679966  0.70135414  1.0
  C  C46  1  0.16025846  0.20566812  0.29859976  1.0
  C  C47  1  0.65989221  0.09320967  0.29864999  1.0
  C  C48  1  0.95679170  0.87547144  0.77683350  1.0
  C  C49  1  0.45722045  0.90106880  0.77680614  1.0
  C  C50  1  0.04320785  0.12453600  0.22316068  1.0
  C  C51  1  0.54276941  0.09894221  0.22319700  1.0
  C  C52  1  0.02775320  0.85184411  0.85642895  1.0
  C  C53  1  0.52793721  0.00418862  0.85646370  1.0
  C  C54  1  0.97225111  0.14816638  0.14355958  1.0
  C  C55  1  0.47205479  0.99581492  0.14354226  1.0
  C  C56  1  0.97657384  0.74847610  0.85698032  1.0
  C  C57  1  0.47652236  0.10805466  0.85704110  1.0
  C  C58  1  0.02343261  0.25152694  0.14301104  1.0
  C  C59  1  0.52345847  0.89194745  0.14297136  1.0
  C  C60  1  0.85632676  0.67379312  0.77874845  1.0
  C  C61  1  0.35631555  0.10454900  0.77880534  1.0
  C  C62  1  0.14368305  0.32620855  0.22123800  1.0
  C  C63  1  0.64365350  0.89545617  0.22120862  1.0
  C  C64  1  0.15178298  0.93394165  0.93602675  1.0
  C  C65  1  0.65207042  0.00188425  0.93612690  1.0
  C  C66  1  0.84822029  0.06606220  0.06396025  1.0
  C  C67  1  0.34791467  0.99811230  0.06386507  1.0
  C  C68  1  0.46455508  0.64766533  0.42628023  1.0
  C  C69  1  0.96472418  0.77875157  0.42655492  1.0
  C  C70  1  0.53546490  0.35232285  0.57370806  1.0
  C  C71  1  0.03525517  0.22126321  0.57346087  1.0
  C  C72  1  0.43860611  0.73689711  0.38626111  1.0
  C  C73  1  0.93885069  0.64958914  0.38666515  1.0
  C  C74  1  0.56143231  0.26310608  0.61372571  1.0
  C  C75  1  0.06113396  0.35042076  0.61333779  1.0
  C  C76  1  0.27484271  0.58356118  0.58638936  1.0
  C  C77  1  0.77486884  0.00263004  0.58639291  1.0
  C  C78  1  0.72519759  0.41642340  0.41361680  1.0
  C  C79  1  0.22509685  0.99737677  0.41361145  1.0
  C  C80  1  0.14027546  0.63561301  0.63340379  1.0
  C  C81  1  0.64039385  0.99757090  0.63348936  1.0
  C  C82  1  0.85979893  0.36437283  0.36661805  1.0
  C  C83  1  0.35956714  0.00240836  0.36650356  1.0
  N  N84  1  0.78892670  0.69567851  0.70193576  1.0
  N  N85  1  0.28909246  0.00594845  0.70193495  1.0
  N  N86  1  0.21108135  0.30431528  0.29805489  1.0
  N  N87  1  0.71088364  0.99406143  0.29807763  1.0
  N  N88  1  0.18616827  0.04289824  0.95848504  1.0
  N  N89  1  0.68700214  0.91559806  0.95881341  1.0
  N  N90  1  0.81384441  0.95710487  0.04150807  1.0
  N  N91  1  0.31300510  0.08441445  0.04118497  1.0
  O  O92  1  0.25002859  0.89937701  0.00001486  1.0
  O  O93  1  0.74997386  0.10062390  0.99998134  1.0
  O  O94  1  0.56701775  0.67735466  0.50813606  1.0
  O  O95  1  0.06717289  0.83093005  0.50838677  1.0
  O  O96  1  0.43295913  0.32265416  0.49187457  1.0
  O  O97  1  0.93271401  0.16908776  0.49167054  1.0
  O  O98  1  0.37980210  0.55093548  0.37662081  1.0
  O  O99  1  0.87992576  0.82573193  0.37677817  1.0
  O  O100  1  0.62026359  0.44903348  0.62334829  1.0
  O  O101  1  0.12014719  0.17428394  0.62320636  1.0
  O  O102  1  0.41881794  0.62727223  0.63385520  1.0
  O  O103  1  0.91888752  0.00658057  0.63390545  1.0
  O  O104  1  0.58122720  0.37267640  0.36615871  1.0
  O  O105  1  0.08109278  0.99353232  0.36613528  1.0
  O  O106  1  0.23319398  0.50104000  0.50140653  1.0
  O  O107  1  0.73310216  0.00000701  0.50131772  1.0
  O  O108  1  0.76683839  0.49898109  0.49858289  1.0
  O  O109  1  0.26686017  0.99990827  0.49865711  1.0
