# generated using pymatgen
data_ZnH10C22S2NO11
_symmetry_space_group_name_H-M   'P 1'
_cell_length_a   11.87248457
_cell_length_b   14.56880831
_cell_length_c   16.00991383
_cell_angle_alpha   76.26922925
_cell_angle_beta   85.50508361
_cell_angle_gamma   68.78485550
_symmetry_Int_Tables_number   1
_chemical_formula_structural   ZnH10C22S2NO11
_chemical_formula_sum   'Zn2 H20 C44 S4 N2 O22'
_cell_volume   2507.66615622
_cell_formula_units_Z   2
loop_
 _symmetry_equiv_pos_site_id
 _symmetry_equiv_pos_as_xyz
  1  'x, y, z'
loop_
 _atom_site_type_symbol
 _atom_site_label
 _atom_site_symmetry_multiplicity
 _atom_site_fract_x
 _atom_site_fract_y
 _atom_site_fract_z
 _atom_site_occupancy
  Zn  Zn0  1  0.45101468  0.60094505  0.50787796  1.0
  Zn  Zn1  1  0.54552198  0.39559808  0.49745755  1.0
  H  H2  1  0.57572250  0.73411058  0.93972442  1.0
  H  H3  1  0.65724840  0.21888375  0.06288213  1.0
  H  H4  1  0.60568794  0.86321050  0.39517745  1.0
  H  H5  1  0.35694886  0.15253121  0.58237655  1.0
  H  H6  1  0.61661181  0.24337682  0.75845121  1.0
  H  H7  1  0.53232344  0.72854832  0.24426725  1.0
  H  H8  1  0.56359877  0.62437700  0.85069827  1.0
  H  H9  1  0.60299739  0.34060289  0.15290073  1.0
  H  H10  1  0.71363085  0.97538828  0.32587543  1.0
  H  H11  1  0.23595990  0.04775055  0.64123218  1.0
  H  H12  1  0.53289173  0.76827996  0.46052604  1.0
  H  H13  1  0.46929159  0.22540031  0.54634062  1.0
  H  H14  1  0.24837580  0.72183253  0.60556866  1.0
  H  H15  1  0.71519550  0.29335289  0.37014452  1.0
  H  H16  1  0.35753755  0.64314174  0.89547639  1.0
  H  H17  1  0.26342736  0.50935030  0.14016698  1.0
  H  H18  1  0.62170474  0.89554260  0.14290108  1.0
  H  H19  1  0.60313702  0.05731898  0.86516639  1.0
  H  H20  1  0.80767716  0.20889628  0.26974776  1.0
  H  H21  1  0.12767705  0.82133287  0.68679719  1.0
  C  C22  1  0.48967032  0.56744046  0.33610345  1.0
  C  C23  1  0.51792074  0.42875646  0.66830599  1.0
  C  C24  1  0.54450323  0.64093209  0.06101291  1.0
  C  C25  1  0.59441496  0.33054428  0.94284271  1.0
  C  C26  1  0.54895472  0.47353075  0.04750851  1.0
  C  C27  1  0.54440746  0.50614133  0.95694744  1.0
  C  C28  1  0.55289130  0.60273734  0.91990691  1.0
  C  C29  1  0.58843106  0.36774589  0.08387003  1.0
  C  C30  1  0.55915129  0.66504794  0.97008577  1.0
  C  C31  1  0.61768100  0.29902710  0.03321978  1.0
  C  C32  1  0.69064931  0.15505354  0.36424558  1.0
  C  C33  1  0.26522588  0.86452860  0.60691255  1.0
  C  C34  1  0.67119092  0.23901469  0.39750790  1.0
  C  C35  1  0.29707770  0.77358147  0.58210279  1.0
  C  C36  1  0.53184961  0.20127481  0.49568045  1.0
  C  C37  1  0.45568988  0.80076275  0.49928741  1.0
  C  C38  1  0.54390268  0.11372113  0.46767646  1.0
  C  C39  1  0.42899631  0.89645755  0.51687883  1.0
  C  C40  1  0.62898996  0.08727324  0.40139046  1.0
  C  C41  1  0.33269471  0.92903010  0.57473510  1.0
  C  C42  1  0.47350984  0.05150309  0.50462864  1.0
  C  C43  1  0.49780962  0.95965561  0.47914308  1.0
  C  C44  1  0.71686958  0.49915339  0.50034655  1.0
  C  C45  1  0.27950379  0.49890419  0.50353223  1.0
  C  C46  1  0.58689204  0.93360610  0.41530247  1.0
  C  C47  1  0.37853704  0.08072449  0.56404317  1.0
  C  C48  1  0.64866487  0.99543596  0.37621793  1.0
  C  C49  1  0.30946581  0.02299625  0.59732274  1.0
  C  C50  1  0.83842676  0.49902483  0.50087519  1.0
  C  C51  1  0.15776623  0.49951803  0.50291935  1.0
  C  C52  1  0.94137869  0.49916360  0.50151913  1.0
  C  C53  1  0.05494670  0.49917907  0.50228208  1.0
  C  C54  1  0.50180534  0.59322873  0.23964335  1.0
  C  C55  1  0.53553776  0.39878765  0.76473768  1.0
  C  C56  1  0.54420616  0.70609836  0.11494924  1.0
  C  C57  1  0.61577841  0.26160486  0.88846759  1.0
  C  C58  1  0.52940793  0.68025572  0.20271043  1.0
  C  C59  1  0.59387686  0.29535315  0.80114543  1.0
  C  C60  1  0.49349011  0.53124817  0.18772965  1.0
  C  C61  1  0.50401574  0.46781029  0.81784353  1.0
  C  C62  1  0.52856923  0.54676121  0.09983517  1.0
  C  C63  1  0.54640181  0.43682735  0.90461127  1.0
  C  C64  1  0.76796904  0.14804711  0.28739128  1.0
  C  C65  1  0.16480168  0.88371167  0.66893231  1.0
  S  S66  1  0.38378808  0.58869174  0.77967867  1.0
  S  S67  1  0.40604597  0.45116471  0.23273264  1.0
  S  S68  1  0.55793481  0.82522174  0.06521371  1.0
  S  S69  1  0.68015590  0.12880001  0.93369640  1.0
  N  N70  1  0.59478614  0.26072758  0.46302537  1.0
  N  N71  1  0.39201104  0.74165094  0.53054409  1.0
  O  O72  1  0.43676068  0.63850684  0.37378696  1.0
  O  O73  1  0.52756477  0.35920353  0.62995766  1.0
  O  O74  1  0.54255973  0.47447406  0.37059816  1.0
  O  O75  1  0.50293172  0.52004986  0.63301826  1.0
  O  O76  1  0.63221560  0.58524268  0.48747966  1.0
  O  O77  1  0.36331517  0.42010515  0.48972053  1.0
  O  O78  1  0.70598918  0.41308635  0.51269466  1.0
  O  O79  1  0.29139411  0.57720491  0.51802459  1.0
  O  O80  1  0.42994137  0.66854270  0.74354751  1.0
  O  O81  1  0.29698589  0.57024289  0.73496123  1.0
  O  O82  1  0.31494882  0.61155496  0.86754529  1.0
  O  O83  1  0.47972505  0.34737605  0.26449431  1.0
  O  O84  1  0.31346767  0.50642553  0.28422468  1.0
  O  O85  1  0.34006750  0.45199112  0.14770631  1.0
  O  O86  1  0.67558378  0.81036659  0.02692273  1.0
  O  O87  1  0.45064372  0.88476028  0.01447907  1.0
  O  O88  1  0.55345158  0.87173107  0.14802608  1.0
  O  O89  1  0.80596001  0.10484175  0.94885139  1.0
  O  O90  1  0.60294119  0.09976791  0.00085542  1.0
  O  O91  1  0.67176368  0.08071872  0.85434910  1.0
  O  O92  1  0.78726233  0.08607690  0.24298683  1.0
  O  O93  1  0.12353345  0.95796849  0.70039092  1.0
