# generated using pymatgen
data_AlH12C27(BrO2)3
_symmetry_space_group_name_H-M   'P 1'
_cell_length_a   4.02367732
_cell_length_b   15.99833852
_cell_length_c   16.08063639
_cell_angle_alpha   119.82787957
_cell_angle_beta   90.02000227
_cell_angle_gamma   92.13270202
_symmetry_Int_Tables_number   1
_chemical_formula_structural   AlH12C27(BrO2)3
_chemical_formula_sum   'Al1 H12 C27 Br3 O6'
_cell_volume   897.17838002
_cell_formula_units_Z   1
loop_
 _symmetry_equiv_pos_site_id
 _symmetry_equiv_pos_as_xyz
  1  'x, y, z'
loop_
 _atom_site_type_symbol
 _atom_site_label
 _atom_site_symmetry_multiplicity
 _atom_site_fract_x
 _atom_site_fract_y
 _atom_site_fract_z
 _atom_site_occupancy
  Al  Al0  1  0.01058746  0.00034575  0.50188678  1.0
  H  H1  1  0.49005038  0.15453620  0.07992602  1.0
  H  H2  1  0.52814160  0.42114443  0.07586850  1.0
  H  H3  1  0.46566328  0.42391587  0.34392095  1.0
  H  H4  1  0.26513154  0.01478055  0.25557485  1.0
  H  H5  1  0.23708888  0.10048766  0.16372466  1.0
  H  H6  1  0.75232605  0.34818384  0.39650002  1.0
  H  H7  1  0.73673144  0.10280547  0.94968083  1.0
  H  H8  1  0.27975024  0.24534250  0.76361014  1.0
  H  H9  1  0.25939808  0.33544148  0.94038068  1.0
  H  H10  1  0.23458565  0.54786511  0.15295311  1.0
  H  H11  1  0.75065407  0.74031926  0.47675175  1.0
  H  H12  1  0.75749912  0.56232808  0.39429741  1.0
  C  C13  1  0.51862501  0.06966775  0.64890107  1.0
  C  C14  1  0.49282773  0.85299115  0.42106450  1.0
  C  C15  1  0.52077405  0.07965959  0.43309522  1.0
  C  C16  1  0.49867066  0.28129305  0.06515640  1.0
  C  C17  1  0.49183321  0.23302332  0.11791062  1.0
  C  C18  1  0.48978521  0.28315352  0.21834039  1.0
  C  C19  1  0.48543729  0.38410426  0.26615536  1.0
  C  C20  1  0.49407501  0.43467635  0.21574179  1.0
  C  C21  1  0.50511362  0.38232770  0.11539855  1.0
  C  C22  1  0.37184759  0.08810230  0.28604371  1.0
  C  C23  1  0.35924053  0.13636111  0.23422976  1.0
  C  C24  1  0.49356169  0.23103226  0.27275758  1.0
  C  C25  1  0.63684544  0.27598087  0.36536592  1.0
  C  C26  1  0.64112373  0.22819676  0.41775623  1.0
  C  C27  1  0.51312378  0.13336463  0.37874118  1.0
  C  C28  1  0.62979805  0.13468676  0.91024675  1.0
  C  C29  1  0.62820284  0.08303423  0.81052991  1.0
  C  C30  1  0.51134255  0.12273668  0.75638424  1.0
  C  C31  1  0.38189277  0.21480867  0.80504917  1.0
  C  C32  1  0.37428843  0.26577623  0.90468071  1.0
  C  C33  1  0.50243084  0.22717474  0.95917382  1.0
  C  C34  1  0.34945593  0.58914762  0.22413067  1.0
  C  C35  1  0.34534857  0.68941735  0.27122361  1.0
  C  C36  1  0.48659325  0.74571682  0.36384457  1.0
  C  C37  1  0.63367831  0.69683265  0.40599895  1.0
  C  C38  1  0.63436547  0.59701775  0.35980935  1.0
  C  C39  1  0.49191146  0.54107066  0.26736506  1.0
  Br  Br40  1  0.82839412  0.29468888  0.54410398  1.0
  Br  Br41  1  0.78943609  0.95619108  0.74871703  1.0
  Br  Br42  1  0.15893490  0.74295988  0.20014480  1.0
  O  O43  1  0.75338177  0.02137505  0.41372378  1.0
  O  O44  1  0.76252090  0.08979580  0.61066794  1.0
  O  O45  1  0.73107976  0.89377358  0.48268094  1.0
  O  O46  1  0.29171824  0.09464969  0.49262973  1.0
  O  O47  1  0.26152587  0.89738340  0.40762785  1.0
  O  O48  1  0.27809407  0.00997307  0.60430049  1.0
