# generated using pymatgen
data_AlH27(C5O)6
_symmetry_space_group_name_H-M   'P 1'
_cell_length_a   3.94537379
_cell_length_b   28.68449666
_cell_length_c   28.68396316
_cell_angle_alpha   59.99916673
_cell_angle_beta   90.00026530
_cell_angle_gamma   89.99858168
_symmetry_Int_Tables_number   1
_chemical_formula_structural   AlH27(C5O)6
_chemical_formula_sum   'Al2 H54 C60 O12'
_cell_volume   2811.26334191
_cell_formula_units_Z   2
loop_
 _symmetry_equiv_pos_site_id
 _symmetry_equiv_pos_as_xyz
  1  'x, y, z'
loop_
 _atom_site_type_symbol
 _atom_site_label
 _atom_site_symmetry_multiplicity
 _atom_site_fract_x
 _atom_site_fract_y
 _atom_site_fract_z
 _atom_site_occupancy
  Al  Al0  1  0.99820281  0.50000623  0.99999022  1.0
  Al  Al1  1  0.99807779  0.16666794  0.66666878  1.0
  H  H2  1  0.45077199  0.35624433  0.41292510  1.0
  H  H3  1  0.54935476  0.20232861  0.42222559  1.0
  H  H4  1  0.54917566  0.46442466  0.24441072  1.0
  H  H5  1  0.45101409  0.31048810  0.25374029  1.0
  H  H6  1  0.50869622  0.27789415  0.33727701  1.0
  H  H7  1  0.50854405  0.38882840  0.32938614  1.0
  H  H8  1  0.45085453  0.23082093  0.85625181  1.0
  H  H9  1  0.54934640  0.37544004  0.70233425  1.0
  H  H10  1  0.54914585  0.29116064  0.96442843  1.0
  H  H11  1  0.45102263  0.43576597  0.81048401  1.0
  H  H12  1  0.50868155  0.38482102  0.77789839  1.0
  H  H13  1  0.50852563  0.28178016  0.88883358  1.0
  H  H14  1  0.45082066  0.91293424  0.73082510  1.0
  H  H15  1  0.54937327  0.92222078  0.87545226  1.0
  H  H16  1  0.54910406  0.74442635  0.79115082  1.0
  H  H17  1  0.45094273  0.75374111  0.93576683  1.0
  H  H18  1  0.50866766  0.83727535  0.88483492  1.0
  H  H19  1  0.50847643  0.82939806  0.78177932  1.0
  H  H20  1  0.29004789  0.12174079  0.54308794  1.0
  H  H21  1  0.69602976  0.12567126  0.56661672  1.0
  H  H22  1  0.65461830  0.12391393  0.50563487  1.0
  H  H23  1  0.70531522  0.32874097  0.53062437  1.0
  H  H24  1  0.29597017  0.30341282  0.55463344  1.0
  H  H25  1  0.34609329  0.36189441  0.49006236  1.0
  H  H26  1  0.70565709  0.33794908  0.13607038  1.0
  H  H27  1  0.29629137  0.36326631  0.11204758  1.0
  H  H28  1  0.34645279  0.30481023  0.17663492  1.0
  H  H29  1  0.28990556  0.54498534  0.12353188  1.0
  H  H30  1  0.69595574  0.54105653  0.10001238  1.0
  H  H31  1  0.65446758  0.54283728  0.16098324  1.0
  H  H32  1  0.28997919  0.33517281  0.62174618  1.0
  H  H33  1  0.69596357  0.30771575  0.62566902  1.0
  H  H34  1  0.65456251  0.37045240  0.62391566  1.0
  H  H35  1  0.70535794  0.14062461  0.82874772  1.0
  H  H36  1  0.29600959  0.14195296  0.80341263  1.0
  H  H37  1  0.34613444  0.14803541  0.86189777  1.0
  H  H38  1  0.70563972  0.52598201  0.83794098  1.0
  H  H39  1  0.29627730  0.52468634  0.86325390  1.0
  H  H40  1  0.34645710  0.51855663  0.80479989  1.0
  H  H41  1  0.28987542  0.33148146  0.04497830  1.0
  H  H42  1  0.69590789  0.35892618  0.04105790  1.0
  H  H43  1  0.65444734  0.29617590  0.04283810  1.0
  H  H44  1  0.29006534  0.04308432  0.83517864  1.0
  H  H45  1  0.69601664  0.06660974  0.80771760  1.0
  H  H46  1  0.65463813  0.00563349  0.87045825  1.0
  H  H47  1  0.70535951  0.03062967  0.64063693  1.0
  H  H48  1  0.29602224  0.05463959  0.64195383  1.0
  H  H49  1  0.34615288  0.99007309  0.64804100  1.0
  H  H50  1  0.70559759  0.63606347  0.02598053  1.0
  H  H51  1  0.29622155  0.61204606  0.02467928  1.0
  H  H52  1  0.34637051  0.67663045  0.01855382  1.0
  H  H53  1  0.28982222  0.62354926  0.83146452  1.0
  H  H54  1  0.69590804  0.60002267  0.85891471  1.0
  H  H55  1  0.65440467  0.66100080  0.79615663  1.0
  C  C56  1  0.49851805  0.58348748  0.95430970  1.0
  C  C57  1  0.49853899  0.46219426  0.08348183  1.0
  C  C58  1  0.49856288  0.45432134  0.96218331  1.0
  C  C59  1  0.49839649  0.20451355  0.58317042  1.0
  C  C60  1  0.49841570  0.21231395  0.70451846  1.0
  C  C61  1  0.49843012  0.08316595  0.71232443  1.0
  C  C62  1  0.50005060  0.23146944  0.52317123  1.0
  C  C63  1  0.47919009  0.28815826  0.49220274  1.0
  C  C64  1  0.47654327  0.31255592  0.43634874  1.0
  C  C65  1  0.50311841  0.28259318  0.40991538  1.0
  C  C66  1  0.52641214  0.22636125  0.44196837  1.0
  C  C67  1  0.52146036  0.20008908  0.49807196  1.0
  C  C68  1  0.50516567  0.30678336  0.35162951  1.0
  C  C69  1  0.50512469  0.35996004  0.31501150  1.0
  C  C70  1  0.52633555  0.44037804  0.22467792  1.0
  C  C71  1  0.50308362  0.38415107  0.25673648  1.0
  C  C72  1  0.47670561  0.35417994  0.23031311  1.0
  C  C73  1  0.47941443  0.37856051  0.17445911  1.0
  C  C74  1  0.50020016  0.43525151  0.14348263  1.0
  C  C75  1  0.52143528  0.46663933  0.16857312  1.0
  C  C76  1  0.50007335  0.24535620  0.73147438  1.0
  C  C77  1  0.47923441  0.21963367  0.78816365  1.0
  C  C78  1  0.47659598  0.25108536  0.81256450  1.0
  C  C79  1  0.50313026  0.30748648  0.78259726  1.0
  C  C80  1  0.52641509  0.33166685  0.72636409  1.0
  C  C81  1  0.52145456  0.30183527  0.70009452  1.0
  C  C82  1  0.50516796  0.34158214  0.80678677  1.0
  C  C83  1  0.50511719  0.32501886  0.85996371  1.0
  C  C84  1  0.52633245  0.33493815  0.94038244  1.0
  C  C85  1  0.50308936  0.35910583  0.88415039  1.0
  C  C86  1  0.47671611  0.41550564  0.85417340  1.0
  C  C87  1  0.47943079  0.44697893  0.87855334  1.0
  C  C88  1  0.50021544  0.42126871  0.93524188  1.0
  C  C89  1  0.52144600  0.36478847  0.96663548  1.0
  C  C90  1  0.50007606  0.02316562  0.74536650  1.0
  C  C91  1  0.47923388  0.99220985  0.71963775  1.0
  C  C92  1  0.47657564  0.93635881  0.75109290  1.0
  C  C93  1  0.50312914  0.90992218  0.80749322  1.0
  C  C94  1  0.52642736  0.94197152  0.83167552  1.0
  C  C95  1  0.52148176  0.99807443  0.80184672  1.0
  C  C96  1  0.50514246  0.85162579  0.84158557  1.0
  C  C97  1  0.50506439  0.81501079  0.82502705  1.0
  C  C98  1  0.52626469  0.72469658  0.83492830  1.0
  C  C99  1  0.50300966  0.75674243  0.85910449  1.0
  C  C100  1  0.47663281  0.73031970  0.91549950  1.0
  C  C101  1  0.47935556  0.67446803  0.94696915  1.0
  C  C102  1  0.50016710  0.64349354  0.92125476  1.0
  C  C103  1  0.52139120  0.66859312  0.86477079  1.0
  C  C104  1  0.54311457  0.13965826  0.53006660  1.0
  C  C105  1  0.45385398  0.32232328  0.51827701  1.0
  C  C106  1  0.45417739  0.34436781  0.14840691  1.0
  C  C107  1  0.54301399  0.52707774  0.13656245  1.0
  C  C108  1  0.54306117  0.33027577  0.63966222  1.0
  C  C109  1  0.45390212  0.15939271  0.82232885  1.0
  C  C110  1  0.45416727  0.50722700  0.84435628  1.0
  C  C111  1  0.54299389  0.33635713  0.02707752  1.0
  C  C112  1  0.54311977  0.03006055  0.83028390  1.0
  C  C113  1  0.45390190  0.01828191  0.65940041  1.0
  C  C114  1  0.45411172  0.64840668  0.00721668  1.0
  C  C115  1  0.54295810  0.63658278  0.83634434  1.0
  O  O116  1  0.26277164  0.44592626  0.99604331  1.0
  O  O117  1  0.26271492  0.55803081  0.94590471  1.0
  O  O118  1  0.26273271  0.49605888  0.05801811  1.0
  O  O119  1  0.73317857  0.48928416  0.94997870  1.0
  O  O120  1  0.73317906  0.44999284  0.06072817  1.0
  O  O121  1  0.73318545  0.56073703  0.98926462  1.0
  O  O122  1  0.26267082  0.10862778  0.72073114  1.0
  O  O123  1  0.26262262  0.17064373  0.60862940  1.0
  O  O124  1  0.26264706  0.22072482  0.67065009  1.0
  O  O125  1  0.73305665  0.10594237  0.67736339  1.0
  O  O126  1  0.73306606  0.17735631  0.71670487  1.0
  O  O127  1  0.73301741  0.21669774  0.60594372  1.0
