# generated using pymatgen
data_Zn4H51C82N20O5F13
_symmetry_space_group_name_H-M   'P 1'
_cell_length_a   19.92972542
_cell_length_b   20.26648551
_cell_length_c   21.15185422
_cell_angle_alpha   106.36661805
_cell_angle_beta   107.67951454
_cell_angle_gamma   111.51251326
_symmetry_Int_Tables_number   1
_chemical_formula_structural   Zn4H51C82N20O5F13
_chemical_formula_sum   'Zn4 H51 C82 N20 O5 F13'
_cell_volume   6787.18376213
_cell_formula_units_Z   1
loop_
 _symmetry_equiv_pos_site_id
 _symmetry_equiv_pos_as_xyz
  1  'x, y, z'
loop_
 _atom_site_type_symbol
 _atom_site_label
 _atom_site_symmetry_multiplicity
 _atom_site_fract_x
 _atom_site_fract_y
 _atom_site_fract_z
 _atom_site_occupancy
  Zn  Zn0  1  0.90606502  0.87507600  0.51628969  1.0
  Zn  Zn1  1  0.11173683  0.09640876  0.51330453  1.0
  Zn  Zn2  1  0.11170186  0.99116826  0.62048479  1.0
  Zn  Zn3  1  0.91426767  0.97336174  0.38479045  1.0
  H  H4  1  0.12844221  0.81991568  0.59795296  1.0
  H  H5  1  0.40719809  0.82674654  0.29084274  1.0
  H  H6  1  0.04055456  0.48547088  0.55228368  1.0
  H  H7  1  0.15408938  0.59654653  0.52806032  1.0
  H  H8  1  0.01200565  0.47155208  0.30891183  1.0
  H  H9  1  0.34645265  0.29289350  0.88171960  1.0
  H  H10  1  0.39241714  0.41022487  0.99602137  1.0
  H  H11  1  0.47464440  0.52636816  0.17730374  1.0
  H  H12  1  0.61698221  0.62863304  0.26924399  1.0
  H  H13  1  0.25902592  0.49067067  0.86572663  1.0
  H  H14  1  0.59034518  0.78800146  0.17626966  1.0
  H  H15  1  0.93154826  0.95988493  0.24707331  1.0
  H  H16  1  0.92029239  0.99703752  0.15798325  1.0
  H  H17  1  0.83773921  0.06383007  0.86849675  1.0
  H  H18  1  0.80714730  0.03007775  0.43107402  1.0
  H  H19  1  0.84506036  0.02277400  0.74926434  1.0
  H  H20  1  0.09589448  0.16929817  0.98933918  1.0
  H  H21  1  0.10478367  0.12853820  0.87186145  1.0
  H  H22  1  0.11359358  0.09919721  0.76596320  1.0
  H  H23  1  0.35061339  0.95964002  0.59107542  1.0
  H  H24  1  0.26937398  0.86010452  0.54351937  1.0
  H  H25  1  0.28445580  0.85870889  0.66598005  1.0
  H  H26  1  0.15528097  0.17969591  0.40135416  1.0
  H  H27  1  0.37719546  0.88344994  0.66062411  1.0
  H  H28  1  0.36436812  0.95910298  0.71354010  1.0
  H  H29  1  0.53604261  0.13977981  0.51014066  1.0
  H  H30  1  0.48468840  0.11188953  0.41359616  1.0
  H  H31  1  0.61693287  0.19395487  0.41710806  1.0
  H  H32  1  0.59828532  0.25302732  0.48226249  1.0
  H  H33  1  0.66891664  0.22102946  0.51314749  1.0
  H  H34  1  0.88542062  0.43513861  0.51314088  1.0
  H  H35  1  0.82419767  0.37591020  0.41550726  1.0
  H  H36  1  0.74599633  0.44882495  0.41438417  1.0
  H  H37  1  0.90902400  0.73675529  0.40173710  1.0
  H  H38  1  0.74211364  0.40633804  0.47724823  1.0
  H  H39  1  0.80780183  0.50964882  0.51147597  1.0
  H  H40  1  0.10151441  0.27412510  0.37393969  1.0
  H  H41  1  0.14247176  0.33053581  0.33042854  1.0
  H  H42  1  0.24312054  0.31675020  0.46434708  1.0
  H  H43  1  0.28341543  0.37091622  0.41918470  1.0
  H  H44  1  0.23136344  0.40013638  0.46661241  1.0
  H  H45  1  0.06087454  0.31527401  0.17567231  1.0
  H  H46  1  0.11197190  0.30515062  0.12051145  1.0
  H  H47  1  0.24541333  0.41316248  0.23174658  1.0
  H  H48  1  0.72689691  0.88021031  0.25577324  1.0
  H  H49  1  0.17583270  0.44782493  0.20753641  1.0
  H  H50  1  0.19280592  0.42580236  0.28487872  1.0
  H  H51  1  0.51249673  0.88396099  0.50659932  1.0
  H  H52  1  0.48944788  0.01778891  0.54074251  1.0
  H  H53  1  0.35014445  0.79041273  0.39094614  1.0
  H  H54  1  0.10407677  0.25530800  0.57493101  1.0
  C  C55  1  0.92201260  0.97230188  0.66520976  1.0
  C  C56  1  0.96142327  0.76749331  0.45568685  1.0
  C  C57  1  0.74854306  0.84267357  0.27202761  1.0
  C  C58  1  0.05021446  0.20949158  0.52417257  1.0
  C  C59  1  0.20974190  0.95862089  0.54501712  1.0
  C  C60  1  0.70403386  0.76641304  0.26475823  1.0
  C  C61  1  0.21778592  0.95540734  0.47990478  1.0
  C  C62  1  0.02133339  0.74858891  0.48428287  1.0
  C  C63  1  0.04150727  0.08151171  0.29833798  1.0
  C  C64  1  0.47265686  0.97564868  0.48555482  1.0
  C  C65  1  0.48307233  0.90108139  0.46661115  1.0
  C  C66  1  0.00233773  0.21926086  0.46684822  1.0
  C  C67  1  0.65129856  0.92262862  0.42281680  1.0
  C  C68  1  0.26967389  0.93940094  0.45379424  1.0
  C  C69  1  0.50407932  0.99622984  0.42979683  1.0
  C  C70  1  0.22597170  0.17542605  0.73744841  1.0
  C  C71  1  0.51565636  0.92102171  0.41100529  1.0
  C  C72  1  0.41394386  0.94280989  0.36522446  1.0
  C  C73  1  0.38203303  0.92387950  0.42153361  1.0
  C  C74  1  0.42523398  0.86882965  0.34647343  1.0
  C  C75  1  0.39467161  0.84906685  0.40228998  1.0
  C  C76  1  0.58684463  0.92082350  0.41202803  1.0
  C  C77  1  0.24489094  0.25127282  0.74216097  1.0
  C  C78  1  0.31763300  0.92921644  0.43331631  1.0
  C  C79  1  0.09685552  0.54400446  0.48541301  1.0
  C  C80  1  0.03351439  0.48393350  0.49855858  1.0
  C  C81  1  0.01214541  0.28737664  0.45735988  1.0
  C  C82  1  0.79618434  0.97750954  0.43961640  1.0
  C  C83  1  0.02517535  0.67967546  0.45321058  1.0
  C  C84  1  0.08698917  0.47420345  0.42156585  1.0
  C  C85  1  0.02397272  0.41150131  0.43522938  1.0
  C  C86  1  0.01788596  0.47531507  0.36304386  1.0
  C  C87  1  0.02680349  0.54663780  0.42738561  1.0
  C  C88  1  0.72491079  0.92305895  0.43659005  1.0
  C  C89  1  0.95516262  0.41501814  0.37653196  1.0
  C  C90  1  0.96252048  0.48474279  0.44055414  1.0
  C  C91  1  0.01958168  0.34382918  0.44415691  1.0
  C  C92  1  0.02798965  0.61847726  0.43309611  1.0
  C  C93  1  0.61717336  0.71401296  0.22617064  1.0
  C  C94  1  0.22035472  0.23321081  0.66697258  1.0
  C  C95  1  0.56659517  0.73145869  0.17856169  1.0
  C  C96  1  0.48715886  0.67464013  0.12945838  1.0
  C  C97  1  0.45403036  0.59696156  0.12371898  1.0
  C  C98  1  0.50118498  0.58530301  0.17999850  1.0
  C  C99  1  0.76743713  0.75233611  0.29834676  1.0
  C  C100  1  0.58075276  0.64192037  0.23014575  1.0
  C  C101  1  0.35136151  0.40020863  0.94234209  1.0
  C  C102  1  0.32586778  0.33528143  0.87833292  1.0
  C  C103  1  0.32787673  0.45733244  0.93895509  1.0
  C  C104  1  0.27504547  0.32302013  0.80803237  1.0
  C  C105  1  0.25155851  0.38037427  0.80693377  1.0
  C  C106  1  0.74546147  0.86751919  0.45022128  1.0
  C  C107  1  0.27737036  0.44696622  0.86980812  1.0
  C  C108  1  0.97521503  0.07086420  0.80153352  1.0
  C  C109  1  0.04596952  0.11559222  0.87028378  1.0
  C  C110  1  0.16414107  0.98034115  0.44911628  1.0
  C  C111  1  0.04180675  0.13899290  0.93638689  1.0
  C  C112  1  0.96596985  0.11848556  0.93598819  1.0
  C  C113  1  0.89590263  0.07890814  0.86786218  1.0
  C  C114  1  0.90036426  0.05559176  0.80151936  1.0
  C  C115  1  0.95493064  0.07665256  0.11246493  1.0
  C  C116  1  0.96579034  0.05476261  0.16906967  1.0
  C  C117  1  0.01260970  0.14858750  0.11926657  1.0
  C  C118  1  0.94221187  0.14055527  0.41666906  1.0
  C  C119  1  0.03365500  0.10574768  0.23914636  1.0
  C  C120  1  0.08960534  0.18012484  0.24971302  1.0
  C  C121  1  0.07321372  0.81071116  0.55700623  1.0
  C  C122  1  0.07964612  0.20131243  0.19092027  1.0
  C  C123  1  0.05208106  0.05388072  0.72586221  1.0
  C  C124  1  0.98107793  0.03648747  0.73417211  1.0
  C  C125  1  0.30150189  0.91547576  0.59479139  1.0
  C  C126  1  0.33338238  0.90360660  0.66282306  1.0
  C  C127  1  0.54297225  0.13009058  0.45896720  1.0
  C  C128  1  0.61095758  0.20384976  0.46842463  1.0
  C  C129  1  0.84898220  0.43416205  0.46142438  1.0
  C  C130  1  0.78233341  0.45092918  0.46644759  1.0
  C  C131  1  0.15308137  0.29729072  0.36179221  1.0
  C  C132  1  0.98674056  0.01038934  0.29388482  1.0
  C  C133  1  0.23247481  0.34910772  0.43203284  1.0
  C  C134  1  0.11922105  0.32315508  0.17728264  1.0
  C  C135  1  0.18736337  0.40733805  0.22865123  1.0
  C  C136  1  0.10026860  0.12304723  0.37335440  1.0
  N  N137  1  0.95391320  0.95189803  0.62088301  1.0
  N  N138  1  0.36365063  0.53011312  0.00116836  1.0
  N  N139  1  0.95343738  0.12441422  0.99886068  1.0
  N  N140  1  0.02122649  0.13185544  0.50804458  1.0
  N  N141  1  0.01860966  0.16148530  0.05963232  1.0
  N  N142  1  0.19118779  0.11879886  0.66919001  1.0
  N  N143  1  0.85289603  0.95519111  0.45259039  1.0
  N  N144  1  0.18773049  0.15602828  0.62308869  1.0
  N  N145  1  0.82009331  0.88561120  0.45845584  1.0
  N  N146  1  0.95254055  0.08954890  0.44066828  1.0
  N  N147  1  0.03580268  0.00373826  0.65890288  1.0
  N  N148  1  0.12763682  0.99778939  0.49007555  1.0
  N  N149  1  0.84095487  0.81093704  0.32294738  1.0
  N  N150  1  0.04639484  0.86199887  0.57160180  1.0
  N  N151  1  0.01009586  0.01019106  0.36075225  1.0
  N  N152  1  0.08031735  0.08037467  0.40939816  1.0
  N  N153  1  0.97696757  0.83496522  0.50832605  1.0
  N  N154  1  0.82866247  0.86809416  0.30585847  1.0
  N  N155  1  0.15641192  0.98263157  0.54959187  1.0
  N  N156  1  0.39243192  0.52659255  0.06214538  1.0
  O  O157  1  0.24518791  0.94371462  0.60043068  1.0
  O  O158  1  0.56271958  0.06734839  0.44204371  1.0
  O  O159  1  0.90124976  0.49524482  0.44874062  1.0
  O  O160  1  0.15728824  0.23134203  0.31696684  1.0
  O  O161  1  0.13967382  0.27225131  0.20610718  1.0
  F  F162  1  0.84165772  0.93031280  0.64058444  1.0
  F  F163  1  0.23035012  0.28387858  0.63664682  1.0
  F  F164  1  0.70107000  0.80329623  0.45561261  1.0
  F  F165  1  0.87897906  0.11429264  0.35179159  1.0
  F  F166  1  0.75888744  0.68605863  0.30642040  1.0
  F  F167  1  0.15124233  0.98786809  0.38660788  1.0
  F  F168  1  0.37779462  0.96265949  0.31293373  1.0
  F  F169  1  0.88468062  0.34942554  0.32046461  1.0
  F  F170  1  0.15013958  0.46927696  0.41132221  1.0
  F  F171  1  0.23924259  0.15584621  0.79435340  1.0
  F  F172  1  0.19970086  0.36971267  0.74048996  1.0
  F  F173  1  0.44206806  0.69338882  0.08315700  1.0
  F  F174  1  0.88945795  0.02297196  0.04604036  1.0
