# generated using pymatgen
data_EuH54C57(N2O5)3
_symmetry_space_group_name_H-M   'P 1'
_cell_length_a   10.94859478
_cell_length_b   19.74526845
_cell_length_c   19.74572070
_cell_angle_alpha   60.00289542
_cell_angle_beta   89.99985655
_cell_angle_gamma   89.99978996
_symmetry_Int_Tables_number   1
_chemical_formula_structural   EuH54C57(N2O5)3
_chemical_formula_sum   'Eu2 H108 C114 N12 O30'
_cell_volume   3696.90011475
_cell_formula_units_Z   2
loop_
 _symmetry_equiv_pos_site_id
 _symmetry_equiv_pos_as_xyz
  1  'x, y, z'
loop_
 _atom_site_type_symbol
 _atom_site_label
 _atom_site_symmetry_multiplicity
 _atom_site_fract_x
 _atom_site_fract_y
 _atom_site_fract_z
 _atom_site_occupancy
  Eu  Eu0  1  0.35753670  0.33333333  0.33333333  1.0
  Eu  Eu1  1  0.64246239  0.66666667  0.66666667  1.0
  H  H2  1  0.91669824  0.52463508  0.33326235  1.0
  H  H3  1  0.91670204  0.33326529  0.14210361  1.0
  H  H4  1  0.91670455  0.14210434  0.52463060  1.0
  H  H5  1  0.08330268  0.47536464  0.66673713  1.0
  H  H6  1  0.08329796  0.66673443  0.85789638  1.0
  H  H7  1  0.08329637  0.85789538  0.47536939  1.0
  H  H8  1  0.96241252  0.66434912  0.24284166  1.0
  H  H9  1  0.96241060  0.24283876  0.09281083  1.0
  H  H10  1  0.96240980  0.09281145  0.66434565  1.0
  H  H11  1  0.03758748  0.33565060  0.75715833  1.0
  H  H12  1  0.03759031  0.75716155  0.90718937  1.0
  H  H13  1  0.03759020  0.90718828  0.33565484  1.0
  H  H14  1  0.81873652  0.74618225  0.13399071  1.0
  H  H15  1  0.81873401  0.13398314  0.11982473  1.0
  H  H16  1  0.81872990  0.11982966  0.74618261  1.0
  H  H17  1  0.18126348  0.25381806  0.86600949  1.0
  H  H18  1  0.18126599  0.86601717  0.88017496  1.0
  H  H19  1  0.18127010  0.88017065  0.25381759  1.0
  H  H20  1  0.62821277  0.68654117  0.11700263  1.0
  H  H21  1  0.62820990  0.11699499  0.19645425  1.0
  H  H22  1  0.62820762  0.19645765  0.68654776  1.0
  H  H23  1  0.37178723  0.31345914  0.88299706  1.0
  H  H24  1  0.37179010  0.88300474  0.80354523  1.0
  H  H25  1  0.37179238  0.80354208  0.31345172  1.0
  H  H26  1  0.57994198  0.54746467  0.21045466  1.0
  H  H27  1  0.57994576  0.21045061  0.24208121  1.0
  H  H28  1  0.57994588  0.24208333  0.54747102  1.0
  H  H29  1  0.42005802  0.45253506  0.78954583  1.0
  H  H30  1  0.42005424  0.78954911  0.75791878  1.0
  H  H31  1  0.42005412  0.75791697  0.45252868  1.0
  H  H32  1  0.65212862  0.41862853  0.30864809  1.0
  H  H33  1  0.65212998  0.30865468  0.27271962  1.0
  H  H34  1  0.65213616  0.27272515  0.41863112  1.0
  H  H35  1  0.34787047  0.58137177  0.69135161  1.0
  H  H36  1  0.34787002  0.69134563  0.72728007  1.0
  H  H37  1  0.34786384  0.72727457  0.58136887  1.0
  H  H38  1  0.80029552  0.40700604  0.35096505  1.0
  H  H39  1  0.80029778  0.35097308  0.24202575  1.0
  H  H40  1  0.80030233  0.24202767  0.40700800  1.0
  H  H41  1  0.19970539  0.59299368  0.64903545  1.0
  H  H42  1  0.19970222  0.64902723  0.75797394  1.0
  H  H43  1  0.19969858  0.75797264  0.59299169  1.0
  H  H44  1  0.33348022  0.35323234  0.49057035  1.0
  H  H45  1  0.33347687  0.49057839  0.15619241  1.0
  H  H46  1  0.33348027  0.15619789  0.35323002  1.0
  H  H47  1  0.66651978  0.64676738  0.50942964  1.0
  H  H48  1  0.66652313  0.50942192  0.84380779  1.0
  H  H49  1  0.66651973  0.84380242  0.64677018  1.0
  H  H50  1  0.24442292  0.32966408  0.61657560  1.0
  H  H51  1  0.24441777  0.61657756  0.05375845  1.0
  H  H52  1  0.24442083  0.05375670  0.32966456  1.0
  H  H53  1  0.75557707  0.67033564  0.38342439  1.0
  H  H54  1  0.75558132  0.38342216  0.94624154  1.0
  H  H55  1  0.75557917  0.94624361  0.67033514  1.0
  H  H56  1  0.37315754  0.35305130  0.70736932  1.0
  H  H57  1  0.37315127  0.70736504  0.93958131  1.0
  H  H58  1  0.37315183  0.93957324  0.35305157  1.0
  H  H59  1  0.62684246  0.64694843  0.29263066  1.0
  H  H60  1  0.62684873  0.29263469  0.06041867  1.0
  H  H61  1  0.62684817  0.06042707  0.64694813  1.0
  H  H62  1  0.58247472  0.40529039  0.66964603  1.0
  H  H63  1  0.58246688  0.66963878  0.92507096  1.0
  H  H64  1  0.58246904  0.92505926  0.40529143  1.0
  H  H65  1  0.41752528  0.59470991  0.33035367  1.0
  H  H66  1  0.41753312  0.33036095  0.07492902  1.0
  H  H67  1  0.41753096  0.07494046  0.59470907  1.0
  H  H68  1  0.78547170  0.38122085  0.64092939  1.0
  H  H69  1  0.78546916  0.64093425  0.97785239  1.0
  H  H70  1  0.78547214  0.97784448  0.38122013  1.0
  H  H71  1  0.21452739  0.61877887  0.35907060  1.0
  H  H72  1  0.21453084  0.35906606  0.02214730  1.0
  H  H73  1  0.21452786  0.02215525  0.61877985  1.0
  H  H74  1  0.74191334  0.48032443  0.60791712  1.0
  H  H75  1  0.74191132  0.60791156  0.91176876  1.0
  H  H76  1  0.74191312  0.91176253  0.48031869  1.0
  H  H77  1  0.25808666  0.51967588  0.39208258  1.0
  H  H78  1  0.25808960  0.39208816  0.08823174  1.0
  H  H79  1  0.25808780  0.08823719  0.51968130  1.0
  H  H80  1  0.87481881  0.58239244  0.53470888  1.0
  H  H81  1  0.87482549  0.53470609  0.88290608  1.0
  H  H82  1  0.87482045  0.88290609  0.58238577  1.0
  H  H83  1  0.12518210  0.41760788  0.46529081  1.0
  H  H84  1  0.12517451  0.46529423  0.11709361  1.0
  H  H85  1  0.12517955  0.11709363  0.41761422  1.0
  H  H86  1  0.99921776  0.30985579  0.53387178  1.0
  H  H87  1  0.99921148  0.53387641  0.15626833  1.0
  H  H88  1  0.99921603  0.15626588  0.30986415  1.0
  H  H89  1  0.00078224  0.69014393  0.46612821  1.0
  H  H90  1  0.00078852  0.46612390  0.84373136  1.0
  H  H91  1  0.00078488  0.84373443  0.69013554  1.0
  H  H92  1  0.84154448  0.33248615  0.53189910  1.0
  H  H93  1  0.84153924  0.53189977  0.13561252  1.0
  H  H94  1  0.84154559  0.13560965  0.33249523  1.0
  H  H95  1  0.15845552  0.66751357  0.46810038  1.0
  H  H96  1  0.15846076  0.46809995  0.86438747  1.0
  H  H97  1  0.15845533  0.86439007  0.66750425  1.0
  H  H98  1  0.92688319  0.30271803  0.61755559  1.0
  H  H99  1  0.92687972  0.61756035  0.07972956  1.0
  H  H100  1  0.92688556  0.07972046  0.30272091  1.0
  H  H101  1  0.07311681  0.69728169  0.38244440  1.0
  H  H102  1  0.07312028  0.38243937  0.92027094  1.0
  H  H103  1  0.07311627  0.92027985  0.69727929  1.0
  H  H104  1  0.70112536  0.45702182  0.43473863  1.0
  H  H105  1  0.70112709  0.43474033  0.10824561  1.0
  H  H106  1  0.70112281  0.10824491  0.45701868  1.0
  H  H107  1  0.29887464  0.54297848  0.56526157  1.0
  H  H108  1  0.29887200  0.56525998  0.89175459  1.0
  H  H109  1  0.29887719  0.89175540  0.54298101  1.0
  C  C110  1  0.85248359  0.56034903  0.28647659  1.0
  C  C111  1  0.85248662  0.28647653  0.15317660  1.0
  C  C112  1  0.85248706  0.15317700  0.56034660  1.0
  C  C113  1  0.14751641  0.43965070  0.71352390  1.0
  C  C114  1  0.14751338  0.71352320  0.84682338  1.0
  C  C115  1  0.14751294  0.84682272  0.43965390  1.0
  C  C116  1  0.87838266  0.63913151  0.23534775  1.0
  C  C117  1  0.87838150  0.23534417  0.12552223  1.0
  C  C118  1  0.87838162  0.12552329  0.63912953  1.0
  C  C119  1  0.12161734  0.36086821  0.76465224  1.0
  C  C120  1  0.12161850  0.76465555  0.87447776  1.0
  C  C121  1  0.12161838  0.87447702  0.36087067  1.0
  C  C122  1  0.79803170  0.68475775  0.17423499  1.0
  C  C123  1  0.79802981  0.17422934  0.14100639  1.0
  C  C124  1  0.79802869  0.14101035  0.68475805  1.0
  C  C125  1  0.20196830  0.31524255  0.82576471  1.0
  C  C126  1  0.20197019  0.82577097  0.85899330  1.0
  C  C127  1  0.20197131  0.85898996  0.31524215  1.0
  C  C128  1  0.69128936  0.65146937  0.16467215  1.0
  C  C129  1  0.69128819  0.16466615  0.18385731  1.0
  C  C130  1  0.69128707  0.18386104  0.65147316  1.0
  C  C131  1  0.30871064  0.34853095  0.83532754  1.0
  C  C132  1  0.30871090  0.83533357  0.81614217  1.0
  C  C133  1  0.30871293  0.81613927  0.34852653  1.0
  C  C134  1  0.66457192  0.57296996  0.21669564  1.0
  C  C135  1  0.66457311  0.21669379  0.21033328  1.0
  C  C136  1  0.66457414  0.21033640  0.57297348  1.0
  C  C137  1  0.33542899  0.42703035  0.78330355  1.0
  C  C138  1  0.33542689  0.78330653  0.78966590  1.0
  C  C139  1  0.33542586  0.78966391  0.42702621  1.0
  C  C140  1  0.74531928  0.52681389  0.27763118  1.0
  C  C141  1  0.74532121  0.27763145  0.19555555  1.0
  C  C142  1  0.74532347  0.19555810  0.52681436  1.0
  C  C143  1  0.25468072  0.47318643  0.72236851  1.0
  C  C144  1  0.25467788  0.72236886  0.80444414  1.0
  C  C145  1  0.25467653  0.80444163  0.47318562  1.0
  C  C146  1  0.71581611  0.44215387  0.33449164  1.0
  C  C147  1  0.71581763  0.33449595  0.22335429  1.0
  C  C148  1  0.71582207  0.22335779  0.44215415  1.0
  C  C149  1  0.28418389  0.55784586  0.66550834  1.0
  C  C150  1  0.28418237  0.66550436  0.77664540  1.0
  C  C151  1  0.28417885  0.77664252  0.55784554  1.0
  C  C152  1  0.55395416  0.39551588  0.43575749  1.0
  C  C153  1  0.55395281  0.43576081  0.16872795  1.0
  C  C154  1  0.55395774  0.16873076  0.39551050  1.0
  C  C155  1  0.44604492  0.60448443  0.56424271  1.0
  C  C156  1  0.44604811  0.56423891  0.83127254  1.0
  C  C157  1  0.44604226  0.83126895  0.60449000  1.0
  C  C158  1  0.50731789  0.39048998  0.50872965  1.0
  C  C159  1  0.50731842  0.50873107  0.10078236  1.0
  C  C160  1  0.50731912  0.10078127  0.39048710  1.0
  C  C161  1  0.49268211  0.60951033  0.49127055  1.0
  C  C162  1  0.49268249  0.49126865  0.89921763  1.0
  C  C163  1  0.49268088  0.89921846  0.60951288  1.0
  C  C164  1  0.38744684  0.36335010  0.53087344  1.0
  C  C165  1  0.38744634  0.53087744  0.10577512  1.0
  C  C166  1  0.38744716  0.10577625  0.36334804  1.0
  C  C167  1  0.61255225  0.63665080  0.46912596  1.0
  C  C168  1  0.61255366  0.46912228  0.89422487  1.0
  C  C169  1  0.61255284  0.89422346  0.63665246  1.0
  C  C170  1  0.33815821  0.35019608  0.60124977  1.0
  C  C171  1  0.33815406  0.60125046  0.04855341  1.0
  C  C172  1  0.33815703  0.04855038  0.35019646  1.0
  C  C173  1  0.66184179  0.64980423  0.39874993  1.0
  C  C174  1  0.66184594  0.39874985  0.95144629  1.0
  C  C175  1  0.66184297  0.95144934  0.64980404  1.0
  C  C176  1  0.41008383  0.36378308  0.65167229  1.0
  C  C177  1  0.41007847  0.65166987  0.98454649  1.0
  C  C178  1  0.41008060  0.98454004  0.36378316  1.0
  C  C179  1  0.58991617  0.63621665  0.34832820  1.0
  C  C180  1  0.58992153  0.34833044  0.01545321  1.0
  C  C181  1  0.58991940  0.01545969  0.63621733  1.0
  C  C182  1  0.52879582  0.39246919  0.63095844  1.0
  C  C183  1  0.52879059  0.63095320  0.97657817  1.0
  C  C184  1  0.52879260  0.97656968  0.39246858  1.0
  C  C185  1  0.47120418  0.60753112  0.36904176  1.0
  C  C186  1  0.47120849  0.36904711  0.02342152  1.0
  C  C187  1  0.47120740  0.02343004  0.60753141  1.0
  C  C188  1  0.57745093  0.40670631  0.55942855  1.0
  C  C189  1  0.57744887  0.55942594  0.03386929  1.0
  C  C190  1  0.57744885  0.03386460  0.40670639  1.0
  C  C191  1  0.42254816  0.59329400  0.44057165  1.0
  C  C192  1  0.42255113  0.44057436  0.96613091  1.0
  C  C193  1  0.42255024  0.96613511  0.59329411  1.0
  C  C194  1  0.77715457  0.44013504  0.58935268  1.0
  C  C195  1  0.77715139  0.58935181  0.97051856  1.0
  C  C196  1  0.77715315  0.97051394  0.44013211  1.0
  C  C197  1  0.22284452  0.55986528  0.41064701  1.0
  C  C198  1  0.22284861  0.41064792  0.02948193  1.0
  C  C199  1  0.22284685  0.02948637  0.55986758  1.0
  C  C200  1  0.89450845  0.46908929  0.54508045  1.0
  C  C201  1  0.89450354  0.54507822  0.98583485  1.0
  C  C202  1  0.89450599  0.98583178  0.46908754  1.0
  C  C203  1  0.10549155  0.53091102  0.45491924  1.0
  C  C204  1  0.10549554  0.45492151  0.01416513  1.0
  C  C205  1  0.10549400  0.01416853  0.53091215  1.0
  C  C206  1  0.93024982  0.54620662  0.51916308  1.0
  C  C207  1  0.93025262  0.51916124  0.93463541  1.0
  C  C208  1  0.93025122  0.93463485  0.54620105  1.0
  C  C209  1  0.06975018  0.45379369  0.48083661  1.0
  C  C210  1  0.06974738  0.48083849  0.06536457  1.0
  C  C211  1  0.06974970  0.06536488  0.45379843  1.0
  C  C212  1  0.96492260  0.42112338  0.52607625  1.0
  C  C213  1  0.96491693  0.52607559  0.05280149  1.0
  C  C214  1  0.96492131  0.05279803  0.42112612  1.0
  C  C215  1  0.03507740  0.57887693  0.47392344  1.0
  C  C216  1  0.03508307  0.47392413  0.94719850  1.0
  C  C217  1  0.03507960  0.94720229  0.57887357  1.0
  C  C218  1  0.93177883  0.33753420  0.55332262  1.0
  C  C219  1  0.93177273  0.55332551  0.10914234  1.0
  C  C220  1  0.93177825  0.10913738  0.33753994  1.0
  C  C221  1  0.06822117  0.66246611  0.44667707  1.0
  C  C222  1  0.06822727  0.44667421  0.89085765  1.0
  C  C223  1  0.06822267  0.89086234  0.66246005  1.0
  N  N224  1  0.65856844  0.43378229  0.40493767  1.0
  N  N225  1  0.65856909  0.40494072  0.16128200  1.0
  N  N226  1  0.65857019  0.16128476  0.43377843  1.0
  N  N227  1  0.34143156  0.56621802  0.59506202  1.0
  N  N228  1  0.34143091  0.59505959  0.83871770  1.0
  N  N229  1  0.34142981  0.83871497  0.56622206  1.0
  N  N230  1  0.21932531  0.24640747  0.48011899  1.0
  N  N231  1  0.21932318  0.48012613  0.27347096  1.0
  N  N232  1  0.21932392  0.27346831  0.24640237  1.0
  N  N233  1  0.78067469  0.75359285  0.51988070  1.0
  N  N234  1  0.78067591  0.51987359  0.72652903  1.0
  N  N235  1  0.78067608  0.72653141  0.75359863  1.0
  O  O236  1  0.49694429  0.36166818  0.40511976  1.0
  O  O237  1  0.49693997  0.40512772  0.23320827  1.0
  O  O238  1  0.49695303  0.23321579  0.36165984  1.0
  O  O239  1  0.50305480  0.63833329  0.59487986  1.0
  O  O240  1  0.50306003  0.59487200  0.76679172  1.0
  O  O241  1  0.50304697  0.76678451  0.63834037  1.0
  O  O242  1  0.69167011  0.43585371  0.53515626  1.0
  O  O243  1  0.69166818  0.53515327  0.02899309  1.0
  O  O244  1  0.69166803  0.02899017  0.43585551  1.0
  O  O245  1  0.30832898  0.56414718  0.46484365  1.0
  O  O246  1  0.30833182  0.46484644  0.97100741  1.0
  O  O247  1  0.30833197  0.97100956  0.56414498  1.0
  O  O248  1  0.19136270  0.31711749  0.42802511  1.0
  O  O249  1  0.19136090  0.42802867  0.25485594  1.0
  O  O250  1  0.19136407  0.25485583  0.31711180  1.0
  O  O251  1  0.80863638  0.68288282  0.57197408  1.0
  O  O252  1  0.80863819  0.57197164  0.74514376  1.0
  O  O253  1  0.80863593  0.74514448  0.68288891  1.0
  O  O254  1  0.31624929  0.21852338  0.46588650  1.0
  O  O255  1  0.31624607  0.46589434  0.31558689  1.0
  O  O256  1  0.31624953  0.31558102  0.21852082  1.0
  O  O257  1  0.68375162  0.78147693  0.53411421  1.0
  O  O258  1  0.68375302  0.53410538  0.68441310  1.0
  O  O259  1  0.68375047  0.68441812  0.78147946  1.0
  O  O260  1  0.15789641  0.20817248  0.53976628  1.0
  O  O261  1  0.15789506  0.53977597  0.25205968  1.0
  O  O262  1  0.15788971  0.25205655  0.20816545  1.0
  O  O263  1  0.84210267  0.79182724  0.46023320  1.0
  O  O264  1  0.84210403  0.46022375  0.74794132  1.0
  O  O265  1  0.84210937  0.74794259  0.79183584  1.0
