# generated using pymatgen
data_Zn2H31C31N3O11
_symmetry_space_group_name_H-M   'P 1'
_cell_length_a   10.27191886
_cell_length_b   18.26052680
_cell_length_c   26.93711373
_cell_angle_alpha   90.00024244
_cell_angle_beta   89.99998355
_cell_angle_gamma   89.99977870
_symmetry_Int_Tables_number   1
_chemical_formula_structural   Zn2H31C31N3O11
_chemical_formula_sum   'Zn8 H124 C124 N12 O44'
_cell_volume   5052.61192142
_cell_formula_units_Z   4
loop_
 _symmetry_equiv_pos_site_id
 _symmetry_equiv_pos_as_xyz
  1  'x, y, z'
loop_
 _atom_site_type_symbol
 _atom_site_label
 _atom_site_symmetry_multiplicity
 _atom_site_fract_x
 _atom_site_fract_y
 _atom_site_fract_z
 _atom_site_occupancy
  Zn  Zn0  1  0.68226034  0.17458830  0.96407623  1.0
  Zn  Zn1  1  0.31773634  0.82541118  0.46407781  1.0
  Zn  Zn2  1  0.18226970  0.32541152  0.46407784  1.0
  Zn  Zn3  1  0.81773478  0.67458906  0.96407694  1.0
  Zn  Zn4  1  0.99239391  0.31007842  0.56390770  1.0
  Zn  Zn5  1  0.00760601  0.68992240  0.06391189  1.0
  Zn  Zn6  1  0.49239543  0.18992151  0.06390706  1.0
  Zn  Zn7  1  0.50760254  0.81007548  0.56390770  1.0
  H  H8  1  0.76657961  0.43710589  0.98545083  1.0
  H  H9  1  0.23342095  0.56289427  0.48545092  1.0
  H  H10  1  0.26659076  0.06289552  0.48545020  1.0
  H  H11  1  0.73341369  0.93710245  0.98545043  1.0
  H  H12  1  0.81956294  0.51741849  0.13402936  1.0
  H  H13  1  0.18043399  0.48258386  0.63402871  1.0
  H  H14  1  0.31956597  0.98258352  0.63402905  1.0
  H  H15  1  0.68042999  0.01741774  0.13402716  1.0
  H  H16  1  0.66231167  0.30127860  0.10953088  1.0
  H  H17  1  0.33769307  0.69872250  0.60952936  1.0
  H  H18  1  0.16232151  0.19872343  0.60953088  1.0
  H  H19  1  0.83768226  0.80127713  0.10953011  1.0
  H  H20  1  0.51915916  0.31295690  0.26605473  1.0
  H  H21  1  0.48084157  0.68704573  0.76605390  1.0
  H  H22  1  0.01915934  0.18704314  0.76605247  1.0
  H  H23  1  0.98083944  0.81295730  0.26605245  1.0
  H  H24  1  0.54016103  0.33670892  0.17607927  1.0
  H  H25  1  0.45983977  0.66329205  0.67607726  1.0
  H  H26  1  0.04016722  0.16329215  0.67607805  1.0
  H  H27  1  0.95983358  0.83671047  0.17607737  1.0
  H  H28  1  0.89948979  0.45168448  0.20217093  1.0
  H  H29  1  0.10051002  0.54831775  0.70217011  1.0
  H  H30  1  0.39949482  0.04831706  0.70217124  1.0
  H  H31  1  0.60050596  0.95168462  0.20217129  1.0
  H  H32  1  0.65368989  0.32275287  0.48229728  1.0
  H  H33  1  0.34630970  0.67724946  0.98229644  1.0
  H  H34  1  0.15368917  0.17725150  0.98229722  1.0
  H  H35  1  0.84631139  0.82274700  0.48229688  1.0
  H  H36  1  0.87748907  0.42922651  0.29221507  1.0
  H  H37  1  0.12251456  0.57077628  0.79221469  1.0
  H  H38  1  0.37749005  0.07077619  0.79221544  1.0
  H  H39  1  0.62250774  0.92922550  0.29221506  1.0
  H  H40  1  0.89321764  0.34821478  0.35315912  1.0
  H  H41  1  0.10678302  0.65179168  0.85315674  1.0
  H  H42  1  0.39321612  0.15178881  0.85315861  1.0
  H  H43  1  0.60678357  0.84820888  0.35315874  1.0
  H  H44  1  0.97740426  0.36701747  0.68086166  1.0
  H  H45  1  0.02259654  0.63298627  0.18086012  1.0
  H  H46  1  0.47740325  0.13298377  0.18086049  1.0
  H  H47  1  0.52259560  0.86701504  0.68085906  1.0
  H  H48  1  0.73674765  0.24493647  0.53772144  1.0
  H  H49  1  0.26324352  0.75506474  0.03772060  1.0
  H  H50  1  0.23675262  0.25506550  0.03771914  1.0
  H  H51  1  0.76323758  0.74493297  0.53772030  1.0
  H  H52  1  0.47219696  0.35739730  0.34146265  1.0
  H  H53  1  0.52780468  0.64260525  0.84146280  1.0
  H  H54  1  0.97219464  0.14260331  0.84146132  1.0
  H  H55  1  0.02780311  0.85739596  0.34146154  1.0
  H  H56  1  0.53961130  0.20277361  0.53973683  1.0
  H  H57  1  0.46038668  0.79722377  0.03973608  1.0
  H  H58  1  0.03961306  0.29722661  0.03973650  1.0
  H  H59  1  0.96038687  0.70277351  0.53973529  1.0
  H  H60  1  0.48657846  0.16977590  0.59878951  1.0
  H  H61  1  0.51341948  0.83022295  0.09879034  1.0
  H  H62  1  0.98658108  0.33022426  0.09878997  1.0
  H  H63  1  0.01341588  0.66977513  0.59878802  1.0
  H  H64  1  0.53133177  0.10649330  0.55169157  1.0
  H  H65  1  0.46867009  0.89350689  0.05169110  1.0
  H  H66  1  0.03132801  0.39350591  0.05169078  1.0
  H  H67  1  0.96866997  0.60649319  0.55168929  1.0
  H  H68  1  0.72144149  0.05422809  0.61163592  1.0
  H  H69  1  0.27856033  0.94577248  0.11163525  1.0
  H  H70  1  0.22144029  0.44577492  0.11163676  1.0
  H  H71  1  0.77856251  0.55422565  0.61163440  1.0
  H  H72  1  0.65463875  0.11611863  0.65608472  1.0
  H  H73  1  0.34536012  0.88388277  0.15608387  1.0
  H  H74  1  0.15463992  0.38388535  0.15608427  1.0
  H  H75  1  0.84535895  0.61611714  0.65608320  1.0
  H  H76  1  0.82241361  0.12424685  0.63790609  1.0
  H  H77  1  0.17758235  0.87575608  0.13790560  1.0
  H  H78  1  0.32241776  0.37575775  0.13790562  1.0
  H  H79  1  0.67758307  0.62424189  0.63790458  1.0
  H  H80  1  0.81067570  0.44516778  0.54929275  1.0
  H  H81  1  0.18932812  0.55483460  0.04929134  1.0
  H  H82  1  0.31067912  0.05483410  0.04929247  1.0
  H  H83  1  0.68932178  0.94516334  0.54929199  1.0
  H  H84  1  0.51873680  0.51979467  0.55997479  1.0
  H  H85  1  0.48126312  0.48020503  0.05997610  1.0
  H  H86  1  0.01874120  0.98020535  0.05997499  1.0
  H  H87  1  0.98126066  0.01979216  0.55997516  1.0
  H  H88  1  0.50111424  0.45365789  0.51159089  1.0
  H  H89  1  0.49888766  0.54633986  0.01159202  1.0
  H  H90  1  0.00111188  0.04633840  0.01159096  1.0
  H  H91  1  0.99888807  0.95365716  0.51159195  1.0
  H  H92  1  0.64955955  0.50436220  0.51731800  1.0
  H  H93  1  0.35044234  0.49563559  0.01731863  1.0
  H  H94  1  0.14956190  0.99563562  0.01731824  1.0
  H  H95  1  0.85044097  0.00435998  0.51731801  1.0
  H  H96  1  0.29262208  0.28258030  0.66776997  1.0
  H  H97  1  0.70737191  0.71742062  0.16777306  1.0
  H  H98  1  0.79261768  0.21741907  0.16776825  1.0
  H  H99  1  0.20737728  0.78257747  0.66777069  1.0
  H  H100  1  0.30168662  0.26854749  0.73345294  1.0
  H  H101  1  0.69831122  0.73145164  0.23345717  1.0
  H  H102  1  0.80168699  0.23145391  0.23345125  1.0
  H  H103  1  0.19831279  0.76854633  0.73345366  1.0
  H  H104  1  0.36335155  0.35151428  0.70697917  1.0
  H  H105  1  0.63665020  0.64848688  0.20698243  1.0
  H  H106  1  0.86335055  0.14848682  0.20697651  1.0
  H  H107  1  0.13664731  0.85151051  0.70697990  1.0
  H  H108  1  0.46574339  0.34834352  0.56923463  1.0
  H  H109  1  0.53426139  0.65165734  0.06923420  1.0
  H  H110  1  0.96573555  0.15165705  0.06923123  1.0
  H  H111  1  0.03426533  0.84834106  0.56923352  1.0
  H  H112  1  0.46793067  0.41079258  0.62045847  1.0
  H  H113  1  0.53207017  0.58920804  0.12045749  1.0
  H  H114  1  0.96792813  0.08920447  0.12045527  1.0
  H  H115  1  0.03207077  0.91079287  0.62045624  1.0
  H  H116  1  0.58147933  0.33599341  0.61900646  1.0
  H  H117  1  0.41852443  0.66400776  0.11900682  1.0
  H  H118  1  0.08147130  0.16400502  0.11900464  1.0
  H  H119  1  0.91852760  0.83599231  0.61900567  1.0
  H  H120  1  0.03620799  0.40729959  0.75344750  1.0
  H  H121  1  0.96379957  0.59270186  0.25344722  1.0
  H  H122  1  0.53621126  0.09270087  0.25344542  1.0
  H  H123  1  0.46379435  0.90729949  0.75344559  1.0
  H  H124  1  0.20525033  0.42932672  0.75844657  1.0
  H  H125  1  0.79476112  0.57067641  0.25844774  1.0
  H  H126  1  0.70525375  0.07067395  0.25844294  1.0
  H  H127  1  0.29475283  0.92932479  0.75844468  1.0
  H  H128  1  0.14316190  0.34790480  0.78685856  1.0
  H  H129  1  0.85684660  0.65209577  0.28686032  1.0
  H  H130  1  0.64316672  0.15209564  0.28685739  1.0
  H  H131  1  0.35683984  0.84790383  0.78685741  1.0
  C  C132  1  0.75770922  0.42928878  0.02539955  1.0
  C  C133  1  0.24229267  0.57071180  0.52539916  1.0
  C  C134  1  0.25771604  0.07071197  0.52539844  1.0
  C  C135  1  0.74228780  0.92928752  0.02539842  1.0
  C  C136  1  0.78714170  0.47358456  0.10950662  1.0
  C  C137  1  0.21286012  0.52641874  0.60950610  1.0
  C  C138  1  0.28714299  0.02641555  0.60950612  1.0
  C  C139  1  0.71285592  0.97358391  0.10950586  1.0
  C  C140  1  0.69719106  0.35344843  0.09539173  1.0
  C  C141  1  0.30281077  0.64655313  0.59539192  1.0
  C  C142  1  0.19720028  0.14655398  0.59539157  1.0
  C  C143  1  0.80280155  0.85344594  0.09539170  1.0
  C  C144  1  0.60215329  0.34424392  0.25228529  1.0
  C  C145  1  0.39785232  0.65575588  0.75228475  1.0
  C  C146  1  0.10215076  0.15575475  0.75228405  1.0
  C  C147  1  0.89784706  0.84424506  0.25228377  1.0
  C  C148  1  0.72052050  0.39666923  0.18255035  1.0
  C  C149  1  0.27948127  0.60333124  0.68255004  1.0
  C  C150  1  0.22052321  0.10333094  0.68255007  1.0
  C  C151  1  0.77947175  0.89666733  0.18255032  1.0
  C  C152  1  0.85408708  0.55418216  0.03875194  1.0
  C  C153  1  0.14591188  0.44581905  0.53875194  1.0
  C  C154  1  0.35408938  0.94581809  0.53875264  1.0
  C  C155  1  0.64591542  0.05418257  0.03875197  1.0
  C  C156  1  0.61381807  0.35749912  0.20162844  1.0
  C  C157  1  0.38618563  0.64250147  0.70162712  1.0
  C  C158  1  0.11381953  0.14250031  0.70162753  1.0
  C  C159  1  0.88617735  0.85749754  0.20162691  1.0
  C  C160  1  0.73389870  0.40883956  0.12866263  1.0
  C  C161  1  0.26610213  0.59116276  0.62866192  1.0
  C  C162  1  0.23390052  0.09116079  0.62866195  1.0
  C  C163  1  0.76609545  0.90883824  0.12866186  1.0
  C  C164  1  0.81485915  0.42197846  0.21618984  1.0
  C  C165  1  0.18514161  0.57802221  0.71618947  1.0
  C  C166  1  0.31486300  0.07802335  0.71618949  1.0
  C  C167  1  0.68513582  0.92197842  0.21619019  1.0
  C  C168  1  0.71055369  0.36292279  0.04418692  1.0
  C  C169  1  0.28944429  0.63707681  0.54418820  1.0
  C  C170  1  0.21056103  0.13707818  0.54418637  1.0
  C  C171  1  0.78943889  0.86292142  0.04418727  1.0
  C  C172  1  0.69654159  0.36941297  0.28606585  1.0
  C  C173  1  0.30346302  0.63058595  0.78606488  1.0
  C  C174  1  0.19654119  0.13058735  0.78606491  1.0
  C  C175  1  0.80346050  0.86941595  0.28606508  1.0
  C  C176  1  0.66326550  0.33116432  0.44251315  1.0
  C  C177  1  0.33673412  0.66883557  0.94251303  1.0
  C  C178  1  0.16326094  0.16883540  0.94251269  1.0
  C  C179  1  0.83673868  0.83116285  0.44251274  1.0
  C  C180  1  0.90520181  0.32713025  0.45173349  1.0
  C  C181  1  0.09479878  0.67286806  0.95173341  1.0
  C  C182  1  0.40519527  0.17286900  0.95173267  1.0
  C  C183  1  0.59480629  0.82713040  0.45173312  1.0
  C  C184  1  0.55105179  0.33786022  0.41378366  1.0
  C  C185  1  0.44894688  0.66214114  0.91378387  1.0
  C  C186  1  0.05104922  0.16214176  0.91378318  1.0
  C  C187  1  0.94895042  0.83785850  0.41378324  1.0
  C  C188  1  0.80322163  0.40860662  0.26685709  1.0
  C  C189  1  0.19678202  0.59139327  0.76685602  1.0
  C  C190  1  0.30322247  0.09139334  0.76685641  1.0
  C  C191  1  0.69677924  0.90860874  0.26685670  1.0
  C  C192  1  0.79602256  0.34674948  0.36934534  1.0
  C  C193  1  0.20397614  0.65325105  0.86934481  1.0
  C  C194  1  0.29601908  0.15324950  0.86934558  1.0
  C  C195  1  0.70397865  0.84674885  0.36934532  1.0
  C  C196  1  0.68611058  0.30080840  0.00931747  1.0
  C  C197  1  0.31388548  0.69918825  0.50931892  1.0
  C  C198  1  0.18611457  0.19919295  0.50931821  1.0
  C  C199  1  0.81388343  0.80080698  0.00931893  1.0
  C  C200  1  0.68436862  0.35526350  0.33986521  1.0
  C  C201  1  0.31563010  0.64473630  0.83986354  1.0
  C  C202  1  0.18436423  0.14473663  0.83986431  1.0
  C  C203  1  0.81563352  0.85526591  0.33986444  1.0
  C  C204  1  0.78569442  0.33518536  0.42047664  1.0
  C  C205  1  0.21430619  0.66481166  0.92047652  1.0
  C  C206  1  0.28569086  0.16481177  0.92047691  1.0
  C  C207  1  0.71430877  0.83518471  0.42047699  1.0
  C  C208  1  0.06821104  0.33628876  0.67373878  1.0
  C  C209  1  0.93178684  0.66371439  0.17373871  1.0
  C  C210  1  0.56820994  0.16371332  0.17373876  1.0
  C  C211  1  0.43178892  0.83628380  0.67373799  1.0
  C  C212  1  0.77517680  0.20865169  0.56689192  1.0
  C  C213  1  0.22481824  0.79134915  0.06689193  1.0
  C  C214  1  0.27517958  0.29134873  0.06689121  1.0
  C  C215  1  0.72481644  0.70864828  0.56689190  1.0
  C  C216  1  0.79798484  0.48403863  0.05822535  1.0
  C  C217  1  0.20201702  0.51596215  0.55822480  1.0
  C  C218  1  0.29798620  0.01596169  0.55822482  1.0
  C  C219  1  0.70201664  0.98403910  0.05822458  1.0
  C  C220  1  0.56156976  0.35037666  0.36273106  1.0
  C  C221  1  0.43842894  0.64962493  0.86273087  1.0
  C  C222  1  0.06156631  0.14962388  0.86273092  1.0
  C  C223  1  0.93843240  0.85037771  0.36273139  1.0
  C  C224  1  0.42204864  0.33114048  0.43918281  1.0
  C  C225  1  0.57794903  0.66886104  0.93918303  1.0
  C  C226  1  0.92204517  0.16886030  0.93918230  1.0
  C  C227  1  0.07795348  0.83113957  0.43918244  1.0
  C  C228  1  0.55438862  0.16015772  0.56787861  1.0
  C  C229  1  0.44560837  0.83984258  0.06787836  1.0
  C  C230  1  0.05439106  0.33984265  0.06787840  1.0
  C  C231  1  0.94560690  0.66015656  0.56787707  1.0
  C  C232  1  0.72393353  0.11105617  0.62515972  1.0
  C  C233  1  0.27606342  0.88894503  0.12515889  1.0
  C  C234  1  0.22393563  0.38894692  0.12515891  1.0
  C  C235  1  0.77606521  0.61105319  0.62515783  1.0
  C  C236  1  0.75163329  0.40866021  0.57310149  1.0
  C  C237  1  0.24836661  0.59134122  0.07310129  1.0
  C  C238  1  0.25163159  0.09134140  0.07309983  1.0
  C  C239  1  0.74836734  0.90865619  0.57310035  1.0
  C  C240  1  0.57020348  0.47813091  0.53793450  1.0
  C  C241  1  0.42979645  0.52186866  0.03793520  1.0
  C  C242  1  0.07020420  0.02186704  0.03793339  1.0
  C  C243  1  0.92979573  0.97812923  0.53793409  1.0
  C  C244  1  0.28704852  0.30945040  0.70401369  1.0
  C  C245  1  0.71295031  0.69055184  0.20401669  1.0
  C  C246  1  0.78704723  0.19055085  0.20401189  1.0
  C  C247  1  0.21295160  0.80944701  0.70401404  1.0
  C  C248  1  0.52870523  0.37606727  0.59642058  1.0
  C  C249  1  0.47129660  0.62393430  0.09641971  1.0
  C  C250  1  0.02869941  0.12393169  0.09641716  1.0
  C  C251  1  0.97129950  0.87606550  0.59641867  1.0
  C  C252  1  0.13484786  0.38432808  0.75446427  1.0
  C  C253  1  0.86515872  0.61567393  0.25446445  1.0
  C  C254  1  0.63485195  0.11567272  0.25446263  1.0
  C  C255  1  0.36515463  0.88432710  0.75446275  1.0
  N  N256  1  0.68827693  0.16172768  0.58578475  1.0
  N  N257  1  0.31171907  0.83827218  0.08578451  1.0
  N  N258  1  0.18828036  0.33827305  0.08578417  1.0
  N  N259  1  0.81171856  0.66172572  0.58578361  1.0
  N  N260  1  0.15964670  0.34369382  0.70902059  1.0
  N  N261  1  0.84035505  0.65631010  0.20902200  1.0
  N  N262  1  0.65964759  0.15630829  0.20901943  1.0
  N  N263  1  0.34035416  0.84369124  0.70901944  1.0
  N  N264  1  0.62311490  0.42125307  0.57010305  1.0
  N  N265  1  0.37688598  0.57874888  0.07010280  1.0
  N  N266  1  0.12311329  0.07874825  0.07010024  1.0
  N  N267  1  0.87688759  0.92124987  0.57010152  1.0
  O  O268  1  0.93210061  0.58756182  0.06797041  1.0
  O  O269  1  0.06789443  0.41244012  0.56796957  1.0
  O  O270  1  0.43210509  0.91243954  0.56797027  1.0
  O  O271  1  0.56789773  0.08756076  0.06796897  1.0
  O  O272  1  0.08235850  0.29800989  0.63573354  1.0
  O  O273  1  0.91763844  0.70199138  0.13573284  1.0
  O  O274  1  0.58235518  0.20199193  0.13573400  1.0
  O  O275  1  0.41764565  0.79800386  0.63573387  1.0
  O  O276  1  0.81951959  0.57338287  0.99556792  1.0
  O  O277  1  0.18048194  0.42661680  0.49556874  1.0
  O  O278  1  0.31952338  0.92661537  0.49556908  1.0
  O  O279  1  0.68048496  0.07338431  0.99556869  1.0
  O  O280  1  0.65342069  0.23717452  0.02852583  1.0
  O  O281  1  0.34657048  0.76282335  0.52852523  1.0
  O  O282  1  0.15341646  0.26282429  0.52852749  1.0
  O  O283  1  0.84657471  0.73717467  0.02852765  1.0
  O  O284  1  0.01323118  0.32646742  0.42875038  1.0
  O  O285  1  0.98676845  0.67352801  0.92874946  1.0
  O  O286  1  0.51322670  0.17352871  0.92874877  1.0
  O  O287  1  0.48677098  0.82647055  0.42875033  1.0
  O  O288  1  0.80416599  0.36046064  0.59953260  1.0
  O  O289  1  0.19583292  0.63953931  0.09953292  1.0
  O  O290  1  0.30416396  0.13954047  0.09953071  1.0
  O  O291  1  0.69583301  0.86045838  0.59953184  1.0
  O  O292  1  0.31917496  0.33825092  0.41216806  1.0
  O  O293  1  0.68082566  0.66174878  0.91216899  1.0
  O  O294  1  0.81916959  0.16174991  0.91216863  1.0
  O  O295  1  0.18083006  0.83825034  0.41216915  1.0
  O  O296  1  0.41823439  0.31882554  0.48531357  1.0
  O  O297  1  0.58175839  0.68117627  0.98531383  1.0
  O  O298  1  0.91823277  0.18117609  0.98531309  1.0
  O  O299  1  0.08176584  0.81882298  0.48531320  1.0
  O  O300  1  0.89222405  0.21217286  0.58037852  1.0
  O  O301  1  0.10777293  0.78782751  0.08038001  1.0
  O  O302  1  0.39222587  0.28782410  0.08037928  1.0
  O  O303  1  0.60777208  0.71217353  0.58038185  1.0
  O  O304  1  0.88807940  0.32204677  0.49849499  1.0
  O  O305  1  0.11191726  0.67795566  0.99849529  1.0
  O  O306  1  0.38807575  0.17795555  0.99849493  1.0
  O  O307  1  0.61192772  0.82204688  0.49849610  1.0
  O  O308  1  0.70538701  0.30763098  0.96388115  1.0
  O  O309  1  0.29461064  0.69236193  0.46388198  1.0
  O  O310  1  0.20539339  0.19237535  0.46388163  1.0
  O  O311  1  0.79461011  0.80762851  0.96388186  1.0
