# generated using pymatgen
data_ZnH23C26NO8
_symmetry_space_group_name_H-M   'P 1'
_cell_length_a   11.00805369
_cell_length_b   16.57511554
_cell_length_c   17.80479021
_cell_angle_alpha   89.99857296
_cell_angle_beta   92.21686128
_cell_angle_gamma   89.99514424
_symmetry_Int_Tables_number   1
_chemical_formula_structural   ZnH23C26NO8
_chemical_formula_sum   'Zn2 H46 C52 N2 O16'
_cell_volume   3246.22639452
_cell_formula_units_Z   2
loop_
 _symmetry_equiv_pos_site_id
 _symmetry_equiv_pos_as_xyz
  1  'x, y, z'
loop_
 _atom_site_type_symbol
 _atom_site_label
 _atom_site_symmetry_multiplicity
 _atom_site_fract_x
 _atom_site_fract_y
 _atom_site_fract_z
 _atom_site_occupancy
  Zn  Zn0  1  0.50001512  0.42073170  0.50001353  1.0
  Zn  Zn1  1  0.49999986  0.59021227  0.50000947  1.0
  H  H2  1  0.11407681  0.62924926  0.49876983  1.0
  H  H3  1  0.50688236  0.37866478  0.27122080  1.0
  H  H4  1  0.47594821  0.62637300  0.88441245  1.0
  H  H5  1  0.52375244  0.62635028  0.11560043  1.0
  H  H6  1  0.37984547  0.13596625  0.40088029  1.0
  H  H7  1  0.62017440  0.13595602  0.59915396  1.0
  H  H8  1  0.20720119  0.21298850  0.52276695  1.0
  H  H9  1  0.79289719  0.21298096  0.47737349  1.0
  H  H10  1  0.50380570  0.35760803  0.92776740  1.0
  H  H11  1  0.49579329  0.35758596  0.07227825  1.0
  H  H12  1  0.37413464  0.75714360  0.72704267  1.0
  H  H13  1  0.88591388  0.62925015  0.50124432  1.0
  H  H14  1  0.32631546  0.69595096  0.80268800  1.0
  H  H15  1  0.29228947  0.65051148  0.63550027  1.0
  H  H16  1  0.23718339  0.59588345  0.71186385  1.0
  H  H17  1  0.10410095  0.71529444  0.74554389  1.0
  H  H18  1  0.07118058  0.68042736  0.65270992  1.0
  H  H19  1  0.15918952  0.76912973  0.66760001  1.0
  H  H20  1  0.62589942  0.75709461  0.27294412  1.0
  H  H21  1  0.67366387  0.69586638  0.19731069  1.0
  H  H22  1  0.70772705  0.65045702  0.36450610  1.0
  H  H23  1  0.76272918  0.59577298  0.28814443  1.0
  H  H24  1  0.46163655  0.86938991  0.37983578  1.0
  H  H25  1  0.89590379  0.71509277  0.25438359  1.0
  H  H26  1  0.92886116  0.68023122  0.34722560  1.0
  H  H27  1  0.84093770  0.76899307  0.33233546  1.0
  H  H28  1  0.22118757  0.23268381  0.37980924  1.0
  H  H29  1  0.32356240  0.22890459  0.30383272  1.0
  H  H30  1  0.20595219  0.38548914  0.35466094  1.0
  H  H31  1  0.27600300  0.36817280  0.26848741  1.0
  H  H32  1  0.10380792  0.26907474  0.23153305  1.0
  H  H33  1  0.05014492  0.36824820  0.24764340  1.0
  H  H34  1  0.03440853  0.29305711  0.31745434  1.0
  H  H35  1  0.53847447  0.86935110  0.62019700  1.0
  H  H36  1  0.77876163  0.23262475  0.62026187  1.0
  H  H37  1  0.67634932  0.22892408  0.69621474  1.0
  H  H38  1  0.79419290  0.38541005  0.64534580  1.0
  H  H39  1  0.72396726  0.36821139  0.73148221  1.0
  H  H40  1  0.89594713  0.26901822  0.76862206  1.0
  H  H41  1  0.94982355  0.36811306  0.75244807  1.0
  H  H42  1  0.96551659  0.29283281  0.68272476  1.0
  H  H43  1  0.46479279  0.71709950  0.38491570  1.0
  H  H44  1  0.53525449  0.71706325  0.61509452  1.0
  H  H45  1  0.22493715  0.34971961  0.51361400  1.0
  H  H46  1  0.77513596  0.34971884  0.48644993  1.0
  H  H47  1  0.49300803  0.37867552  0.72882694  1.0
  C  C48  1  0.51131325  0.50802473  0.35611399  1.0
  C  C49  1  0.51092514  0.49628661  0.11362121  1.0
  C  C50  1  0.49587524  0.49088485  0.96557348  1.0
  C  C51  1  0.50363220  0.49087501  0.03445575  1.0
  C  C52  1  0.43171190  0.16802221  0.44456317  1.0
  C  C53  1  0.56831162  0.16802149  0.55545653  1.0
  C  C54  1  0.43604800  0.25243790  0.44617885  1.0
  C  C55  1  0.56396854  0.25243841  0.55383807  1.0
  C  C56  1  0.50002488  0.12562607  0.50001019  1.0
  C  C57  1  0.50002946  0.04024627  0.50001497  1.0
  C  C58  1  0.50004079  0.96674660  0.50002142  1.0
  C  C59  1  0.48867475  0.50803173  0.64391409  1.0
  C  C60  1  0.26464498  0.50781128  0.49646882  1.0
  C  C61  1  0.73537481  0.50780535  0.50355423  1.0
  C  C62  1  0.47864575  0.83784902  0.43285268  1.0
  C  C63  1  0.52144116  0.83783120  0.56717405  1.0
  C  C64  1  0.47981019  0.75415665  0.43522289  1.0
  C  C65  1  0.52024872  0.75413710  0.56479024  1.0
  C  C66  1  0.50004523  0.88142532  0.50001722  1.0
  C  C67  1  0.12614307  0.34987011  0.50808448  1.0
  C  C68  1  0.87392716  0.34987422  0.49197209  1.0
  C  C69  1  0.06431593  0.27768818  0.50566661  1.0
  C  C70  1  0.48474554  0.50785711  0.72805539  1.0
  C  C71  1  0.93576720  0.27768611  0.49440668  1.0
  C  C72  1  0.93437432  0.42553720  0.49816913  1.0
  C  C73  1  0.06567389  0.42553700  0.50187164  1.0
  C  C74  1  0.12901134  0.50111445  0.50029698  1.0
  C  C75  1  0.87100852  0.50112249  0.49972900  1.0
  C  C76  1  0.06352748  0.57275169  0.49968976  1.0
  C  C77  1  0.93646890  0.57274640  0.50033113  1.0
  C  C78  1  0.49306405  0.42584127  0.84155945  1.0
  C  C79  1  0.50667506  0.42582115  0.15847964  1.0
  C  C80  1  0.49052277  0.43253095  0.76378645  1.0
  C  C81  1  0.51519705  0.50784219  0.27197188  1.0
  C  C82  1  0.50935259  0.43251661  0.23625050  1.0
  C  C83  1  0.35548442  0.69460972  0.74394011  1.0
  C  C84  1  0.25750789  0.65727109  0.69221593  1.0
  C  C85  1  0.14168769  0.70829169  0.68952162  1.0
  C  C86  1  0.64449797  0.69454760  0.25605642  1.0
  C  C87  1  0.74246653  0.65717907  0.30777383  1.0
  C  C88  1  0.85834192  0.70812698  0.31042048  1.0
  C  C89  1  0.28348131  0.26852392  0.34609685  1.0
  C  C90  1  0.21807477  0.34040068  0.31033096  1.0
  C  C91  1  0.09502686  0.31606670  0.27466880  1.0
  C  C92  1  0.47748211  0.57851223  0.77229908  1.0
  C  C93  1  0.71647395  0.26850480  0.65394676  1.0
  C  C94  1  0.78192867  0.34036097  0.68970267  1.0
  C  C95  1  0.90488201  0.31594598  0.72545680  1.0
  C  C96  1  0.52241359  0.57849709  0.22771932  1.0
  C  C97  1  0.47954834  0.57187142  0.85032970  1.0
  C  C98  1  0.52021015  0.57185051  0.14968971  1.0
  C  C99  1  0.48873530  0.49630394  0.88640789  1.0
  N  N100  1  0.50000792  0.29373349  0.50000162  1.0
  N  N101  1  0.50001460  0.71353690  0.50000582  1.0
  O  O102  1  0.54442360  0.44317950  0.38927529  1.0
  O  O103  1  0.87942593  0.20383913  0.48791670  1.0
  O  O104  1  0.50117202  0.35060448  0.87319268  1.0
  O  O105  1  0.49851525  0.35058719  0.12685357  1.0
  O  O106  1  0.47178349  0.65448145  0.74049775  1.0
  O  O107  1  0.52819652  0.65446406  0.25951069  1.0
  O  O108  1  0.37973354  0.30033442  0.39571614  1.0
  O  O109  1  0.62027792  0.30032764  0.60429758  1.0
  O  O110  1  0.45560410  0.44319279  0.61075300  1.0
  O  O111  1  0.47303414  0.57146852  0.38773824  1.0
  O  O112  1  0.52695723  0.57147996  0.61228820  1.0
  O  O113  1  0.32228283  0.44640784  0.47319359  1.0
  O  O114  1  0.67774643  0.44641569  0.52681670  1.0
  O  O115  1  0.31346552  0.57494374  0.51474122  1.0
  O  O116  1  0.68653922  0.57495311  0.48527136  1.0
  O  O117  1  0.12068175  0.20384267  0.51219206  1.0
