# generated using pymatgen
data_Zn4H48C60O13
_symmetry_space_group_name_H-M   'P 1'
_cell_length_a   28.15131481
_cell_length_b   28.15303939
_cell_length_c   28.15050452
_cell_angle_alpha   90.00222130
_cell_angle_beta   60.00299341
_cell_angle_gamma   59.99779079
_symmetry_Int_Tables_number   1
_chemical_formula_structural   Zn4H48C60O13
_chemical_formula_sum   'Zn8 H96 C120 O26'
_cell_volume   15775.81788085
_cell_formula_units_Z   2
loop_
 _symmetry_equiv_pos_site_id
 _symmetry_equiv_pos_as_xyz
  1  'x, y, z'
loop_
 _atom_site_type_symbol
 _atom_site_label
 _atom_site_symmetry_multiplicity
 _atom_site_fract_x
 _atom_site_fract_y
 _atom_site_fract_z
 _atom_site_occupancy
  Zn  Zn0  1  0.55693899  0.02848420  0.47155612  1.0
  Zn  Zn1  1  0.44304774  0.02852442  0.47149058  1.0
  Zn  Zn2  1  0.44300023  0.02850302  0.58543168  1.0
  Zn  Zn3  1  0.55690610  0.91461027  0.47155473  1.0
  Zn  Zn4  1  0.44304190  0.47151891  0.02854140  1.0
  Zn  Zn5  1  0.55688991  0.47153916  0.91459406  1.0
  Zn  Zn6  1  0.55690615  0.47155127  0.02850658  1.0
  Zn  Zn7  1  0.44299239  0.58544593  0.02851952  1.0
  H  H8  1  0.23588414  0.70807605  0.13215259  1.0
  H  H9  1  0.23588824  0.55587272  0.13209460  1.0
  H  H10  1  0.76408343  0.94403060  0.36793930  1.0
  H  H11  1  0.76404420  0.79185081  0.36801336  1.0
  H  H12  1  0.76403489  0.36790582  0.79190625  1.0
  H  H13  1  0.76404921  0.36798781  0.94411442  1.0
  H  H14  1  0.23583522  0.13216403  0.55591386  1.0
  H  H15  1  0.23592060  0.13208363  0.70808621  1.0
  H  H16  1  0.57604922  0.36786353  0.79199003  1.0
  H  H17  1  0.42390259  0.36782161  0.94421892  1.0
  H  H18  1  0.57613393  0.13196535  0.55602582  1.0
  H  H19  1  0.42386155  0.13200049  0.70819966  1.0
  H  H20  1  0.42391386  0.70814118  0.13204595  1.0
  H  H21  1  0.57607005  0.55592743  0.13209662  1.0
  H  H22  1  0.42383589  0.94406787  0.36798592  1.0
  H  H23  1  0.57610752  0.79188906  0.36795901  1.0
  H  H24  1  0.57624424  0.36791922  0.13199676  1.0
  H  H25  1  0.42397920  0.36794908  0.13207683  1.0
  H  H26  1  0.57619529  0.13207184  0.36800068  1.0
  H  H27  1  0.42404604  0.13204407  0.36789754  1.0
  H  H28  1  0.57616949  0.55599488  0.79188148  1.0
  H  H29  1  0.42389691  0.70819648  0.94411111  1.0
  H  H30  1  0.57601596  0.79190535  0.55599138  1.0
  H  H31  1  0.42386026  0.94412090  0.70820279  1.0
  H  H32  1  0.11624682  0.57982934  0.22336849  1.0
  H  H33  1  0.04767268  0.63915419  0.22598808  1.0
  H  H34  1  0.11660463  0.57956375  0.16031723  1.0
  H  H35  1  0.11627417  0.80374240  0.16041151  1.0
  H  H36  1  0.04767998  0.81302272  0.22636724  1.0
  H  H37  1  0.11659663  0.80369340  0.22312657  1.0
  H  H38  1  0.88366099  0.69615756  0.27671883  1.0
  H  H39  1  0.95225014  0.68688079  0.27408780  1.0
  H  H40  1  0.88331172  0.69624374  0.33976550  1.0
  H  H41  1  0.88370807  0.92005801  0.33965011  1.0
  H  H42  1  0.95229152  0.86073371  0.27369887  1.0
  H  H43  1  0.88338028  0.92033079  0.27693930  1.0
  H  H44  1  0.88370709  0.27671223  0.92015568  1.0
  H  H45  1  0.95226783  0.27409995  0.86082802  1.0
  H  H46  1  0.88332931  0.33976720  0.92042197  1.0
  H  H47  1  0.88360885  0.33966353  0.69625193  1.0
  H  H48  1  0.95222711  0.27371317  0.68695035  1.0
  H  H49  1  0.88330495  0.27694808  0.69629903  1.0
  H  H50  1  0.11629921  0.22338998  0.80379239  1.0
  H  H51  1  0.04771525  0.22600492  0.81307620  1.0
  H  H52  1  0.11666953  0.16033655  0.80371499  1.0
  H  H53  1  0.11621803  0.16044460  0.57989733  1.0
  H  H54  1  0.04762832  0.22639130  0.63922670  1.0
  H  H55  1  0.11652761  0.22315639  0.57963007  1.0
  H  H56  1  0.35653584  0.33951549  0.92026910  1.0
  H  H57  1  0.41321559  0.27356175  0.86094612  1.0
  H  H58  1  0.41929523  0.27680386  0.92053871  1.0
  H  H59  1  0.64342069  0.27653722  0.69631263  1.0
  H  H60  1  0.58671958  0.27392136  0.68705669  1.0
  H  H61  1  0.58063819  0.33959042  0.69640268  1.0
  H  H62  1  0.41952514  0.16024616  0.80388765  1.0
  H  H63  1  0.41286756  0.22620147  0.81319389  1.0
  H  H64  1  0.35654693  0.22294837  0.80383067  1.0
  H  H65  1  0.58051465  0.22324360  0.58000822  1.0
  H  H66  1  0.58712821  0.22585963  0.63934596  1.0
  H  H67  1  0.64347581  0.16019842  0.57974887  1.0
  H  H68  1  0.64349223  0.57987608  0.16034837  1.0
  H  H69  1  0.58681021  0.63918684  0.22630882  1.0
  H  H70  1  0.58074323  0.57959064  0.22305440  1.0
  H  H71  1  0.35659565  0.80381323  0.22329817  1.0
  H  H72  1  0.41328055  0.81307814  0.22593828  1.0
  H  H73  1  0.41938835  0.80371636  0.16025405  1.0
  H  H74  1  0.58046786  0.69620421  0.33967089  1.0
  H  H75  1  0.58711985  0.68691987  0.27370742  1.0
  H  H76  1  0.64344670  0.69626435  0.27697064  1.0
  H  H77  1  0.41946323  0.92010073  0.27669408  1.0
  H  H78  1  0.41285135  0.86077161  0.27406138  1.0
  H  H79  1  0.35650285  0.92036112  0.33973595  1.0
  H  H80  1  0.41964985  0.27662243  0.16038517  1.0
  H  H81  1  0.41302650  0.27400880  0.22633737  1.0
  H  H82  1  0.35667190  0.33967214  0.22308862  1.0
  H  H83  1  0.58063219  0.33962078  0.22329540  1.0
  H  H84  1  0.58728525  0.27366561  0.22594033  1.0
  H  H85  1  0.64360408  0.27691869  0.16025990  1.0
  H  H86  1  0.35670039  0.22337164  0.33957162  1.0
  H  H87  1  0.41342171  0.22598011  0.27362787  1.0
  H  H88  1  0.41947872  0.16032165  0.27686488  1.0
  H  H89  1  0.64358179  0.16037357  0.27668062  1.0
  H  H90  1  0.58689719  0.22632605  0.27404503  1.0
  H  H91  1  0.58080882  0.22307513  0.33972162  1.0
  H  H92  1  0.41956301  0.80387190  0.92016918  1.0
  H  H93  1  0.41289878  0.81314678  0.86086682  1.0
  H  H94  1  0.35658356  0.80380022  0.92046003  1.0
  H  H95  1  0.58056201  0.57993496  0.69621183  1.0
  H  H96  1  0.58716812  0.63926845  0.68695917  1.0
  H  H97  1  0.64352230  0.57969122  0.69628475  1.0
  H  H98  1  0.35651988  0.92019103  0.80387394  1.0
  H  H99  1  0.41320336  0.86089316  0.81316238  1.0
  H  H100  1  0.41928584  0.92047433  0.80379773  1.0
  H  H101  1  0.64341815  0.69625263  0.57991949  1.0
  H  H102  1  0.58676083  0.68696449  0.63923758  1.0
  H  H103  1  0.58064682  0.69631090  0.57966262  1.0
  C  C104  1  0.50007926  0.09102484  0.40898962  1.0
  C  C105  1  0.31796528  0.09107630  0.59095603  1.0
  C  C106  1  0.49998215  0.09097863  0.59105306  1.0
  C  C107  1  0.49992906  0.90904839  0.59104512  1.0
  C  C108  1  0.68197841  0.90899272  0.40902337  1.0
  C  C109  1  0.49998853  0.90902986  0.40899285  1.0
  C  C110  1  0.49995560  0.40893841  0.90910777  1.0
  C  C111  1  0.68195255  0.40899564  0.90904815  1.0
  C  C112  1  0.50006680  0.40898355  0.09102256  1.0
  C  C113  1  0.49995790  0.59100610  0.09105400  1.0
  C  C114  1  0.31796379  0.59095572  0.09108830  1.0
  C  C115  1  0.49998061  0.59103736  0.90903821  1.0
  C  C116  1  0.24306833  0.62838326  0.12854323  1.0
  C  C117  1  0.20766481  0.68900522  0.14624338  1.0
  C  C118  1  0.13774601  0.72489983  0.18118470  1.0
  C  C119  1  0.10200173  0.69892376  0.19902680  1.0
  C  C120  1  0.13774311  0.63720380  0.18114689  1.0
  C  C121  1  0.20766751  0.60316592  0.14621365  1.0
  C  C122  1  0.03074129  0.73455355  0.23464721  1.0
  C  C123  1  0.96920871  0.76533499  0.26541114  1.0
  C  C124  1  0.89794543  0.80098193  0.30104068  1.0
  C  C125  1  0.86221080  0.86270231  0.31889131  1.0
  C  C126  1  0.79229031  0.89673986  0.35384833  1.0
  C  C127  1  0.75687529  0.87153555  0.37157151  1.0
  C  C128  1  0.79226993  0.81091612  0.35389042  1.0
  C  C129  1  0.86219618  0.77501340  0.31893448  1.0
  C  C130  1  0.75685619  0.37153929  0.87160114  1.0
  C  C131  1  0.79225423  0.35382585  0.81098205  1.0
  C  C132  1  0.86217756  0.31888325  0.77508788  1.0
  C  C133  1  0.89792845  0.30104637  0.80105962  1.0
  C  C134  1  0.86219014  0.31893095  0.86278218  1.0
  C  C135  1  0.79226283  0.35386995  0.89681915  1.0
  C  C136  1  0.96919528  0.26543666  0.76541558  1.0
  C  C137  1  0.03072645  0.23468350  0.73463472  1.0
  C  C138  1  0.10198973  0.19905609  0.69898352  1.0
  C  C139  1  0.13771384  0.18120692  0.63725723  1.0
  C  C140  1  0.20763582  0.14625816  0.60320799  1.0
  C  C141  1  0.24306768  0.12854149  0.62840229  1.0
  C  C142  1  0.20768421  0.14620841  0.68902811  1.0
  C  C143  1  0.13776229  0.18116221  0.72493951  1.0
  C  C144  1  0.49997799  0.37143294  0.87168968  1.0
  C  C145  1  0.54288902  0.35373497  0.81106574  1.0
  C  C146  1  0.54382854  0.31876589  0.77517924  1.0
  C  C147  1  0.49999894  0.30087736  0.80116652  1.0
  C  C148  1  0.45616223  0.31873636  0.86289339  1.0
  C  C149  1  0.45707868  0.35371219  0.89692442  1.0
  C  C150  1  0.50000497  0.26523626  0.76553436  1.0
  C  C151  1  0.50002410  0.23447443  0.73474261  1.0
  C  C152  1  0.50002160  0.19886733  0.69908568  1.0
  C  C153  1  0.54388247  0.18099870  0.63736275  1.0
  C  C154  1  0.54293901  0.14606911  0.60331817  1.0
  C  C155  1  0.50000452  0.12838294  0.62852118  1.0
  C  C156  1  0.45706330  0.14608987  0.68914254  1.0
  C  C157  1  0.45614581  0.18102452  0.72504785  1.0
  C  C158  1  0.49998524  0.62844205  0.12848194  1.0
  C  C159  1  0.45709821  0.68906256  0.14615630  1.0
  C  C160  1  0.45619201  0.72495238  0.18109280  1.0
  C  C161  1  0.50003108  0.69897322  0.19898119  1.0
  C  C162  1  0.54386198  0.63724748  0.18112691  1.0
  C  C163  1  0.54290672  0.60322123  0.14618527  1.0
  C  C164  1  0.50003038  0.73460272  0.23461430  1.0
  C  C165  1  0.50000841  0.76537438  0.26539479  1.0
  C  C166  1  0.49998710  0.80101558  0.30103609  1.0
  C  C167  1  0.45610683  0.86273630  0.31892452  1.0
  C  C168  1  0.45703758  0.89677578  0.35387638  1.0
  C  C169  1  0.49997504  0.87157674  0.37156432  1.0
  C  C170  1  0.54291073  0.81095456  0.35385966  1.0
  C  C171  1  0.54384678  0.77505201  0.31890036  1.0
  C  C172  1  0.50011407  0.37152186  0.12844875  1.0
  C  C173  1  0.54305970  0.35381401  0.14612322  1.0
  C  C174  1  0.54400193  0.31885304  0.18107890  1.0
  C  C175  1  0.50014145  0.30099404  0.19896895  1.0
  C  C176  1  0.45626513  0.31887265  0.18112625  1.0
  C  C177  1  0.45718357  0.35383055  0.14616794  1.0
  C  C178  1  0.50016264  0.26537018  0.23460253  1.0
  C  C179  1  0.50016601  0.23460908  0.26537199  1.0
  C  C180  1  0.50014456  0.19898509  0.30100643  1.0
  C  C181  1  0.54397010  0.18113011  0.31890548  1.0
  C  C182  1  0.54302822  0.14617659  0.35387219  1.0
  C  C183  1  0.50011831  0.12846839  0.37154178  1.0
  C  C184  1  0.45721921  0.14615964  0.35381259  1.0
  C  C185  1  0.45630399  0.18111012  0.31884892  1.0
  C  C186  1  0.50003600  0.62849608  0.87159651  1.0
  C  C187  1  0.54297830  0.60328542  0.81096961  1.0
  C  C188  1  0.54392480  0.63731646  0.77508247  1.0
  C  C189  1  0.50005479  0.69903976  0.80106402  1.0
  C  C190  1  0.45618465  0.72501359  0.86278818  1.0
  C  C191  1  0.45710522  0.68911924  0.89681656  1.0
  C  C192  1  0.50004426  0.73468138  0.76543967  1.0
  C  C193  1  0.50001283  0.76544878  0.73467953  1.0
  C  C194  1  0.49998383  0.80107513  0.69903990  1.0
  C  C195  1  0.54380282  0.77509779  0.63731329  1.0
  C  C196  1  0.54285064  0.81098642  0.60328422  1.0
  C  C197  1  0.49993727  0.87160886  0.62850100  1.0
  C  C198  1  0.45704364  0.89682742  0.68912328  1.0
  C  C199  1  0.45613548  0.86279683  0.72501639  1.0
  C  C200  1  0.10231479  0.60771099  0.19882893  1.0
  C  C201  1  0.10232168  0.78982278  0.19889930  1.0
  C  C202  1  0.89760772  0.71009109  0.30125265  1.0
  C  C203  1  0.89765120  0.89218540  0.30116641  1.0
  C  C204  1  0.89762643  0.30125398  0.89227551  1.0
  C  C205  1  0.89758255  0.30117310  0.71016556  1.0
  C  C206  1  0.10235874  0.19884672  0.78986331  1.0
  C  C207  1  0.10226902  0.19892702  0.60777689  1.0
  C  C208  1  0.40894816  0.30103059  0.89238897  1.0
  C  C209  1  0.59100246  0.30108090  0.71025513  1.0
  C  C210  1  0.40891470  0.19873312  0.78996895  1.0
  C  C211  1  0.59110186  0.19870262  0.60788893  1.0
  C  C212  1  0.59107976  0.60774687  0.19883691  1.0
  C  C213  1  0.40901013  0.78987403  0.19877180  1.0
  C  C214  1  0.59107627  0.71012885  0.30118520  1.0
  C  C215  1  0.40887308  0.89222083  0.30123059  1.0
  C  C216  1  0.40904315  0.30117050  0.19886229  1.0
  C  C217  1  0.59123548  0.30113586  0.19876551  1.0
  C  C218  1  0.40912123  0.19881754  0.30110031  1.0
  C  C219  1  0.59116543  0.19885321  0.30121600  1.0
  C  C220  1  0.40895135  0.78993730  0.89229920  1.0
  C  C221  1  0.59114867  0.60782291  0.71015359  1.0
  C  C222  1  0.40893614  0.89231594  0.78994170  1.0
  C  C223  1  0.59100983  0.71017395  0.60780666  1.0
  O  O224  1  0.49995922  0.00003946  0.50000633  1.0
  O  O225  1  0.54053521  0.07647332  0.42356632  1.0
  O  O226  1  0.34706419  0.07654164  0.53591894  1.0
  O  O227  1  0.45947301  0.07646248  0.61696849  1.0
  O  O228  1  0.45959243  0.07648698  0.42350804  1.0
  O  O229  1  0.54047878  0.07643779  0.53602352  1.0
  O  O230  1  0.34705414  0.07649911  0.61689121  1.0
  O  O231  1  0.45943258  0.96407664  0.61697470  1.0
  O  O232  1  0.65287491  0.88307075  0.42358382  1.0
  O  O233  1  0.54042199  0.88310724  0.53601573  1.0
  O  O234  1  0.65289731  0.96402029  0.42355746  1.0
  O  O235  1  0.45954205  0.96406286  0.42349356  1.0
  O  O236  1  0.54043900  0.88310127  0.42356877  1.0
  O  O237  1  0.49994955  0.50002712  0.00003291  1.0
  O  O238  1  0.45949165  0.42349335  0.96413884  1.0
  O  O239  1  0.65285730  0.42353021  0.88310898  1.0
  O  O240  1  0.54053446  0.42354358  0.07646960  1.0
  O  O241  1  0.54038268  0.42353588  0.88315009  1.0
  O  O242  1  0.45956218  0.42353084  0.07650097  1.0
  O  O243  1  0.65286287  0.42356519  0.96407336  1.0
  O  O244  1  0.54043031  0.53598022  0.07651419  1.0
  O  O245  1  0.34704063  0.61690145  0.07650339  1.0
  O  O246  1  0.45946943  0.61694773  0.07651121  1.0
  O  O247  1  0.34707294  0.53592676  0.07656840  1.0
  O  O248  1  0.54043199  0.53600533  0.88309436  1.0
  O  O249  1  0.45947917  0.61696259  0.96406831  1.0
