# generated using pymatgen
data_ZnH2(C3N5)2
_symmetry_space_group_name_H-M   'P 1'
_cell_length_a   11.59982191
_cell_length_b   14.16300000
_cell_length_c   14.18332016
_cell_angle_alpha   119.95261863
_cell_angle_beta   90.00000000
_cell_angle_gamma   90.00000000
_symmetry_Int_Tables_number   1
_chemical_formula_structural   ZnH2(C3N5)2
_chemical_formula_sum   'Zn6 H12 C36 N60'
_cell_volume   2018.93468439
_cell_formula_units_Z   6
loop_
 _symmetry_equiv_pos_site_id
 _symmetry_equiv_pos_as_xyz
  1  'x, y, z'
loop_
 _atom_site_type_symbol
 _atom_site_label
 _atom_site_symmetry_multiplicity
 _atom_site_fract_x
 _atom_site_fract_y
 _atom_site_fract_z
 _atom_site_occupancy
  Zn  Zn0  1  0.97190991  0.46684273  0.31727509  1.0
  Zn  Zn1  1  0.63870911  0.85069280  0.53307663  1.0
  Zn  Zn2  1  0.30565141  0.68260170  0.14925620  1.0
  Zn  Zn3  1  0.47191000  0.53315711  0.68272458  1.0
  Zn  Zn4  1  0.13870833  0.14930703  0.46692303  1.0
  Zn  Zn5  1  0.80565133  0.31739854  0.85074428  1.0
  H  H6  1  0.10180259  0.68459086  0.97960042  1.0
  H  H7  1  0.76820765  0.29508041  0.31556787  1.0
  H  H8  1  0.43501546  0.02018802  0.70443591  1.0
  H  H9  1  0.60180251  0.31540968  0.02039925  1.0
  H  H10  1  0.26820773  0.70491942  0.68443180  1.0
  H  H11  1  0.93501538  0.97981263  0.29556539  1.0
  H  H12  1  0.91652544  0.57793005  0.88917791  1.0
  H  H13  1  0.58294705  0.31106824  0.42210400  1.0
  H  H14  1  0.24964020  0.11071736  0.68837110  1.0
  H  H15  1  0.41652466  0.42207019  0.11082257  1.0
  H  H16  1  0.08294799  0.68893159  0.57789566  1.0
  H  H17  1  0.74964185  0.88928106  0.31162856  1.0
  C  C18  1  0.14153768  0.54624265  0.19476447  1.0
  C  C19  1  0.80822119  0.64870596  0.45377710  1.0
  C  C20  1  0.47486004  0.80515427  0.35141707  1.0
  C  C21  1  0.64153760  0.45375789  0.80523519  1.0
  C  C22  1  0.30822128  0.35129316  0.54622256  1.0
  C  C23  1  0.97486082  0.19484708  0.64858422  1.0
  C  C24  1  0.06975468  0.54928851  0.11099671  1.0
  C  C25  1  0.73634509  0.56180055  0.45073942  1.0
  C  C26  1  0.40303911  0.88892426  0.43817613  1.0
  C  C27  1  0.56975460  0.45071203  0.88900296  1.0
  C  C28  1  0.23634517  0.43819917  0.54925862  1.0
  C  C29  1  0.90303817  0.11107720  0.56182679  1.0
  C  C30  1  0.96759347  0.49079909  0.06099661  1.0
  C  C31  1  0.63421594  0.57013135  0.50919018  1.0
  C  C32  1  0.30081944  0.93893545  0.42978080  1.0
  C  C33  1  0.46759269  0.50920145  0.93900305  1.0
  C  C34  1  0.13421688  0.42986878  0.49080867  1.0
  C  C35  1  0.80081936  0.06106439  0.57021887  1.0
  C  C36  1  0.90891929  0.40850124  0.07720301  1.0
  C  C37  1  0.57562624  0.66855959  0.59137604  1.0
  C  C38  1  0.24222544  0.92277754  0.33144226  1.0
  C  C39  1  0.40892024  0.59149859  0.92279666  1.0
  C  C40  1  0.07562719  0.33143984  0.40862281  1.0
  C  C41  1  0.74222535  0.07722300  0.66855741  1.0
  C  C42  1  0.06193387  0.62834338  0.00143998  1.0
  C  C43  1  0.72840014  0.37313578  0.37176051  1.0
  C  C44  1  0.39516571  0.99841845  0.62648881  1.0
  C  C45  1  0.56193465  0.37165686  0.99856050  1.0
  C  C46  1  0.22840022  0.62686406  0.62823916  1.0
  C  C47  1  0.89516649  0.00158209  0.37351086  1.0
  C  C48  1  0.96058819  0.57103948  0.95346073  1.0
  C  C49  1  0.62705893  0.38230751  0.42898415  1.0
  C  C50  1  0.29374433  0.04642163  0.61728300  1.0
  C  C51  1  0.46058741  0.42896147  0.04653975  1.0
  C  C52  1  0.12705987  0.61769162  0.57101551  1.0
  C  C53  1  0.79374425  0.95357750  0.38271667  1.0
  N  N54  1  0.12340378  0.50527462  0.26109221  1.0
  N  N55  1  0.79027868  0.75608971  0.49483423  1.0
  N  N56  1  0.45687873  0.73895312  0.24420716  1.0
  N  N57  1  0.62340456  0.49472562  0.73890827  1.0
  N  N58  1  0.29027876  0.24391012  0.50516544  1.0
  N  N59  1  0.95687951  0.26104824  0.75579413  1.0
  N  N60  1  0.22041648  0.52579136  0.32146339  1.0
  N  N61  1  0.88733275  0.79595847  0.47428085  1.0
  N  N62  1  0.55394315  0.67857453  0.20442435  1.0
  N  N63  1  0.72041640  0.47420777  0.67853627  1.0
  N  N64  1  0.38733284  0.20404136  0.52571882  1.0
  N  N65  1  0.05394323  0.32142683  0.79557694  1.0
  N  N66  1  0.29452279  0.57772185  0.29372797  1.0
  N  N67  1  0.96127182  0.71622038  0.42222118  1.0
  N  N68  1  0.62793308  0.70617728  0.28403147  1.0
  N  N69  1  0.79452271  0.42227798  0.70627170  1.0
  N  N70  1  0.46127276  0.28377945  0.57777849  1.0
  N  N71  1  0.12793403  0.29382366  0.71596901  1.0
  N  N72  1  0.24730913  0.59182794  0.21522264  1.0
  N  N73  1  0.91390730  0.62354734  0.40806622  1.0
  N  N74  1  0.58059442  0.78459986  0.37653714  1.0
  N  N75  1  0.74730905  0.40817189  0.78477702  1.0
  N  N76  1  0.41390824  0.37645138  0.59193264  1.0
  N  N77  1  0.08059451  0.21540079  0.62346415  1.0
  N  N78  1  0.11494590  0.61550507  0.07741132  1.0
  N  N79  1  0.78143802  0.46200831  0.38454758  1.0
  N  N80  1  0.44826481  0.92247348  0.53779875  1.0
  N  N81  1  0.61494581  0.38449476  0.92258834  1.0
  N  N82  1  0.28143811  0.53799153  0.61545209  1.0
  N  N83  1  0.94826472  0.07752676  0.46220173  1.0
  N  N84  1  0.91571164  0.50326900  0.98266170  1.0
  N  N85  1  0.58224186  0.47924871  0.49668141  1.0
  N  N86  1  0.24884536  0.01725817  0.52047835  1.0
  N  N87  1  0.41571258  0.49673124  0.01733878  1.0
  N  N88  1  0.08224281  0.52075113  0.50331825  1.0
  N  N89  1  0.74884442  0.98274147  0.47952376  1.0
  N  N90  1  0.89890190  0.39760650  0.16544388  1.0
  N  N91  1  0.56572351  0.76781749  0.60227198  1.0
  N  N92  1  0.23247011  0.83456855  0.23231439  1.0
  N  N93  1  0.39890198  0.60239374  0.83455660  1.0
  N  N94  1  0.06572359  0.23218275  0.39772850  1.0
  N  N95  1  0.73247089  0.16543169  0.76768609  1.0
  N  N96  1  0.82638096  0.31267328  0.13788911  1.0
  N  N97  1  0.49326291  0.82510443  0.68708947  1.0
  N  N98  1  0.15998452  0.86226314  0.17507772  1.0
  N  N99  1  0.32638104  0.68732696  0.86211137  1.0
  N  N100  1  0.99326283  0.17489540  0.31291020  1.0
  N  N101  1  0.65998357  0.13773669  0.82492194  1.0
  N  N102  1  0.79495978  0.27245513  0.03671143  1.0
  N  N103  1  0.46175208  0.76397437  0.72725962  1.0
  N  N104  1  0.12834265  0.96349560  0.23611780  1.0
  N  N105  1  0.29495987  0.72754470  0.96328823  1.0
  N  N106  1  0.96175200  0.23602547  0.27274005  1.0
  N  N107  1  0.62834257  0.03650464  0.76388268  1.0
  N  N108  1  0.84455365  0.33106482  0.99654324  1.0
  N  N109  1  0.51122525  0.66517624  0.66870877  1.0
  N  N110  1  0.17774858  0.00353330  0.33478672  1.0
  N  N111  1  0.34455373  0.66893502  0.00345642  1.0
  N  N112  1  0.01122534  0.33482318  0.33129009  1.0
  N  N113  1  0.67774850  0.99646694  0.66521376  1.0
