# generated using pymatgen
data_Zn6H51C80BrO24
_symmetry_space_group_name_H-M   'P 1'
_cell_length_a   18.22034659
_cell_length_b   18.58140821
_cell_length_c   18.67757315
_cell_angle_alpha   109.35352298
_cell_angle_beta   109.05781819
_cell_angle_gamma   108.66790838
_symmetry_Int_Tables_number   1
_chemical_formula_structural   Zn6H51C80BrO24
_chemical_formula_sum   'Zn6 H51 C80 Br1 O24'
_cell_volume   4946.21879062
_cell_formula_units_Z   1
loop_
 _symmetry_equiv_pos_site_id
 _symmetry_equiv_pos_as_xyz
  1  'x, y, z'
loop_
 _atom_site_type_symbol
 _atom_site_label
 _atom_site_symmetry_multiplicity
 _atom_site_fract_x
 _atom_site_fract_y
 _atom_site_fract_z
 _atom_site_occupancy
  Zn  Zn0  1  0.00406067  0.07210231  0.56976720  1.0
  Zn  Zn1  1  0.00781184  0.94774194  0.44601840  1.0
  Zn  Zn2  1  0.44274357  0.94423109  0.01191897  1.0
  Zn  Zn3  1  0.56825772  0.06024182  0.00266618  1.0
  Zn  Zn4  1  0.55219616  0.50275563  0.55751111  1.0
  Zn  Zn5  1  0.43076267  0.50722886  0.43138791  1.0
  H  H6  1  0.66784053  0.86791682  0.09185176  1.0
  H  H7  1  0.12943203  0.98690078  0.74363278  1.0
  H  H8  1  0.15297000  0.11242814  0.39611326  1.0
  H  H9  1  0.27935628  0.43060320  0.57362149  1.0
  H  H10  1  0.18260801  0.32899942  0.60422708  1.0
  H  H11  1  0.48798550  0.24435660  0.13174903  1.0
  H  H12  1  0.49157602  0.36459885  0.24758870  1.0
  H  H13  1  0.53208602  0.24763371  0.41061002  1.0
  H  H14  1  0.51387427  0.12012818  0.28948162  1.0
  H  H15  1  0.61087480  0.82930961  0.90889383  1.0
  H  H16  1  0.66703534  0.04618042  0.26040995  1.0
  H  H17  1  0.89952097  0.98938711  0.22346290  1.0
  H  H18  1  0.62062761  0.71770256  0.79849646  1.0
  H  H19  1  0.76120006  0.13198405  0.27803086  1.0
  H  H20  1  0.93443120  0.09667593  0.29808543  1.0
  H  H21  1  0.83410290  0.10943279  0.19705955  1.0
  H  H22  1  0.77619051  0.86433106  0.19887811  1.0
  H  H23  1  0.71901355  0.87556003  0.25855916  1.0
  H  H24  1  0.61985527  0.89227191  0.15820760  1.0
  H  H25  1  0.91690613  0.20463303  0.35716008  1.0
  H  H26  1  0.01758502  0.34607657  0.49035048  1.0
  H  H27  1  0.01329551  0.36849763  0.62779525  1.0
  H  H28  1  0.81637672  0.74409330  0.42853371  1.0
  H  H29  1  0.90669592  0.24592904  0.62974634  1.0
  H  H30  1  0.80866685  0.10226716  0.49665311  1.0
  H  H31  1  0.82503269  0.10856252  0.07298586  1.0
  H  H32  1  0.82617234  0.04481303  0.93422843  1.0
  H  H33  1  0.80750173  0.89448014  0.87129851  1.0
  H  H34  1  0.79297415  0.81197212  0.95180019  1.0
  H  H35  1  0.79620792  0.87743431  0.09173812  1.0
  H  H36  1  0.51209720  0.74069320  0.48996855  1.0
  H  H37  1  0.43423473  0.77994381  0.57021599  1.0
  H  H38  1  0.52053560  0.88465750  0.72971825  1.0
  H  H39  1  0.68795908  0.62430455  0.41091566  1.0
  H  H40  1  0.68364783  0.94781718  0.80620080  1.0
  H  H41  1  0.76185558  0.90767712  0.72572129  1.0
  H  H42  1  0.28908817  0.11834809  0.38680999  1.0
  H  H43  1  0.31565701  0.05222479  0.26482581  1.0
  H  H44  1  0.29237173  0.09679654  0.15104642  1.0
  H  H45  1  0.24053808  0.20687374  0.15896415  1.0
  H  H46  1  0.21387219  0.27259697  0.28057189  1.0
  H  H47  1  0.25674043  0.62357517  0.75032915  1.0
  H  H48  1  0.11338117  0.62546128  0.71222327  1.0
  H  H49  1  0.08841104  0.72921332  0.66297429  1.0
  H  H50  1  0.78465450  0.93176524  0.60713616  1.0
  H  H51  1  0.20799641  0.83147091  0.65352214  1.0
  H  H52  1  0.35089383  0.82921141  0.69193290  1.0
  H  H53  1  0.28849764  0.00567437  0.61656940  1.0
  H  H54  1  0.41457700  0.03053667  0.74598032  1.0
  H  H55  1  0.25021370  0.99680520  0.86584858  1.0
  H  H56  1  0.74989339  0.01521129  0.35515517  1.0
  C  C57  1  0.88516382  0.91508881  0.52808613  1.0
  C  C58  1  0.80863537  0.84507866  0.51968239  1.0
  C  C59  1  0.28122384  0.00571044  0.67222100  1.0
  C  C60  1  0.89279903  0.98555845  0.36379996  1.0
  C  C61  1  0.35122218  0.01903297  0.74393967  1.0
  C  C62  1  0.33969702  0.01578549  0.81359622  1.0
  C  C63  1  0.25870158  0.00131235  0.81216709  1.0
  C  C64  1  0.19115603  0.99407078  0.74356305  1.0
  C  C65  1  0.20179133  0.99516732  0.67280188  1.0
  C  C66  1  0.18089882  0.18246780  0.43445863  1.0
  C  C67  1  0.23261619  0.23785010  0.41439356  1.0
  C  C68  1  0.71906552  0.00600793  0.17391397  1.0
  C  C69  1  0.26862595  0.32815581  0.46658147  1.0
  C  C70  1  0.25000839  0.36049659  0.53389146  1.0
  C  C71  1  0.19700281  0.30416141  0.55180025  1.0
  C  C72  1  0.11054924  0.15046199  0.52091566  1.0
  C  C73  1  0.16375550  0.21453438  0.50289172  1.0
  C  C74  1  0.49406725  0.10283727  0.13214972  1.0
  C  C75  1  0.65017612  0.01472962  0.10979070  1.0
  C  C76  1  0.47121752  0.85426857  0.89142334  1.0
  C  C77  1  0.41085140  0.02358212  0.88835195  1.0
  C  C78  1  0.50141437  0.60628259  0.63478242  1.0
  C  C79  1  0.81106201  0.04020889  0.17796105  1.0
  C  C80  1  0.59130811  0.63381236  0.48752764  1.0
  C  C81  1  0.51685527  0.38702208  0.40399192  1.0
  C  C82  1  0.33935411  0.39156054  0.46124812  1.0
  C  C83  1  0.49541805  0.24461493  0.19217425  1.0
  C  C84  1  0.12897830  0.99065653  0.60193076  1.0
  C  C85  1  0.49887780  0.31192715  0.25688172  1.0
  C  C86  1  0.51329934  0.31356418  0.33607143  1.0
  C  C87  1  0.52099548  0.24560398  0.34884198  1.0
  C  C88  1  0.51138079  0.17503341  0.28166732  1.0
  C  C89  1  0.50000429  0.17507639  0.20379646  1.0
  C  C90  1  0.68280667  0.91166355  0.15717577  1.0
  C  C91  1  0.55299695  0.78139072  0.84569062  1.0
  C  C92  1  0.55880229  0.72003760  0.78419952  1.0
  C  C93  1  0.48655106  0.66237323  0.70052165  1.0
  C  C94  1  0.40617453  0.66462744  0.68130542  1.0
  C  C95  1  0.39732525  0.72325818  0.74397415  1.0
  C  C96  1  0.79205004  0.05381130  0.33655418  1.0
  C  C97  1  0.47258787  0.78269298  0.82563951  1.0
  C  C98  1  0.73206499  0.06385240  0.26363287  1.0
  C  C99  1  0.87566351  0.03300169  0.25084799  1.0
  C  C100  1  0.75030182  0.90533616  0.22704632  1.0
  C  C101  1  0.78082325  0.75834106  0.46336585  1.0
  C  C102  1  0.82976017  0.99656094  0.29662170  1.0
  C  C103  1  0.85639553  0.14185724  0.41737686  1.0
  C  C104  1  0.91524753  0.21202895  0.41696593  1.0
  C  C105  1  0.97180976  0.29275564  0.49218543  1.0
  C  C106  1  0.96950978  0.30542989  0.56916536  1.0
  C  C107  1  0.90993228  0.23668068  0.57023961  1.0
  C  C108  1  0.85427310  0.15608424  0.49516674  1.0
  C  C109  1  0.80921103  0.99775028  0.09213171  1.0
  C  C110  1  0.81803407  0.04344343  0.04623481  1.0
  C  C111  1  0.81797838  0.00712062  0.96778738  1.0
  C  C112  1  0.70888708  0.69197240  0.45317450  1.0
  C  C113  1  0.80816218  0.92338777  0.93285033  1.0
  C  C114  1  0.79962554  0.87704900  0.97780707  1.0
  C  C115  1  0.80074513  0.91414566  0.05685542  1.0
  C  C116  1  0.64224512  0.82087052  0.60209376  1.0
  C  C117  1  0.54978239  0.78589295  0.55935483  1.0
  C  C118  1  0.50615694  0.80878657  0.60470095  1.0
  C  C119  1  0.55415813  0.86732705  0.69350140  1.0
  C  C120  1  0.64618780  0.90309570  0.73665198  1.0
  C  C121  1  0.68998969  0.88032359  0.69150013  1.0
  C  C122  1  0.25019247  0.20045867  0.34233684  1.0
  C  C123  1  0.66316571  0.71085643  0.49783198  1.0
  C  C124  1  0.27804224  0.13731705  0.33642750  1.0
  C  C125  1  0.29295764  0.10028112  0.26799792  1.0
  C  C126  1  0.27993087  0.12532484  0.20406483  1.0
  C  C127  1  0.25167325  0.18748185  0.20896970  1.0
  C  C128  1  0.23692611  0.22485876  0.27749828  1.0
  C  C129  1  0.31248702  0.72598727  0.72324179  1.0
  C  C130  1  0.24542033  0.66891634  0.72901282  1.0
  C  C131  1  0.16524007  0.67025414  0.70762077  1.0
  C  C132  1  0.15133815  0.72850488  0.68019238  1.0
  C  C133  1  0.21822124  0.78585454  0.67484425  1.0
  C  C134  1  0.68928173  0.79776697  0.55407848  1.0
  C  C135  1  0.29868769  0.78480720  0.69658964  1.0
  C  C136  1  0.76314442  0.86399442  0.56450699  1.0
  Br  Br137  1  0.30355924  0.58800277  0.56990976  1.0
  O  O138  1  0.91103778  0.99489390  0.58036763  1.0
  O  O139  1  0.46222949  0.59112253  0.55760292  1.0
  O  O140  1  0.61600354  0.60210220  0.53540280  1.0
  O  O141  1  0.91973049  0.89078803  0.48200201  1.0
  O  O142  1  0.51161439  0.60349760  0.42877607  1.0
  O  O143  1  0.56439934  0.41020230  0.48418486  1.0
  O  O144  1  0.47269363  0.42257300  0.37804282  1.0
  O  O145  1  0.41758612  0.41093711  0.51023643  1.0
  O  O146  1  0.31849055  0.42328781  0.41070648  1.0
  O  O147  1  0.91133690  0.02635696  0.44187721  1.0
  O  O148  1  0.92361108  0.93425570  0.33807495  1.0
  O  O149  1  0.53907939  0.12418987  0.09613390  1.0
  O  O150  1  0.08450089  0.17621123  0.57645322  1.0
  O  O151  1  0.09346592  0.07229222  0.47926924  1.0
  O  O152  1  0.09535294  0.03769221  0.62669454  1.0
  O  O153  1  0.10567791  0.94066418  0.52281476  1.0
  O  O154  1  0.44298169  0.02420266  0.11110724  1.0
  O  O155  1  0.57018541  0.96907860  0.08859130  1.0
  O  O156  1  0.67518832  0.06995528  0.08402761  1.0
  O  O157  1  0.41894281  0.83505635  0.92252283  1.0
  O  O158  1  0.52478800  0.93046524  0.91254253  1.0
  O  O159  1  0.38641258  0.98344784  0.92669021  1.0
  O  O160  1  0.49202077  0.06987734  0.90928102  1.0
  O  O161  1  0.55562085  0.57822599  0.66120631  1.0
