# generated using pymatgen
data_ZnH10(C5N2)3
_symmetry_space_group_name_H-M   'P 1'
_cell_length_a   14.97528161
_cell_length_b   18.22316441
_cell_length_c   18.22363786
_cell_angle_alpha   80.28228010
_cell_angle_beta   65.73804973
_cell_angle_gamma   65.74672050
_symmetry_Int_Tables_number   1
_chemical_formula_structural   ZnH10(C5N2)3
_chemical_formula_sum   'Zn8 H80 C120 N48'
_cell_volume   4133.75631371
_cell_formula_units_Z   8
loop_
 _symmetry_equiv_pos_site_id
 _symmetry_equiv_pos_as_xyz
  1  'x, y, z'
loop_
 _atom_site_type_symbol
 _atom_site_label
 _atom_site_symmetry_multiplicity
 _atom_site_fract_x
 _atom_site_fract_y
 _atom_site_fract_z
 _atom_site_occupancy
  Zn  Zn0  1  0.21504511  0.57790885  0.67260372  1.0
  Zn  Zn1  1  0.46556945  0.92210708  0.82740305  1.0
  Zn  Zn2  1  0.29296945  0.67260665  0.92209034  1.0
  Zn  Zn3  1  0.88771209  0.82742366  0.57788784  1.0
  Zn  Zn4  1  0.78495445  0.42209167  0.32739642  1.0
  Zn  Zn5  1  0.53443083  0.07789344  0.17259685  1.0
  Zn  Zn6  1  0.70703041  0.32739328  0.07790925  1.0
  Zn  Zn7  1  0.11228806  0.17257567  0.42211231  1.0
  H  H8  1  0.70061052  0.64329097  0.51329496  1.0
  H  H9  1  0.85715378  0.85670716  0.98672257  1.0
  H  H10  1  0.84389456  0.51330051  0.85673436  1.0
  H  H11  1  0.21398153  0.98670072  0.64327212  1.0
  H  H12  1  0.29938860  0.35670895  0.48670543  1.0
  H  H13  1  0.14284576  0.14329337  0.01327703  1.0
  H  H14  1  0.15610603  0.48669941  0.14326553  1.0
  H  H15  1  0.78601905  0.01329920  0.35672778  1.0
  H  H16  1  0.21547157  0.84754371  0.65213752  1.0
  H  H17  1  0.71512777  0.65245270  0.84784325  1.0
  H  H18  1  0.56298559  0.65219652  0.65242875  1.0
  H  H19  1  0.86759108  0.84784556  0.84759338  1.0
  H  H20  1  0.78452871  0.15245681  0.34786238  1.0
  H  H21  1  0.28487264  0.34754903  0.15215805  1.0
  H  H22  1  0.43701531  0.34780281  0.34757114  1.0
  H  H23  1  0.13240908  0.15215376  0.15240676  1.0
  H  H24  1  0.55631008  0.75211850  0.55607886  1.0
  H  H25  1  0.86445253  0.74787968  0.94394285  1.0
  H  H26  1  0.80845053  0.55611067  0.74780167  1.0
  H  H27  1  0.11248288  0.94383705  0.75218441  1.0
  H  H28  1  0.44369007  0.24788082  0.44392073  1.0
  H  H29  1  0.13554952  0.25212024  0.05605710  1.0
  H  H30  1  0.19155035  0.44388865  0.25219823  1.0
  H  H31  1  0.88751698  0.05616288  0.24781573  1.0
  H  H32  1  0.38840328  0.63661685  0.50328667  1.0
  H  H33  1  0.52828575  0.86340285  0.99665633  1.0
  H  H34  1  0.52503678  0.50332911  0.86333281  1.0
  H  H35  1  0.89179819  0.99668751  0.63668302  1.0
  H  H36  1  0.61159541  0.36338247  0.49671452  1.0
  H  H37  1  0.47171496  0.13659827  0.00334332  1.0
  H  H38  1  0.47496410  0.49667022  0.13666709  1.0
  H  H39  1  0.10820166  0.00331241  0.36331713  1.0
  H  H40  1  0.09857634  0.86546967  0.55120770  1.0
  H  H41  1  0.51518169  0.63453164  0.94881538  1.0
  H  H42  1  0.46405754  0.55115754  0.63450806  1.0
  H  H43  1  0.64978540  0.94882082  0.86548447  1.0
  H  H44  1  0.90142278  0.13453026  0.44879269  1.0
  H  H45  1  0.48481859  0.36546888  0.05118452  1.0
  H  H46  1  0.53594188  0.44884178  0.36549233  1.0
  H  H47  1  0.35021476  0.05117850  0.13451567  1.0
  H  H48  1  0.02328712  0.65923329  0.62207047  1.0
  H  H49  1  0.30461043  0.84076082  0.87793060  1.0
  H  H50  1  0.18257801  0.62212489  0.84071309  1.0
  H  H51  1  0.64536714  0.87789744  0.65928609  1.0
  H  H52  1  0.97671273  0.34076663  0.37792912  1.0
  H  H53  1  0.69538985  0.15923970  0.12206930  1.0
  H  H54  1  0.81742185  0.37787503  0.15928650  1.0
  H  H55  1  0.35463242  0.12210309  0.34071350  1.0
  H  H56  1  0.27977991  0.03011555  0.75492881  1.0
  H  H57  1  0.06477350  0.46990298  0.74510438  1.0
  H  H58  1  0.80996881  0.75499269  0.46988556  1.0
  H  H59  1  0.03480502  0.74503472  0.03009005  1.0
  H  H60  1  0.72021964  0.96988497  0.24507079  1.0
  H  H61  1  0.93522635  0.53009694  0.25489576  1.0
  H  H62  1  0.19003031  0.24500724  0.53011538  1.0
  H  H63  1  0.96519424  0.25496641  0.96990844  1.0
  H  H64  1  0.52146848  0.79972011  0.69681673  1.0
  H  H65  1  0.01794957  0.70030527  0.80319327  1.0
  H  H66  1  0.82123788  0.69677824  0.70028752  1.0
  H  H67  1  0.21823486  0.80326270  0.79965942  1.0
  H  H68  1  0.47853108  0.20028042  0.30318341  1.0
  H  H69  1  0.98205102  0.29969465  0.19680662  1.0
  H  H70  1  0.17876197  0.30322168  0.29971262  1.0
  H  H71  1  0.78176543  0.19673782  0.20033993  1.0
  H  H72  1  0.83873993  0.52633688  0.42039302  1.0
  H  H73  1  0.78543206  0.97366794  0.07962130  1.0
  H  H74  1  0.86502560  0.42040515  0.97369516  1.0
  H  H75  1  0.25918308  0.07961128  0.52628054  1.0
  H  H76  1  0.16125920  0.47366304  0.57960737  1.0
  H  H77  1  0.21456750  0.02633259  0.92037884  1.0
  H  H78  1  0.13497529  0.57959417  0.02630474  1.0
  H  H79  1  0.74081605  0.92038865  0.47371985  1.0
  H  H80  1  0.55154288  0.55771384  0.40600799  1.0
  H  H81  1  0.51522097  0.94230586  0.09393728  1.0
  H  H82  1  0.60925762  0.40600222  0.94226632  1.0
  H  H83  1  0.95754557  0.09395549  0.55778241  1.0
  H  H84  1  0.44845655  0.44228548  0.59399185  1.0
  H  H85  1  0.48477888  0.05769406  0.90606286  1.0
  H  H86  1  0.39074297  0.59399770  0.05773412  1.0
  H  H87  1  0.04245386  0.90604383  0.44221798  1.0
  C  C88  1  0.29175331  0.74361749  0.57613988  1.0
  C  C89  1  0.61150616  0.75640566  0.92381726  1.0
  C  C90  1  0.53539190  0.57620940  0.75635487  1.0
  C  C91  1  0.86795008  0.92381307  0.74364396  1.0
  C  C92  1  0.70824698  0.25638303  0.42386001  1.0
  C  C93  1  0.38849498  0.24359607  0.07618269  1.0
  C  C94  1  0.46460899  0.42378992  0.24364502  1.0
  C  C95  1  0.13204977  0.07618685  0.25635673  1.0
  C  C96  1  0.29122781  0.80433726  0.61454827  1.0
  C  C97  1  0.71008301  0.69569386  0.88539949  1.0
  C  C98  1  0.59553154  0.61465648  0.69564725  1.0
  C  C99  1  0.90579059  0.88540646  0.80437445  1.0
  C  C100  1  0.70877278  0.19566266  0.38545217  1.0
  C  C101  1  0.28991728  0.30430666  0.11460260  1.0
  C  C102  1  0.40446892  0.38534224  0.30435234  1.0
  C  C103  1  0.09421031  0.11459286  0.19562489  1.0
  C  C104  1  0.38593499  0.80661345  0.60976893  1.0
  C  C105  1  0.80226231  0.69341684  0.89020752  1.0
  C  C106  1  0.69252877  0.60984499  0.69336319  1.0
  C  C107  1  0.99573842  0.89016596  0.80663052  1.0
  C  C108  1  0.61406486  0.19338647  0.39023176  1.0
  C  C109  1  0.19773797  0.30658368  0.10979348  1.0
  C  C110  1  0.30747138  0.39015433  0.30663696  1.0
  C  C111  1  0.00426218  0.10983396  0.19336827  1.0
  C  C112  1  0.48238672  0.74880106  0.56243371  1.0
  C  C113  1  0.79357962  0.75121961  0.93754317  1.0
  C  C114  1  0.73117403  0.56250026  0.75116438  1.0
  C  C115  1  0.04491543  0.93749340  0.74884112  1.0
  C  C116  1  0.51761271  0.25119826  0.43756723  1.0
  C  C117  1  0.20642171  0.24878032  0.06245702  1.0
  C  C118  1  0.26882613  0.43749906  0.24883521  1.0
  C  C119  1  0.95508515  0.06250652  0.25115823  1.0
  C  C120  1  0.48455770  0.68728749  0.52388352  1.0
  C  C121  1  0.69569740  0.81276386  0.97607195  1.0
  C  C122  1  0.67186996  0.52390398  0.81267442  1.0
  C  C123  1  0.00851650  0.97611555  0.68735709  1.0
  C  C124  1  0.51544099  0.31271184  0.47611821  1.0
  C  C125  1  0.30430479  0.18723727  0.02392775  1.0
  C  C126  1  0.32813063  0.47609594  0.18732492  1.0
  C  C127  1  0.99148366  0.02388377  0.31264305  1.0
  C  C128  1  0.38848706  0.68464852  0.53178162  1.0
  C  C129  1  0.60491017  0.81539840  0.96813973  1.0
  C  C130  1  0.57315494  0.53183318  0.81530847  1.0
  C  C131  1  0.92036824  0.96818177  0.68470994  1.0
  C  C132  1  0.61151206  0.31535140  0.46821877  1.0
  C  C133  1  0.39508981  0.18460273  0.03186017  1.0
  C  C134  1  0.42684522  0.46816614  0.18469167  1.0
  C  C135  1  0.07963162  0.03181815  0.31529020  1.0
  C  C136  1  0.19095646  0.74240037  0.58395063  1.0
  C  C137  1  0.51729466  0.75759306  0.91603990  1.0
  C  C138  1  0.43339494  0.58399393  0.75754604  1.0
  C  C139  1  0.77493885  0.91603373  0.74241110  1.0
  C  C140  1  0.80904236  0.25760016  0.41605086  1.0
  C  C141  1  0.48270564  0.24240746  0.08395944  1.0
  C  C142  1  0.56660595  0.41600539  0.24245440  1.0
  C  C143  1  0.22505997  0.08396679  0.25758929  1.0
  C  C144  1  0.38415867  0.86410469  0.65796939  1.0
  C  C145  1  0.90616298  0.63590776  0.84203861  1.0
  C  C146  1  0.74826023  0.65802930  0.63586919  1.0
  C  C147  1  0.04212125  0.84197300  0.86410582  1.0
  C  C148  1  0.61584118  0.13589524  0.34203130  1.0
  C  C149  1  0.09383731  0.36409276  0.15796128  1.0
  C  C150  1  0.25173889  0.34197062  0.36413120  1.0
  C  C151  1  0.95787873  0.15802813  0.13589298  1.0
  C  C152  1  0.58448554  0.62532241  0.47710285  1.0
  C  C153  1  0.68687883  0.87467924  0.02289916  1.0
  C  C154  1  0.70984748  0.47707153  0.87462571  1.0
  C  C155  1  0.06156111  0.02298808  0.62543158  1.0
  C  C156  1  0.41551388  0.37467691  0.52289809  1.0
  C  C157  1  0.31312102  0.12532068  0.97710153  1.0
  C  C158  1  0.29015341  0.52292779  0.12537418  1.0
  C  C159  1  0.93843905  0.97701124  0.37456746  1.0
  C  C160  1  0.10716585  0.80401630  0.56977216  1.0
  C  C161  1  0.48089890  0.69599619  0.93026394  1.0
  C  C162  1  0.41121559  0.56977141  0.69595544  1.0
  C  C163  1  0.67694412  0.93024642  0.80402823  1.0
  C  C164  1  0.89283401  0.19598362  0.43022853  1.0
  C  C165  1  0.51910271  0.30400313  0.06973626  1.0
  C  C166  1  0.58878427  0.43022851  0.30404415  1.0
  C  C167  1  0.32305574  0.06975350  0.19597191  1.0
  C  C168  1  0.06759685  0.69796830  0.60533193  1.0
  C  C169  1  0.37089701  0.80202005  0.89468119  1.0
  C  C170  1  0.26562081  0.60539362  0.80198072  1.0
  C  C171  1  0.67296606  0.89462295  0.69800860  1.0
  C  C172  1  0.93240404  0.30203102  0.39466632  1.0
  C  C173  1  0.62910285  0.19797987  0.10531840  1.0
  C  C174  1  0.73437905  0.39460630  0.19801942  1.0
  C  C175  1  0.32703423  0.10537758  0.30199074  1.0
  C  C176  1  0.32660841  0.97029795  0.72859104  1.0
  C  C177  1  0.02545575  0.52971981  0.77143575  1.0
  C  C178  1  0.79695818  0.72864267  0.52969950  1.0
  C  C179  1  0.05526838  0.77137442  0.97026795  1.0
  C  C180  1  0.67339145  0.02970197  0.27140855  1.0
  C  C181  1  0.97454379  0.47028072  0.22856440  1.0
  C  C182  1  0.20304167  0.27135726  0.47030064  1.0
  C  C183  1  0.94472911  0.22862731  0.02973104  1.0
  C  C184  1  0.45254308  0.85237566  0.69610208  1.0
  C  C185  1  0.00094619  0.64766591  0.80390468  1.0
  C  C186  1  0.80498560  0.69609042  0.64761913  1.0
  C  C187  1  0.14864518  0.80391315  0.85233341  1.0
  C  C188  1  0.54745501  0.14762486  0.30389965  1.0
  C  C189  1  0.99905484  0.35233462  0.19609441  1.0
  C  C190  1  0.19501353  0.30390950  0.35238126  1.0
  C  C191  1  0.85135512  0.19608737  0.14766538  1.0
  C  C192  1  0.75552731  0.55005234  0.42973794  1.0
  C  C193  1  0.73526708  0.94996417  0.07026797  1.0
  C  C194  1  0.80554856  0.42973169  0.94995953  1.0
  C  C195  1  0.18529878  0.07028439  0.55003448  1.0
  C  C196  1  0.24447181  0.44994758  0.57026245  1.0
  C  C197  1  0.26473321  0.05003635  0.92973193  1.0
  C  C198  1  0.19445277  0.57026823  0.05004011  1.0
  C  C199  1  0.81470078  0.92971613  0.44996566  1.0
  C  C200  1  0.60530859  0.56750157  0.42525715  1.0
  C  C201  1  0.59802898  0.93252090  0.07470704  1.0
  C  C202  1  0.67283833  0.42523782  0.93245803  1.0
  C  C203  1  0.03052188  0.07480950  0.56762095  1.0
  C  C204  1  0.39469053  0.43249836  0.57474269  1.0
  C  C205  1  0.40197088  0.06747902  0.92529310  1.0
  C  C206  1  0.32716282  0.57476391  0.06754192  1.0
  C  C207  1  0.96947784  0.92518922  0.43237835  1.0
  N  N208  1  0.16449464  0.67501710  0.60687464  1.0
  N  N209  1  0.44640635  0.82496900  0.89310433  1.0
  N  N210  1  0.33956048  0.60694105  0.82493004  1.0
  N  N211  1  0.77141271  0.89308409  0.67504295  1.0
  N  N212  1  0.83550596  0.32498283  0.39312470  1.0
  N  N213  1  0.55359320  0.17503152  0.10689527  1.0
  N  N214  1  0.66043937  0.39305887  0.17507011  1.0
  N  N215  1  0.22858685  0.10691643  0.32495719  1.0
  N  N216  1  0.02979777  0.77528397  0.58302913  1.0
  N  N217  1  0.38806914  0.72471766  0.91700720  1.0
  N  N218  1  0.30511491  0.58304686  0.72468173  1.0
  N  N219  1  0.61283756  0.91696131  0.77531228  1.0
  N  N220  1  0.97020313  0.22471535  0.41696966  1.0
  N  N221  1  0.61193071  0.27528226  0.08299239  1.0
  N  N222  1  0.69488495  0.41695306  0.27531841  1.0
  N  N223  1  0.38716230  0.08303861  0.22468731  1.0
  N  N224  1  0.30400322  0.93945827  0.67964480  1.0
  N  N225  1  0.92306079  0.56054232  0.82037364  1.0
  N  N226  1  0.74346180  0.67972349  0.56051941  1.0
  N  N227  1  0.98366579  0.82028365  0.93946303  1.0
  N  N228  1  0.69599780  0.06054225  0.32035430  1.0
  N  N229  1  0.07693980  0.43945760  0.17962570  1.0
  N  N230  1  0.25653806  0.32027643  0.43948073  1.0
  N  N231  1  0.01633390  0.17971808  0.06053522  1.0
  N  N232  1  0.41535719  0.91982267  0.74116642  1.0
  N  N233  1  0.07628712  0.58021685  0.75885156  1.0
  N  N234  1  0.83528222  0.74114982  0.58017623  1.0
  N  N235  1  0.15656684  0.75885411  0.91977730  1.0
  N  N236  1  0.58464163  0.08017786  0.25883397  1.0
  N  N237  1  0.92371317  0.41978367  0.24114779  1.0
  N  N238  1  0.16471691  0.25885010  0.41982415  1.0
  N  N239  1  0.84343198  0.24114641  0.08022254  1.0
  N  N240  1  0.68167049  0.61276708  0.47822207  1.0
  N  N241  1  0.77262463  0.88722930  0.02180290  1.0
  N  N242  1  0.79445841  0.47819075  0.88721759  1.0
  N  N243  1  0.15991549  0.02183409  0.61279672  1.0
  N  N244  1  0.31832863  0.38723284  0.52177832  1.0
  N  N245  1  0.22737493  0.11277122  0.97819724  1.0
  N  N246  1  0.20554291  0.52180917  0.11278151  1.0
  N  N247  1  0.84008437  0.97816583  0.38720342  1.0
  N  N248  1  0.71210930  0.52101739  0.39621290  1.0
  N  N249  1  0.62930148  0.97901051  0.10375246  1.0
  N  N250  1  0.73309216  0.39621681  0.97898546  1.0
  N  N251  1  0.10831814  0.10379441  0.52104144  1.0
  N  N252  1  0.28789055  0.47898254  0.60378669  1.0
  N  N253  1  0.37069735  0.02099001  0.89624738  1.0
  N  N254  1  0.26690814  0.60378372  0.02101443  1.0
  N  N255  1  0.89168202  0.89620491  0.47895815  1.0
