# generated using pymatgen
data_Zn3H12C30(NO5)4
_symmetry_space_group_name_H-M   'P 1'
_cell_length_a   21.75367089
_cell_length_b   21.75376275
_cell_length_c   21.75379194
_cell_angle_alpha   60.86195171
_cell_angle_beta   60.86213577
_cell_angle_gamma   91.49947133
_symmetry_Int_Tables_number   1
_chemical_formula_structural   Zn3H12C30(NO5)4
_chemical_formula_sum   'Zn6 H24 C60 N8 O40'
_cell_volume   7371.38441143
_cell_formula_units_Z   2
loop_
 _symmetry_equiv_pos_site_id
 _symmetry_equiv_pos_as_xyz
  1  'x, y, z'
loop_
 _atom_site_type_symbol
 _atom_site_label
 _atom_site_symmetry_multiplicity
 _atom_site_fract_x
 _atom_site_fract_y
 _atom_site_fract_z
 _atom_site_occupancy
  Zn  Zn0  1  0.05863793  0.49999610  0.44136447  1.0
  Zn  Zn1  1  0.49999971  0.05863936  0.44136046  1.0
  Zn  Zn2  1  0.94135982  0.49999903  0.55863929  1.0
  Zn  Zn3  1  0.49999845  0.94136037  0.55863984  1.0
  Zn  Zn4  1  0.95756070  0.95756120  0.00000293  1.0
  Zn  Zn5  1  0.04243500  0.04243241  0.00000403  1.0
  H  H6  1  0.12823625  0.68676473  0.62522322  1.0
  H  H7  1  0.75346500  0.12823350  0.55852650  1.0
  H  H8  1  0.31199412  0.75346468  0.37476524  1.0
  H  H9  1  0.68676467  0.31199078  0.44146405  1.0
  H  H10  1  0.87175694  0.24650198  0.44151994  1.0
  H  H11  1  0.24650326  0.68802852  0.62524606  1.0
  H  H12  1  0.68802336  0.31327613  0.55847075  1.0
  H  H13  1  0.31327646  0.87175707  0.37474243  1.0
  H  H14  1  0.04579765  0.60625569  0.62391121  1.0
  H  H15  1  0.66971208  0.04579164  0.56046047  1.0
  H  H16  1  0.23017289  0.66971278  0.37607796  1.0
  H  H17  1  0.60625365  0.23016632  0.43953895  1.0
  H  H18  1  0.95419317  0.33024975  0.43959546  1.0
  H  H19  1  0.33025099  0.76984783  0.62393796  1.0
  H  H20  1  0.76983862  0.39378440  0.56040665  1.0
  H  H21  1  0.39378594  0.95419840  0.37605235  1.0
  H  H22  1  0.89107531  0.12938292  0.85414707  1.0
  H  H23  1  0.74522119  0.89107512  0.23831004  1.0
  H  H24  1  0.98353316  0.74522523  0.14585267  1.0
  H  H25  1  0.12938069  0.98352200  0.76169811  1.0
  H  H26  1  0.10892371  0.25477352  0.76169660  1.0
  H  H27  1  0.25477895  0.01647951  0.85414067  1.0
  H  H28  1  0.01647031  0.87061620  0.23831036  1.0
  H  H29  1  0.87061582  0.10892438  0.14585022  1.0
  C  C30  1  0.00000182  0.38147997  0.61851791  1.0
  C  C31  1  0.61851795  0.99999893  0.38148371  1.0
  C  C32  1  0.99999984  0.61851672  0.38148263  1.0
  C  C33  1  0.38148306  0.00000316  0.61851649  1.0
  C  C34  1  0.93899301  0.18109138  0.80966080  1.0
  C  C35  1  0.74865095  0.93899181  0.24210214  1.0
  C  C36  1  0.99075481  0.74865477  0.19034003  1.0
  C  C37  1  0.18109143  0.99075007  0.75790315  1.0
  C  C38  1  0.06100472  0.25134343  0.75790355  1.0
  C  C39  1  0.25134792  0.00925593  0.80965278  1.0
  C  C40  1  0.00924773  0.81890574  0.24210205  1.0
  C  C41  1  0.81890477  0.06100569  0.19033960  1.0
  C  C42  1  0.08425507  0.58425284  0.49999647  1.0
  C  C43  1  0.58425359  0.08424824  0.50000208  1.0
  C  C44  1  0.91574419  0.41574670  0.50000345  1.0
  C  C45  1  0.41574721  0.91575145  0.49999659  1.0
  C  C46  1  0.00000078  0.31291249  0.68708683  1.0
  C  C47  1  0.68708671  0.99999957  0.31291556  1.0
  C  C48  1  0.99999952  0.68708514  0.31291558  1.0
  C  C49  1  0.31291564  0.00000678  0.68708208  1.0
  C  C50  1  0.94035064  0.24459974  0.74579024  1.0
  C  C51  1  0.68613934  0.94034862  0.30425444  1.0
  C  C52  1  0.99039145  0.68614081  0.25421009  1.0
  C  C53  1  0.24460081  0.99038950  0.69575078  1.0
  C  C54  1  0.05965144  0.31385771  0.69575194  1.0
  C  C55  1  0.31386276  0.00962204  0.74578208  1.0
  C  C56  1  0.00960830  0.75539851  0.30425385  1.0
  C  C57  1  0.75539960  0.05965094  0.25420955  1.0
  C  C58  1  0.15063560  0.68295080  0.57062104  1.0
  C  C59  1  0.72126254  0.15063207  0.53231186  1.0
  C  C60  1  0.25357732  0.72126208  0.42936739  1.0
  C  C61  1  0.68295079  0.25357353  0.46767913  1.0
  C  C62  1  0.84936227  0.27872153  0.46771158  1.0
  C  C63  1  0.27872110  0.74643898  0.57063463  1.0
  C  C64  1  0.74643449  0.31707531  0.53228030  1.0
  C  C65  1  0.31707534  0.84936423  0.42935447  1.0
  C  C66  1  0.10441531  0.63810112  0.57010782  1.0
  C  C67  1  0.67452790  0.10441075  0.53368575  1.0
  C  C68  1  0.20821462  0.67452771  0.42988201  1.0
  C  C69  1  0.63810065  0.20820946  0.46631022  1.0
  C  C70  1  0.89558067  0.32545410  0.46634302  1.0
  C  C71  1  0.32545326  0.79180011  0.57012315  1.0
  C  C72  1  0.79179497  0.36192338  0.53365477  1.0
  C  C73  1  0.36192340  0.89558509  0.42986826  1.0
  C  C74  1  0.13310417  0.63310388  0.49999603  1.0
  C  C75  1  0.63310240  0.13309942  0.50000037  1.0
  C  C76  1  0.86689632  0.36689790  0.50000053  1.0
  C  C77  1  0.36689908  0.86690342  0.49999516  1.0
  C  C78  1  0.22567960  0.72568070  0.49999407  1.0
  C  C79  1  0.72568087  0.22567754  0.49999319  1.0
  C  C80  1  0.77432645  0.27432555  0.49999415  1.0
  C  C81  1  0.27432600  0.77432834  0.49999428  1.0
  C  C82  1  0.11664391  0.99999398  0.88334893  1.0
  C  C83  1  0.99999121  0.11664182  0.88335346  1.0
  C  C84  1  0.88334012  0.99998998  0.11665384  1.0
  C  C85  1  0.99999709  0.88334447  0.11665185  1.0
  C  C86  1  0.00000152  0.18441072  0.81558881  1.0
  C  C87  1  0.81558751  0.00000238  0.18441080  1.0
  C  C88  1  0.00000275  0.81559040  0.18441407  1.0
  C  C89  1  0.18441201  0.00000218  0.81558835  1.0
  N  N90  1  0.87601569  0.23728060  0.73962884  1.0
  N  N91  1  0.61564376  0.87601210  0.36127227  1.0
  N  N92  1  0.97690713  0.61564596  0.26037185  1.0
  N  N93  1  0.23727609  0.97689936  0.63874428  1.0
  N  N94  1  0.12398586  0.38435180  0.63873973  1.0
  N  N95  1  0.38435627  0.02310459  0.73962645  1.0
  N  N96  1  0.02308290  0.76271679  0.36127342  1.0
  N  N97  1  0.76272136  0.12398730  0.26036662  1.0
  O  O98  1  0.05236374  0.40659152  0.54192983  1.0
  O  O99  1  0.59429016  0.05235976  0.35423454  1.0
  O  O100  1  0.94852162  0.59428910  0.45807306  1.0
  O  O101  1  0.40659402  0.94852990  0.64576268  1.0
  O  O102  1  0.94764260  0.40570911  0.64576222  1.0
  O  O103  1  0.40571172  0.05148045  0.54192486  1.0
  O  O104  1  0.05147318  0.59340334  0.35423852  1.0
  O  O105  1  0.59340382  0.94763874  0.45807195  1.0
  O  O106  1  0.11640580  0.56696012  0.44620974  1.0
  O  O107  1  0.56261642  0.11640059  0.45055817  1.0
  O  O108  1  0.01317412  0.56261581  0.55378605  1.0
  O  O109  1  0.56696014  0.01316948  0.54944603  1.0
  O  O110  1  0.88359088  0.43738399  0.54944562  1.0
  O  O111  1  0.43738679  0.98683264  0.44620452  1.0
  O  O112  1  0.98682338  0.43303497  0.45056430  1.0
  O  O113  1  0.43303644  0.88359998  0.55378585  1.0
  O  O114  1  0.05416580  0.97742235  0.89603425  1.0
  O  O115  1  0.95019759  0.05416573  0.92325862  1.0
  O  O116  1  0.87345193  0.95019717  0.10397079  1.0
  O  O117  1  0.97742702  0.87345837  0.07674561  1.0
  O  O118  1  0.94583833  0.04980619  0.07673736  1.0
  O  O119  1  0.04980788  0.12654142  0.89603538  1.0
  O  O120  1  0.12654346  0.02257389  0.92326761  1.0
  O  O121  1  0.02257810  0.94584164  0.10397249  1.0
  O  O122  1  0.81313174  0.19908185  0.80805495  1.0
  O  O123  1  0.89033765  0.26848945  0.66680485  1.0
  O  O124  1  0.62118699  0.81312951  0.38596107  1.0
  O  O125  1  0.55714044  0.89033369  0.37815774  1.0
  O  O126  1  0.00712655  0.62118973  0.19194401  1.0
  O  O127  1  0.93529912  0.55714378  0.33319409  1.0
  O  O128  1  0.19906079  0.00710908  0.61407587  1.0
  O  O129  1  0.26849897  0.93529585  0.62184513  1.0
  O  O130  1  0.18686704  0.37880969  0.61406386  1.0
  O  O131  1  0.10966378  0.44285739  0.62184454  1.0
  O  O132  1  0.37881591  0.99289739  0.80804144  1.0
  O  O133  1  0.44286695  0.06471407  0.66678994  1.0
  O  O134  1  0.99285091  0.80090657  0.38596327  1.0
  O  O135  1  0.06470408  0.73150823  0.37815890  1.0
  O  O136  1  0.80091899  0.18686690  0.19194734  1.0
  O  O137  1  0.73150616  0.10966338  0.33319755  1.0
