# generated using pymatgen
data_Zn2H8C27Br2N9O2
_symmetry_space_group_name_H-M   'P 1'
_cell_length_a   18.47610804
_cell_length_b   18.53097430
_cell_length_c   19.46163055
_cell_angle_alpha   103.08824010
_cell_angle_beta   111.01414393
_cell_angle_gamma   109.60439838
_symmetry_Int_Tables_number   1
_chemical_formula_structural   Zn2H8C27Br2N9O2
_chemical_formula_sum   'Zn4 H16 C54 Br4 N18 O4'
_cell_volume   5384.72964547
_cell_formula_units_Z   2
loop_
 _symmetry_equiv_pos_site_id
 _symmetry_equiv_pos_as_xyz
  1  'x, y, z'
loop_
 _atom_site_type_symbol
 _atom_site_label
 _atom_site_symmetry_multiplicity
 _atom_site_fract_x
 _atom_site_fract_y
 _atom_site_fract_z
 _atom_site_occupancy
  Zn  Zn0  1  0.11728885  0.61998938  0.99038072  1.0
  Zn  Zn1  1  0.87733930  0.39458844  0.02073205  1.0
  Zn  Zn2  1  0.88798516  0.51894863  0.91151545  1.0
  Zn  Zn3  1  0.10920829  0.50732341  0.11401824  1.0
  H  H4  1  0.14741435  0.79649891  0.10210647  1.0
  H  H5  1  0.88039052  0.21892042  0.02765143  1.0
  H  H6  1  0.68457577  0.49848348  0.84207439  1.0
  H  H7  1  0.13917944  0.36761717  0.02143553  1.0
  H  H8  1  0.20689594  0.67542245  0.27205349  1.0
  H  H9  1  0.85913519  0.39347069  0.75458419  1.0
  H  H10  1  0.69238049  0.38388295  0.01377764  1.0
  H  H11  1  0.15831204  0.50852361  0.87369486  1.0
  H  H12  1  0.86998006  0.65764832  0.01847001  1.0
  H  H13  1  0.16071366  0.36578630  0.17506666  1.0
  H  H14  1  0.38286660  0.07988331  0.45037182  1.0
  H  H15  1  0.62948551  0.01491191  0.53267129  1.0
  H  H16  1  0.46689029  0.07064396  0.59934530  1.0
  H  H17  1  0.54475849  0.02439221  0.38323359  1.0
  H  H18  1  0.54790572  0.17408762  0.46474134  1.0
  H  H19  1  0.46349058  0.92048149  0.51812231  1.0
  C  C20  1  0.08024129  0.74960129  0.07599030  1.0
  C  C21  1  0.94776592  0.26694691  0.06154177  1.0
  C  C22  1  0.92019308  0.45269952  0.18663251  1.0
  C  C23  1  0.04170729  0.60028306  0.81712102  1.0
  C  C24  1  0.70125567  0.47346701  0.88752132  1.0
  C  C25  1  0.13710540  0.40955867  0.99072084  1.0
  C  C26  1  0.22184384  0.68850890  0.22594233  1.0
  C  C27  1  0.84493931  0.36490329  0.79401183  1.0
  C  C28  1  0.70627038  0.41564697  0.97620634  1.0
  C  C29  1  0.14546720  0.48123370  0.91438999  1.0
  C  C30  1  0.27109103  0.74453103  0.15374932  1.0
  C  C31  1  0.79346227  0.28199527  0.84784050  1.0
  C  C32  1  0.06094781  0.53066219  0.26088713  1.0
  C  C33  1  0.89866742  0.54002281  0.75559192  1.0
  C  C34  1  0.93810160  0.67893414  0.03321776  1.0
  C  C35  1  0.09125972  0.34198403  0.13720476  1.0
  C  C36  1  0.00780183  0.76046650  0.07520900  1.0
  C  C37  1  0.02312685  0.26080135  0.10705954  1.0
  C  C38  1  0.98609113  0.48668153  0.26722243  1.0
  C  C39  1  0.96974789  0.56256755  0.73860875  1.0
  C  C40  1  0.64998170  0.43427192  0.91973633  1.0
  C  C41  1  0.16574118  0.41912240  0.93367045  1.0
  C  C42  1  0.27569942  0.76564110  0.23024275  1.0
  C  C43  1  0.78085666  0.28459165  0.77249535  1.0
  C  C44  1  0.48358871  0.05939547  0.55074323  1.0
  C  C45  1  0.52880229  0.03541972  0.43232691  1.0
  C  C46  1  0.43794472  0.06556711  0.46884031  1.0
  C  C47  1  0.57388637  0.02834190  0.51357624  1.0
  C  C48  1  0.32463462  0.84315143  0.29550367  1.0
  C  C49  1  0.71390187  0.22528205  0.69615975  1.0
  C  C50  1  0.48341105  0.97747895  0.50710825  1.0
  C  C51  1  0.52907151  0.11733509  0.47633717  1.0
  C  C52  1  0.43621667  0.98163819  0.42324101  1.0
  C  C53  1  0.57662301  0.11234326  0.55984742  1.0
  C  C54  1  0.37042469  0.90979781  0.35327880  1.0
  C  C55  1  0.65001920  0.17568028  0.63198131  1.0
  C  C56  1  0.98046701  0.48169679  0.33525329  1.0
  C  C57  1  0.96869657  0.54611065  0.66501404  1.0
  C  C58  1  0.97794263  0.48592537  0.39839729  1.0
  C  C59  1  0.96911647  0.52786438  0.60026595  1.0
  C  C60  1  0.97426292  0.49564194  0.46690201  1.0
  C  C61  1  0.97126126  0.50981886  0.53088011  1.0
  C  C62  1  0.21718842  0.38889468  0.91070228  1.0
  C  C63  1  0.56410518  0.41669309  0.90249155  1.0
  C  C64  1  0.27413133  0.37926024  0.89690653  1.0
  C  C65  1  0.48998454  0.40010203  0.89315714  1.0
  C  C66  1  0.34298819  0.37818305  0.88902189  1.0
  C  C67  1  0.41180777  0.38628002  0.88796581  1.0
  C  C68  1  0.00694790  0.83709610  0.10062184  1.0
  C  C69  1  0.02672275  0.18985494  0.11815314  1.0
  C  C70  1  0.01148152  0.90714801  0.11484134  1.0
  C  C71  1  0.02472962  0.12446252  0.12387198  1.0
  C  C72  1  0.01616042  0.98275077  0.12375875  1.0
  C  C73  1  0.02123749  0.05168252  0.12622436  1.0
  Br  Br74  1  0.32420905  0.81701936  0.11390253  1.0
  Br  Br75  1  0.73060375  0.19541071  0.86924175  1.0
  Br  Br76  1  0.17508042  0.57952713  0.34381770  1.0
  Br  Br77  1  0.77999416  0.48862209  0.68334048  1.0
  N  N78  1  0.05461129  0.66895827  0.03623358  1.0
  N  N79  1  0.96940190  0.34463776  0.06461359  1.0
  N  N80  1  0.95280520  0.47847077  0.13987430  1.0
  N  N81  1  0.01552829  0.59771484  0.87252207  1.0
  N  N82  1  0.78042174  0.47694850  0.92227675  1.0
  N  N83  1  0.10511814  0.46367618  0.00537983  1.0
  N  N84  1  0.18947680  0.62796851  0.15402571  1.0
  N  N85  1  0.88946928  0.40718753  0.87471773  1.0
  N  N86  1  0.78391095  0.44142122  0.97740132  1.0
  N  N87  1  0.11030049  0.50741160  0.95801853  1.0
  N  N88  1  0.21967393  0.66291231  0.10798126  1.0
  N  N89  1  0.85756339  0.35437525  0.90756562  1.0
  N  N90  1  0.03984737  0.52659077  0.18535727  1.0
  N  N91  1  0.92778652  0.56070410  0.83536072  1.0
  N  N92  1  0.96706823  0.62497487  0.00956980  1.0
  N  N93  1  0.05803264  0.39105973  0.11156653  1.0
  N  N94  1  0.83540348  0.38611665  0.15090717  1.0
  N  N95  1  0.13301067  0.63719365  0.84459703  1.0
  O  O96  1  0.80073241  0.36922482  0.19253559  1.0
  O  O97  1  0.79972239  0.34310245  0.07563691  1.0
  O  O98  1  0.16092732  0.64236882  0.79622262  1.0
  O  O99  1  0.18241482  0.66322359  0.91974641  1.0
