# generated using pymatgen
data_ZnH13C24O5
_symmetry_space_group_name_H-M   'P 1'
_cell_length_a   12.73575567
_cell_length_b   26.69816288
_cell_length_c   26.69811215
_cell_angle_alpha   111.10118062
_cell_angle_beta   103.80290932
_cell_angle_gamma   103.80285808
_symmetry_Int_Tables_number   1
_chemical_formula_structural   ZnH13C24O5
_chemical_formula_sum   'Zn8 H104 C192 O40'
_cell_volume   7679.08895734
_cell_formula_units_Z   8
loop_
 _symmetry_equiv_pos_site_id
 _symmetry_equiv_pos_as_xyz
  1  'x, y, z'
loop_
 _atom_site_type_symbol
 _atom_site_label
 _atom_site_symmetry_multiplicity
 _atom_site_fract_x
 _atom_site_fract_y
 _atom_site_fract_z
 _atom_site_occupancy
  Zn  Zn0  1  0.12432189  0.46459375  0.61350314  1.0
  Zn  Zn1  1  0.05692003  0.55066288  0.69345644  1.0
  Zn  Zn2  1  0.37567704  0.88649399  0.03540668  1.0
  Zn  Zn3  1  0.44308140  0.80654261  0.94934027  1.0
  Zn  Zn4  1  0.45383596  0.61361460  0.46458615  1.0
  Zn  Zn5  1  0.68734036  0.69354808  0.55067709  1.0
  Zn  Zn6  1  0.04616715  0.03541826  0.88639180  1.0
  Zn  Zn7  1  0.81265372  0.94932144  0.80645107  1.0
  H  H8  1  0.17969351  0.02896819  0.63837322  1.0
  H  H9  1  0.37983142  0.00248967  0.51426912  1.0
  H  H10  1  0.77926228  0.44494798  0.72271716  1.0
  H  H11  1  0.64236868  0.36097327  0.72157342  1.0
  H  H12  1  0.77039575  0.24806147  0.61226907  1.0
  H  H13  1  0.90571848  0.33233463  0.61217346  1.0
  H  H14  1  0.47320090  0.28232697  0.65108129  1.0
  H  H15  1  0.11725599  0.14509007  0.62436177  1.0
  H  H16  1  0.57716851  0.11956836  0.66771368  1.0
  H  H17  1  0.72617034  0.20362557  0.67652482  1.0
  H  H18  1  0.15106458  0.18766136  0.54014518  1.0
  H  H19  1  0.09998599  0.26616807  0.52222138  1.0
  H  H20  1  0.29916860  0.38518423  0.69878896  1.0
  H  H21  1  0.34878057  0.30686801  0.71751624  1.0
  H  H22  1  0.43203951  0.94257985  0.54704726  1.0
  H  H23  1  0.42309552  0.92162695  0.71706575  1.0
  H  H24  1  0.35300165  0.06834797  0.81700627  1.0
  H  H25  1  0.34277259  0.10025497  0.74071738  1.0
  H  H26  1  0.60851282  0.93849347  0.69701647  1.0
  H  H27  1  0.67170389  0.85426485  0.67580180  1.0
  H  H28  1  0.37870101  0.75712092  0.51741151  1.0
  H  H29  1  0.31276426  0.84040677  0.53942224  1.0
  H  H30  1  0.54055566  0.94424728  0.80406115  1.0
  H  H31  1  0.55605521  0.90768079  0.87765244  1.0
  H  H32  1  0.29513271  0.97044386  0.92404050  1.0
  H  H33  1  0.27456481  0.00484645  0.84857978  1.0
  H  H34  1  0.32030586  0.86162709  0.47103381  1.0
  H  H35  1  0.12017099  0.98573150  0.49751296  1.0
  H  H36  1  0.72073165  0.77728038  0.05504907  1.0
  H  H37  1  0.85762810  0.77842389  0.13902285  1.0
  H  H38  1  0.72960879  0.88773195  0.25193661  1.0
  H  H39  1  0.59427903  0.88782866  0.16766564  1.0
  H  H40  1  0.02679722  0.84891528  0.21767128  1.0
  H  H41  1  0.38273967  0.87563718  0.35490726  1.0
  H  H42  1  0.92283198  0.83228269  0.38042972  1.0
  H  H43  1  0.77382802  0.82347327  0.29637418  1.0
  H  H44  1  0.34892230  0.95985313  0.31233326  1.0
  H  H45  1  0.40000367  0.97777862  0.23382870  1.0
  H  H46  1  0.20083109  0.80120767  0.11481257  1.0
  H  H47  1  0.15122036  0.78248278  0.19312878  1.0
  H  H48  1  0.06796757  0.95295493  0.55742187  1.0
  H  H49  1  0.07690193  0.78293453  0.57837525  1.0
  H  H50  1  0.14698547  0.68299122  0.43165031  1.0
  H  H51  1  0.15721866  0.75928043  0.39974703  1.0
  H  H52  1  0.89149291  0.80298375  0.56150605  1.0
  H  H53  1  0.82829479  0.82419636  0.64573430  1.0
  H  H54  1  0.12129141  0.98258678  0.74288112  1.0
  H  H55  1  0.18723769  0.96057816  0.65959975  1.0
  H  H56  1  0.95945510  0.69594299  0.55576347  1.0
  H  H57  1  0.94396255  0.62235304  0.59233094  1.0
  H  H58  1  0.20486036  0.57595353  0.52955345  1.0
  H  H59  1  0.22542505  0.65141367  0.49514681  1.0
  H  H60  1  0.98787430  0.63841344  0.02908846  1.0
  H  H61  1  0.63744848  0.51432279  0.00257891  1.0
  H  H62  1  0.88840763  0.72282378  0.44501486  1.0
  H  H63  1  0.94030161  0.72162620  0.36103377  1.0
  H  H64  1  0.59012461  0.61216603  0.24801577  1.0
  H  H65  1  0.53887734  0.61215899  0.33228378  1.0
  H  H66  1  0.96064468  0.65125846  0.28246798  1.0
  H  H67  1  0.15268668  0.62456098  0.14530166  1.0
  H  H68  1  0.71052952  0.66780073  0.11966402  1.0
  H  H69  1  0.65415360  0.67640234  0.20360376  1.0
  H  H70  1  0.07637492  0.54027315  0.18797040  1.0
  H  H71  1  0.18747447  0.52223988  0.26652370  1.0
  H  H72  1  0.28521886  0.69898594  0.38539431  1.0
  H  H73  1  0.17638514  0.71781013  0.30702471  1.0
  H  H74  1  0.55801088  0.54704389  0.94259728  1.0
  H  H75  1  0.71547991  0.71713515  0.92172652  1.0
  H  H76  1  0.03235889  0.81718621  0.06836398  1.0
  H  H77  1  0.99842313  0.74096891  0.10036107  1.0
  H  H78  1  0.52706897  0.69697507  0.93843453  1.0
  H  H79  1  0.35839950  0.67566776  0.85426113  1.0
  H  H80  1  0.39596615  0.51725481  0.75721942  1.0
  H  H81  1  0.56726204  0.53939171  0.84051343  1.0
  H  H82  1  0.70758995  0.80418468  0.94430591  1.0
  H  H83  1  0.72895364  0.87767188  0.90758734  1.0
  H  H84  1  0.09905032  0.92409222  0.97026657  1.0
  H  H85  1  0.07870509  0.84870636  0.00478339  1.0
  H  H86  1  0.51211917  0.47090824  0.86158577  1.0
  H  H87  1  0.86256084  0.49742010  0.98567983  1.0
  H  H88  1  0.61159722  0.05498644  0.77717869  1.0
  H  H89  1  0.55969526  0.13896593  0.77837319  1.0
  H  H90  1  0.90987281  0.25198351  0.88783162  1.0
  H  H91  1  0.96112966  0.16771752  0.88784362  1.0
  H  H92  1  0.53936229  0.21753198  0.84874512  1.0
  H  H93  1  0.34730688  0.35469584  0.87543805  1.0
  H  H94  1  0.78947173  0.38033531  0.83220004  1.0
  H  H95  1  0.84585556  0.29639720  0.82359822  1.0
  H  H96  1  0.42362483  0.31202954  0.95973008  1.0
  H  H97  1  0.31252973  0.23347723  0.97776567  1.0
  H  H98  1  0.21478244  0.11460575  0.80101782  1.0
  H  H99  1  0.32361790  0.19297678  0.78219459  1.0
  H  H100  1  0.94199608  0.55740068  0.95295387  1.0
  H  H101  1  0.78452594  0.57827353  0.78286425  1.0
  H  H102  1  0.46764173  0.43163552  0.68281374  1.0
  H  H103  1  0.50157585  0.39964017  0.75903017  1.0
  H  H104  1  0.97293259  0.56156572  0.80302513  1.0
  H  H105  1  0.14159883  0.64574033  0.82433270  1.0
  H  H106  1  0.10403341  0.74277862  0.98274529  1.0
  H  H107  1  0.93273843  0.65948345  0.96060785  1.0
  H  H108  1  0.79241430  0.55569144  0.69581153  1.0
  H  H109  1  0.77104820  0.59241258  0.62232690  1.0
  H  H110  1  0.40094899  0.52973762  0.57591084  1.0
  H  H111  1  0.42130136  0.49522065  0.65129711  1.0
  C  C112  1  0.93141150  0.44374080  0.66666667  1.0
  C  C113  1  0.85134156  0.39398515  0.66751562  1.0
  C  C114  1  0.77696772  0.40179105  0.69850574  1.0
  C  C115  1  0.70005185  0.35456957  0.69762598  1.0
  C  C116  1  0.69589803  0.29851305  0.66666667  1.0
  C  C117  1  0.77309904  0.29126138  0.63706475  1.0
  C  C118  1  0.84873376  0.33821038  0.63672298  1.0
  C  C119  1  0.60893361  0.24888799  0.66400116  1.0
  C  C120  1  0.49599831  0.24702451  0.65576351  1.0
  C  C121  1  0.40810274  0.19945329  0.65045361  1.0
  C  C122  1  0.28995148  0.19608966  0.63863159  1.0
  C  C123  1  0.20720585  0.14814768  0.63273944  1.0
  C  C124  1  0.23665216  0.10162499  0.63673239  1.0
  C  C125  1  0.34879651  0.10176444  0.64542092  1.0
  C  C126  1  0.43689319  0.15159124  0.65359990  1.0
  C  C127  1  0.55366366  0.15495806  0.66359447  1.0
  C  C128  1  0.63691819  0.20185876  0.66832635  1.0
  C  C129  1  0.25521409  0.24236316  0.62967497  1.0
  C  C130  1  0.18310245  0.23100876  0.57501058  1.0
  C  C131  1  0.15512981  0.27464442  0.56468010  1.0
  C  C132  1  0.19982488  0.33065970  0.60902015  1.0
  C  C133  1  0.26858009  0.34182886  0.66422694  1.0
  C  C134  1  0.29582355  0.29814773  0.67448404  1.0
  C  C135  1  0.37335959  0.04894552  0.64075403  1.0
  C  C136  1  0.38820534  0.01537071  0.59105590  1.0
  C  C137  1  0.41457963  0.96559808  0.58530635  1.0
  C  C138  1  0.42431656  0.94714374  0.62784991  1.0
  C  C139  1  0.40570121  0.97919661  0.67888275  1.0
  C  C140  1  0.40863076  0.96162142  0.72302069  1.0
  C  C141  1  0.39161347  0.99294102  0.77277996  1.0
  C  C142  1  0.36629664  0.04322698  0.77820754  1.0
  C  C143  1  0.17307465  0.37837088  0.59926250  1.0
  C  C144  1  0.36081704  0.06112833  0.73563310  1.0
  C  C145  1  0.38053178  0.03040859  0.68494202  1.0
  C  C146  1  0.45696924  0.89568222  0.61904129  1.0
  C  C147  1  0.55653707  0.89842083  0.65825967  1.0
  C  C148  1  0.59223816  0.85140878  0.64647473  1.0
  C  C149  1  0.52915721  0.80061431  0.59547042  1.0
  C  C150  1  0.42782052  0.79676762  0.55687592  1.0
  C  C151  1  0.39272396  0.84391331  0.56889142  1.0
  C  C152  1  0.57481633  0.75345133  0.57959137  1.0
  C  C153  1  0.48406706  0.94840179  0.82904695  1.0
  C  C154  1  0.40325612  0.97496175  0.81932188  1.0
  C  C155  1  0.49429853  0.92871998  0.87070846  1.0
  C  C156  1  0.42513488  0.93585096  0.90477017  1.0
  C  C157  1  0.34801775  0.96458813  0.89725703  1.0
  C  C158  1  0.33684404  0.98375352  0.85480054  1.0
  C  C159  1  0.43040325  0.90889740  0.94459155  1.0
  C  C160  1  0.56858955  0.83337595  0.05625895  1.0
  C  C161  1  0.64865332  0.83248450  0.10601372  1.0
  C  C162  1  0.72302291  0.80148954  0.09820642  1.0
  C  C163  1  0.79993798  0.80236905  0.14542591  1.0
  C  C164  1  0.80409467  0.83328411  0.20148423  1.0
  C  C165  1  0.72690092  0.86293563  0.20873632  1.0
  C  C166  1  0.65126375  0.86327857  0.16178656  1.0
  C  C167  1  0.89106181  0.83599761  0.25111003  1.0
  C  C168  1  0.00399963  0.84423661  0.25297465  1.0
  C  C169  1  0.09189796  0.84955075  0.30054740  1.0
  C  C170  1  0.21004802  0.86137045  0.30390988  1.0
  C  C171  1  0.29279031  0.86726028  0.35185115  1.0
  C  C172  1  0.26334521  0.86326604  0.39837454  1.0
  C  C173  1  0.15120023  0.85457797  0.39823379  1.0
  C  C174  1  0.06310517  0.84640320  0.34841004  1.0
  C  C175  1  0.94633542  0.83640753  0.34504216  1.0
  C  C176  1  0.86307832  0.83167306  0.29813950  1.0
  C  C177  1  0.24478181  0.87032393  0.25763506  1.0
  C  C178  1  0.31688803  0.92498841  0.26898493  1.0
  C  C179  1  0.34486382  0.93531790  0.22534921  1.0
  C  C180  1  0.30017527  0.89097707  0.16933809  1.0
  C  C181  1  0.23142371  0.83576983  0.15816743  1.0
  C  C182  1  0.20417797  0.82551590  0.20185024  1.0
  C  C183  1  0.12663685  0.85924453  0.45105378  1.0
  C  C184  1  0.11179112  0.90894261  0.48462914  1.0
  C  C185  1  0.08541625  0.91469138  0.53440074  1.0
  C  C186  1  0.07568174  0.87215050  0.55285762  1.0
  C  C187  1  0.09429773  0.82111750  0.52080682  1.0
  C  C188  1  0.09137016  0.77697909  0.53838075  1.0
  C  C189  1  0.10839551  0.72722178  0.50706376  1.0
  C  C190  1  0.13370613  0.72179477  0.45677811  1.0
  C  C191  1  0.32692399  0.90073685  0.12162679  1.0
  C  C192  1  0.13918607  0.76436801  0.43887484  1.0
  C  C193  1  0.11946612  0.81505713  0.46959395  1.0
  C  C194  1  0.04303517  0.88095842  0.60432037  1.0
  C  C195  1  0.94346939  0.84173740  0.60158091  1.0
  C  C196  1  0.90776407  0.85352161  0.64859064  1.0
  C  C197  1  0.97083709  0.90452962  0.69938455  1.0
  C  C198  1  0.07217322  0.94312524  0.70323364  1.0
  C  C199  1  0.10727274  0.93110786  0.65608808  1.0
  C  C200  1  0.92517689  0.92040907  0.74654740  1.0
  C  C201  1  0.01593734  0.67095637  0.55160470  1.0
  C  C202  1  0.09674479  0.68067696  0.52504027  1.0
  C  C203  1  0.00571023  0.62929451  0.57128464  1.0
  C  C204  1  0.07486408  0.59523019  0.56414847  1.0
  C  C205  1  0.15197734  0.60273860  0.53540902  1.0
  C  C206  1  0.16315025  0.64519511  0.51624403  1.0
  C  C207  1  0.06959455  0.55541029  0.59110156  1.0
  C  C208  1  0.67901968  0.66666667  0.44373642  1.0
  C  C209  1  0.71020929  0.66760263  0.39398039  1.0
  C  C210  1  0.82338214  0.69860688  0.40183164  1.0
  C  C211  1  0.85226296  0.69764986  0.35461425  1.0
  C  C212  1  0.76951614  0.66666667  0.29854040  1.0
  C  C213  1  0.65536499  0.63701857  0.29123224  1.0
  C  C214  1  0.62627980  0.63676817  0.33819112  1.0
  C  C215  1  0.80424718  0.66400340  0.24895328  1.0
  C  C216  1  0.90718624  0.65589089  0.24714387  1.0
  C  C217  1  0.94225044  0.65060583  0.19959611  1.0
  C  C218  1  0.04525537  0.63883433  0.19627344  1.0
  C  C219  1  0.07417487  0.63293667  0.14834003  1.0
  C  C220  1  0.00216100  0.63690468  0.10179207  1.0
  C  C221  1  0.89881650  0.64555765  0.10189665  1.0
  C  C222  1  0.86872999  0.65372787  0.15171876  1.0
  C  C223  1  0.76527240  0.66367100  0.15505151  1.0
  C  C224  1  0.73351419  0.66827859  0.20188770  1.0
  C  C225  1  0.11714639  0.62988808  0.24258778  1.0
  C  C226  1  0.12274800  0.57515324  0.23129684  1.0
  C  C227  1  0.18366468  0.56476176  0.27496990  1.0
  C  C228  1  0.23954282  0.60915221  0.33093995  1.0
  C  C229  1  0.23770154  0.66442997  0.34205684  1.0
  C  C230  1  0.17729888  0.67474190  0.29835065  1.0
  C  C231  1  0.81677685  0.64085484  0.04904282  1.0
  C  C232  1  0.71867416  0.59111553  0.01543699  1.0
  C  C233  1  0.63670353  0.58533082  0.96565323  1.0
  C  C234  1  0.65094642  0.62788384  0.94720500  1.0
  C  C235  1  0.75257326  0.67896477  0.97928736  1.0
  C  C236  1  0.77597619  0.72313562  0.96173020  1.0
  C  C237  1  0.87397620  0.77294436  0.99301924  1.0
  C  C238  1  0.95512123  0.77836720  0.04326483  1.0
  C  C239  1  0.30423352  0.59947685  0.37870061  1.0
  C  C240  1  0.93607959  0.73581977  0.06121931  1.0
  C  C241  1  0.83506830  0.68505504  0.03050946  1.0
  C  C242  1  0.55796418  0.61902344  0.89571664  1.0
  C  C243  1  0.50021733  0.65818417  0.89840106  1.0
  C  C244  1  0.40562477  0.64632459  0.85139134  1.0
  C  C245  1  0.36691748  0.59529964  0.80059670  1.0
  C  C246  1  0.42589492  0.55675083  0.79681966  1.0
  C  C247  1  0.52023227  0.56883728  0.84398560  1.0
  C  C248  1  0.25824844  0.57946021  0.75340109  1.0
  C  C249  1  0.79315303  0.82913213  0.94836307  1.0
  C  C250  1  0.89081770  0.81942519  0.97494209  1.0
  C  C251  1  0.80482792  0.87074848  0.92861968  1.0
  C  C252  1  0.91517236  0.90481294  0.93574441  1.0
  C  C253  1  0.01357124  0.89731103  0.96445102  1.0
  C  C254  1  0.00153886  0.85489495  0.98366985  1.0
  C  C255  1  0.92280632  0.94468283  0.90885041  1.0
  C  C256  1  0.82098549  0.05626977  0.83331105  1.0
  C  C257  1  0.78979158  0.10602215  0.83239871  1.0
  C  C258  1  0.67661723  0.09816905  0.80139499  1.0
  C  C259  1  0.64773297  0.14538553  0.80235156  1.0
  C  C260  1  0.73048315  0.20145938  0.83332857  1.0
  C  C261  1  0.84464036  0.20876753  0.86298209  1.0
  C  C262  1  0.87372481  0.16180939  0.86323268  1.0
  C  C263  1  0.69575687  0.25104610  0.83599703  1.0
  C  C264  1  0.59281734  0.25285576  0.84411003  1.0
  C  C265  1  0.55774770  0.30040312  0.84939243  1.0
  C  C266  1  0.45473964  0.30372579  0.86116542  1.0
  C  C267  1  0.42581971  0.35165818  0.86706160  1.0
  C  C268  1  0.49783398  0.39820712  0.86309303  1.0
  C  C269  1  0.60118018  0.39810212  0.85443959  1.0
  C  C270  1  0.63126580  0.34827980  0.84626905  1.0
  C  C271  1  0.73472766  0.34494694  0.83632784  1.0
  C  C272  1  0.76649087  0.29811202  0.83172114  1.0
  C  C273  1  0.38285259  0.25741447  0.87011401  1.0
  C  C274  1  0.37725060  0.26870346  0.92484903  1.0
  C  C275  1  0.31633977  0.22503107  0.93524285  1.0
  C  C276  1  0.26046132  0.16906135  0.89085149  1.0
  C  C277  1  0.26229838  0.15794312  0.83557453  1.0
  C  C278  1  0.32270042  0.20165005  0.82526305  1.0
  C  C279  1  0.68322267  0.45095636  0.85914589  1.0
  C  C280  1  0.78133084  0.48456105  0.90888442  1.0
  C  C281  1  0.86330576  0.53434689  0.91466869  1.0
  C  C282  1  0.84905857  0.55279428  0.87211556  1.0
  C  C283  1  0.74742632  0.52071137  0.82103472  1.0
  C  C284  1  0.72402813  0.53827115  0.77686456  1.0
  C  C285  1  0.62602702  0.50698303  0.72705666  1.0
  C  C286  1  0.54487791  0.45673493  0.72163263  1.0
  C  C287  1  0.19576607  0.12129854  0.90052396  1.0
  C  C288  1  0.56391826  0.43878202  0.76417999  1.0
  C  C289  1  0.66493426  0.46949222  0.81494431  1.0
  C  C290  1  0.94203566  0.60428293  0.88097654  1.0
  C  C291  1  0.99978476  0.60160177  0.84181616  1.0
  C  C292  1  0.09437462  0.64860954  0.85367611  1.0
  C  C293  1  0.13308550  0.69940388  0.90470208  1.0
  C  C294  1  0.07411147  0.70317865  0.94324917  1.0
  C  C295  1  0.97976951  0.65601175  0.93116196  1.0
  C  C296  1  0.24175664  0.74659935  0.92053955  1.0
  C  C297  1  0.70684896  0.55163746  0.67086674  1.0
  C  C298  1  0.60918740  0.52505999  0.68057501  1.0
  C  C299  1  0.69517147  0.57138053  0.62924997  1.0
  C  C300  1  0.58482824  0.56425648  0.59518670  1.0
  C  C301  1  0.48643119  0.53555322  0.60269135  1.0
  C  C302  1  0.49846803  0.51633686  0.64510890  1.0
  C  C303  1  0.57719297  0.59114999  0.55531759  1.0
  O  O304  1  0.14722718  0.05577608  0.62935723  1.0
  O  O305  1  0.37790626  0.03229940  0.54807495  1.0
  O  O306  1  0.94460085  0.49498669  0.70255265  1.0
  O  O307  1  0.98307405  0.43436626  0.63085514  1.0
  O  O308  1  0.08910668  0.36989705  0.55688688  1.0
  O  O309  1  0.23695023  0.43042003  0.63842444  1.0
  O  O310  1  0.52147190  0.70891194  0.53112705  1.0
  O  O311  1  0.67362939  0.75881464  0.61250706  1.0
  O  O312  1  0.48831233  0.87506082  0.93962651  1.0
  O  O313  1  0.37658584  0.91870574  0.97995082  1.0
  O  O314  1  0.35276806  0.87064109  0.44422416  1.0
  O  O315  1  0.12209640  0.95192545  0.46770278  1.0
  O  O316  1  0.55540116  0.79744796  0.00501309  1.0
  O  O317  1  0.51693125  0.86914842  0.06563331  1.0
  O  O318  1  0.41089398  0.94311216  0.13009750  1.0
  O  O319  1  0.26304350  0.86157422  0.06957564  1.0
  O  O320  1  0.97853288  0.96887319  0.79108285  1.0
  O  O321  1  0.82636842  0.88749556  0.74118825  1.0
  O  O322  1  0.01168295  0.56037468  0.62493845  1.0
  O  O323  1  0.12341297  0.52005126  0.58129511  1.0
  O  O324  1  0.03826595  0.62947631  0.05592173  1.0
  O  O325  1  0.70305068  0.54812788  0.03235334  1.0
  O  O326  1  0.75306735  0.70258401  0.49498201  1.0
  O  O327  1  0.58220217  0.63091111  0.43436307  1.0
  O  O328  1  0.33741533  0.55711025  0.37028405  1.0
  O  O329  1  0.33173916  0.63870972  0.43070376  1.0
  O  O330  1  0.21874686  0.53110038  0.70876948  1.0
  O  O331  1  0.19764810  0.61234697  0.75885564  1.0
  O  O332  1  0.82609819  0.93979295  0.87506704  1.0
  O  O333  1  0.02181746  0.98002007  0.91865756  1.0
  O  O334  1  0.46172600  0.44407444  0.87051931  1.0
  O  O335  1  0.79696315  0.46764672  0.95187237  1.0
  O  O336  1  0.74694048  0.00502070  0.79742070  1.0
  O  O337  1  0.91780589  0.06564622  0.86909338  1.0
  O  O338  1  0.16257102  0.12971267  0.94288719  1.0
  O  O339  1  0.16826080  0.06929625  0.86128926  1.0
  O  O340  1  0.28125359  0.79123060  0.96889917  1.0
  O  O341  1  0.30235752  0.74114653  0.88765333  1.0
  O  O342  1  0.67390461  0.62493344  0.56020938  1.0
  O  O343  1  0.47818217  0.58134183  0.51997815  1.0
