# generated using pymatgen
data_Zn8H58C61O31
_symmetry_space_group_name_H-M   'P 1'
_cell_length_a   18.38387423
_cell_length_b   18.55739378
_cell_length_c   18.55790593
_cell_angle_alpha   90.70241292
_cell_angle_beta   119.42135091
_cell_angle_gamma   119.27844822
_symmetry_Int_Tables_number   1
_chemical_formula_structural   Zn8H58C61O31
_chemical_formula_sum   'Zn8 H58 C61 O31'
_cell_volume   4536.74912324
_cell_formula_units_Z   1
loop_
 _symmetry_equiv_pos_site_id
 _symmetry_equiv_pos_as_xyz
  1  'x, y, z'
loop_
 _atom_site_type_symbol
 _atom_site_label
 _atom_site_symmetry_multiplicity
 _atom_site_fract_x
 _atom_site_fract_y
 _atom_site_fract_z
 _atom_site_occupancy
  Zn  Zn0  1  0.90780655  0.45635845  0.04172268  1.0
  Zn  Zn1  1  0.92159834  0.46334403  0.87551850  1.0
  Zn  Zn2  1  0.08740043  0.46016789  0.04904084  1.0
  Zn  Zn3  1  0.08506620  0.63117279  0.04471065  1.0
  Zn  Zn4  1  0.08396953  0.04268315  0.45649553  1.0
  Zn  Zn5  1  0.91129379  0.04228035  0.45646221  1.0
  Zn  Zn6  1  0.08602369  0.03980530  0.63105379  1.0
  Zn  Zn7  1  0.91242350  0.87221429  0.45698349  1.0
  H  H8  1  0.92038598  0.18486390  0.26722382  1.0
  H  H9  1  0.02982763  0.76782874  0.84714472  1.0
  H  H10  1  0.06063173  0.16156652  0.80756389  1.0
  H  H11  1  0.00238113  0.32672292  0.75413205  1.0
  H  H12  1  0.40458382  0.21976856  0.80279157  1.0
  H  H13  1  0.88967633  0.81253675  0.98293705  1.0
  H  H14  1  0.93764361  0.90521966  0.22535955  1.0
  H  H15  1  0.06619766  0.78987048  0.46924252  1.0
  H  H16  1  0.12571459  0.69707234  0.52562670  1.0
  H  H17  1  0.06321546  0.59643952  0.27729301  1.0
  H  H18  1  0.12575788  0.22443215  0.31649907  1.0
  H  H19  1  0.10692324  0.29833080  0.20456426  1.0
  H  H20  1  0.12419683  0.59972968  0.42961875  1.0
  H  H21  1  0.59315247  0.68962887  0.28911039  1.0
  H  H22  1  0.76631406  0.71403546  0.58076703  1.0
  H  H23  1  0.73085158  0.61014462  0.59706627  1.0
  H  H24  1  0.70404658  0.64759637  0.42799978  1.0
  H  H25  1  0.66578436  0.54390963  0.44211593  1.0
  H  H26  1  0.54339425  0.54674048  0.46851906  1.0
  H  H27  1  0.51635842  0.55422244  0.36419232  1.0
  H  H28  1  0.58056075  0.64955124  0.45126035  1.0
  H  H29  1  0.93435007  0.20330176  0.65214062  1.0
  H  H30  1  0.95741994  0.30920869  0.22810079  1.0
  H  H31  1  0.98429229  0.13189557  0.95531041  1.0
  H  H32  1  0.91925028  0.09577950  0.83892342  1.0
  H  H33  1  0.90497349  0.21197786  0.94371133  1.0
  H  H34  1  0.84331470  0.18108574  0.82861446  1.0
  H  H35  1  0.74387933  0.02108233  0.81537406  1.0
  H  H36  1  0.72157474  0.08380008  0.86419020  1.0
  H  H37  1  0.80289985  0.05263084  0.93050823  1.0
  H  H38  1  0.44648324  0.13261984  0.56010431  1.0
  H  H39  1  0.33065771  0.12426087  0.51614824  1.0
  H  H40  1  0.38177606  0.00116215  0.60418012  1.0
  H  H41  1  0.57831879  0.84570149  0.31259375  1.0
  H  H42  1  0.26437107  0.98919557  0.55736920  1.0
  H  H43  1  0.23487955  0.97138170  0.40922419  1.0
  H  H44  1  0.25362378  0.89223499  0.45085368  1.0
  H  H45  1  0.35357414  0.98561144  0.45420768  1.0
  H  H46  1  0.59261924  0.29122305  0.89818280  1.0
  H  H47  1  0.53053624  0.28281676  0.60130154  1.0
  H  H48  1  0.65248520  0.31052436  0.68746244  1.0
  H  H49  1  0.59900254  0.44095243  0.62569006  1.0
  H  H50  1  0.72150424  0.46943390  0.70955526  1.0
  H  H51  1  0.72312049  0.38893424  0.60003206  1.0
  H  H52  1  0.40658005  0.59744472  0.21893883  1.0
  H  H53  1  0.70488442  0.47082289  0.56582220  1.0
  H  H54  1  0.60019638  0.35948118  0.51542678  1.0
  H  H55  1  0.90693669  0.01870883  0.02321507  1.0
  H  H56  1  0.97313778  0.97257089  0.02556127  1.0
  H  H57  1  0.01800689  0.07946827  0.18727739  1.0
  H  H58  1  0.08401719  0.03409421  0.19049675  1.0
  H  H59  1  0.14201156  0.12860744  0.10684869  1.0
  H  H60  1  0.18304175  0.19251138  0.20725753  1.0
  H  H61  1  0.07869598  0.17636017  0.10714938  1.0
  H  H62  1  0.41689019  0.76380736  0.18671841  1.0
  H  H63  1  0.06962840  0.83493325  0.75651312  1.0
  H  H64  1  0.89552560  0.59541289  0.69430623  1.0
  H  H65  1  0.94055794  0.71342238  0.03762698  1.0
  C  C66  1  0.99637430  0.64250576  0.86779583  1.0
  C  C67  1  0.09902819  0.69632269  0.45839895  1.0
  C  C68  1  0.09811357  0.64103484  0.40388323  1.0
  C  C69  1  0.00140547  0.36866029  0.14350069  1.0
  C  C70  1  0.06440182  0.63940121  0.31909410  1.0
  C  C71  1  0.06133201  0.22997939  0.28476086  1.0
  C  C72  1  0.98826202  0.18455020  0.29874652  1.0
  C  C73  1  0.05906816  0.28355118  0.22843846  1.0
  C  C74  1  0.00350489  0.31741400  0.20398775  1.0
  C  C75  1  0.55420069  0.72185651  0.27896770  1.0
  C  C76  1  0.61179117  0.80958093  0.31718917  1.0
  C  C77  1  0.93884773  0.86247125  0.18594949  1.0
  C  C78  1  0.44419794  0.66717036  0.22671749  1.0
  C  C79  1  0.38496972  0.69602188  0.18526250  1.0
  C  C80  1  0.93006605  0.71604809  0.66411869  1.0
  C  C81  1  0.72817902  0.37599610  0.86329794  1.0
  C  C82  1  0.00254117  0.80262479  0.68921948  1.0
  C  C83  1  0.93735774  0.66603897  0.72458449  1.0
  C  C84  1  0.98991093  0.69882772  0.81244817  1.0
  C  C85  1  0.02064520  0.19188831  0.77512603  1.0
  C  C86  1  0.97921638  0.17830656  0.68882810  1.0
  C  C87  1  0.02012607  0.24674495  0.83195411  1.0
  C  C88  1  0.97006917  0.80708359  0.22064987  1.0
  C  C89  1  0.01172365  0.31407191  0.81426699  1.0
  C  C90  1  0.44524678  0.22528565  0.77356241  1.0
  C  C91  1  0.38581655  0.17245738  0.68818489  1.0
  C  C92  1  0.55417446  0.28130669  0.82803253  1.0
  C  C93  1  0.27322270  0.63865531  0.13437236  1.0
  C  C94  1  0.61583320  0.32843558  0.80171354  1.0
  C  C95  1  0.72358334  0.86319384  0.36781863  1.0
  C  C96  1  0.27334655  0.12794335  0.63653029  1.0
  C  C97  1  0.99389174  0.13142688  0.35737686  1.0
  C  C98  1  0.99989982  0.85961889  0.63491690  1.0
  C  C99  1  0.97046065  0.75148857  0.16580278  1.0
  C  C100  1  0.99024468  0.12871064  0.63645108  1.0
  C  C101  1  0.00045855  0.86237419  0.36334581  1.0
  C  C102  1  0.00899275  0.37011664  0.86865251  1.0
  C  C103  1  0.99907702  0.63755922  0.14094903  1.0
  C  C104  1  0.94067797  0.75519642  0.07956271  1.0
  C  C105  1  0.91301924  0.81058937  0.04903868  1.0
  C  C106  1  0.91204111  0.86476750  0.10314388  1.0
  C  C107  1  0.75406500  0.65094180  0.55965358  1.0
  C  C108  1  0.67503612  0.60568234  0.46160822  1.0
  C  C109  1  0.57340785  0.58816259  0.43514483  1.0
  C  C110  1  0.00023281  0.80454801  0.30613592  1.0
  C  C111  1  0.95099675  0.14823344  0.89601107  1.0
  C  C112  1  0.86969341  0.15916417  0.88546728  1.0
  C  C113  1  0.77975671  0.07454002  0.87325180  1.0
  C  C114  1  0.38243256  0.11032636  0.56554914  1.0
  C  C115  1  0.32875749  0.01269225  0.55209753  1.0
  C  C116  1  0.29071489  0.96273208  0.46158783  1.0
  C  C117  1  0.60243848  0.33323758  0.66300063  1.0
  C  C118  1  0.65049547  0.41951630  0.64727591  1.0
  C  C119  1  0.67064899  0.40917281  0.57838317  1.0
  C  C120  1  0.95068131  0.99325819  0.06278206  1.0
  C  C121  1  0.03097187  0.74930860  0.33935580  1.0
  C  C122  1  0.04378150  0.06249154  0.15157196  1.0
  C  C123  1  0.11550808  0.14426177  0.14251875  1.0
  C  C124  1  0.03043652  0.69327964  0.28412330  1.0
  C  C125  1  0.99934204  0.69531777  0.19850650  1.0
  C  C126  1  0.06616322  0.74855036  0.42703147  1.0
  O  O127  1  0.00010645  0.50265576  0.00389086  1.0
  O  O128  1  0.07169583  0.94139031  0.67617450  1.0
  O  O129  1  0.94341921  0.12049319  0.55492007  1.0
  O  O130  1  0.04500424  0.68036644  0.95008410  1.0
  O  O131  1  0.94183484  0.82405749  0.38808574  1.0
  O  O132  1  0.04412241  0.09923114  0.67509995  1.0
  O  O133  1  0.05926319  0.94497861  0.38274464  1.0
  O  O134  1  0.06345788  0.11770761  0.38626017  1.0
  O  O135  1  0.92852623  0.82562100  0.55319409  1.0
  O  O136  1  0.76711027  0.94607889  0.39486275  1.0
  O  O137  1  0.23196500  0.11231956  0.67826650  1.0
  O  O138  1  0.76527565  0.37603408  0.94264008  1.0
  O  O139  1  0.94484145  0.39614890  0.12599640  1.0
  O  O140  1  0.77980050  0.41309190  0.83164170  1.0
  O  O141  1  0.23091698  0.55783696  0.12811019  1.0
  O  O142  1  0.94343927  0.38804668  0.82593514  1.0
  O  O143  1  0.07027821  0.67586342  0.12973360  1.0
  O  O144  1  0.07095768  0.39647399  0.95149381  1.0
  O  O145  1  0.92818868  0.55627899  0.10855387  1.0
  O  O146  1  0.84862792  0.66821333  0.57886762  1.0
  O  O147  1  0.03539641  0.22979194  0.90804679  1.0
  O  O148  1  0.43219150  0.16602822  0.65249722  1.0
  O  O149  1  0.22820987  0.67655280  0.10068799  1.0
  O  O150  1  0.57522893  0.34020106  0.72269013  1.0
  O  O151  1  0.88011168  0.91793070  0.07103171  1.0
  O  O152  1  0.95430536  0.56206927  0.83018032  1.0
  O  O153  1  0.05460355  0.38087201  0.11356542  1.0
  O  O154  1  0.99986536  0.00065337  0.50166910  1.0
  O  O155  1  0.76740653  0.82384415  0.38038963  1.0
  O  O156  1  0.22767162  0.11109279  0.55353852  1.0
  O  O157  1  0.92667549  0.10331570  0.37388301  1.0
