# generated using pymatgen
data_ZnH7C11BrO4
_symmetry_space_group_name_H-M   'P 1'
_cell_length_a   18.70666124
_cell_length_b   18.71704383
_cell_length_c   18.73973388
_cell_angle_alpha   70.35847352
_cell_angle_beta   70.23400850
_cell_angle_gamma   109.15980012
_symmetry_Int_Tables_number   1
_chemical_formula_structural   ZnH7C11BrO4
_chemical_formula_sum   'Zn6 H42 C66 Br6 O24'
_cell_volume   5041.25437555
_cell_formula_units_Z   6
loop_
 _symmetry_equiv_pos_site_id
 _symmetry_equiv_pos_as_xyz
  1  'x, y, z'
loop_
 _atom_site_type_symbol
 _atom_site_label
 _atom_site_symmetry_multiplicity
 _atom_site_fract_x
 _atom_site_fract_y
 _atom_site_fract_z
 _atom_site_occupancy
  Zn  Zn0  1  0.05792031  0.56245291  0.99284519  1.0
  Zn  Zn1  1  0.92991906  0.43244341  0.00088273  1.0
  Zn  Zn2  1  0.50431253  0.56721424  0.42903010  1.0
  Zn  Zn3  1  0.50913832  0.44428203  0.55074150  1.0
  Zn  Zn4  1  0.93936336  0.00476167  0.56333986  1.0
  Zn  Zn5  1  0.06203429  0.00246953  0.43734019  1.0
  H  H6  1  0.62959467  0.42024589  0.26966965  1.0
  H  H7  1  0.15964692  0.22473397  0.18551105  1.0
  H  H8  1  0.18058523  0.40817820  0.09665207  1.0
  H  H9  1  0.15540077  0.32893447  0.06295948  1.0
  H  H10  1  0.26124730  0.66544986  0.71172326  1.0
  H  H11  1  0.36362982  0.66664260  0.58541660  1.0
  H  H12  1  0.17738758  0.34296733  0.92291480  1.0
  H  H13  1  0.94507258  0.59941915  0.73836152  1.0
  H  H14  1  0.77153001  0.40868948  0.28751076  1.0
  H  H15  1  0.94905179  0.72593987  0.63314936  1.0
  H  H16  1  0.99066423  0.89126859  0.81117476  1.0
  H  H17  1  0.89810783  0.71087880  0.97179435  1.0
  H  H18  1  0.28645848  0.18957929  0.63633752  1.0
  H  H19  1  0.32589621  0.29183092  0.28803243  1.0
  H  H20  1  0.23575121  0.30959325  0.33011382  1.0
  H  H21  1  0.78599160  0.53043430  0.34664948  1.0
  H  H22  1  0.92171736  0.80014933  0.38293668  1.0
  H  H23  1  0.70065713  0.77341904  0.67461443  1.0
  H  H24  1  0.69054380  0.84860733  0.59432957  1.0
  H  H25  1  0.76862341  0.68079919  0.14893122  1.0
  H  H26  1  0.75220406  0.55516564  0.09293845  1.0
  H  H27  1  0.82917001  0.23137740  0.28939597  1.0
  H  H28  1  0.83709888  0.13717590  0.41262346  1.0
  H  H29  1  0.18721118  0.30434959  0.21812181  1.0
  H  H30  1  0.32914028  0.37247688  0.83247767  1.0
  H  H31  1  0.26195781  0.26289656  0.86004089  1.0
  H  H32  1  0.34954333  0.34245716  0.75021807  1.0
  H  H33  1  0.84818232  0.84426225  0.93754937  1.0
  H  H34  1  0.83898991  0.86503181  0.84177880  1.0
  H  H35  1  0.79284797  0.75553846  0.92499017  1.0
  H  H36  1  0.09518876  0.01887493  0.67039724  1.0
  H  H37  1  0.18769980  0.00444540  0.64076123  1.0
  H  H38  1  0.16616139  0.04661051  0.71239275  1.0
  H  H39  1  0.25186837  0.41543061  0.39045410  1.0
  H  H40  1  0.35796493  0.49046861  0.36285525  1.0
  H  H41  1  0.33522505  0.48867500  0.27777414  1.0
  H  H42  1  0.78301880  0.67762252  0.34094568  1.0
  H  H43  1  0.87694682  0.68722327  0.34992783  1.0
  H  H44  1  0.77299483  0.59077724  0.42736117  1.0
  H  H45  1  0.91678773  0.73096908  0.19277348  1.0
  H  H46  1  0.97385265  0.67195161  0.18085807  1.0
  H  H47  1  0.96729308  0.73506416  0.09099101  1.0
  C  C48  1  0.96730386  0.36059965  0.12153639  1.0
  C  C49  1  0.76935677  0.62016613  0.18008149  1.0
  C  C50  1  0.75947772  0.55089837  0.14953895  1.0
  C  C51  1  0.83775838  0.54567116  0.16053477  1.0
  C  C52  1  0.04440166  0.29657796  0.18490696  1.0
  C  C53  1  0.96697864  0.29606390  0.19494766  1.0
  C  C54  1  0.89173291  0.23532501  0.27856907  1.0
  C  C55  1  0.89605184  0.18167911  0.34816365  1.0
  C  C56  1  0.97476391  0.18221497  0.33692943  1.0
  C  C57  1  0.04770747  0.23975430  0.25280877  1.0
  C  C58  1  0.14446442  0.27322595  0.19674341  1.0
  C  C59  1  0.90512782  0.53597810  0.10153963  1.0
  C  C60  1  0.14099778  0.33847724  0.11990849  1.0
  C  C61  1  0.20185230  0.45179807  0.80567834  1.0
  C  C62  1  0.19961031  0.52712979  0.80045686  1.0
  C  C63  1  0.26058286  0.60480886  0.71931378  1.0
  C  C64  1  0.31921405  0.60576569  0.64814327  1.0
  C  C65  1  0.32448196  0.53054924  0.65575048  1.0
  C  C66  1  0.26431705  0.45409705  0.73690503  1.0
  C  C67  1  0.23555233  0.35805259  0.78869388  1.0
  C  C68  1  0.16507544  0.35633564  0.86786751  1.0
  C  C69  1  0.94722539  0.71626788  0.84167100  1.0
  C  C70  1  0.95975338  0.58070089  0.88431492  1.0
  C  C71  1  0.94902304  0.64852910  0.82668513  1.0
  C  C72  1  0.94481196  0.65143224  0.75226799  1.0
  C  C73  1  0.94513235  0.72178554  0.69392185  1.0
  C  C74  1  0.94155200  0.78886616  0.71076622  1.0
  C  C75  1  0.93878157  0.78179000  0.78808117  1.0
  C  C76  1  0.93470144  0.82518995  0.84393670  1.0
  C  C77  1  0.94828995  0.75291423  0.90209052  1.0
  C  C78  1  0.39437875  0.36264609  0.51360151  1.0
  C  C79  1  0.62860610  0.53884778  0.34641682  1.0
  C  C80  1  0.62528452  0.59685826  0.51446778  1.0
  C  C81  1  0.13340289  0.52407450  0.87523370  1.0
  C  C82  1  0.39144699  0.53145671  0.58392510  1.0
  C  C83  1  0.91014736  0.89181776  0.47021312  1.0
  C  C84  1  0.98087564  0.12333691  0.40796966  1.0
  C  C85  1  0.14016433  0.09695902  0.49565379  1.0
  C  C86  1  0.95257776  0.86806454  0.64322847  1.0
  C  C87  1  0.32357959  0.30983114  0.43472498  1.0
  C  C88  1  0.33290366  0.29293352  0.50848299  1.0
  C  C89  1  0.28030158  0.20551349  0.57788685  1.0
  C  C90  1  0.21855836  0.13905272  0.57665378  1.0
  C  C91  1  0.21036338  0.15875230  0.50079797  1.0
  C  C92  1  0.76948136  0.46883468  0.25837669  1.0
  C  C93  1  0.26643015  0.24373437  0.43032118  1.0
  C  C94  1  0.28929710  0.30339218  0.33837575  1.0
  C  C95  1  0.34883827  0.37973551  0.34604234  1.0
  C  C96  1  0.68535697  0.70754046  0.55777740  1.0
  C  C97  1  0.69887528  0.66720017  0.50840728  1.0
  C  C98  1  0.78676290  0.70179357  0.44447483  1.0
  C  C99  1  0.85442919  0.77392298  0.43296120  1.0
  C  C100  1  0.83953858  0.81512697  0.48244618  1.0
  C  C101  1  0.75289584  0.77896888  0.54610843  1.0
  C  C102  1  0.69320832  0.78783750  0.61657807  1.0
  C  C103  1  0.69276729  0.47503588  0.24650850  1.0
  C  C104  1  0.61663084  0.70819982  0.62798282  1.0
  C  C105  1  0.70297057  0.54527403  0.27746216  1.0
  C  C106  1  0.77971548  0.53730290  0.28916725  1.0
  C  C107  1  0.84736651  0.61473862  0.19198502  1.0
  C  C108  1  0.29800368  0.33210693  0.80898915  1.0
  C  C109  1  0.84851520  0.82229084  0.89000365  1.0
  C  C110  1  0.16382754  0.04754082  0.65439573  1.0
  C  C111  1  0.32249217  0.44845749  0.34361202  1.0
  C  C112  1  0.80643093  0.66239309  0.38763686  1.0
  C  C113  1  0.93082233  0.69228129  0.16266323  1.0
  Br  Br114  1  0.18731230  0.29120665  0.73801795  1.0
  Br  Br115  1  0.04071221  0.27455771  0.92227889  1.0
  Br  Br116  1  0.06037105  0.80305197  0.89982264  1.0
  Br  Br117  1  0.47558333  0.43897194  0.25689598  1.0
  Br  Br118  1  0.54821414  0.60214778  0.74409800  1.0
  Br  Br119  1  0.53689510  0.73841825  0.59507781  1.0
  O  O120  1  0.02668221  0.43970483  0.08454128  1.0
  O  O121  1  0.42135233  0.33925038  0.56771133  1.0
  O  O122  1  0.59806246  0.58980551  0.32370617  1.0
  O  O123  1  0.59970825  0.48221768  0.42508626  1.0
  O  O124  1  0.59716597  0.62344953  0.46442633  1.0
  O  O125  1  0.59775544  0.51652612  0.56739840  1.0
  O  O126  1  0.41857916  0.58524717  0.50368123  1.0
  O  O127  1  0.41760139  0.47792831  0.60760358  1.0
  O  O128  1  0.88614487  0.92449251  0.51690962  1.0
  O  O129  1  0.99061235  0.92011286  0.41507131  1.0
  O  O130  1  0.92607138  0.09469272  0.48856056  1.0
  O  O131  1  0.90969219  0.33291873  0.10016773  1.0
  O  O132  1  0.04132375  0.10462510  0.38407008  1.0
  O  O133  1  0.06198590  0.07521541  0.54595378  1.0
  O  O134  1  0.16406380  0.07430876  0.43790060  1.0
  O  O135  1  0.90757215  0.90312724  0.66875051  1.0
  O  O136  1  0.00817302  0.89713849  0.56446515  1.0
  O  O137  1  0.98633556  0.58394647  0.07624695  1.0
  O  O138  1  0.87714186  0.47842570  0.08126443  1.0
  O  O139  1  0.01619747  0.60901574  0.90529101  1.0
  O  O140  1  0.91158220  0.49976818  0.90995004  1.0
  O  O141  1  0.16041294  0.58110211  0.89756986  1.0
  O  O142  1  0.05485568  0.46456626  0.91129328  1.0
  O  O143  1  0.41730450  0.44124273  0.46313231  1.0
