# generated using pymatgen
data_AlH8C12O5F
_symmetry_space_group_name_H-M   'P 1'
_cell_length_a   6.67936158
_cell_length_b   11.10829762
_cell_length_c   15.26336733
_cell_angle_alpha   89.95007186
_cell_angle_beta   79.00906680
_cell_angle_gamma   72.78173892
_symmetry_Int_Tables_number   1
_chemical_formula_structural   AlH8C12O5F
_chemical_formula_sum   'Al2 H16 C24 O10 F2'
_cell_volume   1060.02461200
_cell_formula_units_Z   2
loop_
 _symmetry_equiv_pos_site_id
 _symmetry_equiv_pos_as_xyz
  1  'x, y, z'
loop_
 _atom_site_type_symbol
 _atom_site_label
 _atom_site_symmetry_multiplicity
 _atom_site_fract_x
 _atom_site_fract_y
 _atom_site_fract_z
 _atom_site_occupancy
  Al  Al0  1  0.99998812  0.50000378  0.50000840  1.0
  Al  Al1  1  0.49999309  0.49999746  0.49999964  1.0
  H  H2  1  0.33312514  0.42731599  0.39218905  1.0
  H  H3  1  0.66685592  0.57267524  0.60781826  1.0
  H  H4  1  0.74639875  0.88372468  0.55922490  1.0
  H  H5  1  0.25359049  0.11627133  0.44075276  1.0
  H  H6  1  0.32753011  0.54374469  0.94356589  1.0
  H  H7  1  0.67252234  0.45622692  0.05644422  1.0
  H  H8  1  0.14212627  0.56504613  0.23726408  1.0
  H  H9  1  0.24444697  0.55624954  0.07406325  1.0
  H  H10  1  0.85787232  0.43496417  0.76274898  1.0
  H  H11  1  0.75556160  0.44374462  0.92594598  1.0
  H  H12  1  0.46586894  0.06413678  0.59851255  1.0
  H  H13  1  0.52665499  0.20378301  0.62584063  1.0
  H  H14  1  0.46238259  0.18543837  0.52180274  1.0
  H  H15  1  0.53762115  0.81456630  0.47817945  1.0
  H  H16  1  0.47334146  0.79621200  0.37413487  1.0
  H  H17  1  0.53410971  0.93586767  0.40146390  1.0
  C  C18  1  0.80410637  0.51960378  0.33994790  1.0
  C  C19  1  0.86820847  0.27166222  0.49427263  1.0
  C  C20  1  0.19588718  0.48040927  0.66006266  1.0
  C  C21  1  0.13179102  0.72833982  0.50571678  1.0
  C  C22  1  0.92876345  0.13158036  0.49882276  1.0
  C  C23  1  0.07124281  0.86841391  0.50115883  1.0
  C  C24  1  0.77839801  0.06815250  0.53340338  1.0
  C  C25  1  0.22160143  0.93184177  0.46657888  1.0
  C  C26  1  0.85631657  0.93676502  0.53311940  1.0
  C  C27  1  0.14367718  0.06323319  0.46686832  1.0
  C  C28  1  0.14854240  0.48095934  0.75959335  1.0
  C  C29  1  0.85145391  0.51905001  0.24041937  1.0
  C  C30  1  0.27610208  0.50993557  0.81439819  1.0
  C  C31  1  0.22052870  0.51753796  0.90696630  1.0
  C  C32  1  0.72389710  0.49006811  0.18561438  1.0
  C  C33  1  0.77948591  0.48244128  0.09304883  1.0
  C  C34  1  0.03955481  0.54269579  0.19634316  1.0
  C  C35  1  0.09664376  0.53676209  0.10384464  1.0
  C  C36  1  0.96045440  0.45730779  0.80366550  1.0
  C  C37  1  0.90337710  0.46324065  0.89616670  1.0
  C  C38  1  0.03104972  0.49487252  0.95053583  1.0
  C  C39  1  0.96897862  0.50510186  0.04947395  1.0
  C  C40  1  0.54610958  0.13335494  0.57184394  1.0
  C  C41  1  0.45389614  0.86665138  0.42813068  1.0
  O  O42  1  0.96219661  0.50823528  0.37797148  1.0
  O  O43  1  0.67905304  0.32856629  0.48379299  1.0
  O  O44  1  0.38630647  0.47030959  0.62089228  1.0
  O  O45  1  0.98832638  0.67559548  0.50057401  1.0
  O  O46  1  0.03779036  0.49177503  0.62204244  1.0
  O  O47  1  0.32093919  0.67143959  0.51619881  1.0
  O  O48  1  0.61368498  0.52970144  0.37911355  1.0
  O  O49  1  0.01166675  0.32440879  0.49942712  1.0
  O  O50  1  0.29391007  0.44940808  0.45592396  1.0
  O  O51  1  0.70607189  0.55058409  0.54408353  1.0
  F  F52  1  0.46019722  0.53648052  0.77843466  1.0
  F  F53  1  0.53979368  0.46353057  0.22157328  1.0
