# generated using pymatgen
data_ZnH16C24S2(NO)4
_symmetry_space_group_name_H-M   'P 1'
_cell_length_a   7.51002478
_cell_length_b   15.19388825
_cell_length_c   15.78311838
_cell_angle_alpha   64.23955958
_cell_angle_beta   76.29129390
_cell_angle_gamma   75.74285180
_symmetry_Int_Tables_number   1
_chemical_formula_structural   ZnH16C24S2(NO)4
_chemical_formula_sum   'Zn2 H32 C48 S4 N8 O8'
_cell_volume   1554.49954476
_cell_formula_units_Z   2
loop_
 _symmetry_equiv_pos_site_id
 _symmetry_equiv_pos_as_xyz
  1  'x, y, z'
loop_
 _atom_site_type_symbol
 _atom_site_label
 _atom_site_symmetry_multiplicity
 _atom_site_fract_x
 _atom_site_fract_y
 _atom_site_fract_z
 _atom_site_occupancy
  Zn  Zn0  1  0.00885995  0.75026257  0.25032283  1.0
  Zn  Zn1  1  0.99110705  0.24975376  0.74966708  1.0
  H  H2  1  0.61353415  0.82566589  0.02333535  1.0
  H  H3  1  0.46261469  0.67416135  0.47720774  1.0
  H  H4  1  0.38658540  0.17428107  0.97669092  1.0
  H  H5  1  0.53738726  0.32586167  0.52276304  1.0
  H  H6  1  0.08304911  0.03788430  0.14753398  1.0
  H  H7  1  0.26760419  0.46219672  0.35244607  1.0
  H  H8  1  0.91700710  0.96209354  0.85246970  1.0
  H  H9  1  0.73239180  0.53784045  0.64751803  1.0
  H  H10  1  0.01257674  0.04103545  0.04802688  1.0
  H  H11  1  0.10108713  0.45897119  0.45196969  1.0
  H  H12  1  0.98755128  0.95892828  0.95196664  1.0
  H  H13  1  0.89891385  0.54105485  0.54799877  1.0
  H  H14  1  0.08839952  0.14706228  0.04015112  1.0
  H  H15  1  0.27482800  0.35301719  0.45979558  1.0
  H  H16  1  0.91172501  0.85290386  0.95983742  1.0
  H  H17  1  0.72518250  0.64700928  0.54016341  1.0
  H  H18  1  0.10121192  0.70143399  0.07911983  1.0
  H  H19  1  0.88132222  0.79941049  0.42129414  1.0
  H  H20  1  0.89875194  0.29856664  0.92087900  1.0
  H  H21  1  0.11866865  0.20058700  0.57870988  1.0
  H  H22  1  0.95584006  0.62313982  0.00522176  1.0
  H  H23  1  0.58386134  0.87765395  0.49496944  1.0
  H  H24  1  0.04412979  0.37685921  0.99478019  1.0
  H  H25  1  0.41612295  0.12231721  0.50505305  1.0
  H  H26  1  0.50886415  0.58086462  0.24342992  1.0
  H  H27  1  0.33322584  0.91975678  0.25644084  1.0
  H  H28  1  0.49107293  0.41915521  0.75656325  1.0
  H  H29  1  0.66666667  0.08022714  0.74358943  1.0
  H  H30  1  0.67806944  0.65060681  0.30941720  1.0
  H  H31  1  0.63809292  0.85021109  0.19062448  1.0
  H  H32  1  0.32186390  0.34942891  0.69056266  1.0
  H  H33  1  0.36187095  0.14980607  0.80937941  1.0
  C  C34  1  0.27034945  0.84624020  0.10353051  1.0
  C  C35  1  0.21936705  0.65384442  0.39721644  1.0
  C  C36  1  0.72973987  0.15372415  0.89648166  1.0
  C  C37  1  0.78060022  0.34617100  0.60277760  1.0
  C  C38  1  0.38135487  0.92922160  0.04891849  1.0
  C  C39  1  0.35909545  0.57079300  0.45140802  1.0
  C  C40  1  0.61876051  0.07072976  0.95110718  1.0
  C  C41  1  0.64090495  0.42922636  0.54856307  1.0
  C  C42  1  0.31070312  0.02880120  0.03619573  1.0
  C  C43  1  0.37520981  0.47128704  0.46381949  1.0
  C  C44  1  0.68940267  0.97115019  0.96382910  1.0
  C  C45  1  0.62479801  0.52873901  0.53614884  1.0
  C  C46  1  0.56626857  0.90324265  0.01247825  1.0
  C  C47  1  0.48207835  0.59664955  0.48779771  1.0
  C  C48  1  0.43384775  0.09670589  0.98754524  1.0
  C  C49  1  0.51792518  0.40337294  0.51216865  1.0
  C  C50  1  0.11331919  0.06585511  0.06962016  1.0
  C  C51  1  0.24808788  0.43422107  0.43036079  1.0
  C  C52  1  0.88678105  0.93410947  0.93038690  1.0
  C  C53  1  0.75191630  0.56580357  0.56960658  1.0
  C  C54  1  0.97101114  0.67233886  0.11211629  1.0
  C  C55  1  0.75518142  0.82854489  0.38816115  1.0
  C  C56  1  0.02894759  0.32766916  0.88788028  1.0
  C  C57  1  0.24480110  0.17146137  0.61184232  1.0
  C  C58  1  0.89001200  0.62986946  0.07189443  1.0
  C  C59  1  0.59151161  0.87091457  0.42826963  1.0
  C  C60  1  0.10995317  0.37013557  0.92810384  1.0
  C  C61  1  0.40846935  0.12907941  0.57174761  1.0
  C  C62  1  0.71951076  0.59659998  0.11739426  1.0
  C  C63  1  0.43341103  0.90407202  0.38259315  1.0
  C  C64  1  0.28044983  0.40340645  0.88260525  1.0
  C  C65  1  0.56656352  0.09592461  0.61743014  1.0
  C  C66  1  0.64159823  0.60417755  0.20461555  1.0
  C  C67  1  0.45037092  0.89654090  0.29533279  1.0
  C  C68  1  0.35835490  0.39583914  0.79538275  1.0
  C  C69  1  0.54958738  0.10345937  0.70469026  1.0
  C  C70  1  0.73400593  0.64506579  0.24123828  1.0
  C  C71  1  0.62026849  0.85577220  0.25881921  1.0
  C  C72  1  0.26594490  0.35496238  0.75874761  1.0
  C  C73  1  0.37969160  0.14423972  0.74118775  1.0
  C  C74  1  0.62850424  0.55696671  0.07320467  1.0
  C  C75  1  0.25861993  0.94346017  0.42674790  1.0
  C  C76  1  0.37145214  0.44304432  0.92678973  1.0
  C  C77  1  0.74136303  0.05652735  0.57328366  1.0
  C  C78  1  0.58122739  0.51267239  0.96740628  1.0
  C  C79  1  0.06124467  0.98726463  0.53270181  1.0
  C  C80  1  0.41872668  0.48734145  0.03259047  1.0
  C  C81  1  0.93874707  0.01272957  0.46732684  1.0
  S  S82  1  0.41444191  0.51493697  0.12787027  1.0
  S  S83  1  0.05739741  0.98554535  0.37188540  1.0
  S  S84  1  0.58552355  0.48507574  0.87211931  1.0
  S  S85  1  0.94258136  0.01444658  0.62814493  1.0
  N  N86  1  0.89359350  0.68073473  0.19522938  1.0
  N  N87  1  0.76933340  0.82012493  0.30501352  1.0
  N  N88  1  0.10636046  0.31928384  0.80475922  1.0
  N  N89  1  0.23064526  0.17989325  0.69498390  1.0
  N  N90  1  0.69795278  0.55089140  0.99007215  1.0
  N  N91  1  0.23877490  0.94924142  0.51003896  1.0
  N  N92  1  0.30200625  0.44912424  0.00991702  1.0
  N  N93  1  0.76120506  0.05074702  0.48998814  1.0
  O  O94  1  0.13068367  0.86304847  0.16455317  1.0
  O  O95  1  0.15697462  0.63721258  0.33615538  1.0
  O  O96  1  0.86942102  0.13692733  0.83546367  1.0
  O  O97  1  0.84296666  0.36280262  0.66384354  1.0
  O  O98  1  0.31659237  0.76721373  0.09125956  1.0
  O  O99  1  0.17466791  0.73274657  0.40971494  1.0
  O  O100  1  0.68344582  0.23276071  0.90873856  1.0
  O  O101  1  0.82531096  0.26727108  0.59027822  1.0
