# generated using pymatgen
data_AlH9C20Cl4O5
_symmetry_space_group_name_H-M   'P 1'
_cell_length_a   6.63078142
_cell_length_b   25.33689471
_cell_length_c   29.18136121
_cell_angle_alpha   89.99972132
_cell_angle_beta   90.00522107
_cell_angle_gamma   89.99079230
_symmetry_Int_Tables_number   1
_chemical_formula_structural   AlH9C20Cl4O5
_chemical_formula_sum   'Al4 H36 C80 Cl16 O20'
_cell_volume   4902.56812795
_cell_formula_units_Z   4
loop_
 _symmetry_equiv_pos_site_id
 _symmetry_equiv_pos_as_xyz
  1  'x, y, z'
loop_
 _atom_site_type_symbol
 _atom_site_label
 _atom_site_symmetry_multiplicity
 _atom_site_fract_x
 _atom_site_fract_y
 _atom_site_fract_z
 _atom_site_occupancy
  Al  Al0  1  0.79965333  0.74861825  0.74997808  1.0
  Al  Al1  1  0.20034797  0.25138171  0.25002181  1.0
  Al  Al2  1  0.29965980  0.75135542  0.74999567  1.0
  Al  Al3  1  0.70034150  0.24864336  0.25000421  1.0
  H  H4  1  0.19334391  0.36983434  0.45494698  1.0
  H  H5  1  0.80666644  0.63016997  0.54505051  1.0
  H  H6  1  0.80542348  0.62998009  0.95473597  1.0
  H  H7  1  0.19458988  0.37002382  0.04526358  1.0
  H  H8  1  0.69599870  0.12962097  0.04550886  1.0
  H  H9  1  0.30398601  0.87037820  0.95449343  1.0
  H  H10  1  0.30669364  0.86986554  0.54504859  1.0
  H  H11  1  0.69330313  0.13013561  0.45494958  1.0
  H  H12  1  0.73721388  0.46546723  0.38965408  1.0
  H  H13  1  0.26279195  0.53453392  0.61034033  1.0
  H  H14  1  0.26433704  0.53484732  0.88993218  1.0
  H  H15  1  0.73565522  0.46515106  0.11006668  1.0
  H  H16  1  0.23342483  0.03527723  0.10979581  1.0
  H  H17  1  0.76656289  0.96472273  0.89020648  1.0
  H  H18  1  0.76261191  0.96547460  0.61040550  1.0
  H  H19  1  0.23739542  0.03452259  0.38959404  1.0
  H  H20  1  0.93857125  0.52957177  0.42013980  1.0
  H  H21  1  0.06143457  0.47043134  0.57985495  1.0
  H  H22  1  0.06292358  0.47049018  0.92018866  1.0
  H  H23  1  0.93708224  0.52951215  0.07981123  1.0
  H  H24  1  0.43349277  0.97056432  0.07967869  1.0
  H  H25  1  0.56649647  0.02943761  0.92032257  1.0
  H  H26  1  0.56164428  0.02957813  0.57984245  1.0
  H  H27  1  0.43836003  0.97042223  0.42015847  1.0
  H  H28  1  0.96502822  0.59532658  0.48202186  1.0
  H  H29  1  0.03497911  0.40467812  0.51797289  1.0
  H  H30  1  0.03648080  0.40471178  0.98204997  1.0
  H  H31  1  0.96353106  0.59529173  0.01795061  1.0
  H  H32  1  0.46066599  0.90476581  0.01785580  1.0
  H  H33  1  0.53932475  0.09523573  0.98214546  1.0
  H  H34  1  0.53510388  0.09531970  0.51796002  1.0
  H  H35  1  0.46489742  0.90468026  0.48204090  1.0
  H  H36  1  0.54269632  0.68020193  0.74991128  1.0
  H  H37  1  0.45730649  0.31979764  0.25008964  1.0
  H  H38  1  0.04261858  0.81976724  0.74997427  1.0
  H  H39  1  0.95738573  0.18023154  0.25002527  1.0
  C  C40  1  0.55203419  0.81265443  0.68717689  1.0
  C  C41  1  0.44795655  0.18734434  0.31282232  1.0
  C  C42  1  0.44756544  0.18737262  0.18718458  1.0
  C  C43  1  0.55242982  0.81262616  0.81281668  1.0
  C  C44  1  0.05239759  0.68733699  0.81281089  1.0
  C  C45  1  0.94760371  0.31266218  0.18718694  1.0
  C  C46  1  0.94781232  0.31266470  0.31283633  1.0
  C  C47  1  0.05219652  0.68733368  0.68716356  1.0
  C  C48  1  0.07772465  0.34157138  0.39096313  1.0
  C  C49  1  0.92228569  0.65842977  0.60903573  1.0
  C  C50  1  0.92166819  0.65833003  0.89084574  1.0
  C  C51  1  0.07833763  0.34167032  0.10915312  1.0
  C  C52  1  0.57909623  0.15816040  0.10926721  1.0
  C  C53  1  0.42089753  0.84183877  0.89073474  1.0
  C  C54  1  0.42214707  0.84159079  0.60904504  1.0
  C  C55  1  0.57784518  0.15840878  0.39095383  1.0
  C  C56  1  0.08761263  0.37733372  0.42715496  1.0
  C  C57  1  0.91239620  0.62266861  0.57284253  1.0
  C  C58  1  0.91172186  0.62257242  0.92704944  1.0
  C  C59  1  0.08828246  0.37742991  0.07295148  1.0
  C  C60  1  0.58893896  0.12238754  0.07308442  1.0
  C  C61  1  0.41105028  0.87761242  0.92691753  1.0
  C  C62  1  0.41236873  0.87735694  0.57285012  1.0
  C  C63  1  0.58762804  0.12264263  0.42714908  1.0
  C  C64  1  0.96868833  0.42304633  0.42702228  1.0
  C  C65  1  0.03132202  0.57695600  0.57297418  1.0
  C  C66  1  0.03137302  0.57699794  0.92704368  1.0
  C  C67  1  0.96862827  0.42300360  0.07295689  1.0
  C  C68  1  0.46819433  0.07702519  0.07293792  1.0
  C  C69  1  0.53179038  0.92297438  0.92706334  1.0
  C  C70  1  0.53130347  0.92305085  0.57299074  1.0
  C  C71  1  0.46869632  0.07694911  0.42700812  1.0
  C  C72  1  0.83571468  0.43110030  0.39037258  1.0
  C  C73  1  0.16429416  0.56890006  0.60962354  1.0
  C  C74  1  0.16521336  0.56909550  0.89053301  1.0
  C  C75  1  0.83478040  0.43090446  0.10946551  1.0
  C  C76  1  0.33337135  0.06935470  0.10929481  1.0
  C  C77  1  0.66666667  0.93064408  0.89070679  1.0
  C  C78  1  0.66413450  0.93110698  0.60967048  1.0
  C  C79  1  0.33586529  0.06889061  0.39032838  1.0
  C  C80  1  0.82505171  0.39484423  0.35456969  1.0
  C  C81  1  0.17495260  0.60515415  0.64542780  1.0
  C  C82  1  0.17597837  0.60535120  0.85473574  1.0
  C  C83  1  0.82401539  0.39464758  0.14526210  1.0
  C  C84  1  0.32275175  0.10561183  0.14509856  1.0
  C  C85  1  0.67723597  0.89438814  0.85490441  1.0
  C  C86  1  0.67462188  0.89486916  0.64548539  1.0
  C  C87  1  0.32537490  0.10512764  0.35451484  1.0
  C  C88  1  0.94804766  0.34947794  0.35320316  1.0
  C  C89  1  0.05195967  0.65052123  0.64679535  1.0
  C  C90  1  0.05215167  0.65055440  0.85320554  1.0
  C  C91  1  0.94785415  0.34944359  0.14679367  1.0
  C  C92  1  0.44768449  0.15060199  0.14678142  1.0
  C  C93  1  0.55230625  0.84939758  0.85322121  1.0
  C  C94  1  0.55173263  0.84949663  0.64682232  1.0
  C  C95  1  0.44825962  0.15050255  0.35317723  1.0
  C  C96  1  0.96231573  0.51633540  0.45531388  1.0
  C  C97  1  0.03769009  0.48366811  0.54468019  1.0
  C  C98  1  0.03852516  0.48370123  0.95534611  1.0
  C  C99  1  0.96147764  0.51630268  0.04465515  1.0
  C  C100  1  0.45953127  0.98375073  0.04457672  1.0
  C  C101  1  0.54045645  0.01625002  0.95542420  1.0
  C  C102  1  0.53781008  0.01633730  0.54467667  1.0
  C  C103  1  0.46219122  0.98366148  0.45532390  1.0
  C  C104  1  0.97763092  0.55345494  0.49024574  1.0
  C  C105  1  0.02237792  0.44654818  0.50975072  1.0
  C  C106  1  0.02322115  0.44656581  0.99026294  1.0
  C  C107  1  0.97678619  0.55343454  0.00973832  1.0
  C  C108  1  0.47521244  0.94660435  0.00967883  1.0
  C  C109  1  0.52477529  0.05339640  0.99032277  1.0
  C  C110  1  0.52245106  0.05345180  0.50974267  1.0
  C  C111  1  0.47755024  0.94654935  0.49025722  1.0
  C  C112  1  0.01579818  0.53786179  0.53564118  1.0
  C  C113  1  0.98420764  0.46214330  0.46435186  1.0
  C  C114  1  0.98420606  0.46212063  0.03563437  1.0
  C  C115  1  0.01579977  0.53788249  0.96436450  1.0
  C  C116  1  0.51614743  0.96210924  0.96437745  1.0
  C  C117  1  0.48383879  0.03789270  0.03562347  1.0
  C  C118  1  0.48415710  0.03785616  0.46434645  1.0
  C  C119  1  0.51584420  0.96214420  0.53565412  1.0
  Cl  Cl120  1  0.22876958  0.28614724  0.39484063  1.0
  Cl  Cl121  1  0.77124831  0.71385548  0.60515789  1.0
  Cl  Cl122  1  0.76970447  0.71359853  0.89457891  1.0
  Cl  Cl123  1  0.23030588  0.28640340  0.10541824  1.0
  Cl  Cl124  1  0.73237759  0.21317454  0.10564124  1.0
  Cl  Cl125  1  0.26761617  0.78682384  0.89436071  1.0
  Cl  Cl126  1  0.27108776  0.78618485  0.60515257  1.0
  Cl  Cl127  1  0.72890298  0.21381511  0.39484458  1.0
  Cl  Cl128  1  0.65839030  0.40953260  0.31068253  1.0
  Cl  Cl129  1  0.34160346  0.59046263  0.68931599  1.0
  Cl  Cl130  1  0.34408787  0.59086204  0.81108760  1.0
  Cl  Cl131  1  0.65590740  0.40913595  0.18891023  1.0
  Cl  Cl132  1  0.15343601  0.09133741  0.18855422  1.0
  Cl  Cl133  1  0.84655322  0.90866374  0.81144807  1.0
  Cl  Cl134  1  0.84078810  0.90959089  0.68945805  1.0
  Cl  Cl135  1  0.15920717  0.09040592  0.31054081  1.0
  O  O136  1  0.38107113  0.80145871  0.79604438  1.0
  O  O137  1  0.61892716  0.19854125  0.20395619  1.0
  O  O138  1  0.61935174  0.19867923  0.29617088  1.0
  O  O139  1  0.38063749  0.80131875  0.70382832  1.0
  O  O140  1  0.88076428  0.69866128  0.70381087  1.0
  O  O141  1  0.11924456  0.30133749  0.29618833  1.0
  O  O142  1  0.11894051  0.30148368  0.20396370  1.0
  O  O143  1  0.88106532  0.69851589  0.79603516  1.0
  O  O144  1  0.72156166  0.79679366  0.70175777  1.0
  O  O145  1  0.27842908  0.20320669  0.29824314  1.0
  O  O146  1  0.27811320  0.20336103  0.20170514  1.0
  O  O147  1  0.72188508  0.79663972  0.79829646  1.0
  O  O148  1  0.22188291  0.70330987  0.79831305  1.0
  O  O149  1  0.77812593  0.29668890  0.20168615  1.0
  O  O150  1  0.77833311  0.29681361  0.29823134  1.0
  O  O151  1  0.22167271  0.70318319  0.70176889  1.0
  O  O152  1  0.54752856  0.71839834  0.74998637  1.0
  O  O153  1  0.45247575  0.28160162  0.25001318  1.0
  O  O154  1  0.04749559  0.78156952  0.74998851  1.0
  O  O155  1  0.95250269  0.21843005  0.25001138  1.0
