# generated using pymatgen
data_ZnCo4H12C36N18(Cl2O3)2
_symmetry_space_group_name_H-M   'P 1'
_cell_length_a   22.07485213
_cell_length_b   22.07514485
_cell_length_c   22.07481045
_cell_angle_alpha   60.00016333
_cell_angle_beta   59.99950690
_cell_angle_gamma   60.00056872
_symmetry_Int_Tables_number   1
_chemical_formula_structural   ZnCo4H12C36N18(Cl2O3)2
_chemical_formula_sum   'Zn2 Co8 H24 C72 N36 Cl8 O12'
_cell_volume   7606.48712342
_cell_formula_units_Z   2
loop_
 _symmetry_equiv_pos_site_id
 _symmetry_equiv_pos_as_xyz
  1  'x, y, z'
loop_
 _atom_site_type_symbol
 _atom_site_label
 _atom_site_symmetry_multiplicity
 _atom_site_fract_x
 _atom_site_fract_y
 _atom_site_fract_z
 _atom_site_occupancy
  Zn  Zn0  1  0.74999760  0.75000580  0.74999624  1.0
  Zn  Zn1  1  0.25000113  0.24999317  0.25000619  1.0
  Co  Co2  1  0.81425950  0.81426041  0.55722320  1.0
  Co  Co3  1  0.81425544  0.81425775  0.81425391  1.0
  Co  Co4  1  0.81425315  0.55724276  0.81425066  1.0
  Co  Co5  1  0.55723177  0.81425807  0.81425503  1.0
  Co  Co6  1  0.18574275  0.18574297  0.18574520  1.0
  Co  Co7  1  0.18574258  0.18573901  0.44277733  1.0
  Co  Co8  1  0.18574727  0.44275250  0.18575142  1.0
  Co  Co9  1  0.44276975  0.18574049  0.18574576  1.0
  H  H10  1  0.68992024  0.92505329  0.45997263  1.0
  H  H11  1  0.92505425  0.68991586  0.92505428  1.0
  H  H12  1  0.92505109  0.45998078  0.92504814  1.0
  H  H13  1  0.45997650  0.92505158  0.68992217  1.0
  H  H14  1  0.92504839  0.45998562  0.68991889  1.0
  H  H15  1  0.68991735  0.92505581  0.92505133  1.0
  H  H16  1  0.45997421  0.92505625  0.92505278  1.0
  H  H17  1  0.92505658  0.68991457  0.45997117  1.0
  H  H18  1  0.45997433  0.68991391  0.92505429  1.0
  H  H19  1  0.92505086  0.92505329  0.68991691  1.0
  H  H20  1  0.92505535  0.92505676  0.45997075  1.0
  H  H21  1  0.68991654  0.45998131  0.92505001  1.0
  H  H22  1  0.31008140  0.07495204  0.07494303  1.0
  H  H23  1  0.07494494  0.31008399  0.54003687  1.0
  H  H24  1  0.07494648  0.54001411  0.31008464  1.0
  H  H25  1  0.54002454  0.07494428  0.07495067  1.0
  H  H26  1  0.07494711  0.54001731  0.07494911  1.0
  H  H27  1  0.31008516  0.07494293  0.54003237  1.0
  H  H28  1  0.54002391  0.07494526  0.31008230  1.0
  H  H29  1  0.07494505  0.31008501  0.07494148  1.0
  H  H30  1  0.54003052  0.31008145  0.07494598  1.0
  H  H31  1  0.07494673  0.07494109  0.54003057  1.0
  H  H32  1  0.07494678  0.07495232  0.31008003  1.0
  H  H33  1  0.31008388  0.54001343  0.07494871  1.0
  C  C34  1  0.64575933  0.88636207  0.58151836  1.0
  C  C35  1  0.64102857  0.92458638  0.50979663  1.0
  C  C36  1  0.57030885  0.96205293  0.50558518  1.0
  C  C37  1  0.88636124  0.64575781  0.88636162  1.0
  C  C38  1  0.92458388  0.64103432  0.92458360  1.0
  C  C39  1  0.96205695  0.57030167  0.96205572  1.0
  C  C40  1  0.88636066  0.58152486  0.88635913  1.0
  C  C41  1  0.92458659  0.50980477  0.92458592  1.0
  C  C42  1  0.96205083  0.50558934  0.96205062  1.0
  C  C43  1  0.58151918  0.88636413  0.64575527  1.0
  C  C44  1  0.50980691  0.92458312  0.64102787  1.0
  C  C45  1  0.50558769  0.96205212  0.57030957  1.0
  C  C46  1  0.88635910  0.58153143  0.64575026  1.0
  C  C47  1  0.92458470  0.50980689  0.64102414  1.0
  C  C48  1  0.96205057  0.50559023  0.57030923  1.0
  C  C49  1  0.64575503  0.88636456  0.88635948  1.0
  C  C50  1  0.64102759  0.92458948  0.92458282  1.0
  C  C51  1  0.57030601  0.96205598  0.96205196  1.0
  C  C52  1  0.58151908  0.88636544  0.88635968  1.0
  C  C53  1  0.50979939  0.92458989  0.92458402  1.0
  C  C54  1  0.50558626  0.96205597  0.96205125  1.0
  C  C55  1  0.88636166  0.64576080  0.58151471  1.0
  C  C56  1  0.92458652  0.64103538  0.50979178  1.0
  C  C57  1  0.96205758  0.57029883  0.50558586  1.0
  C  C58  1  0.58151749  0.64575805  0.88636024  1.0
  C  C59  1  0.50979575  0.64103346  0.92458281  1.0
  C  C60  1  0.50558500  0.57030216  0.96205494  1.0
  C  C61  1  0.88635848  0.88636119  0.64575298  1.0
  C  C62  1  0.92458673  0.92458727  0.64102528  1.0
  C  C63  1  0.96205241  0.96205352  0.57030532  1.0
  C  C64  1  0.88636047  0.88636388  0.58151860  1.0
  C  C65  1  0.92458849  0.92458975  0.50979349  1.0
  C  C66  1  0.96205385  0.96205588  0.50558531  1.0
  C  C67  1  0.64575287  0.58152997  0.88635694  1.0
  C  C68  1  0.64102279  0.50980217  0.92458563  1.0
  C  C69  1  0.57030693  0.50559021  0.96205030  1.0
  C  C70  1  0.35424373  0.11363806  0.11364021  1.0
  C  C71  1  0.35897060  0.07541751  0.07541134  1.0
  C  C72  1  0.42969385  0.03794679  0.03794574  1.0
  C  C73  1  0.11363543  0.35423976  0.41849545  1.0
  C  C74  1  0.07541389  0.35897715  0.49020213  1.0
  C  C75  1  0.03794839  0.42969249  0.49441496  1.0
  C  C76  1  0.11364354  0.41846362  0.35424946  1.0
  C  C77  1  0.07541240  0.49019838  0.35897188  1.0
  C  C78  1  0.03794595  0.49441104  0.42969633  1.0
  C  C79  1  0.41848022  0.11363439  0.11364158  1.0
  C  C80  1  0.49019937  0.07541064  0.07541490  1.0
  C  C81  1  0.49441193  0.03794841  0.03794739  1.0
  C  C82  1  0.11364363  0.41846441  0.11364447  1.0
  C  C83  1  0.07541160  0.49020275  0.07541160  1.0
  C  C84  1  0.03794793  0.49441067  0.03794584  1.0
  C  C85  1  0.35424441  0.11363575  0.41848169  1.0
  C  C86  1  0.35897129  0.07541169  0.49020705  1.0
  C  C87  1  0.42969489  0.03794594  0.49441480  1.0
  C  C88  1  0.41847680  0.11363628  0.35424736  1.0
  C  C89  1  0.49019961  0.07541221  0.35897430  1.0
  C  C90  1  0.49441218  0.03794647  0.42969475  1.0
  C  C91  1  0.11363418  0.35424383  0.11363434  1.0
  C  C92  1  0.07541597  0.35897369  0.07541194  1.0
  C  C93  1  0.03794680  0.42969667  0.03794316  1.0
  C  C94  1  0.41849180  0.35424054  0.11363529  1.0
  C  C95  1  0.49019578  0.35897366  0.07541552  1.0
  C  C96  1  0.49441376  0.42969157  0.03794783  1.0
  C  C97  1  0.11363772  0.11363422  0.41848589  1.0
  C  C98  1  0.07541525  0.07541226  0.49019948  1.0
  C  C99  1  0.03794767  0.03794739  0.49441358  1.0
  C  C100  1  0.11363916  0.11363971  0.35424496  1.0
  C  C101  1  0.07541258  0.07541673  0.35897254  1.0
  C  C102  1  0.03794689  0.03794840  0.42969173  1.0
  C  C103  1  0.35424532  0.41846447  0.11364531  1.0
  C  C104  1  0.35897375  0.49020014  0.07541034  1.0
  C  C105  1  0.42969404  0.49441063  0.03794736  1.0
  N  N106  1  0.70543198  0.84450404  0.60556430  1.0
  N  N107  1  0.84450228  0.70543102  0.84450157  1.0
  N  N108  1  0.84449972  0.60557572  0.84449873  1.0
  N  N109  1  0.60557362  0.84450197  0.70542696  1.0
  N  N110  1  0.84449876  0.60557965  0.70542153  1.0
  N  N111  1  0.70542801  0.84450560  0.84449802  1.0
  N  N112  1  0.60556738  0.84450567  0.84449896  1.0
  N  N113  1  0.84450293  0.70543580  0.60555819  1.0
  N  N114  1  0.60556281  0.70543293  0.84450034  1.0
  N  N115  1  0.84449812  0.84450348  0.70542581  1.0
  N  N116  1  0.84450140  0.84450482  0.60556217  1.0
  N  N117  1  0.70542311  0.60557525  0.84449932  1.0
  N  N118  1  0.29457241  0.15549542  0.15550073  1.0
  N  N119  1  0.15549971  0.29456134  0.39444366  1.0
  N  N120  1  0.15549831  0.39441987  0.29458236  1.0
  N  N121  1  0.39443081  0.15549453  0.15550403  1.0
  N  N122  1  0.15549568  0.39442645  0.15549969  1.0
  N  N123  1  0.29456844  0.15549384  0.39443919  1.0
  N  N124  1  0.39442956  0.15549499  0.29457380  1.0
  N  N125  1  0.15549758  0.29456600  0.15549946  1.0
  N  N126  1  0.39443649  0.29456323  0.15550185  1.0
  N  N127  1  0.15550013  0.15549583  0.39443576  1.0
  N  N128  1  0.15550118  0.15549844  0.29457486  1.0
  N  N129  1  0.29457842  0.39442226  0.15550018  1.0
  N  N130  1  0.67975122  0.82025652  0.67974262  1.0
  N  N131  1  0.82025454  0.67975156  0.82025178  1.0
  N  N132  1  0.82025302  0.67975568  0.67973738  1.0
  N  N133  1  0.67974497  0.82025917  0.82025027  1.0
  N  N134  1  0.67974149  0.67975180  0.82025132  1.0
  N  N135  1  0.82025206  0.82025721  0.67974057  1.0
  N  N136  1  0.32025324  0.17974102  0.17975181  1.0
  N  N137  1  0.17974573  0.32024328  0.32026595  1.0
  N  N138  1  0.17974310  0.32024882  0.17974823  1.0
  N  N139  1  0.32025085  0.17974029  0.32026058  1.0
  N  N140  1  0.32025947  0.32024538  0.17974908  1.0
  N  N141  1  0.17974947  0.17974344  0.32025872  1.0
  Cl  Cl142  1  0.85422046  0.85422394  0.43734018  1.0
  Cl  Cl143  1  0.85421727  0.85422254  0.85420721  1.0
  Cl  Cl144  1  0.85421410  0.43736383  0.85420798  1.0
  Cl  Cl145  1  0.43735079  0.85422241  0.85420922  1.0
  Cl  Cl146  1  0.14578425  0.14576713  0.14579893  1.0
  Cl  Cl147  1  0.14576663  0.14577891  0.56266024  1.0
  Cl  Cl148  1  0.14579851  0.56263574  0.14579537  1.0
  Cl  Cl149  1  0.56265073  0.14578766  0.14577449  1.0
  O  O150  1  0.56423919  0.00000123  0.43575839  1.0
  O  O151  1  0.00000160  0.56423975  0.00000063  1.0
  O  O152  1  0.00000103  0.43576158  0.99999776  1.0
  O  O153  1  0.43576067  0.99999997  0.56424146  1.0
  O  O154  1  0.99999823  0.43576295  0.56424253  1.0
  O  O155  1  0.56424028  0.00000026  0.00000011  1.0
  O  O156  1  0.43575896  0.00000251  0.99999807  1.0
  O  O157  1  0.99999998  0.56423828  0.43575858  1.0
  O  O158  1  0.43575787  0.56423918  0.00000006  1.0
  O  O159  1  0.99999882  0.99999799  0.56424121  1.0
  O  O160  1  0.99999993  0.00000202  0.43575752  1.0
  O  O161  1  0.56424033  0.43576258  0.99999852  1.0
