# generated using pymatgen
data_Zn4H26C48S3O22
_symmetry_space_group_name_H-M   'P 1'
_cell_length_a   15.43449060
_cell_length_b   15.59229503
_cell_length_c   19.55500745
_cell_angle_alpha   83.74717448
_cell_angle_beta   76.41830521
_cell_angle_gamma   66.35842829
_symmetry_Int_Tables_number   1
_chemical_formula_structural   Zn4H26C48S3O22
_chemical_formula_sum   'Zn4 H26 C48 S3 O22'
_cell_volume   4189.98796836
_cell_formula_units_Z   1
loop_
 _symmetry_equiv_pos_site_id
 _symmetry_equiv_pos_as_xyz
  1  'x, y, z'
loop_
 _atom_site_type_symbol
 _atom_site_label
 _atom_site_symmetry_multiplicity
 _atom_site_fract_x
 _atom_site_fract_y
 _atom_site_fract_z
 _atom_site_occupancy
  Zn  Zn0  1  0.40093862  0.59602504  0.44674181  1.0
  Zn  Zn1  1  0.43613930  0.44154285  0.57313308  1.0
  Zn  Zn2  1  0.55345489  0.57003258  0.54124951  1.0
  Zn  Zn3  1  0.60303574  0.40829884  0.43694176  1.0
  H  H4  1  0.53331017  0.62236877  0.87594358  1.0
  H  H5  1  0.14204302  0.55518356  0.67051066  1.0
  H  H6  1  0.51182317  0.35744439  0.77277762  1.0
  H  H7  1  0.89528220  0.44775077  0.67598918  1.0
  H  H8  1  0.99311681  0.51996525  0.70642025  1.0
  H  H9  1  0.14725204  0.53155178  0.45351296  1.0
  H  H10  1  0.85590548  0.45305875  0.33653305  1.0
  H  H11  1  0.08651514  0.50674362  0.38428491  1.0
  H  H12  1  0.01207617  0.47536325  0.29694451  1.0
  H  H13  1  0.51473063  0.63228278  0.75183294  1.0
  H  H14  1  0.56503506  0.54269511  0.97712489  1.0
  H  H15  1  0.72053226  0.12504594  0.52074954  1.0
  H  H16  1  0.48961377  0.33002113  0.13400038  1.0
  H  H17  1  0.49961888  0.34202219  0.25767891  1.0
  H  H18  1  0.47065497  0.39941346  0.02194295  1.0
  H  H19  1  0.52278190  0.59273594  0.08365875  1.0
  H  H20  1  0.54053159  0.73997943  0.13212778  1.0
  H  H21  1  0.70307005  0.42758688  0.69738221  1.0
  H  H22  1  0.51426748  0.21443739  0.84961115  1.0
  H  H23  1  0.72905803  0.82151693  0.49510177  1.0
  H  H24  1  0.76693940  0.95238120  0.51448930  1.0
  H  H25  1  0.42998780  0.17467296  0.51030632  1.0
  H  H26  1  0.28308073  0.88657534  0.45453626  1.0
  H  H27  1  0.34338000  0.12436584  0.48452482  1.0
  H  H28  1  0.23241358  0.06008837  0.46016836  1.0
  H  H29  1  0.61507432  0.75714805  0.47840143  1.0
  C  C30  1  0.54706986  0.26073180  0.51677088  1.0
  C  C31  1  0.50239791  0.44867255  0.02757858  1.0
  C  C32  1  0.53518898  0.49218467  0.97004065  1.0
  C  C33  1  0.44284062  0.75277892  0.47840627  1.0
  C  C34  1  0.50748490  0.49684913  0.75610986  1.0
  C  C35  1  0.69349310  0.00148633  0.51242997  1.0
  C  C36  1  0.57202575  0.15825553  0.51558225  1.0
  C  C37  1  0.33254024  0.91600907  0.46357809  1.0
  C  C38  1  0.30442188  0.01300001  0.46710594  1.0
  C  C39  1  0.36735405  0.04885320  0.48070199  1.0
  C  C40  1  0.46181848  0.98996600  0.48872679  1.0
  C  C41  1  0.50541477  0.46041797  0.09976496  1.0
  C  C42  1  0.49207038  0.89076634  0.48328181  1.0
  C  C43  1  0.52905488  0.02786392  0.50098378  1.0
  C  C44  1  0.62593510  0.96566347  0.50346077  1.0
  C  C45  1  0.24779515  0.55241559  0.54018261  1.0
  C  C46  1  0.65416132  0.86791053  0.49465587  1.0
  C  C47  1  0.59061302  0.83188826  0.48521808  1.0
  C  C48  1  0.50351642  0.12429755  0.50967014  1.0
  C  C49  1  0.66827906  0.09636818  0.51645671  1.0
  C  C50  1  0.42371622  0.85496398  0.47325968  1.0
  C  C51  1  0.02672983  0.52300229  0.65102530  1.0
  C  C52  1  0.49789633  0.39066320  0.15009835  1.0
  C  C53  1  0.15183074  0.54424430  0.55951655  1.0
  C  C54  1  0.89432613  0.45893185  0.37479057  1.0
  C  C55  1  0.98067074  0.47338768  0.35288691  1.0
  C  C56  1  0.02279934  0.48992210  0.40231228  1.0
  C  C57  1  0.75075143  0.46423647  0.46274378  1.0
  C  C58  1  0.98507512  0.48561770  0.47532508  1.0
  C  C59  1  0.90185098  0.46175388  0.49803193  1.0
  C  C60  1  0.02869240  0.50594785  0.52662579  1.0
  C  C61  1  0.98761625  0.50168010  0.59963496  1.0
  C  C62  1  0.91449453  0.46505772  0.62044511  1.0
  C  C63  1  0.50326328  0.39721182  0.21918260  1.0
  C  C64  1  0.87555345  0.44254875  0.57239173  1.0
  C  C65  1  0.11125332  0.52861145  0.50816691  1.0
  C  C66  1  0.10845111  0.54273246  0.63158480  1.0
  C  C67  1  0.85326734  0.45643041  0.44586067  1.0
  C  C68  1  0.49480337  0.50228634  0.68215660  1.0
  C  C69  1  0.50823939  0.48228867  0.31779954  1.0
  C  C70  1  0.51197809  0.47524783  0.24118311  1.0
  C  C71  1  0.51850350  0.54572590  0.19113961  1.0
  C  C72  1  0.51633585  0.53794477  0.12148201  1.0
  C  C73  1  0.52778628  0.40846111  0.86559675  1.0
  C  C74  1  0.51428308  0.41577347  0.79689748  1.0
  C  C75  1  0.51702521  0.57049882  0.78448040  1.0
  C  C76  1  0.52813652  0.56394669  0.85345816  1.0
  C  C77  1  0.53074952  0.48499650  0.89733238  1.0
  S  S78  1  0.53083415  0.64597089  0.21764756  1.0
  S  S79  1  0.81382963  0.36635338  0.60853603  1.0
  S  S80  1  0.54667275  0.29803622  0.91074284  1.0
  O  O81  1  0.49678276  0.50488782  0.49689296  1.0
  O  O82  1  0.47515119  0.43759958  0.66287744  1.0
  O  O83  1  0.56853614  0.41303476  0.34515670  1.0
  O  O84  1  0.50507704  0.57078924  0.64430218  1.0
  O  O85  1  0.44229248  0.55536436  0.34765029  1.0
  O  O86  1  0.43770336  0.72137276  0.23669460  1.0
  O  O87  1  0.59897483  0.61419572  0.26291338  1.0
  O  O88  1  0.58505462  0.67734892  0.14324010  1.0
  O  O89  1  0.85840058  0.31171515  0.66466664  1.0
  O  O90  1  0.80287103  0.32142323  0.55277682  1.0
  O  O91  1  0.70664062  0.43646541  0.64656010  1.0
  O  O92  1  0.27396158  0.58303611  0.47893251  1.0
  O  O93  1  0.63300495  0.26919383  0.93764101  1.0
  O  O94  1  0.45680933  0.29985280  0.95552955  1.0
  O  O95  1  0.57146111  0.22834404  0.84703836  1.0
  O  O96  1  0.72629590  0.42246126  0.42293536  1.0
  O  O97  1  0.46160916  0.31359760  0.54779781  1.0
  O  O98  1  0.50557677  0.70164524  0.51379016  1.0
  O  O99  1  0.61422914  0.28837714  0.48606714  1.0
  O  O100  1  0.39249431  0.72458009  0.44986290  1.0
  O  O101  1  0.29793558  0.52479422  0.58785401  1.0
  O  O102  1  0.69489405  0.51962846  0.51274046  1.0
