# generated using pymatgen
data_Zn4H2C26I4O13
_symmetry_space_group_name_H-M   'P 1'
_cell_length_a   20.77669442
_cell_length_b   20.92731424
_cell_length_c   20.92689672
_cell_angle_alpha   103.82046261
_cell_angle_beta   112.10277553
_cell_angle_gamma   112.07056472
_symmetry_Int_Tables_number   1
_chemical_formula_structural   Zn4H2C26I4O13
_chemical_formula_sum   'Zn8 H4 C52 I8 O26'
_cell_volume   7004.61740863
_cell_formula_units_Z   2
loop_
 _symmetry_equiv_pos_site_id
 _symmetry_equiv_pos_as_xyz
  1  'x, y, z'
loop_
 _atom_site_type_symbol
 _atom_site_label
 _atom_site_symmetry_multiplicity
 _atom_site_fract_x
 _atom_site_fract_y
 _atom_site_fract_z
 _atom_site_occupancy
  Zn  Zn0  1  0.42813654  0.72232896  0.79113515  1.0
  Zn  Zn1  1  0.42921152  0.29212433  0.22260383  1.0
  Zn  Zn2  1  0.56762949  0.86340849  0.79472873  1.0
  Zn  Zn3  1  0.43237181  0.13658970  0.20526810  1.0
  Zn  Zn4  1  0.57079210  0.70787156  0.77740241  1.0
  Zn  Zn5  1  0.57187341  0.27767554  0.20886739  1.0
  Zn  Zn6  1  0.43321226  0.70642293  0.63644660  1.0
  Zn  Zn7  1  0.56678635  0.29357701  0.36355106  1.0
  H  H8  1  0.36643938  0.98719893  0.95085176  1.0
  H  H9  1  0.63356246  0.01280214  0.04914595  1.0
  H  H10  1  0.46332864  0.38096657  0.51458435  1.0
  H  H11  1  0.53666674  0.61903222  0.48541277  1.0
  C  C12  1  0.50535357  0.61265675  0.61394449  1.0
  C  C13  1  0.49655679  0.94252537  0.94809241  1.0
  C  C14  1  0.52040750  0.56576522  0.49159583  1.0
  C  C15  1  0.42587560  0.99263810  0.97241285  1.0
  C  C16  1  0.57412676  0.00736297  0.02758696  1.0
  C  C17  1  0.47958883  0.43423530  0.50840255  1.0
  C  C18  1  0.49450487  0.44583458  0.44275607  1.0
  C  C19  1  0.50549481  0.55416823  0.55724029  1.0
  C  C20  1  0.50344959  0.05747453  0.05191009  1.0
  C  C21  1  0.52285235  0.99432379  0.06685632  1.0
  C  C22  1  0.47714967  0.00567671  0.93314658  1.0
  C  C23  1  0.44312706  0.48569492  0.42981916  1.0
  C  C24  1  0.49463745  0.38733975  0.38604806  1.0
  C  C25  1  0.55686655  0.51430157  0.57017389  1.0
  C  C26  1  0.50010081  0.90502973  0.59834231  1.0
  C  C27  1  0.49990603  0.09496440  0.40166043  1.0
  C  C28  1  0.49967668  0.59694451  0.90365848  1.0
  C  C29  1  0.50032931  0.40305943  0.09634579  1.0
  C  C30  1  0.49751450  0.88561297  0.89056593  1.0
  C  C31  1  0.49996735  0.94141174  0.56026306  1.0
  C  C32  1  0.50003280  0.05857204  0.43972516  1.0
  C  C33  1  0.49978253  0.55963122  0.94080822  1.0
  C  C34  1  0.50022613  0.44038424  0.05920694  1.0
  C  C35  1  0.50248918  0.11438579  0.10943384  1.0
  C  C36  1  0.49997230  0.98147078  0.51893005  1.0
  C  C37  1  0.50002953  0.01851703  0.48106214  1.0
  C  C38  1  0.49990030  0.51881094  0.98136455  1.0
  C  C39  1  0.50010311  0.48119878  0.01864871  1.0
  C  C40  1  0.80676425  0.90415811  0.90288087  1.0
  C  C41  1  0.19323889  0.09584526  0.09711071  1.0
  C  C42  1  0.88120926  0.94106207  0.94025847  1.0
  C  C43  1  0.11878684  0.05894364  0.05973339  1.0
  C  C44  1  0.96256021  0.98140733  0.98117023  1.0
  C  C45  1  0.03743831  0.01859722  0.01883661  1.0
  C  C46  1  0.49999979  0.64089157  0.86031718  1.0
  C  C47  1  0.50000645  0.35911467  0.13968295  1.0
  C  C48  1  0.49986208  0.86115098  0.64182527  1.0
  C  C49  1  0.50013294  0.13884436  0.35817569  1.0
  C  C50  1  0.71947153  0.86033662  0.85912478  1.0
  C  C51  1  0.28052740  0.13966389  0.14087170  1.0
  C  C52  1  0.28065401  0.63810628  0.63723126  1.0
  C  C53  1  0.71934576  0.36189769  0.36277353  1.0
  C  C54  1  0.19331531  0.59454695  0.59307724  1.0
  C  C55  1  0.80668241  0.40545991  0.40692698  1.0
  C  C56  1  0.11884196  0.55809084  0.55727083  1.0
  C  C57  1  0.88115324  0.44191430  0.44273394  1.0
  C  C58  1  0.03745069  0.51828287  0.51803192  1.0
  C  C59  1  0.96254778  0.48171591  0.48197306  1.0
  C  C60  1  0.44424120  0.92994917  0.98698923  1.0
  C  C61  1  0.55575842  0.07004787  0.01300861  1.0
  C  C62  1  0.42739144  0.47257863  0.49504538  1.0
  C  C63  1  0.57260261  0.52741959  0.50494729  1.0
  I  I64  1  0.35639913  0.82467708  0.96996741  1.0
  I  I65  1  0.44012225  0.01341108  0.82817395  1.0
  I  I66  1  0.35530653  0.46859060  0.32441819  1.0
  I  I67  1  0.64468511  0.53140706  0.67557774  1.0
  I  I68  1  0.55988177  0.98659114  0.17182725  1.0
  I  I69  1  0.64359945  0.17531997  0.03003242  1.0
  I  I70  1  0.31462461  0.42937067  0.48853544  1.0
  I  I71  1  0.68537320  0.57063445  0.51146745  1.0
  O  O72  1  0.49989190  0.75037290  0.74953187  1.0
  O  O73  1  0.54028738  0.36261800  0.41539719  1.0
  O  O74  1  0.44494287  0.81504075  0.86297561  1.0
  O  O75  1  0.55506472  0.18495858  0.13703342  1.0
  O  O76  1  0.55284578  0.65482227  0.84038448  1.0
  O  O77  1  0.44716357  0.34517359  0.15961580  1.0
  O  O78  1  0.54669745  0.89956946  0.71469288  1.0
  O  O79  1  0.45329261  0.10042820  0.28530770  1.0
  O  O80  1  0.50011510  0.24962527  0.25046663  1.0
  O  O81  1  0.68656437  0.78784019  0.83694943  1.0
  O  O82  1  0.31343869  0.21216031  0.16305386  1.0
  O  O83  1  0.68431094  0.89839971  0.84718548  1.0
  O  O84  1  0.31568795  0.10159791  0.15281414  1.0
  O  O85  1  0.31640664  0.64986800  0.59961230  1.0
  O  O86  1  0.68359209  0.35012560  0.40039298  1.0
  O  O87  1  0.31290762  0.66038214  0.70968011  1.0
  O  O88  1  0.68709242  0.33962990  0.29032763  1.0
  O  O89  1  0.44754601  0.66137937  0.84652093  1.0
  O  O90  1  0.55246001  0.33862745  0.15348355  1.0
  O  O91  1  0.45279094  0.78842216  0.60259010  1.0
  O  O92  1  0.54719894  0.21157608  0.39740578  1.0
  O  O93  1  0.54899183  0.63140808  0.68468708  1.0
  O  O94  1  0.45099773  0.36858958  0.31530901  1.0
  O  O95  1  0.55146244  0.91475213  0.87404776  1.0
  O  O96  1  0.44853534  0.08524723  0.12594754  1.0
  O  O97  1  0.45970790  0.63737964  0.58459724  1.0
