# generated using pymatgen
data_Zn4H39C68N20O8F
_symmetry_space_group_name_H-M   'P 1'
_cell_length_a   16.22744170
_cell_length_b   16.34770503
_cell_length_c   18.45333768
_cell_angle_alpha   68.43761924
_cell_angle_beta   66.93234988
_cell_angle_gamma   77.22651349
_symmetry_Int_Tables_number   1
_chemical_formula_structural   Zn4H39C68N20O8F
_chemical_formula_sum   'Zn4 H39 C68 N20 O8 F1'
_cell_volume   4171.68017708
_cell_formula_units_Z   1
loop_
 _symmetry_equiv_pos_site_id
 _symmetry_equiv_pos_as_xyz
  1  'x, y, z'
loop_
 _atom_site_type_symbol
 _atom_site_label
 _atom_site_symmetry_multiplicity
 _atom_site_fract_x
 _atom_site_fract_y
 _atom_site_fract_z
 _atom_site_occupancy
  Zn  Zn0  1  0.33807203  0.07637400  0.00992842  1.0
  Zn  Zn1  1  0.65741265  0.87537941  0.99857627  1.0
  Zn  Zn2  1  0.55724801  0.98349253  0.87223077  1.0
  Zn  Zn3  1  0.49820617  0.99837873  0.09947178  1.0
  H  H4  1  0.67822587  0.70577031  0.16347502  1.0
  H  H5  1  0.39170076  0.85396373  0.93088168  1.0
  H  H6  1  0.39853024  0.83740579  0.24742908  1.0
  H  H7  1  0.53484045  0.71410954  0.10329832  1.0
  H  H8  1  0.20132076  0.92971305  0.12472352  1.0
  H  H9  1  0.49822016  0.89312674  0.28260802  1.0
  H  H10  1  0.19444132  0.98359851  0.86139534  1.0
  H  H11  1  0.27690384  0.25947830  0.05051350  1.0
  H  H12  1  0.84067613  0.78249552  0.86271192  1.0
  H  H13  1  0.57168751  0.14546958  0.71018100  1.0
  H  H14  1  0.59000762  0.16943530  0.03768804  1.0
  H  H15  1  0.81340828  0.98913838  0.94920063  1.0
  H  H16  1  0.35483151  0.25754367  0.88470832  1.0
  H  H17  1  0.48157452  0.16590823  0.16581103  1.0
  H  H18  1  0.70371532  0.97150734  0.70153398  1.0
  H  H19  1  0.16999970  0.73973415  0.50486535  1.0
  H  H20  1  0.28973317  0.76024366  0.36877349  1.0
  H  H21  1  0.09126011  0.87085115  0.24893810  1.0
  H  H22  1  0.97219297  0.84737807  0.38468612  1.0
  H  H23  1  0.94203721  0.93438272  0.46716643  1.0
  H  H24  1  0.83332862  0.96727370  0.59186858  1.0
  H  H25  1  0.91826040  0.71716738  0.74401100  1.0
  H  H26  1  0.02884561  0.68532754  0.61852389  1.0
  H  H27  1  0.63272074  0.49112822  0.43370593  1.0
  H  H28  1  0.67916148  0.61550798  0.30508020  1.0
  H  H29  1  0.42262956  0.76004756  0.38893976  1.0
  H  H30  1  0.37627310  0.63591291  0.51682693  1.0
  H  H31  1  0.40165750  0.40724126  0.77288164  1.0
  H  H32  1  0.51015467  0.25056697  0.60650812  1.0
  H  H33  1  0.52547091  0.38669869  0.48764205  1.0
  H  H34  1  0.47404444  0.59057602  0.13542975  1.0
  H  H35  1  0.31464014  0.72370645  0.97786091  1.0
  H  H36  1  0.47918162  0.42979345  0.19822913  1.0
  H  H37  1  0.27401877  0.58219200  0.99198946  1.0
  H  H38  1  0.45250485  0.28601906  0.20199468  1.0
  H  H39  1  0.71576026  0.91335056  0.19031269  1.0
  H  H40  1  0.72824608  0.19125467  0.13776748  1.0
  H  H41  1  0.80716360  0.19556762  0.99035191  1.0
  H  H42  1  0.96729910  0.14050049  0.94552055  1.0
  C  C43  1  0.15510506  0.07157785  0.00531095  1.0
  C  C44  1  0.63687226  0.76266585  0.17993085  1.0
  C  C45  1  0.43543668  0.83031037  0.96770592  1.0
  C  C46  1  0.36042380  0.86865861  0.20591985  1.0
  C  C47  1  0.50857960  0.75926812  0.05563265  1.0
  C  C48  1  0.25988893  0.91594430  0.14329491  1.0
  C  C49  1  0.54438672  0.85781121  0.24051529  1.0
  C  C50  1  0.19198027  0.01423560  0.90546709  1.0
  C  C51  1  0.11680973  0.03349407  0.96981055  1.0
  C  C52  1  0.57945878  0.76896312  0.25827126  1.0
  C  C53  1  0.44152684  0.74954137  0.02960424  1.0
  C  C54  1  0.27091302  0.86082622  0.21865211  1.0
  C  C55  1  0.33021696  0.22505598  0.07508551  1.0
  C  C56  1  0.79581095  0.83186986  0.83460369  1.0
  C  C57  1  0.51764974  0.15932132  0.76316973  1.0
  C  C58  1  0.63486567  0.11838635  0.01357595  1.0
  C  C59  1  0.74887368  0.02643501  0.96863508  1.0
  C  C60  1  0.40819651  0.21658085  0.85271148  1.0
  C  C61  1  0.43301668  0.17625004  0.13549671  1.0
  C  C62  1  0.72695928  0.92928568  0.75218128  1.0
  C  C63  1  0.37710073  0.25243175  0.11117227  1.0
  C  C64  1  0.80140474  0.86629739  0.75092391  1.0
  C  C65  1  0.46075130  0.23665057  0.76795911  1.0
  C  C66  1  0.72743262  0.09863853  0.99835777  1.0
  C  C67  1  0.15223219  0.76718341  0.44875893  1.0
  C  C68  1  0.22007595  0.77985876  0.37148386  1.0
  C  C69  1  0.20083231  0.82320301  0.29759694  1.0
  C  C70  1  0.10962386  0.84189442  0.30449454  1.0
  C  C71  1  0.04210954  0.82902106  0.38145527  1.0
  C  C72  1  0.06224348  0.79680286  0.45514686  1.0
  C  C73  1  0.93556467  0.88562456  0.52783154  1.0
  C  C74  1  0.87435604  0.90416421  0.59845471  1.0
  C  C75  1  0.86704923  0.84465291  0.67789000  1.0
  C  C76  1  0.92370386  0.76561298  0.68330845  1.0
  C  C77  1  0.98602888  0.74740748  0.61226461  1.0
  C  C78  1  0.99340054  0.80715058  0.53290598  1.0
  C  C79  1  0.58592107  0.54974219  0.42331949  1.0
  C  C80  1  0.61223604  0.62000070  0.35088600  1.0
  C  C81  1  0.55446301  0.69738204  0.33680838  1.0
  C  C82  1  0.46962194  0.70136495  0.39860482  1.0
  C  C83  1  0.44327844  0.63100881  0.47122949  1.0
  C  C84  1  0.50118172  0.55365814  0.48503406  1.0
  C  C85  1  0.43994308  0.47669690  0.64247194  1.0
  C  C86  1  0.42947824  0.40058124  0.71089899  1.0
  C  C87  1  0.45967208  0.31755118  0.69920571  1.0
  C  C88  1  0.49206117  0.31444296  0.61736906  1.0
  C  C89  1  0.50084082  0.39111422  0.55029803  1.0
  C  C90  1  0.47884570  0.47565392  0.55995938  1.0
  C  C91  1  0.40192544  0.66773202  0.05210069  1.0
  C  C92  1  0.37883560  0.33903045  0.11612791  1.0
  C  C93  1  0.44041682  0.42669058  0.16267252  1.0
  C  C94  1  0.42599911  0.34641071  0.16422179  1.0
  C  C95  1  0.34322873  0.41803869  0.07187482  1.0
  C  C96  1  0.35377714  0.50277756  0.06956501  1.0
  C  C97  1  0.40720625  0.50690403  0.11398194  1.0
  C  C98  1  0.42964500  0.58981046  0.10407841  1.0
  C  C99  1  0.34188404  0.66306557  0.01479511  1.0
  C  C100  1  0.31872498  0.58327429  0.02286262  1.0
  C  C101  1  0.70998844  0.05387456  0.17032761  1.0
  C  C102  1  0.02269434  0.01212154  0.00381134  1.0
  C  C103  1  0.91209387  0.91437253  0.11383503  1.0
  C  C104  1  0.00066230  0.92893868  0.06103296  1.0
  C  C105  1  0.95106918  0.07650051  0.99230415  1.0
  C  C106  1  0.86261722  0.06160229  0.04269771  1.0
  C  C107  1  0.84286764  0.98107139  0.10915137  1.0
  C  C108  1  0.74819424  0.97408812  0.16615817  1.0
  C  C109  1  0.72858590  0.13476402  0.11963331  1.0
  C  C110  1  0.78200837  0.13111501  0.03121141  1.0
  N  N111  1  0.24492478  0.07332498  0.96454538  1.0
  N  N112  1  0.63418939  0.84083654  0.12073176  1.0
  N  N113  1  0.49597870  0.88214426  0.95740463  1.0
  N  N114  1  0.39825794  0.92556648  0.13016811  1.0
  N  N115  1  0.54106351  0.83803657  0.01141631  1.0
  N  N116  1  0.33605416  0.95467246  0.09132093  1.0
  N  N117  1  0.57610928  0.90036057  0.15833610  1.0
  N  N118  1  0.26822189  0.03806927  0.90317419  1.0
  N  N119  1  0.35794157  0.14109994  0.07631326  1.0
  N  N120  1  0.72360749  0.87102650  0.88155061  1.0
  N  N121  1  0.49868885  0.09827469  0.83909748  1.0
  N  N122  1  0.60204123  0.05935244  0.99831970  1.0
  N  N123  1  0.67351086  0.00305909  0.96943372  1.0
  N  N124  1  0.43052221  0.13347624  0.89468147  1.0
  N  N125  1  0.42160001  0.11060702  0.11390074  1.0
  N  N126  1  0.68104159  0.93181918  0.83013868  1.0
  N  N127  1  0.11447292  0.10223591  0.07568796  1.0
  N  N128  1  0.41298552  0.56112379  0.66125763  1.0
  N  N129  1  0.29642336  0.41662684  0.01795104  1.0
  N  N130  1  0.07235325  0.85744003  0.07146627  1.0
  O  O131  1  0.16444156  0.13289488  0.09496496  1.0
  O  O132  1  0.03262174  0.09601256  0.11464478  1.0
  O  O133  1  0.46916100  0.61603143  0.62796222  1.0
  O  O134  1  0.33572255  0.57032139  0.71019853  1.0
  O  O135  1  0.34375181  0.41347749  0.94735157  1.0
  O  O136  1  0.21334760  0.41893171  0.04665906  1.0
  O  O137  1  0.08913098  0.83432000  0.13640990  1.0
  O  O138  1  0.11101269  0.82582745  0.01376799  1.0
  F  F139  1  0.89457751  0.83429972  0.17208366  1.0
