# generated using pymatgen
data_Ni3H26C30(N6O7)2
_symmetry_space_group_name_H-M   'P 1'
_cell_length_a   13.61095328
_cell_length_b   13.77074797
_cell_length_c   17.71009840
_cell_angle_alpha   110.41266167
_cell_angle_beta   89.99999167
_cell_angle_gamma   89.99997357
_symmetry_Int_Tables_number   1
_chemical_formula_structural   Ni3H26C30(N6O7)2
_chemical_formula_sum   'Ni6 H52 C60 N24 O28'
_cell_volume   3111.01148835
_cell_formula_units_Z   2
loop_
 _symmetry_equiv_pos_site_id
 _symmetry_equiv_pos_as_xyz
  1  'x, y, z'
loop_
 _atom_site_type_symbol
 _atom_site_label
 _atom_site_symmetry_multiplicity
 _atom_site_fract_x
 _atom_site_fract_y
 _atom_site_fract_z
 _atom_site_occupancy
  Ni  Ni0  1  0.01350042  0.26074415  0.07432352  1.0
  Ni  Ni1  1  0.51350052  0.73925708  0.42567663  1.0
  Ni  Ni2  1  0.98649894  0.73925694  0.92567670  1.0
  Ni  Ni3  1  0.48649883  0.26074246  0.57432373  1.0
  Ni  Ni4  1  0.99999935  0.00000031  0.00000057  1.0
  Ni  Ni5  1  0.50000053  0.00000046  0.50000021  1.0
  H  H6  1  0.13784139  0.13752525  0.98779717  1.0
  H  H7  1  0.13538390  0.13439819  0.08713844  1.0
  H  H8  1  0.88379499  0.30955182  0.93074411  1.0
  H  H9  1  0.85739772  0.97997157  0.83502419  1.0
  H  H10  1  0.82632443  0.09147385  0.73473088  1.0
  H  H11  1  0.81593864  0.22793865  0.78189541  1.0
  H  H12  1  0.66086648  0.20577940  0.85071038  1.0
  H  H13  1  0.67472373  0.06883561  0.81104830  1.0
  H  H14  1  0.63842410  0.97164261  0.65314633  1.0
  H  H15  1  0.60346931  0.29989647  0.74936853  1.0
  H  H16  1  0.10078807  0.46274769  0.94958564  1.0
  H  H17  1  0.28047646  0.46996235  0.75168378  1.0
  H  H18  1  0.26403976  0.19224698  0.81089130  1.0
  H  H19  1  0.63784299  0.86247514  0.51220245  1.0
  H  H20  1  0.63538541  0.86560221  0.41286090  1.0
  H  H21  1  0.38379469  0.69044765  0.56925522  1.0
  H  H22  1  0.35740065  0.02003021  0.66497805  1.0
  H  H23  1  0.32632473  0.90852720  0.76527002  1.0
  H  H24  1  0.31594121  0.77206239  0.71810606  1.0
  H  H25  1  0.16086905  0.79421708  0.64928984  1.0
  H  H26  1  0.17472403  0.93116167  0.68894989  1.0
  H  H27  1  0.13842258  0.02835623  0.84685286  1.0
  H  H28  1  0.10346823  0.70010316  0.75063145  1.0
  H  H29  1  0.60078687  0.53725193  0.55041545  1.0
  H  H30  1  0.78047743  0.53003563  0.74831572  1.0
  H  H31  1  0.76403840  0.80775099  0.68910932  1.0
  H  H32  1  0.86215870  0.86247584  0.01220306  1.0
  H  H33  1  0.86461472  0.86560213  0.91286157  1.0
  H  H34  1  0.11620510  0.69044852  0.06925421  1.0
  H  H35  1  0.14260017  0.02002872  0.16497807  1.0
  H  H36  1  0.17367566  0.90852492  0.26526926  1.0
  H  H37  1  0.18406145  0.77206013  0.21810360  1.0
  H  H38  1  0.33913361  0.79421859  0.14928955  1.0
  H  H39  1  0.32527709  0.93116317  0.18895072  1.0
  H  H40  1  0.36157746  0.02835771  0.34685368  1.0
  H  H41  1  0.39653078  0.70010385  0.25063205  1.0
  H  H42  1  0.89921201  0.53725263  0.05041493  1.0
  H  H43  1  0.71952289  0.53003797  0.24831680  1.0
  H  H44  1  0.73596033  0.80775179  0.18910828  1.0
  H  H45  1  0.36215931  0.13752597  0.48779721  1.0
  H  H46  1  0.36461614  0.13439814  0.58713742  1.0
  H  H47  1  0.61620467  0.30955190  0.43074457  1.0
  H  H48  1  0.64260164  0.97997165  0.33502295  1.0
  H  H49  1  0.67367610  0.09147390  0.23473020  1.0
  H  H50  1  0.68406034  0.22793869  0.28189529  1.0
  H  H51  1  0.83913251  0.20578091  0.35071008  1.0
  H  H52  1  0.82527606  0.06883711  0.31104913  1.0
  H  H53  1  0.86157677  0.97164331  0.15314694  1.0
  H  H54  1  0.89653039  0.29989639  0.24936779  1.0
  H  H55  1  0.39921395  0.46274761  0.44958490  1.0
  H  H56  1  0.21952266  0.46996159  0.25168399  1.0
  H  H57  1  0.23596022  0.19224852  0.31089329  1.0
  C  C58  1  0.88824657  0.22795990  0.92307004  1.0
  C  C59  1  0.87594770  0.05904789  0.87327297  1.0
  C  C60  1  0.79984647  0.15339040  0.78886391  1.0
  C  C61  1  0.68901441  0.14084888  0.79942574  1.0
  C  C62  1  0.61683508  0.05108116  0.66122533  1.0
  C  C63  1  0.59808102  0.21951132  0.71069543  1.0
  C  C64  1  0.18298294  0.32351382  0.88833693  1.0
  C  C65  1  0.15226134  0.42515813  0.90110127  1.0
  C  C66  1  0.18649038  0.47772425  0.85149723  1.0
  C  C67  1  0.25216324  0.42823587  0.78916511  1.0
  C  C68  1  0.27839582  0.32464479  0.77296208  1.0
  C  C69  1  0.24374799  0.27266825  0.82279596  1.0
  C  C70  1  0.14841594  0.26858176  0.94294515  1.0
  C  C71  1  0.15103582  0.58585720  0.86146646  1.0
  C  C72  1  0.33885890  0.26807371  0.70024774  1.0
  C  C73  1  0.38824696  0.77204034  0.57693007  1.0
  C  C74  1  0.37595094  0.94095390  0.62672870  1.0
  C  C75  1  0.29984681  0.84660987  0.71113791  1.0
  C  C76  1  0.18901474  0.85914915  0.70057434  1.0
  C  C77  1  0.11683461  0.94891770  0.83877386  1.0
  C  C78  1  0.09808064  0.78048753  0.78930432  1.0
  C  C79  1  0.68298093  0.67648422  0.61166203  1.0
  C  C80  1  0.65226084  0.57483990  0.59889938  1.0
  C  C81  1  0.68648990  0.52227608  0.64850518  1.0
  C  C82  1  0.75216567  0.57176366  0.71083538  1.0
  C  C83  1  0.77839452  0.67535631  0.72703715  1.0
  C  C84  1  0.74374668  0.72732976  0.67720298  1.0
  C  C85  1  0.64841538  0.73141785  0.55705425  1.0
  C  C86  1  0.65103466  0.41414316  0.63853484  1.0
  C  C87  1  0.83885830  0.73192578  0.79975273  1.0
  C  C88  1  0.11175425  0.77204044  0.07692884  1.0
  C  C89  1  0.12405092  0.94095319  0.12672838  1.0
  C  C90  1  0.20015435  0.84660837  0.21113567  1.0
  C  C91  1  0.31098567  0.85914990  0.20057384  1.0
  C  C92  1  0.38316574  0.94891916  0.33877468  1.0
  C  C93  1  0.40191907  0.78048822  0.28930436  1.0
  C  C94  1  0.81701641  0.67648497  0.11166097  1.0
  C  C95  1  0.84773875  0.57484296  0.09889895  1.0
  C  C96  1  0.81350824  0.52227684  0.14850355  1.0
  C  C97  1  0.74783538  0.57176522  0.21083511  1.0
  C  C98  1  0.72160501  0.67535554  0.22703793  1.0
  C  C99  1  0.75625283  0.72733052  0.17720418  1.0
  C  C100  1  0.85158415  0.73141857  0.05705430  1.0
  C  C101  1  0.84896500  0.41414388  0.13853489  1.0
  C  C102  1  0.66113971  0.73192740  0.29975136  1.0
  C  C103  1  0.61175313  0.22795998  0.42306994  1.0
  C  C104  1  0.62405209  0.05904798  0.37327174  1.0
  C  C105  1  0.70015328  0.15339122  0.28886344  1.0
  C  C106  1  0.81098461  0.14084962  0.29942580  1.0
  C  C107  1  0.88316548  0.05108108  0.16122572  1.0
  C  C108  1  0.90191872  0.21951202  0.21069491  1.0
  C  C109  1  0.31701769  0.32351453  0.38833924  1.0
  C  C110  1  0.34773777  0.42515885  0.40110189  1.0
  C  C111  1  0.31350945  0.47772267  0.35149609  1.0
  C  C112  1  0.24783516  0.42823742  0.28916597  1.0
  C  C113  1  0.22160631  0.32464404  0.27296117  1.0
  C  C114  1  0.25625341  0.27267057  0.32279646  1.0
  C  C115  1  0.35158471  0.26858246  0.44294632  1.0
  C  C116  1  0.34896469  0.58585485  0.36146340  1.0
  C  C117  1  0.16113885  0.26807297  0.20024910  1.0
  N  N118  1  0.93010036  0.19031786  0.97401729  1.0
  N  N119  1  0.92273647  0.08449268  0.94279055  1.0
  N  N120  1  0.85359729  0.14753899  0.85834488  1.0
  N  N121  1  0.63512400  0.13711169  0.72762904  1.0
  N  N122  1  0.56957976  0.08020726  0.60760756  1.0
  N  N123  1  0.55829323  0.18574804  0.63857291  1.0
  N  N124  1  0.43010002  0.80968236  0.52598225  1.0
  N  N125  1  0.42273680  0.91550832  0.55720976  1.0
  N  N126  1  0.35359837  0.85246204  0.64165546  1.0
  N  N127  1  0.13512358  0.86288715  0.77237071  1.0
  N  N128  1  0.06957855  0.91979239  0.89239185  1.0
  N  N129  1  0.05829281  0.81425162  0.86142652  1.0
  N  N130  1  0.06989899  0.80968323  0.02598294  1.0
  N  N131  1  0.07726362  0.91550841  0.05721023  1.0
  N  N132  1  0.14640279  0.85246055  0.14165492  1.0
  N  N133  1  0.36487682  0.86288863  0.27237097  1.0
  N  N134  1  0.43042180  0.91979306  0.39239245  1.0
  N  N135  1  0.44170686  0.81425228  0.36142710  1.0
  N  N136  1  0.56990007  0.19031719  0.47401698  1.0
  N  N137  1  0.57726402  0.08449201  0.44278968  1.0
  N  N138  1  0.64640245  0.14753905  0.35834477  1.0
  N  N139  1  0.86487577  0.13711240  0.22762908  1.0
  N  N140  1  0.93042080  0.08020716  0.10760738  1.0
  N  N141  1  0.94170654  0.18574793  0.13857272  1.0
  O  O142  1  0.09885965  0.11910721  0.03249550  1.0
  O  O143  1  0.09770465  0.32048953  0.00378750  1.0
  O  O144  1  0.17166342  0.17222139  0.92423049  1.0
  O  O145  1  0.06952572  0.61079136  0.90092190  1.0
  O  O146  1  0.20069214  0.63920049  0.83056739  1.0
  O  O147  1  0.39216743  0.32177620  0.67072291  1.0
  O  O148  1  0.33075884  0.16863159  0.67164791  1.0
  O  O149  1  0.59886115  0.88089397  0.46750463  1.0
  O  O150  1  0.59770477  0.67950932  0.49621311  1.0
  O  O151  1  0.67166428  0.82777896  0.57577136  1.0
  O  O152  1  0.56952458  0.38920750  0.59907899  1.0
  O  O153  1  0.70068880  0.36080057  0.66943805  1.0
  O  O154  1  0.89216831  0.67822403  0.82927776  1.0
  O  O155  1  0.83075891  0.83136714  0.82835123  1.0
  O  O156  1  0.90114044  0.88089310  0.96750508  1.0
  O  O157  1  0.90229397  0.67950847  0.99621187  1.0
  O  O158  1  0.82833594  0.82777892  0.07577064  1.0
  O  O159  1  0.93047437  0.38920820  0.09907677  1.0
  O  O160  1  0.79930868  0.36080058  0.16943453  1.0
  O  O161  1  0.60783119  0.67822490  0.32927732  1.0
  O  O162  1  0.66923831  0.83136876  0.32834985  1.0
  O  O163  1  0.40114188  0.11910791  0.53249468  1.0
  O  O164  1  0.40229605  0.32049177  0.50378768  1.0
  O  O165  1  0.32833655  0.17222213  0.42422942  1.0
  O  O166  1  0.43047330  0.61079204  0.40092136  1.0
  O  O167  1  0.29931203  0.63919745  0.33055962  1.0
  O  O168  1  0.10783104  0.32177550  0.17072315  1.0
  O  O169  1  0.16923750  0.16863162  0.17164948  1.0
