# generated using pymatgen
data_ZnH16C27(NO3)2
_symmetry_space_group_name_H-M   'P 1'
_cell_length_a   12.71688163
_cell_length_b   14.64202516
_cell_length_c   14.64199736
_cell_angle_alpha   77.21081035
_cell_angle_beta   86.54985706
_cell_angle_gamma   86.55000892
_symmetry_Int_Tables_number   1
_chemical_formula_structural   ZnH16C27(NO3)2
_chemical_formula_sum   'Zn4 H64 C108 N8 O24'
_cell_volume   2650.82029677
_cell_formula_units_Z   4
loop_
 _symmetry_equiv_pos_site_id
 _symmetry_equiv_pos_as_xyz
  1  'x, y, z'
loop_
 _atom_site_type_symbol
 _atom_site_label
 _atom_site_symmetry_multiplicity
 _atom_site_fract_x
 _atom_site_fract_y
 _atom_site_fract_z
 _atom_site_occupancy
  Zn  Zn0  1  0.83877894  0.93914991  0.54248605  1.0
  Zn  Zn1  1  0.66121974  0.45751457  0.06085091  1.0
  Zn  Zn2  1  0.16121628  0.06085179  0.45751405  1.0
  Zn  Zn3  1  0.33878031  0.54248502  0.93914940  1.0
  H  H4  1  0.88820669  0.91379424  0.82698343  1.0
  H  H5  1  0.61179432  0.17301619  0.08620616  1.0
  H  H6  1  0.11179089  0.08620746  0.17301518  1.0
  H  H7  1  0.38820494  0.82698341  0.91379283  1.0
  H  H8  1  0.85807200  0.86130682  0.23064226  1.0
  H  H9  1  0.64192648  0.76935634  0.13869442  1.0
  H  H10  1  0.14192644  0.13869350  0.76935388  1.0
  H  H11  1  0.35807300  0.23063905  0.86130684  1.0
  H  H12  1  0.85538389  0.20647358  0.08940036  1.0
  H  H13  1  0.64461440  0.91060061  0.79352785  1.0
  H  H14  1  0.14461616  0.79352601  0.91060132  1.0
  H  H15  1  0.35538242  0.08940039  0.20647368  1.0
  H  H16  1  0.84578156  0.14649326  0.26372029  1.0
  H  H17  1  0.65421232  0.73628092  0.85350597  1.0
  H  H18  1  0.15421219  0.85350635  0.73627966  1.0
  H  H19  1  0.34578136  0.26372010  0.14649095  1.0
  H  H20  1  0.87453344  0.23049358  0.90666686  1.0
  H  H21  1  0.62546953  0.09333182  0.76950756  1.0
  H  H22  1  0.12546962  0.76950882  0.09333131  1.0
  H  H23  1  0.37453608  0.90666707  0.23049398  1.0
  H  H24  1  0.88582046  0.21402150  0.73920080  1.0
  H  H25  1  0.61417890  0.26079886  0.78597889  1.0
  H  H26  1  0.11417787  0.78598091  0.26079830  1.0
  H  H27  1  0.38582352  0.73920074  0.21402062  1.0
  H  H28  1  0.52770697  0.20488065  0.55266691  1.0
  H  H29  1  0.97229103  0.44733484  0.79511992  1.0
  H  H30  1  0.47228753  0.79511965  0.44733627  1.0
  H  H31  1  0.02770883  0.55266826  0.20488100  1.0
  H  H32  1  0.86053092  0.72111159  0.58982917  1.0
  H  H33  1  0.63946978  0.41017073  0.27889168  1.0
  H  H34  1  0.13946892  0.27889221  0.41016955  1.0
  H  H35  1  0.36053264  0.58982887  0.72110919  1.0
  H  H36  1  0.70904894  0.14513038  0.50701502  1.0
  H  H37  1  0.79094961  0.49298586  0.85487048  1.0
  H  H38  1  0.29094710  0.85487061  0.49298929  1.0
  H  H39  1  0.20904966  0.50701373  0.14513192  1.0
  H  H40  1  0.74485597  0.58838978  0.66677103  1.0
  H  H41  1  0.75514567  0.33322880  0.41161277  1.0
  H  H42  1  0.25514709  0.41161262  0.33322988  1.0
  H  H43  1  0.24485825  0.66677219  0.58838840  1.0
  H  H44  1  0.56093877  0.62680500  0.72363490  1.0
  H  H45  1  0.93906248  0.27636465  0.37319460  1.0
  H  H46  1  0.43906294  0.37319320  0.27636495  1.0
  H  H47  1  0.06094069  0.72363565  0.62680472  1.0
  H  H48  1  0.39698298  0.08947355  0.63685750  1.0
  H  H49  1  0.10301757  0.36314578  0.91052476  1.0
  H  H50  1  0.60301475  0.91052534  0.36314787  1.0
  H  H51  1  0.89698387  0.63685732  0.08947334  1.0
  H  H52  1  0.35954066  0.92010692  0.70838647  1.0
  H  H53  1  0.14045998  0.29161491  0.07989150  1.0
  H  H54  1  0.64045954  0.07988987  0.29161718  1.0
  H  H55  1  0.85954243  0.70838469  0.92010801  1.0
  H  H56  1  0.41848954  0.75196305  0.73873078  1.0
  H  H57  1  0.08151117  0.26126920  0.24803526  1.0
  H  H58  1  0.58150987  0.24803374  0.26126881  1.0
  H  H59  1  0.91849207  0.73872969  0.75196367  1.0
  H  H60  1  0.02873067  0.86605014  0.48496832  1.0
  H  H61  1  0.47126647  0.51503128  0.13394983  1.0
  H  H62  1  0.97126612  0.13395157  0.51503033  1.0
  H  H63  1  0.52873122  0.48496832  0.86604992  1.0
  H  H64  1  0.03326966  0.89973481  0.57877758  1.0
  H  H65  1  0.46672825  0.42122161  0.10026604  1.0
  H  H66  1  0.96672706  0.10026830  0.42122146  1.0
  H  H67  1  0.53327023  0.57877799  0.89973367  1.0
  C  C68  1  0.87428203  0.08018822  0.96021721  1.0
  C  C69  1  0.62572166  0.03978074  0.91981477  1.0
  C  C70  1  0.12572178  0.91981488  0.03978077  1.0
  C  C71  1  0.37428083  0.96021745  0.08018640  1.0
  C  C72  1  0.87936928  0.91692832  0.02557189  1.0
  C  C73  1  0.62063157  0.97442732  0.08307190  1.0
  C  C74  1  0.12063002  0.08307059  0.97442588  1.0
  C  C75  1  0.37936770  0.02557228  0.91692982  1.0
  C  C76  1  0.86614716  0.06659305  0.06291265  1.0
  C  C77  1  0.63385222  0.93709004  0.93340645  1.0
  C  C78  1  0.13385375  0.93340514  0.93708997  1.0
  C  C79  1  0.36614769  0.06291236  0.06659393  1.0
  C  C80  1  0.88032548  0.99120691  0.93713372  1.0
  C  C81  1  0.61967704  0.06286497  0.00879486  1.0
  C  C82  1  0.11967833  0.00879620  0.06286426  1.0
  C  C83  1  0.38032309  0.93713323  0.99120371  1.0
  C  C84  1  0.86784032  0.96923833  0.10300709  1.0
  C  C85  1  0.63216187  0.89699491  0.03075902  1.0
  C  C86  1  0.13216138  0.03075986  0.89699413  1.0
  C  C87  1  0.36783965  0.10300679  0.96923871  1.0
  C  C88  1  0.88572984  0.06416381  0.77376266  1.0
  C  C89  1  0.61427455  0.22623671  0.93583719  1.0
  C  C90  1  0.11427172  0.93583719  0.22623726  1.0
  C  C91  1  0.38572712  0.77376218  0.06416250  1.0
  C  C92  1  0.84070285  0.96758796  0.36039120  1.0
  C  C93  1  0.65929484  0.63960853  0.03241243  1.0
  C  C94  1  0.15929402  0.03241235  0.63960776  1.0
  C  C95  1  0.34070288  0.36039038  0.96758542  1.0
  C  C96  1  0.88501454  0.98220937  0.84490195  1.0
  C  C97  1  0.61498711  0.15509732  0.01779175  1.0
  C  C98  1  0.11498623  0.01779163  0.15509665  1.0
  C  C99  1  0.38501373  0.84490227  0.98220989  1.0
  C  C100  1  0.85903194  0.93600076  0.19910085  1.0
  C  C101  1  0.64096804  0.80090025  0.06399948  1.0
  C  C102  1  0.14096811  0.06399883  0.80090014  1.0
  C  C103  1  0.35903047  0.19909864  0.93600107  1.0
  C  C104  1  0.85103133  0.00154165  0.25670323  1.0
  C  C105  1  0.64896677  0.74329787  0.99845520  1.0
  C  C106  1  0.14896632  0.99845866  0.74329500  1.0
  C  C107  1  0.35103088  0.25670244  0.00153893  1.0
  C  C108  1  0.85755726  0.13146147  0.11963552  1.0
  C  C109  1  0.64244252  0.88036535  0.86853816  1.0
  C  C110  1  0.14244434  0.86853883  0.88036388  1.0
  C  C111  1  0.35755513  0.11963496  0.13146007  1.0
  C  C112  1  0.88833138  0.05727832  0.67296945  1.0
  C  C113  1  0.61166848  0.32703034  0.94272252  1.0
  C  C114  1  0.11166770  0.94272479  0.32703014  1.0
  C  C115  1  0.38832996  0.67296995  0.05727909  1.0
  C  C116  1  0.85137854  0.09789339  0.21683082  1.0
  C  C117  1  0.64861795  0.78317097  0.90210566  1.0
  C  C118  1  0.14861908  0.90210761  0.78316862  1.0
  C  C119  1  0.35138049  0.21682933  0.09789322  1.0
  C  C120  1  0.87702957  0.16145758  0.88996357  1.0
  C  C121  1  0.62297262  0.11003461  0.83854194  1.0
  C  C122  1  0.12297435  0.83854342  0.11003418  1.0
  C  C123  1  0.37702990  0.88996289  0.16145802  1.0
  C  C124  1  0.88346588  0.15241683  0.79674507  1.0
  C  C125  1  0.61653620  0.20325288  0.84758555  1.0
  C  C126  1  0.11653556  0.84758628  0.20325167  1.0
  C  C127  1  0.38346873  0.79674391  0.15241581  1.0
  C  C128  1  0.64498978  0.84583053  0.62584760  1.0
  C  C129  1  0.85501046  0.37415252  0.15417065  1.0
  C  C130  1  0.35500866  0.15416977  0.37415332  1.0
  C  C131  1  0.14499128  0.62584497  0.84583004  1.0
  C  C132  1  0.54827322  0.12992999  0.56904849  1.0
  C  C133  1  0.95172597  0.43095333  0.87006885  1.0
  C  C134  1  0.45172225  0.87006680  0.43095677  1.0
  C  C135  1  0.04827401  0.56904767  0.12993184  1.0
  C  C136  1  0.60992009  0.94355025  0.60658988  1.0
  C  C137  1  0.89007997  0.39341142  0.05644950  1.0
  C  C138  1  0.39007674  0.05645075  0.39341234  1.0
  C  C139  1  0.10992012  0.60658748  0.94355027  1.0
  C  C140  1  0.77918852  0.73407559  0.61372807  1.0
  C  C141  1  0.72081311  0.38627071  0.26592562  1.0
  C  C142  1  0.22081146  0.26592542  0.38626988  1.0
  C  C143  1  0.27919088  0.61372888  0.73407517  1.0
  C  C144  1  0.64963533  0.09729067  0.54293697  1.0
  C  C145  1  0.85036506  0.45706390  0.90271059  1.0
  C  C146  1  0.35036218  0.90271243  0.45706681  1.0
  C  C147  1  0.14963578  0.54293570  0.09728900  1.0
  C  C148  1  0.57407313  0.77668466  0.67098556  1.0
  C  C149  1  0.92592799  0.32901376  0.22331524  1.0
  C  C150  1  0.42592459  0.22331425  0.32901366  1.0
  C  C151  1  0.07407615  0.67098303  0.77668479  1.0
  C  C152  1  0.71404117  0.66081510  0.65645189  1.0
  C  C153  1  0.78596020  0.34354798  0.33918684  1.0
  C  C154  1  0.28596035  0.33918660  0.34354788  1.0
  C  C155  1  0.21404382  0.65645091  0.66081342  1.0
  C  C156  1  0.61182218  0.68191032  0.68623876  1.0
  C  C157  1  0.88818005  0.31376182  0.31808999  1.0
  C  C158  1  0.38817870  0.31808858  0.31376166  1.0
  C  C159  1  0.11182470  0.68623848  0.68190923  1.0
  C  C160  1  0.47601791  0.06640623  0.61536219  1.0
  C  C161  1  0.02398201  0.38463957  0.93359202  1.0
  C  C162  1  0.52397978  0.93359336  0.38464235  1.0
  C  C163  1  0.97601879  0.61536073  0.06640673  1.0
  C  C164  1  0.50594343  0.96963984  0.63546489  1.0
  C  C165  1  0.99405669  0.36453865  0.03035793  1.0
  C  C166  1  0.49405354  0.03035835  0.36454067  1.0
  C  C167  1  0.00594332  0.63546166  0.96964086  1.0
  C  C168  1  0.43757891  0.89834497  0.68376427  1.0
  C  C169  1  0.06242157  0.31623661  0.10165271  1.0
  C  C170  1  0.56241889  0.10165252  0.31623935  1.0
  C  C171  1  0.93758249  0.68376159  0.89834565  1.0
  C  C172  1  0.47024787  0.80570007  0.70051498  1.0
  C  C173  1  0.02975282  0.29948534  0.19430026  1.0
  C  C174  1  0.52975139  0.19429952  0.29948537  1.0
  C  C175  1  0.97024885  0.70051356  0.80570012  1.0
  N  N176  1  0.74589929  0.82370432  0.60021507  1.0
  N  N177  1  0.75410213  0.39978616  0.17629762  1.0
  N  N178  1  0.25410065  0.17629738  0.39978478  1.0
  N  N179  1  0.24589957  0.60021203  0.82370428  1.0
  N  N180  1  0.67941292  0.00674061  0.56130383  1.0
  N  N181  1  0.82058762  0.43869758  0.99325923  1.0
  N  N182  1  0.32058556  0.99325898  0.43869998  1.0
  N  N183  1  0.17941247  0.56130132  0.00674124  1.0
  O  O184  1  0.86357058  0.02476753  0.41246188  1.0
  O  O185  1  0.63642771  0.58753861  0.97523209  1.0
  O  O186  1  0.13642628  0.97523277  0.58753708  1.0
  O  O187  1  0.36357077  0.41246100  0.02476557  1.0
  O  O188  1  0.98872702  0.86369517  0.54730143  1.0
  O  O189  1  0.51127166  0.45269751  0.13630490  1.0
  O  O190  1  0.01127052  0.13630724  0.45269703  1.0
  O  O191  1  0.48872764  0.54730139  0.86369492  1.0
  O  O192  1  0.88796974  0.83151251  0.03272041  1.0
  O  O193  1  0.61203020  0.96727951  0.16849009  1.0
  O  O194  1  0.11202848  0.16849200  0.96727823  1.0
  O  O195  1  0.38796836  0.03271869  0.83151060  1.0
  O  O196  1  0.88003466  0.97400035  0.66000605  1.0
  O  O197  1  0.61996737  0.33999551  0.02599979  1.0
  O  O198  1  0.11996611  0.02600065  0.33999391  1.0
  O  O199  1  0.38003264  0.66000479  0.97400106  1.0
  O  O200  1  0.80976377  0.88697433  0.39537819  1.0
  O  O201  1  0.69023470  0.60462319  0.11302644  1.0
  O  O202  1  0.19023632  0.11302456  0.60462363  1.0
  O  O203  1  0.30976381  0.39537572  0.88697137  1.0
  O  O204  1  0.89712169  0.13092638  0.60959113  1.0
  O  O205  1  0.60288011  0.39040725  0.86907307  1.0
  O  O206  1  0.10287993  0.86907322  0.39040705  1.0
  O  O207  1  0.39712156  0.60959165  0.13092457  1.0
