# generated using pymatgen
data_Zn4H20C44N8O29
_symmetry_space_group_name_H-M   'P 1'
_cell_length_a   23.61464739
_cell_length_b   23.61452190
_cell_length_c   23.61285568
_cell_angle_alpha   72.65206558
_cell_angle_beta   66.18991551
_cell_angle_gamma   107.34836697
_symmetry_Int_Tables_number   1
_chemical_formula_structural   Zn4H20C44N8O29
_chemical_formula_sum   'Zn8 H40 C88 N16 O58'
_cell_volume   10092.10457504
_cell_formula_units_Z   2
loop_
 _symmetry_equiv_pos_site_id
 _symmetry_equiv_pos_as_xyz
  1  'x, y, z'
loop_
 _atom_site_type_symbol
 _atom_site_label
 _atom_site_symmetry_multiplicity
 _atom_site_fract_x
 _atom_site_fract_y
 _atom_site_fract_z
 _atom_site_occupancy
  Zn  Zn0  1  0.48960120  0.44206830  0.45660170  1.0
  Zn  Zn1  1  0.45661415  0.55797466  0.48956115  1.0
  Zn  Zn2  1  0.45248194  0.44204781  0.60135232  1.0
  Zn  Zn3  1  0.60139542  0.55798831  0.45246508  1.0
  Zn  Zn4  1  0.01046727  0.55385299  0.04751452  1.0
  Zn  Zn5  1  0.04341201  0.55384891  0.89861800  1.0
  Zn  Zn6  1  0.04754457  0.44618613  0.01042051  1.0
  Zn  Zn7  1  0.89866876  0.44619323  0.04339714  1.0
  H  H8  1  0.17509696  0.88599458  0.90445911  1.0
  H  H9  1  0.21092705  0.88604140  0.70952557  1.0
  H  H10  1  0.27363749  0.10936733  0.79503995  1.0
  H  H11  1  0.33577306  0.10939458  0.59559701  1.0
  H  H12  1  0.70954757  0.11400965  0.21087964  1.0
  H  H13  1  0.90443122  0.11399774  0.17511194  1.0
  H  H14  1  0.59561442  0.89063314  0.33573668  1.0
  H  H15  1  0.79502860  0.89065138  0.27360249  1.0
  H  H16  1  0.16425491  0.56862901  0.22639252  1.0
  H  H17  1  0.22636367  0.43134262  0.16426971  1.0
  H  H18  1  0.28907941  0.57951253  0.32491486  1.0
  H  H19  1  0.32483998  0.42037985  0.28916742  1.0
  H  H20  1  0.90439207  0.56863165  0.70496902  1.0
  H  H21  1  0.70497745  0.43133428  0.90440820  1.0
  H  H22  1  0.79043994  0.57950562  0.59556247  1.0
  H  H23  1  0.59553804  0.42039230  0.79048177  1.0
  H  H24  1  0.83832573  0.58850896  0.30663491  1.0
  H  H25  1  0.74847397  0.55236826  0.37251941  1.0
  H  H26  1  0.78877066  0.63001327  0.29657444  1.0
  H  H27  1  0.66171268  0.35508866  0.24983430  1.0
  H  H28  1  0.75154788  0.37903514  0.19613139  1.0
  H  H29  1  0.71128008  0.41469633  0.15875364  1.0
  H  H30  1  0.89514878  0.64496377  0.19336740  1.0
  H  H31  1  0.92489100  0.62099932  0.12748025  1.0
  H  H32  1  0.92659120  0.58534577  0.20342316  1.0
  H  H33  1  0.60493489  0.41157273  0.25013474  1.0
  H  H34  1  0.57518659  0.44770391  0.30383890  1.0
  H  H35  1  0.57346074  0.37005530  0.34121043  1.0
  H  H36  1  0.30656982  0.41147636  0.83834976  1.0
  H  H37  1  0.37246163  0.44760649  0.74851675  1.0
  H  H38  1  0.29653046  0.36997794  0.78878243  1.0
  H  H39  1  0.24984272  0.64492761  0.66164866  1.0
  H  H40  1  0.19613756  0.62098274  0.75148585  1.0
  H  H41  1  0.15878031  0.58532723  0.71120953  1.0
  H  H42  1  0.19331822  0.35503847  0.89514066  1.0
  H  H43  1  0.12745244  0.37901789  0.92487269  1.0
  H  H44  1  0.20339264  0.41466405  0.92657863  1.0
  H  H45  1  0.25018765  0.58846482  0.60485618  1.0
  H  H46  1  0.30389238  0.55233035  0.57512232  1.0
  H  H47  1  0.34125213  0.62997426  0.57341410  1.0
  C  C48  1  0.41206043  0.49995261  0.41217328  1.0
  C  C49  1  0.36157768  0.49996962  0.63842097  1.0
  C  C50  1  0.40990674  0.31976970  0.59012887  1.0
  C  C51  1  0.58789289  0.49993664  0.58789032  1.0
  C  C52  1  0.63843916  0.50004924  0.36156122  1.0
  C  C53  1  0.59013352  0.68024780  0.40987258  1.0
  C  C54  1  0.08790036  0.67579124  0.91208040  1.0
  C  C55  1  0.13840221  0.50000456  0.86156988  1.0
  C  C56  1  0.09012634  0.50000393  0.09011976  1.0
  C  C57  1  0.91213620  0.32424055  0.08786397  1.0
  C  C58  1  0.86162576  0.50002100  0.13840976  1.0
  C  C59  1  0.90988541  0.49999987  0.90987540  1.0
  C  C60  1  0.69618183  0.50004337  0.30383020  1.0
  C  C61  1  0.80388184  0.50002594  0.19615383  1.0
  C  C62  1  0.76709227  0.54207871  0.27938159  1.0
  C  C63  1  0.73298554  0.45358742  0.22499542  1.0
  C  C64  1  0.82147282  0.54647577  0.22060970  1.0
  C  C65  1  0.67859854  0.45799333  0.27497653  1.0
  C  C66  1  0.30382817  0.49997049  0.69615543  1.0
  C  C67  1  0.19613707  0.49998838  0.80383709  1.0
  C  C68  1  0.27935535  0.45792712  0.76707420  1.0
  C  C69  1  0.22501414  0.54643575  0.73292312  1.0
  C  C70  1  0.22057893  0.45353633  0.82144639  1.0
  C  C71  1  0.27499523  0.54202856  0.67854621  1.0
  C  C72  1  0.12576214  0.75151327  0.87423365  1.0
  C  C73  1  0.13585384  0.78925450  0.90860707  1.0
  C  C74  1  0.16964797  0.85927226  0.87499324  1.0
  C  C75  1  0.19769450  0.89538262  0.80231108  1.0
  C  C76  1  0.18962687  0.85929525  0.76572452  1.0
  C  C77  1  0.15340848  0.78928014  0.80211902  1.0
  C  C78  1  0.23339612  0.96675985  0.76662039  1.0
  C  C79  1  0.26419150  0.02838612  0.73581209  1.0
  C  C80  1  0.29990111  0.09976729  0.70012479  1.0
  C  C81  1  0.30057024  0.13594813  0.73785569  1.0
  C  C82  1  0.33475418  0.20600623  0.70183943  1.0
  C  C83  1  0.37196971  0.24391059  0.62805507  1.0
  C  C84  1  0.37131659  0.20602375  0.59216335  1.0
  C  C85  1  0.33542933  0.13596564  0.62620584  1.0
  C  C86  1  0.87426199  0.24851080  0.12572419  1.0
  C  C87  1  0.80215078  0.21076208  0.15336485  1.0
  C  C88  1  0.76573808  0.14073972  0.18960466  1.0
  C  C89  1  0.80230066  0.10462983  0.19768605  1.0
  C  C90  1  0.87497709  0.14073422  0.16966109  1.0
  C  C91  1  0.90860477  0.21075084  0.13585522  1.0
  C  C92  1  0.76662059  0.03325285  0.23337322  1.0
  C  C93  1  0.73580580  0.97162094  0.26420161  1.0
  C  C94  1  0.70012225  0.90024578  0.29987738  1.0
  C  C95  1  0.62621316  0.86405119  0.33539131  1.0
  C  C96  1  0.59216548  0.79398857  0.37127119  1.0
  C  C97  1  0.62805628  0.75610074  0.37194366  1.0
  C  C98  1  0.70184005  0.79399827  0.33470949  1.0
  C  C99  1  0.73784825  0.86405689  0.30053042  1.0
  C  C100  1  0.12804864  0.49999755  0.12805351  1.0
  C  C101  1  0.12870641  0.53654521  0.16529060  1.0
  C  C102  1  0.16458090  0.53837391  0.19947149  1.0
  C  C103  1  0.20010129  0.49998323  0.20013348  1.0
  C  C104  1  0.19943278  0.46159156  0.16461444  1.0
  C  C105  1  0.16525653  0.46342976  0.12873310  1.0
  C  C106  1  0.23580111  0.49998538  0.23581544  1.0
  C  C107  1  0.26659177  0.49994233  0.26666092  1.0
  C  C108  1  0.30226844  0.49993849  0.30235268  1.0
  C  C109  1  0.31035365  0.54459564  0.33036668  1.0
  C  C110  1  0.34655682  0.54440930  0.36418184  1.0
  C  C111  1  0.37418655  0.49993953  0.37431990  1.0
  C  C112  1  0.36407159  0.45546446  0.34668209  1.0
  C  C113  1  0.33029018  0.45528911  0.31044532  1.0
  C  C114  1  0.87195427  0.49999200  0.87194909  1.0
  C  C115  1  0.90783593  0.53654054  0.79816331  1.0
  C  C116  1  0.87379274  0.53837968  0.76214963  1.0
  C  C117  1  0.79988117  0.49998005  0.79988284  1.0
  C  C118  1  0.76215919  0.46158322  0.87379736  1.0
  C  C119  1  0.79817494  0.46342224  0.90784124  1.0
  C  C120  1  0.76418016  0.49998438  0.76420125  1.0
  C  C121  1  0.73337054  0.49997430  0.73338317  1.0
  C  C122  1  0.69767218  0.49994340  0.69770674  1.0
  C  C123  1  0.73424809  0.54458933  0.62502627  1.0
  C  C124  1  0.69785697  0.54439915  0.59140510  1.0
  C  C125  1  0.62574871  0.49993392  0.62575538  1.0
  C  C126  1  0.59139576  0.45546393  0.69786885  1.0
  C  C127  1  0.62500336  0.45528805  0.73428110  1.0
  C  C128  1  0.78668201  0.58040801  0.31539477  1.0
  C  C129  1  0.71337242  0.39798019  0.20628129  1.0
  C  C130  1  0.89580166  0.60207581  0.18460764  1.0
  C  C131  1  0.60427170  0.41967413  0.29368464  1.0
  C  C132  1  0.31534738  0.41958572  0.78669404  1.0
  C  C133  1  0.20629135  0.60204831  0.71330382  1.0
  C  C134  1  0.18457456  0.39794057  0.89577760  1.0
  C  C135  1  0.29372485  0.58035539  0.60421754  1.0
  N  N136  1  0.11349387  0.75557733  0.98366380  1.0
  N  N137  1  0.14211070  0.75562178  0.76072188  1.0
  N  N138  1  0.32588379  0.23882986  0.74725997  1.0
  N  N139  1  0.41298579  0.23886683  0.51391067  1.0
  N  N140  1  0.76077992  0.24443094  0.14204151  1.0
  N  N141  1  0.98365546  0.24441553  0.11349606  1.0
  N  N142  1  0.51392966  0.76115740  0.41294541  1.0
  N  N143  1  0.74724793  0.76117853  0.32586915  1.0
  N  N144  1  0.08704811  0.57311701  0.17412918  1.0
  N  N145  1  0.17410873  0.42687591  0.08705129  1.0
  N  N146  1  0.35787612  0.59711278  0.38652751  1.0
  N  N147  1  0.38643891  0.40277986  0.35798408  1.0
  N  N148  1  0.98607720  0.57311107  0.75274973  1.0
  N  N149  1  0.75276347  0.42686808  0.98609261  1.0
  N  N150  1  0.73924145  0.59709479  0.51634633  1.0
  N  N151  1  0.51633282  0.40276751  0.73927132  1.0
  O  O152  1  0.50003504  0.50004152  0.49999129  1.0
  O  O153  1  0.45592832  0.47772435  0.39656164  1.0
  O  O154  1  0.40465632  0.55501217  0.57960468  1.0
  O  O155  1  0.43246592  0.34823507  0.62018814  1.0
  O  O156  1  0.39648365  0.52219551  0.45603559  1.0
  O  O157  1  0.41583633  0.34825036  0.53158154  1.0
  O  O158  1  0.36536064  0.44493785  0.65038841  1.0
  O  O159  1  0.52179542  0.47772946  0.62573141  1.0
  O  O160  1  0.65040287  0.55508081  0.36534333  1.0
  O  O161  1  0.62570886  0.52214941  0.52178988  1.0
  O  O162  1  0.57962273  0.44501265  0.40462055  1.0
  O  O163  1  0.53160135  0.65177972  0.41578855  1.0
  O  O164  1  0.62020426  0.65178629  0.43242527  1.0
  O  O165  1  0.00003527  0.50003483  0.99998149  1.0
  O  O166  1  0.04401870  0.64751335  0.97818495  1.0
  O  O167  1  0.09533701  0.51575265  0.84960315  1.0
  O  O168  1  0.06757030  0.44738851  0.08420304  1.0
  O  O169  1  0.10350888  0.64752966  0.87424027  1.0
  O  O170  1  0.08421339  0.55262310  0.06757164  1.0
  O  O171  1  0.13463064  0.48426848  0.92038383  1.0
  O  O172  1  0.97823367  0.35251337  0.04398627  1.0
  O  O173  1  0.84965326  0.48426805  0.09534387  1.0
  O  O174  1  0.87430423  0.35250831  0.10347671  1.0
  O  O175  1  0.92044011  0.51576264  0.13463034  1.0
  O  O176  1  0.96842504  0.55261708  0.87979762  1.0
  O  O177  1  0.87982536  0.44738333  0.96841618  1.0
  O  O178  1  0.14593006  0.72696407  0.99710937  1.0
  O  O179  1  0.06678900  0.76209095  0.02534719  1.0
  O  O180  1  0.08106238  0.72699748  0.77589299  1.0
  O  O181  1  0.19533607  0.76216564  0.71250278  1.0
  O  O182  1  0.29406244  0.27164193  0.74450427  1.0
  O  O183  1  0.34759748  0.22726033  0.78667014  1.0
  O  O184  1  0.47762789  0.27166578  0.48383710  1.0
  O  O185  1  0.37968135  0.22733019  0.48608482  1.0
  O  O186  1  0.77598718  0.27308170  0.08097416  1.0
  O  O187  1  0.71255691  0.23788579  0.19526387  1.0
  O  O188  1  0.99709194  0.27303275  0.14593566  1.0
  O  O189  1  0.02534169  0.23789726  0.06680081  1.0
  O  O190  1  0.48386355  0.72836180  0.47759084  1.0
  O  O191  1  0.48610328  0.77269903  0.37964316  1.0
  O  O192  1  0.74450061  0.72836892  0.29404040  1.0
  O  O193  1  0.78663261  0.77273701  0.34760922  1.0
  O  O194  1  0.02241073  0.53854091  0.20595615  1.0
  O  O195  1  0.12034887  0.63424162  0.15239999  1.0
  O  O196  1  0.20595506  0.46145315  0.02240627  1.0
  O  O197  1  0.15235429  0.36574695  0.12035110  1.0
  O  O198  1  0.41894238  0.64298285  0.35407687  1.0
  O  O199  1  0.30467595  0.59212124  0.43322053  1.0
  O  O200  1  0.35401549  0.35690254  0.41904346  1.0
  O  O201  1  0.43313103  0.40780164  0.30475547  1.0
  O  O202  1  0.01614108  0.53854126  0.75549907  1.0
  O  O203  1  0.01390549  0.63424036  0.71335830  1.0
  O  O204  1  0.75550187  0.46144296  0.01615414  1.0
  O  O205  1  0.71338106  0.36573687  0.01393409  1.0
  O  O206  1  0.72404388  0.64295740  0.50291219  1.0
  O  O207  1  0.78745312  0.59209587  0.47465383  1.0
  O  O208  1  0.50286619  0.35690385  0.72407980  1.0
  O  O209  1  0.47467024  0.40776575  0.78750559  1.0
