# generated using pymatgen
data_Zn2H32C51(NO2)4
_symmetry_space_group_name_H-M   'P 1'
_cell_length_a   14.70608429
_cell_length_b   15.80273380
_cell_length_c   16.03666254
_cell_angle_alpha   89.52385509
_cell_angle_beta   73.29565014
_cell_angle_gamma   80.81710983
_symmetry_Int_Tables_number   1
_chemical_formula_structural   Zn2H32C51(NO2)4
_chemical_formula_sum   'Zn2 H32 C51 N4 O8'
_cell_volume   3521.06113718
_cell_formula_units_Z   1
loop_
 _symmetry_equiv_pos_site_id
 _symmetry_equiv_pos_as_xyz
  1  'x, y, z'
loop_
 _atom_site_type_symbol
 _atom_site_label
 _atom_site_symmetry_multiplicity
 _atom_site_fract_x
 _atom_site_fract_y
 _atom_site_fract_z
 _atom_site_occupancy
  Zn  Zn0  1  0.59709954  0.51556892  0.47383833  1.0
  Zn  Zn1  1  0.40413796  0.48586455  0.52323542  1.0
  H  H2  1  0.61675991  0.39366982  0.04488912  1.0
  H  H3  1  0.73722676  0.25420412  0.51858149  1.0
  H  H4  1  0.61843686  0.38963538  0.89848492  1.0
  H  H5  1  0.61236572  0.86017000  0.56776734  1.0
  H  H6  1  0.34907320  0.14998519  0.55526208  1.0
  H  H7  1  0.19269810  0.90907528  0.56508377  1.0
  H  H8  1  0.98027576  0.32497022  0.64701245  1.0
  H  H9  1  0.76772873  0.46219671  0.52562756  1.0
  H  H10  1  0.69281078  0.65317896  0.36975253  1.0
  H  H11  1  0.02376375  0.67283574  0.34739550  1.0
  H  H12  1  0.14733081  0.30144442  0.66384749  1.0
  H  H13  1  0.65516876  0.49111498  0.88492334  1.0
  H  H14  1  0.30907494  0.34860865  0.62886011  1.0
  H  H15  1  0.23775588  0.53243524  0.46469856  1.0
  H  H16  1  0.86102929  0.40325405  0.58327836  1.0
  H  H17  1  0.14357401  0.59308665  0.40949959  1.0
  H  H18  1  0.85577696  0.69838706  0.33286256  1.0
  H  H19  1  0.45143864  0.37567713  0.94965318  1.0
  H  H20  1  0.43322526  0.38820570  0.09786505  1.0
  H  H21  1  0.35205999  0.48504964  0.10860719  1.0
  H  H22  1  0.52774235  0.62715821  0.91087764  1.0
  H  H23  1  0.40506326  0.61822454  0.94754129  1.0
  H  H24  1  0.65589544  0.49411537  0.03095465  1.0
  H  H25  1  0.53516556  0.63065256  0.05499514  1.0
  H  H26  1  0.32915814  0.46241573  0.90143380  1.0
  H  H27  1  0.29665228  0.52441724  0.99042871  1.0
  H  H28  1  0.41072593  0.62700300  0.09175793  1.0
  H  H29  1  0.72535726  0.95836402  0.57017910  1.0
  H  H30  1  0.53363700  0.78207937  0.53159494  1.0
  H  H31  1  0.24540507  0.74969494  0.55205983  1.0
  H  H32  1  0.23120053  0.05478917  0.57132380  1.0
  H  H33  1  0.77205202  0.09865485  0.55039938  1.0
  C  C34  1  0.58043530  0.33899899  0.48494154  1.0
  C  C35  1  0.39347643  0.75849578  0.54043230  1.0
  C  C36  1  0.70406563  0.12569763  0.53836935  1.0
  C  C37  1  0.49672642  0.49055331  0.66235804  1.0
  C  C38  1  0.68593294  0.21108285  0.52006335  1.0
  C  C39  1  0.53212743  0.19132241  0.50090028  1.0
  C  C40  1  0.54491473  0.10461362  0.52812386  1.0
  C  C41  1  0.63553310  0.07121954  0.54222140  1.0
  C  C42  1  0.47288138  0.04898257  0.54089302  1.0
  C  C43  1  0.50021115  0.95941827  0.54814327  1.0
  C  C44  1  0.59322424  0.92805493  0.55727382  1.0
  C  C45  1  0.60081883  0.45851924  0.02199019  1.0
  C  C46  1  0.65652295  0.98243028  0.55836409  1.0
  C  C47  1  0.37343027  0.08126072  0.55222060  1.0
  C  C48  1  0.30679861  0.02784784  0.56152045  1.0
  C  C49  1  0.42709278  0.66371676  0.52640374  1.0
  C  C50  1  0.33420734  0.93711366  0.55681837  1.0
  C  C51  1  0.43210686  0.90209333  0.54974614  1.0
  C  C52  1  0.26736593  0.88116320  0.55874716  1.0
  C  C53  1  0.29593595  0.79341080  0.55125281  1.0
  C  C54  1  0.45932386  0.81216538  0.54094349  1.0
  C  C55  1  0.16403066  0.35347413  0.61980493  1.0
  C  C56  1  0.50120936  0.50245801  0.08023319  1.0
  C  C57  1  0.25294028  0.37852526  0.60105901  1.0
  C  C58  1  0.21227645  0.48289260  0.50884255  1.0
  C  C59  1  0.11886146  0.46323158  0.52433652  1.0
  C  C60  1  0.09397551  0.39623626  0.58255369  1.0
  C  C61  1  0.50122895  0.50792412  0.33662539  1.0
  C  C62  1  0.04908015  0.50912642  0.48551863  1.0
  C  C63  1  0.95563977  0.48699106  0.50693486  1.0
  C  C64  1  0.93305486  0.41984376  0.56587998  1.0
  C  C65  1  0.99938136  0.37581172  0.60202261  1.0
  C  C66  1  0.07152959  0.57659236  0.42695545  1.0
  C  C67  1  0.47957449  0.59437090  0.04845256  1.0
  C  C68  1  0.00485191  0.62145497  0.39172179  1.0
  C  C69  1  0.91016358  0.60128356  0.41147259  1.0
  C  C70  1  0.88568774  0.53329387  0.46853501  1.0
  C  C71  1  0.83932525  0.64563580  0.37598514  1.0
  C  C72  1  0.74992686  0.62142293  0.39545537  1.0
  C  C73  1  0.60093582  0.45590079  0.92562490  1.0
  C  C74  1  0.79225385  0.51367289  0.48382286  1.0
  C  C75  1  0.42484713  0.44286088  0.97359962  1.0
  C  C76  1  0.42308284  0.45155472  0.07009831  1.0
  C  C77  1  0.50239452  0.50858219  0.24613994  1.0
  C  C78  1  0.47641393  0.59026737  0.95302892  1.0
  C  C79  1  0.50086664  0.49603170  0.91738998  1.0
  C  C80  1  0.45569278  0.22134618  0.46375693  1.0
  C  C81  1  0.50134448  0.50631141  0.17065527  1.0
  C  C82  1  0.50037748  0.49296888  0.82724786  1.0
  C  C83  1  0.49791231  0.49020827  0.75218649  1.0
  C  C84  1  0.60029578  0.24472387  0.50052208  1.0
  N  N85  1  0.27580495  0.44314384  0.54661643  1.0
  N  N86  1  0.72768046  0.55541895  0.44827446  1.0
  N  N87  1  0.39616950  0.23885755  0.42844277  1.0
  N  N88  1  0.32767080  0.46389746  0.96557025  1.0
  O  O89  1  0.64959993  0.38140161  0.46860793  1.0
  O  O90  1  0.49278532  0.36961842  0.49354565  1.0
  O  O91  1  0.57324532  0.50546070  0.60650243  1.0
  O  O92  1  0.41984931  0.47644723  0.64743304  1.0
  O  O93  1  0.51758600  0.63857301  0.49771759  1.0
  O  O94  1  0.36263406  0.61571359  0.54388057  1.0
  O  O95  1  0.58115754  0.51023227  0.35237743  1.0
  O  O96  1  0.42046878  0.50472480  0.39228954  1.0
