# generated using pymatgen
data_CdH10C12(NO)4
_symmetry_space_group_name_H-M   'P 1'
_cell_length_a   17.56173904
_cell_length_b   17.56176868
_cell_length_c   17.56175217
_cell_angle_alpha   82.18494692
_cell_angle_beta   64.40518777
_cell_angle_gamma   115.59490704
_symmetry_Int_Tables_number   1
_chemical_formula_structural   CdH10C12(NO)4
_chemical_formula_sum   'Cd8 H80 C96 N32 O32'
_cell_volume   4044.14005736
_cell_formula_units_Z   8
loop_
 _symmetry_equiv_pos_site_id
 _symmetry_equiv_pos_as_xyz
  1  'x, y, z'
loop_
 _atom_site_type_symbol
 _atom_site_label
 _atom_site_symmetry_multiplicity
 _atom_site_fract_x
 _atom_site_fract_y
 _atom_site_fract_z
 _atom_site_occupancy
  Cd  Cd0  1  0.54499957  0.59569918  0.29149954  1.0
  Cd  Cd1  1  0.88720219  0.05070310  0.90430182  1.0
  Cd  Cd2  1  0.61279877  0.20849997  0.33650098  1.0
  Cd  Cd3  1  0.04499919  0.83650317  0.55070198  1.0
  Cd  Cd4  1  0.38720143  0.79149992  0.66349929  1.0
  Cd  Cd5  1  0.45500126  0.40430071  0.70850046  1.0
  Cd  Cd6  1  0.11279801  0.94929680  0.09569788  1.0
  Cd  Cd7  1  0.95500038  0.16349673  0.44929799  1.0
  H  H8  1  0.44455445  0.26164200  0.44115408  1.0
  H  H9  1  0.70279693  0.81708762  0.23835748  1.0
  H  H10  1  0.79720311  0.05884375  0.38570888  1.0
  H  H11  1  0.94455368  0.88570712  0.31708666  1.0
  H  H12  1  0.20279709  0.94115615  0.61429082  1.0
  H  H13  1  0.55544575  0.73835789  0.55884619  1.0
  H  H14  1  0.29720327  0.18291228  0.76164279  1.0
  H  H15  1  0.05544589  0.11429278  0.68291331  1.0
  H  H16  1  0.29095806  0.61312558  0.58674083  1.0
  H  H17  1  0.19986979  0.32216999  0.88687434  1.0
  H  H18  1  0.30013307  0.91325940  0.37769969  1.0
  H  H19  1  0.79095685  0.87769923  0.82217018  1.0
  H  H20  1  0.69986714  0.08674050  0.62230001  1.0
  H  H21  1  0.70904151  0.38687431  0.41325971  1.0
  H  H22  1  0.80013041  0.67782991  0.11312593  1.0
  H  H23  1  0.20904272  0.12230066  0.17783036  1.0
  H  H24  1  0.35279729  0.39279238  0.30957186  1.0
  H  H25  1  0.70236892  0.03999852  0.10720862  1.0
  H  H26  1  0.79763347  0.19042630  0.16237183  1.0
  H  H27  1  0.85279769  0.66237353  0.53999577  1.0
  H  H28  1  0.20236632  0.80957291  0.83762814  1.0
  H  H29  1  0.64720292  0.60720752  0.69042840  1.0
  H  H30  1  0.29763170  0.96000206  0.89279138  1.0
  H  H31  1  0.14720252  0.33762638  0.46000392  1.0
  H  H32  1  0.55725136  0.43432055  0.38906361  1.0
  H  H33  1  0.82338782  0.87707201  0.06567852  1.0
  H  H34  1  0.67661412  0.11093501  0.44631551  1.0
  H  H35  1  0.05724982  0.94631452  0.37707037  1.0
  H  H36  1  0.32338608  0.88906489  0.55368420  1.0
  H  H37  1  0.44274884  0.56567934  0.61093609  1.0
  H  H38  1  0.17661322  0.12292927  0.93432120  1.0
  H  H39  1  0.94274912  0.05368538  0.62293045  1.0
  H  H40  1  0.23855589  0.19593755  0.38286102  1.0
  H  H41  1  0.57879986  0.95738302  0.30406255  1.0
  H  H42  1  0.92119950  0.11713739  0.12141791  1.0
  H  H43  1  0.73855681  0.62141841  0.45738071  1.0
  H  H44  1  0.07880070  0.88286250  0.87858179  1.0
  H  H45  1  0.76144368  0.80406235  0.61713952  1.0
  H  H46  1  0.42119971  0.04261687  0.69593743  1.0
  H  H47  1  0.26144340  0.37858149  0.54261898  1.0
  H  H48  1  0.31029598  0.12405607  0.49053130  1.0
  H  H49  1  0.61458651  0.81376008  0.37594435  1.0
  H  H50  1  0.88541323  0.00946704  0.30082596  1.0
  H  H51  1  0.81029488  0.80082543  0.31375963  1.0
  H  H52  1  0.11458592  0.99053217  0.69917429  1.0
  H  H53  1  0.68970380  0.87594313  0.50946868  1.0
  H  H54  1  0.38541411  0.18624050  0.62405564  1.0
  H  H55  1  0.18970533  0.19917447  0.68624063  1.0
  H  H56  1  0.41365521  0.69337366  0.29900314  1.0
  H  H57  1  0.99237657  0.27972025  0.80662845  1.0
  H  H58  1  0.50762251  0.20099558  0.21265825  1.0
  H  H59  1  0.91365664  0.71265900  0.77971845  1.0
  H  H60  1  0.49237748  0.79900501  0.78734202  1.0
  H  H61  1  0.58634541  0.30662693  0.70099685  1.0
  H  H62  1  0.00762531  0.72028034  0.19337043  1.0
  H  H63  1  0.08634335  0.28734158  0.22028125  1.0
  H  H64  1  0.38140468  0.53288875  0.52625838  1.0
  H  H65  1  0.05915162  0.15148885  0.96711111  1.0
  H  H66  1  0.44085105  0.97374120  0.40766447  1.0
  H  H67  1  0.88140259  0.90766311  0.65148873  1.0
  H  H68  1  0.55914937  0.02625801  0.59233466  1.0
  H  H69  1  0.61859553  0.46711115  0.47374131  1.0
  H  H70  1  0.94084858  0.84851105  0.03288859  1.0
  H  H71  1  0.11859698  0.09233678  0.34851181  1.0
  H  H72  1  0.29635066  0.75761442  0.38985759  1.0
  H  H73  1  0.14747012  0.46126254  0.74238717  1.0
  H  H74  1  0.35252931  0.11014192  0.18620727  1.0
  H  H75  1  0.79635063  0.68620671  0.96126287  1.0
  H  H76  1  0.64747131  0.88985867  0.81379273  1.0
  H  H77  1  0.70364891  0.24238548  0.61014295  1.0
  H  H78  1  0.85253050  0.53873804  0.25761339  1.0
  H  H79  1  0.20364895  0.31379319  0.03873709  1.0
  H  H80  1  0.18012172  0.66695667  0.60154847  1.0
  H  H81  1  0.26850536  0.48683597  0.83304534  1.0
  H  H82  1  0.23149506  0.89845098  0.28166944  1.0
  H  H83  1  0.68011878  0.78166797  0.98683495  1.0
  H  H84  1  0.76850430  0.10154961  0.71833053  1.0
  H  H85  1  0.81987785  0.33304323  0.39845151  1.0
  H  H86  1  0.73149567  0.51316530  0.16695496  1.0
  H  H87  1  0.31988080  0.21833193  0.01316559  1.0
  C  C88  1  0.36521200  0.29084997  0.38575194  1.0
  C  C89  1  0.67660480  0.92564022  0.20914983  1.0
  C  C90  1  0.82339664  0.11424601  0.25096541  1.0
  C  C91  1  0.86521211  0.75096503  0.42563743  1.0
  C  C92  1  0.17660315  0.88575321  0.74903456  1.0
  C  C93  1  0.63478757  0.70914992  0.61424860  1.0
  C  C94  1  0.32339582  0.07436037  0.79085016  1.0
  C  C95  1  0.13478746  0.24903486  0.57436254  1.0
  C  C96  1  0.38918858  0.37675526  0.33976611  1.0
  C  C97  1  0.71652633  0.98757029  0.12324541  1.0
  C  C98  1  0.78347514  0.16023123  0.22895729  1.0
  C  C99  1  0.88918779  0.72895776  0.48756871  1.0
  C  C100  1  0.21652443  0.83976867  0.77104268  1.0
  C  C101  1  0.61081163  0.62324464  0.66023415  1.0
  C  C102  1  0.28347366  0.01243029  0.87675486  1.0
  C  C103  1  0.11081179  0.27104214  0.51243182  1.0
  C  C104  1  0.49544595  0.40004411  0.38025298  1.0
  C  C105  1  0.78029929  0.90459992  0.09995594  1.0
  C  C106  1  0.71970117  0.11974517  0.37570008  1.0
  C  C107  1  0.99544472  0.87569961  0.40459880  1.0
  C  C108  1  0.28029862  0.88025404  0.62429989  1.0
  C  C109  1  0.50455363  0.59995580  0.61974755  1.0
  C  C110  1  0.21970070  0.09540067  0.90004376  1.0
  C  C111  1  0.00455422  0.12430029  0.59540202  1.0
  C  C112  1  0.28575392  0.20032929  0.40919683  1.0
  C  C113  1  0.60952711  0.91457613  0.29967136  1.0
  C  C114  1  0.89047342  0.09080075  0.19495112  1.0
  C  C115  1  0.78575264  0.69495094  0.41457531  1.0
  C  C116  1  0.10952636  0.90919845  0.80504886  1.0
  C  C117  1  0.71424628  0.79967060  0.59080344  1.0
  C  C118  1  0.39047309  0.08542376  0.70032834  1.0
  C  C119  1  0.21424630  0.30504896  0.58542550  1.0
  C  C120  1  0.26537394  0.12209823  0.46221307  1.0
  C  C121  1  0.58431051  0.85672460  0.37790225  1.0
  C  C122  1  0.91568985  0.03778522  0.22758608  1.0
  C  C123  1  0.76537264  0.72758559  0.35672313  1.0
  C  C124  1  0.08430994  0.96221400  0.77241389  1.0
  C  C125  1  0.73462689  0.87790166  0.53778636  1.0
  C  C126  1  0.41568970  0.14327531  0.62209745  1.0
  C  C127  1  0.23462756  0.27241430  0.64327658  1.0
  C  C128  1  0.18295424  0.02980121  0.48592265  1.0
  C  C129  1  0.51572129  0.84684484  0.47020044  1.0
  C  C130  1  0.98427893  0.01407585  0.16887753  1.0
  C  C131  1  0.68295559  0.66887767  0.34684197  1.0
  C  C132  1  0.01572085  0.98592335  0.83112302  1.0
  C  C133  1  0.81704597  0.97019870  0.51407704  1.0
  C  C134  1  0.48427828  0.15315505  0.52980010  1.0
  C  C135  1  0.31704629  0.33112292  0.65315634  1.0
  C  C136  1  0.32809688  0.66903821  0.44759587  1.0
  C  C137  1  0.11663531  0.34094403  0.83096170  1.0
  C  C138  1  0.38336607  0.05240339  0.27569264  1.0
  C  C139  1  0.82809696  0.77569304  0.84094248  1.0
  C  C140  1  0.61663455  0.94759720  0.72430678  1.0
  C  C141  1  0.67190311  0.33096237  0.55240383  1.0
  C  C142  1  0.88336572  0.65905724  0.16903689  1.0
  C  C143  1  0.17190262  0.22430686  0.15905749  1.0
  C  C144  1  0.38920535  0.66195221  0.36969373  1.0
  C  C145  1  0.03164661  0.27274927  0.83804918  1.0
  C  C146  1  0.46835330  0.13030542  0.25889942  1.0
  C  C147  1  0.88920605  0.75890045  0.77274807  1.0
  C  C148  1  0.53164732  0.86969516  0.74110058  1.0
  C  C149  1  0.61079464  0.33804838  0.63030654  1.0
  C  C150  1  0.96835401  0.72725132  0.16195024  1.0
  C  C151  1  0.11079393  0.24110013  0.22725221  1.0
  C  C152  1  0.37532937  0.57936908  0.48485072  1.0
  C  C153  1  0.06422359  0.20404345  0.92063128  1.0
  C  C154  1  0.43577835  0.01514861  0.36018119  1.0
  C  C155  1  0.87532824  0.86018132  0.70404319  1.0
  C  C156  1  0.56422185  0.98485129  0.63981794  1.0
  C  C157  1  0.62467125  0.42063151  0.51514928  1.0
  C  C158  1  0.93577662  0.79595645  0.07936841  1.0
  C  C159  1  0.12467070  0.13981858  0.29595706  1.0
  C  C160  1  0.27699228  0.71566893  0.45530899  1.0
  C  C161  1  0.17097718  0.43867710  0.78433300  1.0
  C  C162  1  0.32902234  0.04469012  0.23230011  1.0
  C  C163  1  0.77699109  0.73229983  0.93867702  1.0
  C  C164  1  0.67097828  0.95531046  0.76769931  1.0
  C  C165  1  0.72300729  0.28433096  0.54469155  1.0
  C  C166  1  0.82902302  0.56132280  0.21566784  1.0
  C  C167  1  0.22300849  0.26770007  0.06132294  1.0
  C  C168  1  0.20557161  0.70945837  0.53357236  1.0
  C  C169  1  0.24303007  0.50388671  0.79054358  1.0
  C  C170  1  0.25697073  0.96642706  0.23914238  1.0
  C  C171  1  0.70556872  0.73914146  0.00388653  1.0
  C  C172  1  0.74302989  0.03357352  0.76085762  1.0
  C  C173  1  0.79442796  0.29054153  0.46642762  1.0
  C  C174  1  0.75697055  0.49611388  0.20945642  1.0
  C  C175  1  0.29443085  0.26085843  0.99611402  1.0
  C  C176  1  0.15333710  0.75588001  0.53141096  1.0
  C  C177  1  0.28728857  0.60254201  0.74412271  1.0
  C  C178  1  0.21271122  0.96858806  0.18474513  1.0
  C  C179  1  0.65333397  0.68474476  0.10254179  1.0
  C  C180  1  0.78728877  0.03141253  0.81525514  1.0
  C  C181  1  0.84666184  0.24411988  0.46858929  1.0
  C  C182  1  0.71271078  0.39745857  0.25587841  1.0
  C  C183  1  0.34666624  0.31525514  0.89745847  1.0
  N  N184  1  0.43432643  0.30872567  0.41042864  1.0
  N  N185  1  0.71915632  0.87440080  0.19127377  1.0
  N  N186  1  0.78084404  0.08956848  0.34475593  1.0
  N  N187  1  0.93432532  0.84475492  0.37439933  1.0
  N  N188  1  0.21915575  0.91043073  0.65524403  1.0
  N  N189  1  0.56567378  0.69127423  0.58957162  1.0
  N  N190  1  0.28084325  0.12559910  0.80872620  1.0
  N  N191  1  0.06567425  0.15524497  0.62560121  1.0
  N  N192  1  0.46990105  0.44373119  0.33729788  1.0
  N  N193  1  0.78103415  0.97383342  0.05626927  1.0
  N  N194  1  0.71896848  0.16269976  0.30720075  1.0
  N  N195  1  0.96989974  0.80720204  0.47383231  1.0
  N  N196  1  0.28103172  0.83730013  0.69279895  1.0
  N  N197  1  0.53009915  0.55626870  0.66270182  1.0
  N  N198  1  0.21896584  0.02616717  0.94373042  1.0
  N  N199  1  0.03009962  0.19279855  0.52616823  1.0
  N  N200  1  0.32089662  0.61566321  0.51951491  1.0
  N  N201  1  0.13518112  0.29476937  0.88433684  1.0
  N  N202  1  0.36482132  0.98048517  0.34041218  1.0
  N  N203  1  0.82089687  0.84041240  0.79476873  1.0
  N  N204  1  0.63517952  0.01951474  0.65958724  1.0
  N  N205  1  0.67910296  0.38433669  0.48048562  1.0
  N  N206  1  0.86481908  0.70523052  0.11566400  1.0
  N  N207  1  0.17910270  0.15958749  0.20523124  1.0
  N  N208  1  0.41732256  0.60583725  0.39382391  1.0
  N  N209  1  0.99966399  0.18851815  0.89416277  1.0
  N  N210  1  0.50033697  0.10617451  0.31114813  1.0
  N  N211  1  0.91732378  0.81114850  0.68851677  1.0
  N  N212  1  0.49966304  0.89382402  0.68885183  1.0
  N  N213  1  0.58267743  0.39416334  0.60617579  1.0
  N  N214  1  0.00033726  0.81148243  0.10583582  1.0
  N  N215  1  0.08267643  0.18885140  0.31148349  1.0
  O  O216  1  0.07432192  0.73334505  0.60732377  1.0
  O  O217  1  0.34066907  0.65902341  0.76665578  1.0
  O  O218  1  0.15933380  0.89267558  0.18164219  1.0
  O  O219  1  0.57431968  0.68164431  0.15902115  1.0
  O  O220  1  0.84066661  0.10732570  0.81835723  1.0
  O  O221  1  0.92567578  0.26665279  0.39267615  1.0
  O  O222  1  0.65933007  0.34097787  0.23334477  1.0
  O  O223  1  0.42568052  0.31835558  0.84097912  1.0
  O  O224  1  0.18590854  0.81612844  0.45561166  1.0
  O  O225  1  0.27173580  0.63021733  0.68387484  1.0
  O  O226  1  0.22826314  0.04438749  0.14151638  1.0
  O  O227  1  0.68590566  0.64151695  0.13021865  1.0
  O  O228  1  0.77173685  0.95561310  0.85848388  1.0
  O  O229  1  0.81409250  0.18387284  0.54438863  1.0
  O  O230  1  0.72826441  0.36978257  0.31612542  1.0
  O  O231  1  0.31409496  0.35848364  0.86978078  1.0
  O  O232  1  0.16660580  0.96256052  0.54608845  1.0
  O  O233  1  0.50864426  0.79595088  0.53744130  1.0
  O  O234  1  0.99135259  0.95390911  0.21269346  1.0
  O  O235  1  0.66660655  0.71269426  0.29595031  1.0
  O  O236  1  0.00864698  0.04609079  0.78730708  1.0
  O  O237  1  0.83339441  0.03743938  0.45391067  1.0
  O  O238  1  0.49135490  0.20404833  0.46255894  1.0
  O  O239  1  0.33333333  0.28724558  0.70410985  1.0
  O  O240  1  0.13141232  0.01534247  0.45082243  1.0
  O  O241  1  0.46616201  0.88392866  0.48466050  1.0
  O  O242  1  0.03384045  0.04917808  0.08223522  1.0
  O  O243  1  0.63141383  0.58223532  0.38392328  1.0
  O  O244  1  0.96615975  0.95082181  0.91776505  1.0
  O  O245  1  0.86858894  0.98465813  0.54917614  1.0
  O  O246  1  0.53383756  0.11607124  0.51534004  1.0
  O  O247  1  0.36858953  0.41776458  0.61607277  1.0
