# generated using pymatgen
data_Zn4H8C24S4O15
_symmetry_space_group_name_H-M   'P 1'
_cell_length_a   19.66731252
_cell_length_b   19.66792184
_cell_length_c   33.37658514
_cell_angle_alpha   79.19552602
_cell_angle_beta   79.20001311
_cell_angle_gamma   63.95897522
_symmetry_Int_Tables_number   1
_chemical_formula_structural   Zn4H8C24S4O15
_chemical_formula_sum   'Zn16 H32 C96 S16 O60'
_cell_volume   11313.19339404
_cell_formula_units_Z   4
loop_
 _symmetry_equiv_pos_site_id
 _symmetry_equiv_pos_as_xyz
  1  'x, y, z'
loop_
 _atom_site_type_symbol
 _atom_site_label
 _atom_site_symmetry_multiplicity
 _atom_site_fract_x
 _atom_site_fract_y
 _atom_site_fract_z
 _atom_site_occupancy
  Zn  Zn0  1  0.59994168  0.94420783  0.52156199  1.0
  Zn  Zn1  1  0.51755507  0.01663397  0.43931257  1.0
  Zn  Zn2  1  0.44055440  0.94021206  0.51733248  1.0
  Zn  Zn3  1  0.44442667  0.09814210  0.52104935  1.0
  Zn  Zn4  1  0.65024215  0.30633304  0.72814874  1.0
  Zn  Zn5  1  0.81057917  0.31091291  0.73279914  1.0
  Zn  Zn6  1  0.73209677  0.23305520  0.80962174  1.0
  Zn  Zn7  1  0.80611859  0.15209205  0.72866553  1.0
  Zn  Zn8  1  0.23333250  0.73247448  0.31070417  1.0
  Zn  Zn9  1  0.30575081  0.65011026  0.22841248  1.0
  Zn  Zn10  1  0.15184841  0.80570127  0.22890117  1.0
  Zn  Zn11  1  0.30984258  0.80941243  0.23265434  1.0
  Zn  Zn12  1  0.93903331  0.43945865  0.01717418  1.0
  Zn  Zn13  1  0.94386482  0.59958280  0.02182762  1.0
  Zn  Zn14  1  0.09796722  0.44388472  0.02129865  1.0
  Zn  Zn15  1  0.01697445  0.51781984  0.94034816  1.0
  H  H16  1  0.54706748  0.25177808  0.64952971  1.0
  H  H17  1  0.70295001  0.99812688  0.60050667  1.0
  H  H18  1  0.29934846  0.79925475  0.40170814  1.0
  H  H19  1  0.45059287  0.95077752  0.34832881  1.0
  H  H20  1  0.48903361  0.71409395  0.59063082  1.0
  H  H21  1  0.76065886  0.53656065  0.65908634  1.0
  H  H22  1  0.45307752  0.22805618  0.35172828  1.0
  H  H23  1  0.29714162  0.52126681  0.39861113  1.0
  H  H24  1  0.72870489  0.95284965  0.35141909  1.0
  H  H25  1  0.02191813  0.79684115  0.39828381  1.0
  H  H26  1  0.22118411  0.19915981  0.59770555  1.0
  H  H27  1  0.02941445  0.05064180  0.65200219  1.0
  H  H28  1  0.84820272  0.34839813  0.95064884  1.0
  H  H29  1  0.90188744  0.40152276  0.79931313  1.0
  H  H30  1  0.52120096  0.29721964  0.89870716  1.0
  H  H31  1  0.22810069  0.45302571  0.85166221  1.0
  H  H32  1  0.89115434  0.91357871  0.78984031  1.0
  H  H33  1  0.85858335  0.83707694  0.95988234  1.0
  H  H34  1  0.99816180  0.70285113  0.10042459  1.0
  H  H35  1  0.25172585  0.54716494  0.14951919  1.0
  H  H36  1  0.52876939  0.55098561  0.15242736  1.0
  H  H37  1  0.72065333  0.69934777  0.09780505  1.0
  H  H38  1  0.26089883  0.03581774  0.15945897  1.0
  H  H39  1  0.98942725  0.21368313  0.09084865  1.0
  H  H40  1  0.47234518  0.19131864  0.58180887  1.0
  H  H41  1  0.77756144  0.05883861  0.66820638  1.0
  H  H42  1  0.36326318  0.86355089  0.47293273  1.0
  H  H43  1  0.38660081  0.88652647  0.27711190  1.0
  H  H44  1  0.77716201  0.27693420  0.88657629  1.0
  H  H45  1  0.97284201  0.47306655  0.86338936  1.0
  H  H46  1  0.05850139  0.77777504  0.16808802  1.0
  H  H47  1  0.19150521  0.47218638  0.08184464  1.0
  C  C48  1  0.68457354  0.93855217  0.43821258  1.0
  C  C49  1  0.43023208  0.93041187  0.43034247  1.0
  C  C50  1  0.56101421  0.81585018  0.56130868  1.0
  C  C51  1  0.31597542  0.06180194  0.56139870  1.0
  C  C52  1  0.56967895  0.06966390  0.56967181  1.0
  C  C53  1  0.43878594  0.18395373  0.43845611  1.0
  C  C54  1  0.68880272  0.43468261  0.68846931  1.0
  C  C55  1  0.81977213  0.31947962  0.81965726  1.0
  C  C56  1  0.56555078  0.31139489  0.81178042  1.0
  C  C57  1  0.81145267  0.06582534  0.81120282  1.0
  C  C58  1  0.68032741  0.18033590  0.68036857  1.0
  C  C59  1  0.93460469  0.18809988  0.68839483  1.0
  C  C60  1  0.31135897  0.56540013  0.31176725  1.0
  C  C61  1  0.18024281  0.68040259  0.18031039  1.0
  C  C62  1  0.06608063  0.81108533  0.31155595  1.0
  C  C63  1  0.18892046  0.93415863  0.18863295  1.0
  C  C64  1  0.31968353  0.81960613  0.31971229  1.0
  C  C65  1  0.43421436  0.68827969  0.18863405  1.0
  C  C66  1  0.81540675  0.56190890  0.06154851  1.0
  C  C67  1  0.06971852  0.56958058  0.06961793  1.0
  C  C68  1  0.06120544  0.31550484  0.06153658  1.0
  C  C69  1  0.18379142  0.43876271  0.93846523  1.0
  C  C70  1  0.93031214  0.43040933  0.93032109  1.0
  C  C71  1  0.93821729  0.68478831  0.93859690  1.0
  C  C72  1  0.59705788  0.09891694  0.59811264  1.0
  C  C73  1  0.65286908  0.15093973  0.65201445  1.0
  C  C74  1  0.55215103  0.17166471  0.61209782  1.0
  C  C75  1  0.69776709  0.07816978  0.63802964  1.0
  C  C76  1  0.58107804  0.19618555  0.63880382  1.0
  C  C77  1  0.66887076  0.05365121  0.61130988  1.0
  C  C78  1  0.40138293  0.90153230  0.40244280  1.0
  C  C79  1  0.34850508  0.84853593  0.34759782  1.0
  C  C80  1  0.35804982  0.85809878  0.41791361  1.0
  C  C81  1  0.39185959  0.89196768  0.33212968  1.0
  C  C82  1  0.33248657  0.83247337  0.39007862  1.0
  C  C83  1  0.41742441  0.91758571  0.35995931  1.0
  C  C84  1  0.54588722  0.69669037  0.59868247  1.0
  C  C85  1  0.70380454  0.55395445  0.65105469  1.0
  C  C86  1  0.58627487  0.74115802  0.58619896  1.0
  C  C87  1  0.66349123  0.50941555  0.66352589  1.0
  C  C88  1  0.66108763  0.62214163  0.62745682  1.0
  C  C89  1  0.58857187  0.62853046  0.62230905  1.0
  C  C90  1  0.42406560  0.27331132  0.37139816  1.0
  C  C91  1  0.32620162  0.47604297  0.37892127  1.0
  C  C92  1  0.41375531  0.25886176  0.41380459  1.0
  C  C93  1  0.33650208  0.49050514  0.33650136  1.0
  C  C94  1  0.35806626  0.39700182  0.39167827  1.0
  C  C95  1  0.39223081  0.35234785  0.35864413  1.0
  C  C96  1  0.77395053  0.92377310  0.37108776  1.0
  C  C97  1  0.97666279  0.82585722  0.37860893  1.0
  C  C98  1  0.75948356  0.91344481  0.41349821  1.0
  C  C99  1  0.99115629  0.83616042  0.33619472  1.0
  C  C100  1  0.89763278  0.85770320  0.39135711  1.0
  C  C101  1  0.85299799  0.89190558  0.35831066  1.0
  C  C102  1  0.20038962  0.15502301  0.60235612  1.0
  C  C103  1  0.05020913  0.09477169  0.64736823  1.0
  C  C104  1  0.24129139  0.08626122  0.58630588  1.0
  C  C105  1  0.00929893  0.16357220  0.66342028  1.0
  C  C106  1  0.11979580  0.09153754  0.62514121  1.0
  C  C107  1  0.13084390  0.15818981  0.62460068  1.0
  C  C108  1  0.84767622  0.34743052  0.84851451  1.0
  C  C109  1  0.90245227  0.40244187  0.90145336  1.0
  C  C110  1  0.83213174  0.33206813  0.89189197  1.0
  C  C111  1  0.91795912  0.41785104  0.85807251  1.0
  C  C112  1  0.85992406  0.35995817  0.91748263  1.0
  C  C113  1  0.89019143  0.38993307  0.83247831  1.0
  C  C114  1  0.47604942  0.32628382  0.87896433  1.0
  C  C115  1  0.27328819  0.42400712  0.87137883  1.0
  C  C116  1  0.49063272  0.33658407  0.83653353  1.0
  C  C117  1  0.25872827  0.41369323  0.91379509  1.0
  C  C118  1  0.35235565  0.39223101  0.85864420  1.0
  C  C119  1  0.39697955  0.35808557  0.89169555  1.0
  C  C120  1  0.87499330  0.92045952  0.82231020  1.0
  C  C121  1  0.87482961  0.83017768  0.92742200  1.0
  C  C122  1  0.83625192  0.99130190  0.83630557  1.0
  C  C123  1  0.91351016  0.75930972  0.91344677  1.0
  C  C124  1  0.86078726  0.88888190  0.89429519  1.0
  C  C125  1  0.88909819  0.86173070  0.85543410  1.0
  C  C126  1  0.15090115  0.65295346  0.15193614  1.0
  C  C127  1  0.09899146  0.59701659  0.09802950  1.0
  C  C128  1  0.07813058  0.69779740  0.13793966  1.0
  C  C129  1  0.17173035  0.55217153  0.11203612  1.0
  C  C130  1  0.05369758  0.66881589  0.11122117  1.0
  C  C131  1  0.19617458  0.58117583  0.13874554  1.0
  C  C132  1  0.54971920  0.59501537  0.14770924  1.0
  C  C133  1  0.69980711  0.65524395  0.10248611  1.0
  C  C134  1  0.50891484  0.66379810  0.16374128  1.0
  C  C135  1  0.74065129  0.58646738  0.08645718  1.0
  C  C136  1  0.63032976  0.65842271  0.12482324  1.0
  C  C137  1  0.61926218  0.59176166  0.12542436  1.0
  C  C138  1  0.20406803  0.05335592  0.15134293  1.0
  C  C139  1  0.04626541  0.19625523  0.09891664  1.0
  C  C140  1  0.16369063  0.00884324  0.16371217  1.0
  C  C141  1  0.08660228  0.24077684  0.08648011  1.0
  C  C142  1  0.08894310  0.12804419  0.12252194  1.0
  C  C143  1  0.16143637  0.12160894  0.12774668  1.0
  S  S144  1  0.67590996  0.70062213  0.60298458  1.0
  S  S145  1  0.57381875  0.54999245  0.64675275  1.0
  S  S146  1  0.36558188  0.34075961  0.43832946  1.0
  S  S147  1  0.38471365  0.40859116  0.31199957  1.0
  S  S148  1  0.84140188  0.86519379  0.43800642  1.0
  S  S149  1  0.90926052  0.88438133  0.31166366  1.0
  S  S150  1  0.19572924  0.02533671  0.59809867  1.0
  S  S151  1  0.05494401  0.22440716  0.65162731  1.0
  S  S152  1  0.40869761  0.38475663  0.81201047  1.0
  S  S153  1  0.34064441  0.36553486  0.93833485  1.0
  S  S154  1  0.81684546  0.98699261  0.88953644  1.0
  S  S155  1  0.93294530  0.76360986  0.86021349  1.0
  S  S156  1  0.55453201  0.72465615  0.15189310  1.0
  S  S157  1  0.69510190  0.52554404  0.09836052  1.0
  S  S158  1  0.07410690  0.04949158  0.14683719  1.0
  S  S159  1  0.17623187  0.20016895  0.10332806  1.0
  O  O160  1  0.50101266  0.99966078  0.49966349  1.0
  O  O161  1  0.68465692  0.92201353  0.47719525  1.0
  O  O162  1  0.46873006  0.96867188  0.41471930  1.0
  O  O163  1  0.49440146  0.84331951  0.55004857  1.0
  O  O164  1  0.62628163  0.97450702  0.41867721  1.0
  O  O165  1  0.60812355  0.84674879  0.55315609  1.0
  O  O166  1  0.41408394  0.91454678  0.46947193  1.0
  O  O167  1  0.34345470  0.99530400  0.54983241  1.0
  O  O168  1  0.50299042  0.11330137  0.55808380  1.0
  O  O169  1  0.34693552  0.10873576  0.55343782  1.0
  O  O170  1  0.61226081  0.00435138  0.55824416  1.0
  O  O171  1  0.47448031  0.12566303  0.41895773  1.0
  O  O172  1  0.42236892  0.18403587  0.47747357  1.0
  O  O173  1  0.74963190  0.25099422  0.74965573  1.0
  O  O174  1  0.64140335  0.40408660  0.69680959  1.0
  O  O175  1  0.83543494  0.33500632  0.78128991  1.0
  O  O176  1  0.62392220  0.27561530  0.83129749  1.0
  O  O177  1  0.75552839  0.40701745  0.69955534  1.0
  O  O178  1  0.56560476  0.32755417  0.77278081  1.0
  O  O179  1  0.78055926  0.28039495  0.83567961  1.0
  O  O180  1  0.77572107  0.12437636  0.83068304  1.0
  O  O181  1  0.74708634  0.13676859  0.69189582  1.0
  O  O182  1  0.82761914  0.06578316  0.77227406  1.0
  O  O183  1  0.63776315  0.24566616  0.69176812  1.0
  O  O184  1  0.90701033  0.25466944  0.69984191  1.0
  O  O185  1  0.90387933  0.14093487  0.69650514  1.0
  O  O186  1  0.25036075  0.74897557  0.25034051  1.0
  O  O187  1  0.27532885  0.62366471  0.33128144  1.0
  O  O188  1  0.24559156  0.63779241  0.19170689  1.0
  O  O189  1  0.06605217  0.82747202  0.27253645  1.0
  O  O190  1  0.32797848  0.56528726  0.27277793  1.0
  O  O191  1  0.12435192  0.77537823  0.33107691  1.0
  O  O192  1  0.13669200  0.74711419  0.19185713  1.0
  O  O193  1  0.14196140  0.90303465  0.19658185  1.0
  O  O194  1  0.33562841  0.83563221  0.28058021  1.0
  O  O195  1  0.25526717  0.90677042  0.20019921  1.0
  O  O196  1  0.28139499  0.78114405  0.33535743  1.0
  O  O197  1  0.40342474  0.64126004  0.19673167  1.0
  O  O198  1  0.40668309  0.75499815  0.19998326  1.0
  O  O199  1  0.99900606  0.50034726  0.00029979  1.0
  O  O200  1  0.84321570  0.49499883  0.05050997  1.0
  O  O201  1  0.00438331  0.61223813  0.05818817  1.0
  O  O202  1  0.10843684  0.34636174  0.05335971  1.0
  O  O203  1  0.84580969  0.60931381  0.05316790  1.0
  O  O204  1  0.99470408  0.34303539  0.05023857  1.0
  O  O205  1  0.11326849  0.50287465  0.05807516  1.0
  O  O206  1  0.18371364  0.42268475  0.97749336  1.0
  O  O207  1  0.96929697  0.46972160  0.91430418  1.0
  O  O208  1  0.12541162  0.47430199  0.91896879  1.0
  O  O209  1  0.91482704  0.41468868  0.96869110  1.0
  O  O210  1  0.92187546  0.68485207  0.97749317  1.0
  O  O211  1  0.97411924  0.62624734  0.91908068  1.0
  O  O212  1  0.48234841  0.21869581  0.60067152  1.0
  O  O213  1  0.76763024  0.03123428  0.64943693  1.0
  O  O214  1  0.34028301  0.84025086  0.45851938  1.0
  O  O215  1  0.40965183  0.90975980  0.29151641  1.0
  O  O216  1  0.79146893  0.29147360  0.90970226  1.0
  O  O217  1  0.95856681  0.45849577  0.84026575  1.0
  O  O218  1  0.03109826  0.76762089  0.14931390  1.0
  O  O219  1  0.21881864  0.48237642  0.10065425  1.0
