# generated using pymatgen
data_Zn4H16C40O29F4
_symmetry_space_group_name_H-M   'P 1'
_cell_length_a   23.83403090
_cell_length_b   23.83422007
_cell_length_c   23.83254575
_cell_angle_alpha   66.42370605
_cell_angle_beta   72.53888975
_cell_angle_gamma   107.45824484
_symmetry_Int_Tables_number   1
_chemical_formula_structural   Zn4H16C40O29F4
_chemical_formula_sum   'Zn8 H32 C80 O58 F8'
_cell_volume   10381.18719037
_cell_formula_units_Z   2
loop_
 _symmetry_equiv_pos_site_id
 _symmetry_equiv_pos_as_xyz
  1  'x, y, z'
loop_
 _atom_site_type_symbol
 _atom_site_label
 _atom_site_symmetry_multiplicity
 _atom_site_fract_x
 _atom_site_fract_y
 _atom_site_fract_z
 _atom_site_occupancy
  Zn  Zn0  1  0.05688843  0.09955086  0.45732525  1.0
  Zn  Zn1  1  0.05688739  0.95733412  0.48577533  1.0
  Zn  Zn2  1  0.94310670  0.95732462  0.59956273  1.0
  Zn  Zn3  1  0.94312331  0.98578977  0.45732035  1.0
  Zn  Zn4  1  0.94311189  0.40044894  0.04267398  1.0
  Zn  Zn5  1  0.05689510  0.54267363  0.90043710  1.0
  Zn  Zn6  1  0.94311239  0.54266620  0.01422091  1.0
  Zn  Zn7  1  0.05687466  0.51421342  0.04267959  1.0
  H  H8  1  0.91905463  0.29067694  0.99492850  1.0
  H  H9  1  0.08094011  0.49493423  0.79064113  1.0
  H  H10  1  0.08050345  0.37946921  0.67680174  1.0
  H  H11  1  0.91948083  0.17682596  0.87947310  1.0
  H  H12  1  0.91951491  0.12052584  0.82320151  1.0
  H  H13  1  0.08044925  0.32319133  0.62050467  1.0
  H  H14  1  0.08089020  0.20933611  0.50505114  1.0
  H  H15  1  0.91905634  0.00506768  0.70935507  1.0
  H  H16  1  0.08095023  0.58605373  0.12835593  1.0
  H  H17  1  0.91906792  0.62842750  0.08598538  1.0
  H  H18  1  0.91949026  0.74268433  0.20103593  1.0
  H  H19  1  0.08051231  0.70106797  0.24264813  1.0
  H  H20  1  0.08045328  0.75726561  0.29901709  1.0
  H  H21  1  0.91951693  0.79899215  0.25729203  1.0
  H  H22  1  0.91905666  0.91398186  0.37160785  1.0
  H  H23  1  0.08089077  0.87154855  0.41404345  1.0
  H  H24  1  0.78559380  0.29067262  0.12842069  1.0
  H  H25  1  0.78558914  0.49493878  0.08598851  1.0
  H  H26  1  0.55628205  0.37947587  0.20100308  1.0
  H  H27  1  0.55628756  0.17681737  0.24272553  1.0
  H  H28  1  0.44372058  0.12052970  0.29897468  1.0
  H  H29  1  0.44371618  0.32316181  0.25736183  1.0
  H  H30  1  0.21440927  0.20931182  0.37164842  1.0
  H  H31  1  0.21441407  0.00505941  0.41401677  1.0
  H  H32  1  0.21441171  0.62844532  0.79067113  1.0
  H  H33  1  0.21440353  0.58598839  0.99496420  1.0
  H  H34  1  0.44371079  0.70099643  0.87949313  1.0
  H  H35  1  0.44371806  0.74274660  0.67680902  1.0
  H  H36  1  0.55629144  0.79898273  0.62050963  1.0
  H  H37  1  0.55628134  0.75734326  0.82317070  1.0
  H  H38  1  0.78558638  0.87162365  0.70931478  1.0
  H  H39  1  0.78559845  0.91402157  0.50503435  1.0
  C  C40  1  0.18439663  0.09218374  0.40781948  1.0
  C  C41  1  0.99999608  0.86268165  0.63731784  1.0
  C  C42  1  0.99998297  0.09218872  0.59220000  1.0
  C  C43  1  0.81560742  0.90782350  0.59216983  1.0
  C  C44  1  0.00000867  0.13732140  0.36267544  1.0
  C  C45  1  0.99998799  0.90779002  0.40781400  1.0
  C  C46  1  0.99999900  0.40781446  0.90779254  1.0
  C  C47  1  0.00000785  0.63731813  0.86267652  1.0
  C  C48  1  0.81560528  0.40780971  0.09220360  1.0
  C  C49  1  0.99999821  0.59221911  0.09217873  1.0
  C  C50  1  0.99999413  0.36268177  0.13732304  1.0
  C  C51  1  0.18439055  0.59220057  0.90782810  1.0
  C  C52  1  0.00000292  0.19471702  0.30528207  1.0
  C  C53  1  0.00000011  0.30528547  0.19471534  1.0
  C  C54  1  0.95759429  0.18085620  0.27674090  1.0
  C  C55  1  0.04240891  0.31914593  0.22325662  1.0
  C  C56  1  0.95759336  0.23433569  0.22326171  1.0
  C  C57  1  0.04240964  0.26566697  0.27673566  1.0
  C  C58  1  0.00000030  0.80528534  0.69471318  1.0
  C  C59  1  0.00000410  0.69471427  0.80528150  1.0
  C  C60  1  0.95759633  0.77673651  0.76567230  1.0
  C  C61  1  0.04240804  0.72326327  0.73432277  1.0
  C  C62  1  0.95759766  0.72325599  0.81915094  1.0
  C  C63  1  0.04240715  0.77674379  0.68084399  1.0
  C  C64  1  0.99999680  0.37133297  0.87131363  1.0
  C  C65  1  0.95590228  0.29777779  0.90893549  1.0
  C  C66  1  0.95625355  0.26322154  0.87340587  1.0
  C  C67  1  0.99999457  0.30077391  0.80076382  1.0
  C  C68  1  0.04373176  0.37341181  0.76319941  1.0
  C  C69  1  0.04409093  0.40894410  0.79775256  1.0
  C  C70  1  0.99999193  0.26541395  0.76541709  1.0
  C  C71  1  0.99998528  0.23458085  0.73458399  1.0
  C  C72  1  0.99997533  0.19922982  0.69922626  1.0
  C  C73  1  0.95624536  0.12659017  0.73679336  1.0
  C  C74  1  0.95588919  0.09106151  0.70223913  1.0
  C  C75  1  0.99997020  0.12867495  0.62867439  1.0
  C  C76  1  0.04405126  0.20223314  0.59104865  1.0
  C  C77  1  0.04369480  0.23679150  0.62657564  1.0
  C  C78  1  0.00001203  0.62871505  0.12864250  1.0
  C  C79  1  0.04410986  0.63520043  0.15809680  1.0
  C  C80  1  0.04375434  0.67036892  0.19301201  1.0
  C  C81  1  0.00000567  0.69925269  0.19920887  1.0
  C  C82  1  0.95626824  0.69307550  0.17030852  1.0
  C  C83  1  0.95591285  0.65816900  0.13513107  1.0
  C  C84  1  0.99999672  0.73458877  0.23457910  1.0
  C  C85  1  0.99998679  0.76540884  0.26542406  1.0
  C  C86  1  0.99997668  0.80074790  0.30079259  1.0
  C  C87  1  0.04369698  0.80690421  0.32971395  1.0
  C  C88  1  0.04405507  0.84181749  0.36488706  1.0
  C  C89  1  0.99997435  0.87129233  0.37135337  1.0
  C  C90  1  0.95589000  0.86482471  0.34187956  1.0
  C  C91  1  0.95624777  0.82965726  0.30696408  1.0
  C  C92  1  0.74264566  0.37133167  0.12867852  1.0
  C  C93  1  0.70670589  0.29777639  0.15814881  1.0
  C  C94  1  0.63662216  0.26321882  0.19306538  1.0
  C  C95  1  0.60153898  0.30077524  0.19923438  1.0
  C  C96  1  0.63661758  0.37341394  0.17032216  1.0
  C  C97  1  0.70670377  0.40894651  0.13514547  1.0
  C  C98  1  0.53083207  0.26542182  0.23459309  1.0
  C  C99  1  0.46916892  0.23458102  0.26543241  1.0
  C  C100  1  0.39846278  0.19921975  0.30079863  1.0
  C  C101  1  0.36338462  0.12658108  0.32970189  1.0
  C  C102  1  0.29329872  0.09105009  0.36487618  1.0
  C  C103  1  0.25735524  0.12865860  0.37136376  1.0
  C  C104  1  0.29329683  0.20221017  0.34191076  1.0
  C  C105  1  0.36338041  0.23676931  0.30699697  1.0
  C  C106  1  0.25735114  0.62869116  0.87134244  1.0
  C  C107  1  0.29329569  0.65817330  0.79777833  1.0
  C  C108  1  0.36338141  0.69309103  0.76321765  1.0
  C  C109  1  0.39846074  0.69924916  0.80078130  1.0
  C  C110  1  0.36337660  0.67033182  0.87342774  1.0
  C  C111  1  0.29329110  0.63515470  0.90896091  1.0
  C  C112  1  0.46916798  0.73459475  0.76542392  1.0
  C  C113  1  0.53083385  0.76542721  0.73457620  1.0
  C  C114  1  0.60154091  0.80078951  0.69921307  1.0
  C  C115  1  0.63662355  0.82969696  0.62656723  1.0
  C  C116  1  0.70670836  0.86487354  0.59103364  1.0
  C  C117  1  0.74264669  0.87135065  0.62865141  1.0
  C  C118  1  0.70670200  0.84188627  0.70221186  1.0
  C  C119  1  0.63661879  0.80697585  0.73677097  1.0
  O  O120  1  0.99999986  0.99999847  0.49999883  1.0
  O  O121  1  0.15285789  0.12707495  0.41355910  1.0
  O  O122  1  0.04027751  0.88462683  0.57509894  1.0
  O  O123  1  0.95935447  0.02575631  0.62710136  1.0
  O  O124  1  0.15286189  0.02575969  0.43358862  1.0
  O  O125  1  0.04062844  0.12708048  0.52576717  1.0
  O  O126  1  0.95971260  0.88460913  0.65566152  1.0
  O  O127  1  0.84714242  0.91356640  0.62706403  1.0
  O  O128  1  0.95973591  0.07510958  0.38461011  1.0
  O  O129  1  0.84714704  0.93360934  0.52573710  1.0
  O  O130  1  0.04028355  0.15565692  0.38461281  1.0
  O  O131  1  0.04062987  0.91353890  0.43360022  1.0
  O  O132  1  0.95936528  0.93359859  0.41354204  1.0
  O  O133  1  0.00000051  0.50000208  0.99999974  1.0
  O  O134  1  0.95935700  0.37292617  0.97422502  1.0
  O  O135  1  0.04028944  0.61538752  0.84433550  1.0
  O  O136  1  0.84714151  0.47423799  0.06641093  1.0
  O  O137  1  0.04064580  0.47424245  0.87289495  1.0
  O  O138  1  0.84714173  0.37291641  0.08646425  1.0
  O  O139  1  0.95972535  0.61537349  0.92489469  1.0
  O  O140  1  0.95934844  0.58645960  0.06640244  1.0
  O  O141  1  0.04026210  0.42489464  0.11539318  1.0
  O  O142  1  0.04062885  0.56642081  0.08643916  1.0
  O  O143  1  0.95972365  0.34434626  0.11538141  1.0
  O  O144  1  0.15285918  0.58645507  0.87293090  1.0
  O  O145  1  0.15285111  0.56639802  0.97426448  1.0
  O  O146  1  0.91292411  0.25842739  0.97820887  1.0
  O  O147  1  0.08706350  0.47821063  0.75839335  1.0
  O  O148  1  0.08652691  0.41128960  0.69312762  1.0
  O  O149  1  0.91346054  0.19315433  0.91129399  1.0
  O  O150  1  0.91347121  0.08871021  0.80687101  1.0
  O  O151  1  0.08647412  0.30686240  0.58868640  1.0
  O  O152  1  0.08700348  0.24158834  0.52176776  1.0
  O  O153  1  0.91292811  0.02179129  0.74160264  1.0
  O  O154  1  0.08708688  0.60891219  0.15446819  1.0
  O  O155  1  0.91294661  0.65455421  0.10882992  1.0
  O  O156  1  0.91347052  0.72034292  0.17523080  1.0
  O  O157  1  0.08654658  0.67528463  0.22028320  1.0
  O  O158  1  0.08647965  0.77961851  0.32481103  1.0
  O  O159  1  0.91347178  0.82476244  0.27966920  1.0
  O  O160  1  0.91292367  0.89112653  0.34549282  1.0
  O  O161  1  0.08700855  0.84541610  0.39120604  1.0
  O  O162  1  0.73662411  0.25842354  0.15454257  1.0
  O  O163  1  0.73661816  0.47821583  0.10883101  1.0
  O  O164  1  0.60442898  0.41129418  0.17522190  1.0
  O  O165  1  0.60443567  0.19314885  0.22035543  1.0
  O  O166  1  0.39557388  0.08870611  0.32478055  1.0
  O  O167  1  0.39556791  0.30683190  0.27972843  1.0
  O  O168  1  0.26338000  0.24155930  0.34553903  1.0
  O  O169  1  0.26338481  0.02178184  0.39117665  1.0
  O  O170  1  0.26338176  0.65457820  0.75841896  1.0
  O  O171  1  0.26337383  0.60883542  0.97823847  1.0
  O  O172  1  0.39556324  0.67521996  0.91131466  1.0
  O  O173  1  0.39557075  0.72038790  0.69314046  1.0
  O  O174  1  0.60443848  0.82478373  0.58868562  1.0
  O  O175  1  0.60442804  0.77969778  0.80684195  1.0
  O  O176  1  0.73661548  0.84550696  0.74156705  1.0
  O  O177  1  0.73662765  0.89117820  0.52175920  1.0
  F  F178  1  0.91479037  0.11550527  0.29929216  1.0
  F  F179  1  0.08521239  0.38449687  0.20070507  1.0
  F  F180  1  0.91479016  0.21408463  0.20071247  1.0
  F  F181  1  0.08521172  0.28591751  0.29928503  1.0
  F  F182  1  0.91479373  0.79928300  0.78593468  1.0
  F  F183  1  0.08521084  0.70071626  0.71406053  1.0
  F  F184  1  0.91479505  0.70070417  0.88450964  1.0
  F  F185  1  0.08520868  0.79929613  0.61548457  1.0
