# generated using pymatgen
data_ZnH5C16N5O8F3
_symmetry_space_group_name_H-M   'P 1'
_cell_length_a   9.53967123
_cell_length_b   10.88758947
_cell_length_c   19.34749127
_cell_angle_alpha   91.98498143
_cell_angle_beta   90.32957205
_cell_angle_gamma   91.29446527
_symmetry_Int_Tables_number   1
_chemical_formula_structural   ZnH5C16N5O8F3
_chemical_formula_sum   'Zn2 H10 C32 N10 O16 F6'
_cell_volume   2007.74700681
_cell_formula_units_Z   2
loop_
 _symmetry_equiv_pos_site_id
 _symmetry_equiv_pos_as_xyz
  1  'x, y, z'
loop_
 _atom_site_type_symbol
 _atom_site_label
 _atom_site_symmetry_multiplicity
 _atom_site_fract_x
 _atom_site_fract_y
 _atom_site_fract_z
 _atom_site_occupancy
  Zn  Zn0  1  0.64553618  0.49661287  0.50202931  1.0
  Zn  Zn1  1  0.35445149  0.50338875  0.49796541  1.0
  H  H2  1  0.72912326  0.46159144  0.28140040  1.0
  H  H3  1  0.27082166  0.53841036  0.71860934  1.0
  H  H4  1  0.28167024  0.51308059  0.27666402  1.0
  H  H5  1  0.71827874  0.48693782  0.72331796  1.0
  H  H6  1  0.75314558  0.95313809  0.50257634  1.0
  H  H7  1  0.24688842  0.04686695  0.49742871  1.0
  H  H8  1  0.89650577  0.68515652  0.55019392  1.0
  H  H9  1  0.10348918  0.31483350  0.44980999  1.0
  H  H10  1  0.89448356  0.47051797  0.38529064  1.0
  H  H11  1  0.10551447  0.52946840  0.61471322  1.0
  C  C12  1  0.52357620  0.73935149  0.49759406  1.0
  C  C13  1  0.47646688  0.26064133  0.50240054  1.0
  C  C14  1  0.50211028  0.48830770  0.36516555  1.0
  C  C15  1  0.49782235  0.51172478  0.63482949  1.0
  C  C16  1  0.63203837  0.47307931  0.25302544  1.0
  C  C17  1  0.36791179  0.52692964  0.74697660  1.0
  C  C18  1  0.63357749  0.47221943  0.18126809  1.0
  C  C19  1  0.36639785  0.52778707  0.81873805  1.0
  C  C20  1  0.51158714  0.48650616  0.14170391  1.0
  C  C21  1  0.48839657  0.51350923  0.85829094  1.0
  C  C22  1  0.38684803  0.50083799  0.17861148  1.0
  C  C23  1  0.61313323  0.49916689  0.82137138  1.0
  C  C24  1  0.38108821  0.50079891  0.25029792  1.0
  C  C25  1  0.61886183  0.49921775  0.74968662  1.0
  C  C26  1  0.50513207  0.48703878  0.28775916  1.0
  C  C27  1  0.49481192  0.51298455  0.71223424  1.0
  C  C28  1  0.49202361  0.50754031  0.93474450  1.0
  C  C29  1  0.50798422  0.49247526  0.06525085  1.0
  C  C30  1  0.64198989  0.97448753  0.50101142  1.0
  C  C31  1  0.35804598  0.02550462  0.49899248  1.0
  C  C32  1  0.56230614  0.05100731  0.55700425  1.0
  C  C33  1  0.43773906  0.94897848  0.44300009  1.0
  C  C34  1  0.48106064  0.12338704  0.50131669  1.0
  C  C35  1  0.51898052  0.87660613  0.49868928  1.0
  C  C36  1  0.56314067  0.04655067  0.44491460  1.0
  C  C37  1  0.43689413  0.95343788  0.55509185  1.0
  C  C38  1  0.03960005  0.59265151  0.46301077  1.0
  C  C39  1  0.96039482  0.40733479  0.53699155  1.0
  C  C40  1  0.94967598  0.60453001  0.52914202  1.0
  C  C41  1  0.05031896  0.39545911  0.47086239  1.0
  C  C42  1  0.94837207  0.48226607  0.43507770  1.0
  C  C43  1  0.05162181  0.51772214  0.56492723  1.0
  N  N44  1  0.44204485  0.39869548  0.03022409  1.0
  N  N45  1  0.55798188  0.60132115  0.96977178  1.0
  N  N46  1  0.43478674  0.40609419  0.96222488  1.0
  N  N47  1  0.56523679  0.59392321  0.03776686  1.0
  N  N48  1  0.85945651  0.49325309  0.50158179  1.0
  N  N49  1  0.14053637  0.50673787  0.49842316  1.0
  N  N50  1  0.76930983  0.45001849  0.14671506  1.0
  N  N51  1  0.23067088  0.54998832  0.85329987  1.0
  N  N52  1  0.62025848  0.10907451  0.62093054  1.0
  N  N53  1  0.37980645  0.89090039  0.37907369  1.0
  O  O54  1  0.64168581  0.68902989  0.49989578  1.0
  O  O55  1  0.35837062  0.31097397  0.50006738  1.0
  O  O56  1  0.40270742  0.68786483  0.49564293  1.0
  O  O57  1  0.59733800  0.31212495  0.50437128  1.0
  O  O58  1  0.61987622  0.49025691  0.39673349  1.0
  O  O59  1  0.38002800  0.50976276  0.60326920  1.0
  O  O60  1  0.38213879  0.48764780  0.39360594  1.0
  O  O61  1  0.61776997  0.51240364  0.60638362  1.0
  O  O62  1  0.76577128  0.41445680  0.08524308  1.0
  O  O63  1  0.87727475  0.46640293  0.18205941  1.0
  O  O64  1  0.23423795  0.58556393  0.91476990  1.0
  O  O65  1  0.12269549  0.53359850  0.81796219  1.0
  O  O66  1  0.73940545  0.08024134  0.63885698  1.0
  O  O67  1  0.54180104  0.18041284  0.65249840  1.0
  O  O68  1  0.26068522  0.91973188  0.36111723  1.0
  O  O69  1  0.45829114  0.81953561  0.34753502  1.0
  F  F70  1  0.26723407  0.51776304  0.14275681  1.0
  F  F71  1  0.73275426  0.48223157  0.85721922  1.0
  F  F72  1  0.62171215  0.09563268  0.38822332  1.0
  F  F73  1  0.37832766  0.90434301  0.61178197  1.0
  F  F74  1  0.09336036  0.68467222  0.42649731  1.0
  F  F75  1  0.90662389  0.31530841  0.57350238  1.0
