# generated using pymatgen
data_Zn2H45C56I3(N2O3)4
_symmetry_space_group_name_H-M   'P 1'
_cell_length_a   14.61530975
_cell_length_b   16.01021904
_cell_length_c   23.76072227
_cell_angle_alpha   89.82171420
_cell_angle_beta   90.14339584
_cell_angle_gamma   89.81850262
_symmetry_Int_Tables_number   1
_chemical_formula_structural   Zn2H45C56I3(N2O3)4
_chemical_formula_sum   'Zn2 H45 C56 I3 N8 O12'
_cell_volume   5559.80146098
_cell_formula_units_Z   1
loop_
 _symmetry_equiv_pos_site_id
 _symmetry_equiv_pos_as_xyz
  1  'x, y, z'
loop_
 _atom_site_type_symbol
 _atom_site_label
 _atom_site_symmetry_multiplicity
 _atom_site_fract_x
 _atom_site_fract_y
 _atom_site_fract_z
 _atom_site_occupancy
  Zn  Zn0  1  0.40396540  0.50171429  0.49816594  1.0
  Zn  Zn1  1  0.59486107  0.50115622  0.50024571  1.0
  H  H2  1  0.35684364  0.48699642  0.31933363  1.0
  H  H3  1  0.64795609  0.51781763  0.32154258  1.0
  H  H4  1  0.64945118  0.52101576  0.21565559  1.0
  H  H5  1  0.42412830  0.07608049  0.42666739  1.0
  H  H6  1  0.59985483  0.07316339  0.43883149  1.0
  H  H7  1  0.43330959  0.92993629  0.42543787  1.0
  H  H8  1  0.59750545  0.92728184  0.43943126  1.0
  H  H9  1  0.64869712  0.92658155  0.50607148  1.0
  H  H10  1  0.35616978  0.92713473  0.48286359  1.0
  H  H11  1  0.64709294  0.07369742  0.50724980  1.0
  H  H12  1  0.35470523  0.07282156  0.48742123  1.0
  H  H13  1  0.42424845  0.07732230  0.58347642  1.0
  H  H14  1  0.54376778  0.07192467  0.59228833  1.0
  H  H15  1  0.07793837  0.62844173  0.51593503  1.0
  H  H16  1  0.91850685  0.62830940  0.52015950  1.0
  H  H17  1  0.46171870  0.71250216  0.94359912  1.0
  H  H18  1  0.91757756  0.45130934  0.41556033  1.0
  H  H19  1  0.07762960  0.44669118  0.41634092  1.0
  H  H20  1  0.92021307  0.56079609  0.42191947  1.0
  H  H21  1  0.08001057  0.55627955  0.42020796  1.0
  H  H22  1  0.92227639  0.41240611  0.57339700  1.0
  H  H23  1  0.07527847  0.41463815  0.57450425  1.0
  H  H24  1  0.92184767  0.56346883  0.58037106  1.0
  H  H25  1  0.08139142  0.56819839  0.57828607  1.0
  H  H26  1  0.55207826  0.30089352  0.94787255  1.0
  H  H27  1  0.54909104  0.30249023  0.05451810  1.0
  H  H28  1  0.38231915  0.42731796  0.78773685  1.0
  H  H29  1  0.61982373  0.57201288  0.67541907  1.0
  H  H30  1  0.62485000  0.57873234  0.78060775  1.0
  H  H31  1  0.39985879  0.85949699  0.59436096  1.0
  H  H32  1  0.28850758  0.92173931  0.64449984  1.0
  H  H33  1  0.30758012  0.02038483  0.61356539  1.0
  H  H34  1  0.38119865  0.98410365  0.66820207  1.0
  H  H35  1  0.61971591  0.92849145  0.58608668  1.0
  H  H36  1  0.62107653  0.90991081  0.68169935  1.0
  H  H37  1  0.50057722  0.90322543  0.68404419  1.0
  H  H38  1  0.55369624  0.00216407  0.67301083  1.0
  H  H39  1  0.91526784  0.32770151  0.46418145  1.0
  H  H40  1  0.81524701  0.23686124  0.51240249  1.0
  H  H41  1  0.75955043  0.33496671  0.52023633  1.0
  H  H42  1  0.83079191  0.29450126  0.57505582  1.0
  H  H43  1  0.10054433  0.33434315  0.46556650  1.0
  H  H44  1  0.18988169  0.23931503  0.51854812  1.0
  H  H45  1  0.15727596  0.29003313  0.58138984  1.0
  H  H46  1  0.23815077  0.33799394  0.53516860  1.0
  C  C47  1  0.49764970  0.66288771  0.49943651  1.0
  C  C48  1  0.47597959  0.65872424  0.02744381  1.0
  C  C49  1  0.47479925  0.65597772  0.96800730  1.0
  C  C50  1  0.49024836  0.58213377  0.93955341  1.0
  C  C51  1  0.50701657  0.50739979  0.96983387  1.0
  C  C52  1  0.52367658  0.43165878  0.94111865  1.0
  C  C53  1  0.53928273  0.35829697  0.97111664  1.0
  C  C54  1  0.53792805  0.35929075  0.03002281  1.0
  C  C55  1  0.48789666  0.58259728  0.87702323  1.0
  C  C56  1  0.52503367  0.42943318  0.87871487  1.0
  C  C57  1  0.43330081  0.46040215  0.76298518  1.0
  C  C58  1  0.49884474  0.50112707  0.60891992  1.0
  C  C59  1  0.42998182  0.45885213  0.70426995  1.0
  C  C60  1  0.49713647  0.49941764  0.67222949  1.0
  C  C61  1  0.56741873  0.54151852  0.70066131  1.0
  C  C62  1  0.57069270  0.54479655  0.75906935  1.0
  C  C63  1  0.50325383  0.50384723  0.78986802  1.0
  C  C64  1  0.42125592  0.49693992  0.23745411  1.0
  C  C65  1  0.42032722  0.49458800  0.29605617  1.0
  C  C66  1  0.50233119  0.50202774  0.32615221  1.0
  C  C67  1  0.58500886  0.51185684  0.29731570  1.0
  C  C68  1  0.58565774  0.51379391  0.23882201  1.0
  C  C69  1  0.49971766  0.33924146  0.50255419  1.0
  C  C70  1  0.50409344  0.50637715  0.20865707  1.0
  C  C71  1  0.42105796  0.95326361  0.46819599  1.0
  C  C72  1  0.59053186  0.95227632  0.48222238  1.0
  C  C73  1  0.59069773  0.04870642  0.48169530  1.0
  C  C74  1  0.41901429  0.04961498  0.46924859  1.0
  C  C75  1  0.49954697  0.24904116  0.50465492  1.0
  C  C76  1  0.49894664  0.91923938  0.50629774  1.0
  C  C77  1  0.49928507  0.08244602  0.50545256  1.0
  C  C78  1  0.48673717  0.04943606  0.56621339  1.0
  C  C79  1  0.48392883  0.95204745  0.56854281  1.0
  C  C80  1  0.49939094  0.17312878  0.50549998  1.0
  C  C81  1  0.49852869  0.82860630  0.50541140  1.0
  C  C82  1  0.50104309  0.49978636  0.38948837  1.0
  C  C83  1  0.49722790  0.75293371  0.50193070  1.0
  C  C84  1  0.94700496  0.56978299  0.53704784  1.0
  C  C85  1  0.05257690  0.57081620  0.53558857  1.0
  C  C86  1  0.94622778  0.50252904  0.44060391  1.0
  C  C87  1  0.05174087  0.50025307  0.44037962  1.0
  C  C88  1  0.91143100  0.49546053  0.50185287  1.0
  C  C89  1  0.08746554  0.49482141  0.50168566  1.0
  C  C90  1  0.05474823  0.41098273  0.53000876  1.0
  C  C91  1  0.94464985  0.41021928  0.52921472  1.0
  C  C92  1  0.18641649  0.49676039  0.50060927  1.0
  C  C93  1  0.81258128  0.49812136  0.50141730  1.0
  C  C94  1  0.52095273  0.43028102  0.12132670  1.0
  C  C95  1  0.49377810  0.58551999  0.12155521  1.0
  C  C96  1  0.49178009  0.58600445  0.05902766  1.0
  C  C97  1  0.50687008  0.50930361  0.02984542  1.0
  C  C98  1  0.52216013  0.43317031  0.05915754  1.0
  C  C99  1  0.34240960  0.96461600  0.63050848  1.0
  C  C100  1  0.55777388  0.93459386  0.66294550  1.0
  C  C101  1  0.82332213  0.30032711  0.52911324  1.0
  C  C102  1  0.17487256  0.30067087  0.53694458  1.0
  I  I103  1  0.45210295  0.77801975  0.06072145  1.0
  I  I104  1  0.32430899  0.38760476  0.66752112  1.0
  I  I105  1  0.29723674  0.48623396  0.19291334  1.0
  N  N106  1  0.50684140  0.50735770  0.14809786  1.0
  N  N107  1  0.50544337  0.50542504  0.85058743  1.0
  N  N108  1  0.26546578  0.50037581  0.49895403  1.0
  N  N109  1  0.73344115  0.50198053  0.50089146  1.0
  N  N110  1  0.39494487  0.92207988  0.58709012  1.0
  N  N111  1  0.55761606  0.91482689  0.60315180  1.0
  N  N112  1  0.90692017  0.33595101  0.50611211  1.0
  N  N113  1  0.09551084  0.33641261  0.50813552  1.0
  O  O114  1  0.42175746  0.62745246  0.48820568  1.0
  O  O115  1  0.57413602  0.62679675  0.50883208  1.0
  O  O116  1  0.42397007  0.51703110  0.58391430  1.0
  O  O117  1  0.57625226  0.48804130  0.58628596  1.0
  O  O118  1  0.42298202  0.37560346  0.50996894  1.0
  O  O119  1  0.57652951  0.37419288  0.49330893  1.0
  O  O120  1  0.42439669  0.48584810  0.41292119  1.0
  O  O121  1  0.57699990  0.51222840  0.41431267  1.0
  O  O122  1  0.53154235  0.36574445  0.14870166  1.0
  O  O123  1  0.48478003  0.64831474  0.15057317  1.0
  O  O124  1  0.47146433  0.64583752  0.84941660  1.0
  O  O125  1  0.54199154  0.36558574  0.85217958  1.0
