# generated using pymatgen
data_AlH6C15(NO4)3
_symmetry_space_group_name_H-M   'P 1'
_cell_length_a   4.15322155
_cell_length_b   17.21282081
_cell_length_c   17.21274749
_cell_angle_alpha   60.00134739
_cell_angle_beta   89.99870068
_cell_angle_gamma   89.99923632
_symmetry_Int_Tables_number   1
_chemical_formula_structural   AlH6C15(NO4)3
_chemical_formula_sum   'Al2 H12 C30 N6 O24'
_cell_volume   1065.67277789
_cell_formula_units_Z   2
loop_
 _symmetry_equiv_pos_site_id
 _symmetry_equiv_pos_as_xyz
  1  'x, y, z'
loop_
 _atom_site_type_symbol
 _atom_site_label
 _atom_site_symmetry_multiplicity
 _atom_site_fract_x
 _atom_site_fract_y
 _atom_site_fract_z
 _atom_site_occupancy
  Al  Al0  1  0.06421099  0.49999914  0.00000226  1.0
  Al  Al1  1  0.93581074  0.16666519  0.66666743  1.0
  H  H2  1  0.70772843  0.46237458  0.41906074  1.0
  H  H3  1  0.28171217  0.46571211  0.41663143  1.0
  H  H4  1  0.29281536  0.54815655  0.24690973  1.0
  H  H5  1  0.71879297  0.54911502  0.24931159  1.0
  H  H6  1  0.70772687  0.11856335  0.96237240  1.0
  H  H7  1  0.28170082  0.11765909  0.96571020  1.0
  H  H8  1  0.29279891  0.20493689  0.04815324  1.0
  H  H9  1  0.71875505  0.20157078  0.04911408  1.0
  H  H10  1  0.70772481  0.91905971  0.61856740  1.0
  H  H11  1  0.28168697  0.91662943  0.61765678  1.0
  H  H12  1  0.29280200  0.74690626  0.70493604  1.0
  H  H13  1  0.71877262  0.74931076  0.70157343  1.0
  C  C14  1  0.55544332  0.63588288  0.93385994  1.0
  C  C15  1  0.55544682  0.43026336  0.13588389  1.0
  C  C16  1  0.55547591  0.43386480  0.93025452  1.0
  C  C17  1  0.44455815  0.23307168  0.53078307  1.0
  C  C18  1  0.44454107  0.23614644  0.73307110  1.0
  C  C19  1  0.44455417  0.03078359  0.73613911  1.0
  C  C20  1  0.47592052  0.27594445  0.43072840  1.0
  C  C21  1  0.52415229  0.37304116  0.23597389  1.0
  C  C22  1  0.49212934  0.36928112  0.37992934  1.0
  C  C23  1  0.51098454  0.27869828  0.28626980  1.0
  C  C24  1  0.50832714  0.41584842  0.28651605  1.0
  C  C25  1  0.48870227  0.23163902  0.38066588  1.0
  C  C26  1  0.49470287  0.45420323  0.38602851  1.0
  C  C27  1  0.50588089  0.50702961  0.28004452  1.0
  C  C28  1  0.47593960  0.29332430  0.77594752  1.0
  C  C29  1  0.52415966  0.39098429  0.87304302  1.0
  C  C30  1  0.49212377  0.25078574  0.86928566  1.0
  C  C31  1  0.51106466  0.43503365  0.77870267  1.0
  C  C32  1  0.50835574  0.29763806  0.91584839  1.0
  C  C33  1  0.48871218  0.38768971  0.73164755  1.0
  C  C34  1  0.49469624  0.15976965  0.95420143  1.0
  C  C35  1  0.50586177  0.21293218  0.00702518  1.0
  C  C36  1  0.47587672  0.93072590  0.79332571  1.0
  C  C37  1  0.52414145  0.73597257  0.89098569  1.0
  C  C38  1  0.49212308  0.87992645  0.75078918  1.0
  C  C39  1  0.51098661  0.78626724  0.93503492  1.0
  C  C40  1  0.50834470  0.78651330  0.79763827  1.0
  C  C41  1  0.48872630  0.88066131  0.88769615  1.0
  C  C42  1  0.49468194  0.88602527  0.65976685  1.0
  C  C43  1  0.50586416  0.78003933  0.71293035  1.0
  N  N44  1  0.48340254  0.22663421  0.23889128  1.0
  N  N45  1  0.51606478  0.13212398  0.42826216  1.0
  N  N46  1  0.48349771  0.53447520  0.72663928  1.0
  N  N47  1  0.51608458  0.43961277  0.63212030  1.0
  N  N48  1  0.48341183  0.73888920  0.03447704  1.0
  N  N49  1  0.51609392  0.92825974  0.93961282  1.0
  O  O50  1  0.33303669  0.41595932  0.98779311  1.0
  O  O51  1  0.33301561  0.59624240  0.91595663  1.0
  O  O52  1  0.33300045  0.48779871  0.09624627  1.0
  O  O53  1  0.80797541  0.47858944  0.92117344  1.0
  O  O54  1  0.80793955  0.42117671  0.10024225  1.0
  O  O55  1  0.80794018  0.60024373  0.97857805  1.0
  O  O56  1  0.19200415  0.06637754  0.74523884  1.0
  O  O57  1  0.19200921  0.18837927  0.56638164  1.0
  O  O58  1  0.19199202  0.24524349  0.68837675  1.0
  O  O59  1  0.66709147  0.07049285  0.67864647  1.0
  O  O60  1  0.66707277  0.17865484  0.75085556  1.0
  O  O61  1  0.66709381  0.25085976  0.57048822  1.0
  O  O62  1  0.67086432  0.24494615  0.17648117  1.0
  O  O63  1  0.26509531  0.17047337  0.26444515  1.0
  O  O64  1  0.32842558  0.08809921  0.49064908  1.0
  O  O65  1  0.73446605  0.10140240  0.40285255  1.0
  O  O66  1  0.67100539  0.57858358  0.74493251  1.0
  O  O67  1  0.26522077  0.56507330  0.67048058  1.0
  O  O68  1  0.32841607  0.42127378  0.58808011  1.0
  O  O69  1  0.73448837  0.49573731  0.60141374  1.0
  O  O70  1  0.67086361  0.67648015  0.07856969  1.0
  O  O71  1  0.26509474  0.76444961  0.06508153  1.0
  O  O72  1  0.32851088  0.99065425  0.92123533  1.0
  O  O73  1  0.73449109  0.90285020  0.99574947  1.0
