# generated using pymatgen
data_Zn2H19C35N3O8
_symmetry_space_group_name_H-M   'P 1'
_cell_length_a   9.74960165
_cell_length_b   11.04127258
_cell_length_c   15.23779744
_cell_angle_alpha   87.50026825
_cell_angle_beta   87.73916298
_cell_angle_gamma   89.09933031
_symmetry_Int_Tables_number   1
_chemical_formula_structural   Zn2H19C35N3O8
_chemical_formula_sum   'Zn2 H19 C35 N3 O8'
_cell_volume   1637.32105366
_cell_formula_units_Z   1
loop_
 _symmetry_equiv_pos_site_id
 _symmetry_equiv_pos_as_xyz
  1  'x, y, z'
loop_
 _atom_site_type_symbol
 _atom_site_label
 _atom_site_symmetry_multiplicity
 _atom_site_fract_x
 _atom_site_fract_y
 _atom_site_fract_z
 _atom_site_occupancy
  Zn  Zn0  1  0.36169264  0.50494775  0.50192717  1.0
  Zn  Zn1  1  0.64825806  0.49758278  0.49580894  1.0
  H  H2  1  0.70700774  0.43620874  0.22148983  1.0
  H  H3  1  0.71962516  0.10604741  0.45358339  1.0
  H  H4  1  0.20944163  0.13822294  0.59180381  1.0
  H  H5  1  0.16929515  0.11263366  0.48058361  1.0
  H  H6  1  0.22878488  0.91843314  0.62622246  1.0
  H  H7  1  0.88807224  0.44561666  0.36808563  1.0
  H  H8  1  0.14708206  0.44604163  0.37080198  1.0
  H  H9  1  0.11198677  0.51611764  0.70572237  1.0
  H  H10  1  0.12202166  0.66961744  0.66311766  1.0
  H  H11  1  0.85136614  0.52950219  0.70239039  1.0
  H  H12  1  0.31157845  0.61242471  0.21900613  1.0
  H  H13  1  0.86318962  0.67995753  0.65463370  1.0
  H  H14  1  0.19694198  0.65516127  0.07666699  1.0
  H  H15  1  0.19386967  0.63610545  0.91563365  1.0
  H  H16  1  0.30569421  0.56518831  0.77649669  1.0
  H  H17  1  0.69748330  0.38287841  0.77972805  1.0
  H  H18  1  0.81290347  0.34154856  0.92189174  1.0
  H  H19  1  0.81705669  0.36258756  0.08267130  1.0
  H  H20  1  0.71614539  0.88057031  0.46849753  1.0
  C  C21  1  0.49955528  0.73533529  0.51397686  1.0
  C  C22  1  0.62063497  0.45805455  0.09291136  1.0
  C  C23  1  0.28175812  0.61022903  0.04153512  1.0
  C  C24  1  0.28007366  0.59972276  0.95260190  1.0
  C  C25  1  0.39055720  0.54095458  0.90530390  1.0
  C  C26  1  0.50439278  0.49348439  0.95291004  1.0
  C  C27  1  0.61612500  0.43471107  0.90722227  1.0
  C  C28  1  0.72853776  0.38732332  0.95686044  1.0
  C  C29  1  0.73086582  0.39887796  0.04566687  1.0
  C  C30  1  0.39103477  0.52901930  0.81407946  1.0
  C  C31  1  0.50141216  0.47366405  0.76926152  1.0
  C  C32  1  0.50119617  0.47020635  0.67091601  1.0
  C  C33  1  0.61280333  0.42673189  0.81564482  1.0
  C  C34  1  0.38486244  0.94243314  0.51985168  1.0
  C  C35  1  0.50154164  0.87039255  0.50596604  1.0
  C  C36  1  0.62240572  0.93342706  0.48063411  1.0
  C  C37  1  0.62403841  0.05984472  0.47175329  1.0
  C  C38  1  0.50505406  0.13150424  0.48622011  1.0
  C  C39  1  0.38534507  0.06824813  0.50904237  1.0
  C  C40  1  0.23470191  0.08346361  0.53481995  1.0
  C  C41  1  0.23560339  0.94037160  0.55494767  1.0
  C  C42  1  0.92689318  0.53999815  0.56333881  1.0
  C  C43  1  0.50911845  0.26671588  0.48247327  1.0
  C  C44  1  0.94052440  0.47229038  0.42589826  1.0
  C  C45  1  0.08344888  0.47205381  0.42748784  1.0
  C  C46  1  0.06975166  0.53810285  0.56532496  1.0
  C  C47  1  0.07107549  0.58258346  0.65753616  1.0
  C  C48  1  0.90809561  0.58821434  0.65428632  1.0
  C  C49  1  0.51018050  0.52910173  0.32705134  1.0
  C  C50  1  0.62066858  0.47070410  0.18403422  1.0
  C  C51  1  0.50948016  0.52486016  0.22885540  1.0
  C  C52  1  0.39717513  0.57041988  0.18277082  1.0
  C  C53  1  0.39425605  0.56293204  0.09114782  1.0
  C  C54  1  0.50643227  0.50491574  0.04539742  1.0
  C  C55  1  0.13438366  0.86884723  0.51380036  1.0
  N  N56  1  0.85866296  0.50569529  0.49527102  1.0
  N  N57  1  0.15133254  0.50409997  0.49901399  1.0
  N  N58  1  0.04914749  0.81268228  0.48335763  1.0
  O  O59  1  0.38145325  0.68716037  0.52144144  1.0
  O  O60  1  0.61458294  0.67940452  0.51122391  1.0
  O  O61  1  0.38477911  0.47682474  0.63569055  1.0
  O  O62  1  0.61761030  0.46372542  0.63019267  1.0
  O  O63  1  0.39322052  0.32213672  0.48551248  1.0
  O  O64  1  0.62675627  0.31535496  0.47877549  1.0
  O  O65  1  0.39406888  0.53756013  0.36806218  1.0
  O  O66  1  0.62656684  0.52151794  0.36212719  1.0
