# generated using pymatgen
data_GdH3(C3O2)3
_symmetry_space_group_name_H-M   'P 1'
_cell_length_a   10.39589267
_cell_length_b   10.39564672
_cell_length_c   13.98577061
_cell_angle_alpha   90.00029956
_cell_angle_beta   90.00007691
_cell_angle_gamma   89.99993307
_symmetry_Int_Tables_number   1
_chemical_formula_structural   GdH3(C3O2)3
_chemical_formula_sum   'Gd4 H12 C36 O24'
_cell_volume   1511.47058646
_cell_formula_units_Z   4
loop_
 _symmetry_equiv_pos_site_id
 _symmetry_equiv_pos_as_xyz
  1  'x, y, z'
loop_
 _atom_site_type_symbol
 _atom_site_label
 _atom_site_symmetry_multiplicity
 _atom_site_fract_x
 _atom_site_fract_y
 _atom_site_fract_z
 _atom_site_occupancy
  Gd  Gd0  1  0.12208314  0.87791442  0.62498864  1.0
  Gd  Gd1  1  0.87791433  0.12208623  0.12498864  1.0
  Gd  Gd2  1  0.12208336  0.12208562  0.37501310  1.0
  Gd  Gd3  1  0.87791745  0.87791582  0.87501314  1.0
  H  H4  1  0.52787031  0.93031984  0.64520521  1.0
  H  H5  1  0.47213008  0.06967806  0.14520460  1.0
  H  H6  1  0.06969610  0.52786904  0.39520010  1.0
  H  H7  1  0.93030474  0.47213543  0.89520004  1.0
  H  H8  1  0.52786863  0.06967203  0.35479622  1.0
  H  H9  1  0.47213407  0.93032638  0.85479535  1.0
  H  H10  1  0.06969632  0.47213299  0.60480231  1.0
  H  H11  1  0.93030592  0.52786175  0.10480108  1.0
  H  H12  1  0.88648966  0.99999925  0.50000008  1.0
  H  H13  1  0.11351138  0.00000307  0.99999737  1.0
  H  H14  1  0.99999971  0.88649310  0.24999724  1.0
  H  H15  1  0.99999965  0.11350591  0.75000108  1.0
  C  C16  1  0.37021268  0.99999378  0.49999982  1.0
  C  C17  1  0.62978841  0.00000503  0.00000125  1.0
  C  C18  1  0.00000001  0.37020199  0.24999910  1.0
  C  C19  1  0.99999935  0.62979799  0.75000280  1.0
  C  C20  1  0.78904079  0.92817946  0.67005059  1.0
  C  C21  1  0.21095676  0.07181862  0.17004758  1.0
  C  C22  1  0.07182854  0.78902845  0.42005015  1.0
  C  C23  1  0.92816753  0.21097716  0.92005407  1.0
  C  C24  1  0.78903809  0.07181884  0.32995039  1.0
  C  C25  1  0.21095782  0.92818613  0.82994996  1.0
  C  C26  1  0.07182903  0.21097358  0.57995012  1.0
  C  C27  1  0.92816740  0.78902675  0.07994704  1.0
  C  C28  1  0.51407238  0.99999370  0.49999989  1.0
  C  C29  1  0.48592769  0.00000381  0.99999899  1.0
  C  C30  1  0.00000211  0.51406472  0.25000031  1.0
  C  C31  1  0.00000161  0.48593547  0.75000059  1.0
  C  C32  1  0.58084404  0.96083910  0.58187235  1.0
  C  C33  1  0.41915719  0.03915933  0.08187229  1.0
  C  C34  1  0.03916857  0.58084294  0.33186653  1.0
  C  C35  1  0.96083216  0.41915917  0.83186987  1.0
  C  C36  1  0.58084347  0.03915176  0.41812699  1.0
  C  C37  1  0.41915838  0.96084807  0.91812618  1.0
  C  C38  1  0.03916705  0.41915817  0.66813513  1.0
  C  C39  1  0.96083338  0.58083990  0.16813128  1.0
  C  C40  1  0.71548953  0.96274559  0.58233932  1.0
  C  C41  1  0.28451075  0.03725188  0.08233840  1.0
  C  C42  1  0.03726005  0.71548391  0.33233727  1.0
  C  C43  1  0.96273972  0.28451723  0.83233794  1.0
  C  C44  1  0.71548895  0.03724799  0.41766086  1.0
  C  C45  1  0.28451097  0.96275375  0.91765921  1.0
  C  C46  1  0.03725868  0.28451719  0.66766296  1.0
  C  C47  1  0.96274079  0.71548183  0.16766178  1.0
  C  C48  1  0.78192336  0.99999739  0.50000003  1.0
  C  C49  1  0.21807767  0.00000397  0.99999885  1.0
  C  C50  1  0.99999977  0.78193011  0.24999776  1.0
  C  C51  1  0.99999863  0.21806988  0.75000200  1.0
  O  O52  1  0.31401943  0.91475254  0.55016419  1.0
  O  O53  1  0.68597886  0.08524373  0.05016457  1.0
  O  O54  1  0.08524651  0.31400803  0.30016452  1.0
  O  O55  1  0.91476089  0.68599385  0.80015956  1.0
  O  O56  1  0.31401790  0.08523381  0.44983775  1.0
  O  O57  1  0.68598304  0.91476335  0.94983702  1.0
  O  O58  1  0.08524570  0.68599014  0.69983718  1.0
  O  O59  1  0.91476153  0.31400719  0.19984226  1.0
  O  O60  1  0.73073130  0.91830930  0.74962928  1.0
  O  O61  1  0.26926543  0.08168357  0.24962994  1.0
  O  O62  1  0.08171525  0.73068892  0.49962520  1.0
  O  O63  1  0.91828001  0.26931437  0.99962506  1.0
  O  O64  1  0.73072845  0.08168908  0.25037236  1.0
  O  O65  1  0.26926828  0.91832303  0.75036766  1.0
  O  O66  1  0.08171648  0.26931214  0.50037578  1.0
  O  O67  1  0.91828076  0.73068571  0.00037319  1.0
  O  O68  1  0.91108803  0.91193314  0.66391581  1.0
  O  O69  1  0.08891335  0.08806874  0.16390989  1.0
  O  O70  1  0.08805988  0.91107469  0.41394133  1.0
  O  O71  1  0.91193619  0.08892702  0.91394333  1.0
  O  O72  1  0.91108725  0.08806790  0.33608529  1.0
  O  O73  1  0.08891444  0.91193327  0.83608468  1.0
  O  O74  1  0.08806244  0.08892635  0.58605895  1.0
  O  O75  1  0.91193496  0.91107210  0.08605634  1.0
