# generated using pymatgen
data_ZnH3C11Br2N(O2F)2
_symmetry_space_group_name_H-M   'P 1'
_cell_length_a   9.83721356
_cell_length_b   11.00742398
_cell_length_c   11.01881605
_cell_angle_alpha   90.11775217
_cell_angle_beta   90.66697722
_cell_angle_gamma   90.54787814
_symmetry_Int_Tables_number   1
_chemical_formula_structural   ZnH3C11Br2N(O2F)2
_chemical_formula_sum   'Zn2 H6 C22 Br4 N2 O8 F4'
_cell_volume   1193.00544485
_cell_formula_units_Z   2
loop_
 _symmetry_equiv_pos_site_id
 _symmetry_equiv_pos_as_xyz
  1  'x, y, z'
loop_
 _atom_site_type_symbol
 _atom_site_label
 _atom_site_symmetry_multiplicity
 _atom_site_fract_x
 _atom_site_fract_y
 _atom_site_fract_z
 _atom_site_occupancy
  Zn  Zn0  1  0.35564472  0.50120601  0.49792987  1.0
  Zn  Zn1  1  0.64227551  0.50342066  0.50195308  1.0
  H  H2  1  0.73454285  0.89002412  0.49984228  1.0
  H  H3  1  0.73653457  0.11567561  0.51448395  1.0
  H  H4  1  0.67204138  0.56687010  0.12100428  1.0
  H  H5  1  0.67185913  0.58187863  0.89351992  1.0
  H  H6  1  0.13704191  0.43708881  0.67730771  1.0
  H  H7  1  0.13297651  0.56435636  0.32061218  1.0
  C  C8  1  0.47558126  0.48149599  0.26431853  1.0
  C  C9  1  0.47725869  0.50993574  0.73556902  1.0
  C  C10  1  0.93632003  0.46709838  0.59610215  1.0
  C  C11  1  0.93435142  0.54149390  0.40495697  1.0
  C  C12  1  0.07782441  0.46498737  0.59823281  1.0
  C  C13  1  0.07559251  0.53814384  0.40038016  1.0
  C  C14  1  0.51973503  0.73613455  0.48633701  1.0
  C  C15  1  0.52397883  0.26907191  0.51513824  1.0
  C  C16  1  0.39799625  0.93926263  0.49351942  1.0
  C  C17  1  0.39919493  0.06572692  0.50292630  1.0
  C  C18  1  0.51761249  0.87162779  0.49224724  1.0
  C  C19  1  0.51994277  0.13357388  0.51029163  1.0
  C  C20  1  0.63901970  0.93933639  0.50038202  1.0
  C  C21  1  0.64018654  0.06614473  0.50889942  1.0
  C  C22  1  0.24706061  0.07688915  0.50080772  1.0
  C  C23  1  0.24577461  0.92856705  0.48627616  1.0
  C  C24  1  0.58704635  0.53202200  0.06668936  1.0
  C  C25  1  0.58684555  0.54045490  0.94107887  1.0
  C  C26  1  0.47658195  0.49684440  0.87102090  1.0
  C  C27  1  0.47685356  0.47979511  0.12818119  1.0
  C  C28  1  0.36845680  0.44174785  0.93203726  1.0
  C  C29  1  0.36863627  0.43313601  0.05852380  1.0
  Br  Br30  1  0.17165609  0.13886736  0.65237925  1.0
  Br  Br31  1  0.17623426  0.86646920  0.33043425  1.0
  Br  Br32  1  0.17056950  0.16937298  0.36586219  1.0
  Br  Br33  1  0.15921229  0.83629609  0.61610400  1.0
  N  N34  1  0.14399777  0.50026590  0.49870077  1.0
  N  N35  1  0.86394499  0.50556414  0.50106969  1.0
  O  O36  1  0.35965588  0.48674681  0.31415637  1.0
  O  O37  1  0.36213729  0.51442311  0.68191685  1.0
  O  O38  1  0.59014192  0.48139063  0.31866645  1.0
  O  O39  1  0.59267038  0.51655586  0.68537479  1.0
  O  O40  1  0.40507429  0.68252444  0.48204547  1.0
  O  O41  1  0.40971450  0.32175402  0.51527518  1.0
  O  O42  1  0.63617500  0.68606527  0.48762370  1.0
  O  O43  1  0.64078371  0.32012960  0.51710793  1.0
  F  F44  1  0.26030194  0.39170537  0.87217450  1.0
  F  F45  1  0.26106333  0.37615208  0.10962648  1.0
  F  F46  1  0.86733183  0.42990951  0.69257346  1.0
  F  F47  1  0.86348468  0.58243064  0.30994434  1.0
