# generated using pymatgen
data_Al2H25C32NO13
_symmetry_space_group_name_H-M   'P 1'
_cell_length_a   6.66325599
_cell_length_b   18.72489695
_cell_length_c   22.30768306
_cell_angle_alpha   80.67847295
_cell_angle_beta   89.99796394
_cell_angle_gamma   89.99893097
_symmetry_Int_Tables_number   1
_chemical_formula_structural   Al2H25C32NO13
_chemical_formula_sum   'Al4 H50 C64 N2 O26'
_cell_volume   2746.54873193
_cell_formula_units_Z   2
loop_
 _symmetry_equiv_pos_site_id
 _symmetry_equiv_pos_as_xyz
  1  'x, y, z'
loop_
 _atom_site_type_symbol
 _atom_site_label
 _atom_site_symmetry_multiplicity
 _atom_site_fract_x
 _atom_site_fract_y
 _atom_site_fract_z
 _atom_site_occupancy
  Al  Al0  1  0.86444123  0.49799422  0.50150236  1.0
  Al  Al1  1  0.36442764  0.50205223  0.49850911  1.0
  Al  Al2  1  0.35559291  0.00067432  0.99758113  1.0
  Al  Al3  1  0.85554889  0.99934261  0.00242063  1.0
  H  H4  1  0.95557113  0.23961070  0.95461339  1.0
  H  H5  1  0.45505122  0.76046605  0.04540574  1.0
  H  H6  1  0.94021995  0.42356752  0.77990971  1.0
  H  H7  1  0.43989630  0.57648975  0.22008658  1.0
  H  H8  1  0.91630171  0.35501296  0.88201948  1.0
  H  H9  1  0.41584549  0.64503531  0.11799354  1.0
  H  H10  1  0.20332246  0.13725316  0.81247161  1.0
  H  H11  1  0.70344562  0.86273855  0.18749927  1.0
  H  H12  1  0.23971997  0.26277976  0.54443378  1.0
  H  H13  1  0.74023005  0.73720054  0.45551668  1.0
  H  H14  1  0.22868191  0.13838125  0.72401464  1.0
  H  H15  1  0.72853598  0.86164446  0.27596297  1.0
  H  H16  1  0.28877741  0.14572477  0.61460390  1.0
  H  H17  1  0.78887860  0.85429630  0.38536019  1.0
  H  H18  1  0.00433534  0.42925721  0.67077376  1.0
  H  H19  1  0.50429705  0.57077382  0.32920375  1.0
  H  H20  1  0.11708639  0.68201224  0.85756692  1.0
  H  H21  1  0.61725848  0.31798207  0.14244008  1.0
  H  H22  1  0.81308520  0.82008345  0.75413662  1.0
  H  H23  1  0.31299758  0.17994271  0.24581169  1.0
  H  H24  1  0.78696789  0.75091904  0.81782425  1.0
  H  H25  1  0.28708328  0.24911945  0.18212389  1.0
  H  H26  1  0.83792959  0.65919354  0.76194804  1.0
  H  H27  1  0.33780309  0.34082369  0.23803400  1.0
  H  H28  1  0.36065533  0.83759002  0.75278958  1.0
  H  H29  1  0.86055361  0.16239467  0.24729897  1.0
  H  H30  1  0.13068268  0.87492989  0.72312843  1.0
  H  H31  1  0.63049291  0.12509367  0.27692089  1.0
  H  H32  1  0.36819167  0.75933849  0.68174560  1.0
  H  H33  1  0.86799644  0.24069451  0.31830628  1.0
  H  H34  1  0.35288739  0.72365605  0.83795094  1.0
  H  H35  1  0.85303474  0.27632231  0.16209781  1.0
  H  H36  1  0.38204922  0.66336508  0.75367460  1.0
  H  H37  1  0.88203216  0.33661133  0.24638419  1.0
  H  H38  1  0.15158661  0.80077295  0.64765656  1.0
  H  H39  1  0.65132384  0.19927334  0.35238010  1.0
  H  H40  1  0.87886672  0.80903780  0.63789287  1.0
  H  H41  1  0.63050611  0.82650973  0.65970030  1.0
  H  H42  1  0.50459528  0.73839347  0.59154718  1.0
  H  H43  1  0.63932571  0.81278125  0.55020719  1.0
  H  H44  1  0.75605514  0.72590662  0.56959763  1.0
  H  H45  1  0.37865481  0.19089971  0.36203638  1.0
  H  H46  1  0.13019524  0.17351891  0.34027276  1.0
  H  H47  1  0.00463742  0.26162486  0.40845263  1.0
  H  H48  1  0.13927230  0.18721129  0.44977229  1.0
  H  H49  1  0.25612837  0.27406545  0.43037807  1.0
  H  H50  1  0.60649511  0.46489277  0.57763602  1.0
  H  H51  1  0.10664090  0.53492318  0.42230309  1.0
  H  H52  1  0.61485846  0.04601491  0.92622223  1.0
  H  H53  1  0.11486705  0.95407883  0.07382195  1.0
  C  C54  1  0.61483174  0.42123313  0.42373348  1.0
  C  C55  1  0.11527346  0.57876598  0.57627670  1.0
  C  C56  1  0.61943152  0.61154964  0.42815541  1.0
  C  C57  1  0.11896242  0.38848232  0.57186725  1.0
  C  C58  1  0.97610770  0.30681171  0.86668179  1.0
  C  C59  1  0.47568372  0.69325131  0.13332260  1.0
  C  C60  1  0.08506434  0.18254094  0.88684483  1.0
  C  C61  1  0.58483606  0.81748445  0.11315384  1.0
  C  C62  1  0.20752404  0.25878125  0.59278833  1.0
  C  C63  1  0.70789447  0.74122549  0.40717016  1.0
  C  C64  1  0.23683686  0.19339156  0.63243175  1.0
  C  C65  1  0.73694501  0.80663462  0.36752804  1.0
  C  C66  1  0.20274810  0.18956969  0.69409500  1.0
  C  C67  1  0.70276835  0.81045180  0.30587664  1.0
  C  C68  1  0.13556148  0.25038659  0.71861800  1.0
  C  C69  1  0.63555220  0.74963861  0.28136725  1.0
  C  C70  1  0.09840869  0.31645658  0.67812693  1.0
  C  C71  1  0.59843650  0.68355243  0.32186346  1.0
  C  C72  1  0.10081684  0.24786547  0.78322828  1.0
  C  C73  1  0.60070624  0.75217312  0.21675784  1.0
  C  C74  1  0.02354370  0.31043676  0.80441195  1.0
  C  C75  1  0.52328323  0.68960590  0.19558702  1.0
  C  C76  1  0.99271277  0.37575047  0.76236765  1.0
  C  C77  1  0.49247373  0.62428793  0.23762075  1.0
  C  C78  1  0.02929215  0.37880433  0.70184903  1.0
  C  C79  1  0.52924528  0.62121222  0.29813457  1.0
  C  C80  1  0.13788262  0.18532295  0.82640047  1.0
  C  C81  1  0.63782041  0.81468929  0.17358528  1.0
  C  C82  1  0.99985572  0.24336348  0.90715318  1.0
  C  C83  1  0.49939598  0.75669111  0.09286227  1.0
  C  C84  1  0.13762106  0.31898140  0.61523975  1.0
  C  C85  1  0.63783584  0.68102071  0.38474877  1.0
  C  C86  1  0.20440306  0.71252439  0.82021705  1.0
  C  C87  1  0.70449911  0.28746335  0.17980965  1.0
  C  C88  1  0.87914524  0.76924374  0.77742019  1.0
  C  C89  1  0.37913717  0.23078423  0.22255396  1.0
  C  C90  1  0.87969086  0.71159605  0.73529173  1.0
  C  C91  1  0.37957606  0.28842665  0.26469061  1.0
  C  C92  1  0.11235912  0.62408129  0.62284934  1.0
  C  C93  1  0.61215422  0.37593723  0.37715442  1.0
  C  C94  1  0.09608360  0.78504129  0.79671287  1.0
  C  C95  1  0.59611371  0.21496777  0.20330343  1.0
  C  C96  1  0.22674947  0.66716601  0.76904232  1.0
  C  C97  1  0.72676002  0.33281419  0.23099365  1.0
  C  C98  1  0.09976166  0.70180891  0.71250047  1.0
  C  C99  1  0.59962582  0.29822315  0.28749796  1.0
  C  C100  1  0.21357978  0.77417076  0.69101551  1.0
  C  C101  1  0.71339614  0.22584894  0.30901634  1.0
  C  C102  1  0.20815624  0.82375066  0.73978251  1.0
  C  C103  1  0.70802616  0.17625805  0.26025447  1.0
  C  C104  1  0.10525742  0.65844842  0.66447114  1.0
  C  C105  1  0.60503314  0.34158235  0.33552494  1.0
  C  C106  1  0.09558101  0.83082878  0.84328208  1.0
  C  C107  1  0.59570833  0.16917244  0.15674197  1.0
  C  C108  1  0.09775734  0.87072226  0.88110651  1.0
  C  C109  1  0.59787822  0.12929740  0.11891288  1.0
  C  C110  1  0.60141094  0.88701752  0.07008361  1.0
  C  C111  1  0.10168494  0.11300308  0.92992165  1.0
  C  C112  1  0.60171831  0.07963629  0.07560623  1.0
  C  C113  1  0.10154416  0.92037900  0.92440179  1.0
  C  C114  1  0.72830276  0.78525285  0.64433740  1.0
  C  C115  1  0.65242041  0.76451364  0.58534854  1.0
  C  C116  1  0.22813623  0.21473598  0.35563179  1.0
  C  C117  1  0.15240652  0.23548125  0.41463982  1.0
  N  N118  1  0.16734900  0.58820729  0.78956431  1.0
  N  N119  1  0.66740023  0.41179433  0.21043787  1.0
  O  O120  1  0.44568643  0.58638205  0.44277390  1.0
  O  O121  1  0.94516031  0.41324187  0.55683750  1.0
  O  O122  1  0.78621789  0.43686509  0.44304946  1.0
  O  O123  1  0.28666421  0.56373957  0.55657621  1.0
  O  O124  1  0.78519288  0.58298942  0.44730138  1.0
  O  O125  1  0.28468915  0.41746439  0.55313699  1.0
  O  O126  1  0.94456898  0.55738288  0.56068285  1.0
  O  O127  1  0.44392152  0.44202585  0.43970528  1.0
  O  O128  1  0.61267274  0.49122808  0.53652487  1.0
  O  O129  1  0.11267202  0.50880185  0.46348927  1.0
  O  O130  1  0.77469804  0.05886695  0.06141281  1.0
  O  O131  1  0.27441638  0.94136370  0.93845961  1.0
  O  O132  1  0.43539293  0.91374120  0.04906447  1.0
  O  O133  1  0.93558814  0.08616550  0.95079699  1.0
  O  O134  1  0.43210745  0.06086505  0.05705293  1.0
  O  O135  1  0.93193106  0.93891121  0.94312604  1.0
  O  O136  1  0.27417597  0.08521536  0.94213865  1.0
  O  O137  1  0.77384888  0.91492815  0.05799609  1.0
  O  O138  1  0.60840752  0.01065750  0.96311159  1.0
  O  O139  1  0.10839037  0.98937243  0.03689444  1.0
  O  O140  1  0.72944906  0.72080562  0.68930523  1.0
  O  O141  1  0.22932213  0.27919639  0.31066478  1.0
  O  O142  1  0.02328440  0.57470373  0.82488993  1.0
  O  O143  1  0.26534980  0.54269284  0.76781237  1.0
  O  O144  1  0.52332943  0.42528516  0.17512248  1.0
  O  O145  1  0.76547475  0.45731207  0.23217528  1.0
