# generated using pymatgen
data_ZnH21C33N3O4
_symmetry_space_group_name_H-M   'P 1'
_cell_length_a   13.81535603
_cell_length_b   16.61016059
_cell_length_c   17.02322591
_cell_angle_alpha   90.00144040
_cell_angle_beta   90.35519509
_cell_angle_gamma   89.60492071
_symmetry_Int_Tables_number   1
_chemical_formula_structural   ZnH21C33N3O4
_chemical_formula_sum   'Zn2 H42 C66 N6 O8'
_cell_volume   3906.24163869
_cell_formula_units_Z   2
loop_
 _symmetry_equiv_pos_site_id
 _symmetry_equiv_pos_as_xyz
  1  'x, y, z'
loop_
 _atom_site_type_symbol
 _atom_site_label
 _atom_site_symmetry_multiplicity
 _atom_site_fract_x
 _atom_site_fract_y
 _atom_site_fract_z
 _atom_site_occupancy
  Zn  Zn0  1  0.60071983  0.99953587  0.50037823  1.0
  Zn  Zn1  1  0.39927861  0.00041796  0.49964341  1.0
  H  H2  1  0.74930411  0.12322274  0.49924507  1.0
  H  H3  1  0.75164151  0.87638623  0.50106491  1.0
  H  H4  1  0.25069257  0.87676601  0.50078537  1.0
  H  H5  1  0.24837548  0.12360193  0.49889339  1.0
  H  H6  1  0.34326467  0.28430265  0.21231201  1.0
  H  H7  1  0.65567595  0.71481371  0.21507440  1.0
  H  H8  1  0.34550081  0.71786524  0.78598954  1.0
  H  H9  1  0.65557233  0.28253712  0.78727010  1.0
  H  H10  1  0.65673159  0.71565239  0.78770551  1.0
  H  H11  1  0.34433486  0.28513230  0.78494966  1.0
  H  H12  1  0.65450566  0.28208077  0.21403273  1.0
  H  H13  1  0.34444048  0.71742876  0.21273869  1.0
  H  H14  1  0.34346869  0.17994383  0.31885125  1.0
  H  H15  1  0.65519489  0.81896821  0.32174650  1.0
  H  H16  1  0.34629428  0.82229732  0.67952676  1.0
  H  H17  1  0.65503305  0.17852489  0.68039749  1.0
  H  H18  1  0.65653039  0.82001904  0.68117686  1.0
  H  H19  1  0.34481664  0.18097780  0.67828167  1.0
  H  H20  1  0.65369984  0.17765410  0.32049192  1.0
  H  H21  1  0.34497541  0.82144159  0.31961246  1.0
  H  H22  1  0.49903108  0.41807587  0.30009963  1.0
  H  H23  1  0.49963120  0.58099650  0.30036824  1.0
  H  H24  1  0.50098685  0.58188339  0.69992917  1.0
  H  H25  1  0.50040410  0.41896397  0.69965360  1.0
  H  H26  1  0.49900147  0.19167067  0.07900839  1.0
  H  H27  1  0.50055584  0.80799883  0.07992225  1.0
  H  H28  1  0.50101294  0.80827835  0.92100100  1.0
  H  H29  1  0.49943535  0.19195741  0.92009524  1.0
  H  H30  1  0.49977700  0.43433596  0.99993445  1.0
  H  H31  1  0.50022725  0.56561607  0.00008840  1.0
  H  H32  1  0.08027307  0.26494528  0.44624667  1.0
  H  H33  1  0.17970706  0.22316607  0.49848821  1.0
  H  H34  1  0.08079788  0.26577639  0.54973347  1.0
  H  H35  1  0.91463499  0.26551065  0.54992845  1.0
  H  H36  1  0.81601513  0.22287328  0.49825424  1.0
  H  H37  1  0.91410493  0.26494625  0.44642402  1.0
  H  H38  1  0.08618886  0.73516363  0.55368382  1.0
  H  H39  1  0.18399047  0.77711187  0.50140147  1.0
  H  H40  1  0.08508685  0.73436600  0.45018157  1.0
  H  H41  1  0.91892854  0.73433568  0.45010167  1.0
  H  H42  1  0.82030391  0.77682810  0.50179902  1.0
  H  H43  1  0.92001651  0.73492077  0.55359032  1.0
  C  C44  1  0.49990825  0.11216859  0.60874889  1.0
  C  C45  1  0.49849139  0.11116226  0.39018977  1.0
  C  C46  1  0.50008588  0.88778103  0.39127331  1.0
  C  C47  1  0.50148680  0.88878856  0.60983353  1.0
  C  C48  1  0.79571453  0.07006147  0.49961828  1.0
  C  C49  1  0.89704298  0.07465049  0.49951495  1.0
  C  C50  1  0.94847990  0.15002098  0.49888267  1.0
  C  C51  1  0.79703703  0.92960513  0.50059493  1.0
  C  C52  1  0.89845435  0.92516453  0.50054675  1.0
  C  C53  1  0.95136013  0.84988271  0.50111517  1.0
  C  C54  1  0.20428721  0.92992909  0.50038693  1.0
  C  C55  1  0.10296310  0.92534188  0.50047208  1.0
  C  C56  1  0.05152620  0.84997019  0.50109143  1.0
  C  C57  1  0.20297124  0.07038603  0.49938388  1.0
  C  C58  1  0.10155246  0.07482664  0.49943558  1.0
  C  C59  1  0.04864668  0.15010845  0.49886598  1.0
  C  C60  1  0.94894384  0.99994942  0.50000215  1.0
  C  C61  1  0.05106294  0.00004475  0.49998371  1.0
  C  C62  1  0.41130246  0.26080261  0.23613170  1.0
  C  C63  1  0.58756147  0.73837954  0.23801395  1.0
  C  C64  1  0.41365457  0.74039838  0.76291083  1.0
  C  C65  1  0.58747254  0.26015313  0.76324523  1.0
  C  C66  1  0.58869732  0.73916327  0.76388584  1.0
  C  C67  1  0.41245220  0.26157068  0.76201012  1.0
  C  C68  1  0.58634390  0.25955184  0.23711023  1.0
  C  C69  1  0.41254029  0.73981154  0.23676474  1.0
  C  C70  1  0.41110599  0.20294757  0.29541497  1.0
  C  C71  1  0.58760594  0.79605283  0.29745472  1.0
  C  C72  1  0.41378459  0.79823653  0.70364188  1.0
  C  C73  1  0.58746967  0.20252623  0.70376181  1.0
  C  C74  1  0.58888878  0.79701168  0.70460489  1.0
  C  C75  1  0.41240414  0.20389439  0.70256816  1.0
  C  C76  1  0.58620957  0.20171068  0.29637034  1.0
  C  C77  1  0.41253665  0.79743845  0.29624754  1.0
  C  C78  1  0.49941534  0.43417357  0.16777639  1.0
  C  C79  1  0.49983309  0.56531934  0.16798570  1.0
  C  C80  1  0.50058454  0.56578086  0.83224879  1.0
  C  C81  1  0.50019573  0.43463692  0.83203845  1.0
  C  C82  1  0.49926738  0.45865877  0.25010049  1.0
  C  C83  1  0.49956595  0.54057244  0.25023628  1.0
  C  C84  1  0.50074625  0.54129567  0.74992476  1.0
  C  C85  1  0.50049181  0.45938624  0.74978803  1.0
  C  C86  1  0.49939509  0.32552072  0.06612328  1.0
  C  C87  1  0.50021125  0.67422677  0.06661400  1.0
  C  C88  1  0.50059901  0.67443372  0.93389951  1.0
  C  C89  1  0.49977198  0.32572827  0.93340638  1.0
  C  C90  1  0.49927237  0.24332746  0.04003035  1.0
  C  C91  1  0.50046803  0.75648809  0.04074277  1.0
  C  C92  1  0.50071813  0.75662456  0.95998949  1.0
  C  C93  1  0.49951302  0.24346754  0.95927408  1.0
  C  C94  1  0.49921193  0.35293808  0.14397700  1.0
  C  C95  1  0.50002753  0.64663533  0.14441270  1.0
  C  C96  1  0.50079075  0.64702780  0.85604173  1.0
  C  C97  1  0.49998463  0.35332152  0.85560960  1.0
  C  C98  1  0.49891700  0.28991121  0.20657960  1.0
  C  C99  1  0.50003737  0.70946751  0.20721077  1.0
  C  C100  1  0.50108355  0.71004925  0.79343794  1.0
  C  C101  1  0.49996902  0.29048813  0.79280798  1.0
  C  C102  1  0.49858217  0.17313910  0.32614268  1.0
  C  C103  1  0.50007667  0.82585378  0.32718765  1.0
  C  C104  1  0.50141415  0.82680811  0.67387660  1.0
  C  C105  1  0.49993556  0.17409645  0.67283172  1.0
  C  C106  1  0.10090225  0.22930656  0.49829709  1.0
  C  C107  1  0.89471267  0.22913815  0.49833099  1.0
  C  C108  1  0.10529488  0.77085302  0.50162726  1.0
  C  C109  1  0.89910600  0.77068461  0.50169523  1.0
  N  N110  1  0.74873449  0.99979483  0.50015205  1.0
  N  N111  1  0.25126872  0.00019393  0.49984612  1.0
  N  N112  1  0.49975478  0.49982014  0.11893656  1.0
  N  N113  1  0.50024942  0.50013671  0.88108981  1.0
  N  N114  1  0.49969188  0.37287910  0.99983453  1.0
  N  N115  1  0.50029427  0.62707353  0.00018352  1.0
  O  O116  1  0.58203656  0.08769705  0.58439802  1.0
  O  O117  1  0.41776789  0.08855247  0.58371837  1.0
  O  O118  1  0.41638617  0.08765342  0.41457899  1.0
  O  O119  1  0.58064532  0.08664749  0.41526151  1.0
  O  O120  1  0.41795485  0.91231879  0.41554605  1.0
  O  O121  1  0.58222753  0.91132911  0.41638431  1.0
  O  O122  1  0.58359048  0.91238649  0.58551362  1.0
  O  O123  1  0.41933214  0.91322686  0.58469892  1.0
