# generated using pymatgen
data_CuSiH16C24Br4(N2F3)2
_symmetry_space_group_name_H-M   'P 1'
_cell_length_a   8.07855921
_cell_length_b   13.78651893
_cell_length_c   13.78666240
_cell_angle_alpha   89.79596663
_cell_angle_beta   85.88121900
_cell_angle_gamma   85.88153535
_symmetry_Int_Tables_number   1
_chemical_formula_structural   CuSiH16C24Br4(N2F3)2
_chemical_formula_sum   'Cu1 Si1 H16 C24 Br4 N4 F6'
_cell_volume   1527.56983999
_cell_formula_units_Z   1
loop_
 _symmetry_equiv_pos_site_id
 _symmetry_equiv_pos_as_xyz
  1  'x, y, z'
loop_
 _atom_site_type_symbol
 _atom_site_label
 _atom_site_symmetry_multiplicity
 _atom_site_fract_x
 _atom_site_fract_y
 _atom_site_fract_z
 _atom_site_occupancy
  Cu  Cu0  1  0.49999320  0.49999741  0.49999782  1.0
  Si  Si1  1  0.99999156  0.49999752  0.49999768  1.0
  H  H2  1  0.26201099  0.50008123  0.34543797  1.0
  H  H3  1  0.26616891  0.50002585  0.17124808  1.0
  H  H4  1  0.80330073  0.49994171  0.16420769  1.0
  H  H5  1  0.77711243  0.49987501  0.34042150  1.0
  H  H6  1  0.19668216  0.50007202  0.83578802  1.0
  H  H7  1  0.73382298  0.49996460  0.82874736  1.0
  H  H8  1  0.73797727  0.49990850  0.65455762  1.0
  H  H9  1  0.22287612  0.50013290  0.65957545  1.0
  H  H10  1  0.26200636  0.34543823  0.50008479  1.0
  H  H11  1  0.26616711  0.17124624  0.50002785  1.0
  H  H12  1  0.80330235  0.16421178  0.49993822  1.0
  H  H13  1  0.77710311  0.34042601  0.49987384  1.0
  H  H14  1  0.19668410  0.83578232  0.50006612  1.0
  H  H15  1  0.73382453  0.82874639  0.49996613  1.0
  H  H16  1  0.73797533  0.65455441  0.49991250  1.0
  H  H17  1  0.22287573  0.65956955  0.50012863  1.0
  C  C18  1  0.38076851  0.50004848  0.30273913  1.0
  C  C19  1  0.38525604  0.50003743  0.20182858  1.0
  C  C20  1  0.53709606  0.50002521  0.14405961  1.0
  C  C21  1  0.67859886  0.49997115  0.19897695  1.0
  C  C22  1  0.66602822  0.49993250  0.29993641  1.0
  C  C23  1  0.55609605  0.49992781  0.03532369  1.0
  C  C24  1  0.44389258  0.50006919  0.96467112  1.0
  C  C25  1  0.32138898  0.50003239  0.80101860  1.0
  C  C26  1  0.46289470  0.49997470  0.85593584  1.0
  C  C27  1  0.61473433  0.49995521  0.79817126  1.0
  C  C28  1  0.61921771  0.49994779  0.69725797  1.0
  C  C29  1  0.33395493  0.50006886  0.70005571  1.0
  C  C30  1  0.38076312  0.30273857  0.50004694  1.0
  C  C31  1  0.38525359  0.20182615  0.50003869  1.0
  C  C32  1  0.53709646  0.14405978  0.50002385  1.0
  C  C33  1  0.67859975  0.19897974  0.49996903  1.0
  C  C34  1  0.66602477  0.29994056  0.49993083  1.0
  C  C35  1  0.55609574  0.03532301  0.49992713  1.0
  C  C36  1  0.44389597  0.96466890  0.50007049  1.0
  C  C37  1  0.32138664  0.80101508  0.50002951  1.0
  C  C38  1  0.46289507  0.85593359  0.49997449  1.0
  C  C39  1  0.61473530  0.79816867  0.49995612  1.0
  C  C40  1  0.61922097  0.69725480  0.49994952  1.0
  C  C41  1  0.33395560  0.70005281  0.50006651  1.0
  Br  Br42  1  0.78867050  0.49948816  0.99012599  1.0
  Br  Br43  1  0.21132406  0.50051102  0.00987076  1.0
  Br  Br44  1  0.78867265  0.99012632  0.49948719  1.0
  Br  Br45  1  0.21132582  0.00987140  0.50050867  1.0
  N  N46  1  0.51845960  0.49996901  0.35194723  1.0
  N  N47  1  0.48152893  0.50002872  0.64804831  1.0
  N  N48  1  0.51845341  0.35194861  0.49996949  1.0
  N  N49  1  0.48152934  0.64804549  0.50002920  1.0
  F  F50  1  0.21474900  0.50144166  0.50144538  1.0
  F  F51  1  0.78523446  0.49855681  0.49855544  1.0
  F  F52  1  0.99999152  0.58792399  0.41208155  1.0
  F  F53  1  0.99999086  0.41207687  0.58791962  1.0
  F  F54  1  0.02483330  0.41195127  0.41195080  1.0
  F  F55  1  0.97516153  0.58804573  0.58804594  1.0
