# generated using pymatgen
data_Hf3H14C39N3O16
_symmetry_space_group_name_H-M   'P 1'
_cell_length_a   14.87567144
_cell_length_b   14.91173599
_cell_length_c   14.89630761
_cell_angle_alpha   90.68576298
_cell_angle_beta   90.53339243
_cell_angle_gamma   90.71185106
_symmetry_Int_Tables_number   1
_chemical_formula_structural   Hf3H14C39N3O16
_chemical_formula_sum   'Hf6 H28 C78 N6 O32'
_cell_volume   3303.69051763
_cell_formula_units_Z   2
loop_
 _symmetry_equiv_pos_site_id
 _symmetry_equiv_pos_as_xyz
  1  'x, y, z'
loop_
 _atom_site_type_symbol
 _atom_site_label
 _atom_site_symmetry_multiplicity
 _atom_site_fract_x
 _atom_site_fract_y
 _atom_site_fract_z
 _atom_site_occupancy
  Hf  Hf0  1  0.16731822  0.02461030  0.21756808  1.0
  Hf  Hf1  1  0.98088185  0.16850052  0.26057742  1.0
  Hf  Hf2  1  0.08928057  0.99268434  0.99816591  1.0
  Hf  Hf3  1  0.12508521  0.21127485  0.07401819  1.0
  Hf  Hf4  1  0.94814429  0.94933365  0.18208010  1.0
  Hf  Hf5  1  0.90530011  0.13335602  0.04174120  1.0
  H  H6  1  0.41039546  0.85536392  0.83264478  1.0
  H  H7  1  0.59028287  0.88682864  0.82364823  1.0
  H  H8  1  0.60913402  0.32158182  0.37623470  1.0
  H  H9  1  0.42762510  0.33779741  0.37496843  1.0
  H  H10  1  0.74038813  0.45324829  0.90692015  1.0
  H  H11  1  0.73046184  0.63264685  0.93782458  1.0
  H  H12  1  0.28196577  0.65296234  0.36873606  1.0
  H  H13  1  0.28133312  0.47206523  0.38581980  1.0
  H  H14  1  0.81369430  0.78581954  0.50219186  1.0
  H  H15  1  0.84442025  0.77456484  0.68160764  1.0
  H  H16  1  0.27861527  0.32702070  0.70327394  1.0
  H  H17  1  0.29374150  0.32509807  0.52186978  1.0
  H  H18  1  0.17182689  0.21513583  0.26486393  1.0
  H  H19  1  0.10367226  0.86393185  0.13549012  1.0
  H  H20  1  0.04335777  0.14825286  0.91317219  1.0
  H  H21  1  0.81955074  0.08672241  0.19710355  1.0
  H  H22  1  0.56657808  0.92542466  0.51802508  1.0
  H  H23  1  0.66984181  0.06948360  0.75070264  1.0
  H  H24  1  0.53484513  0.16468149  0.74854323  1.0
  H  H25  1  0.43298643  0.02071463  0.51568589  1.0
  H  H26  1  0.88071551  0.46813594  0.65932088  1.0
  H  H27  1  0.02534267  0.70043734  0.76245349  1.0
  H  H28  1  0.12022999  0.69889224  0.62705796  1.0
  H  H29  1  0.97558753  0.46634378  0.52493739  1.0
  H  H30  1  0.65607044  0.71453709  0.11920951  1.0
  H  H31  1  0.42479678  0.60877097  0.97443022  1.0
  H  H32  1  0.42331240  0.47517236  0.06976898  1.0
  H  H33  1  0.65472975  0.57989434  0.21453007  1.0
  C  C34  1  0.44764157  0.77277315  0.94873810  1.0
  C  C35  1  0.46293912  0.82433854  0.87205081  1.0
  C  C36  1  0.55552983  0.84088676  0.86781218  1.0
  C  C37  1  0.59689430  0.79871208  0.94091834  1.0
  C  C38  1  0.60244903  0.40695692  0.25684988  1.0
  C  C39  1  0.56884317  0.36264925  0.33216341  1.0
  C  C40  1  0.47519781  0.37085744  0.33120031  1.0
  C  C41  1  0.45144859  0.42131718  0.25613430  1.0
  C  C42  1  0.85617536  0.49118739  0.82341638  1.0
  C  C43  1  0.77947838  0.50590744  0.87544682  1.0
  C  C44  1  0.77473102  0.59829643  0.89164519  1.0
  C  C45  1  0.84754204  0.64011146  0.84881818  1.0
  C  C46  1  0.16240728  0.64591788  0.45455347  1.0
  C  C47  1  0.23784111  0.61269182  0.41004144  1.0
  C  C48  1  0.23726023  0.51932854  0.41874209  1.0
  C  C49  1  0.16224859  0.49535018  0.46962278  1.0
  C  C50  1  0.73020820  0.90078003  0.54109122  1.0
  C  C51  1  0.78221083  0.82432938  0.55525400  1.0
  C  C52  1  0.79837113  0.81902353  0.64765645  1.0
  C  C53  1  0.75570504  0.89143218  0.69001968  1.0
  C  C54  1  0.36362406  0.20738158  0.69583558  1.0
  C  C55  1  0.31925627  0.28262076  0.66269731  1.0
  C  C56  1  0.32694431  0.28134979  0.56907484  1.0
  C  C57  1  0.37726851  0.20624128  0.54496393  1.0
  C  C58  1  0.25916530  0.89081824  0.07730046  1.0
  C  C59  1  0.29434166  0.09544982  0.32108501  1.0
  C  C60  1  0.22739679  0.33903502  0.14532766  1.0
  C  C61  1  0.08054140  0.85728527  0.32145140  1.0
  C  C62  1  0.81364950  0.27288135  0.17463178  1.0
  C  C63  1  0.91075560  0.01691738  0.87016171  1.0
  C  C64  1  0.05199908  0.27092123  0.38835234  1.0
  C  C65  1  0.84650183  0.02913160  0.35218392  1.0
  C  C66  1  0.97194073  0.82141820  0.00317800  1.0
  C  C67  1  0.22960647  0.12478884  0.90669209  1.0
  C  C68  1  0.98562995  0.30334985  0.94046062  1.0
  C  C69  1  0.77692684  0.95466086  0.06529300  1.0
  C  C70  1  0.29927383  0.14128880  0.84251823  1.0
  C  C71  1  0.34082396  0.16757987  0.77723265  1.0
  C  C72  1  0.35638425  0.13760008  0.38468887  1.0
  C  C73  1  0.37808712  0.16825997  0.45852027  1.0
  C  C74  1  0.84362980  0.96757794  0.82022371  1.0
  C  C75  1  0.78895040  0.93331764  0.76793538  1.0
  C  C76  1  0.77409668  0.00286806  0.40953257  1.0
  C  C77  1  0.73925231  0.95596361  0.46676357  1.0
  C  C78  1  0.56092581  0.97940517  0.56739966  1.0
  C  C79  1  0.62961486  0.99286885  0.63193403  1.0
  C  C80  1  0.61827027  0.05817603  0.69921502  1.0
  C  C81  1  0.54173933  0.11174331  0.69810081  1.0
  C  C82  1  0.47580202  0.10111130  0.63048434  1.0
  C  C83  1  0.48506707  0.03269302  0.56631817  1.0
  C  C84  1  0.12263762  0.72721093  0.43177693  1.0
  C  C85  1  0.09703613  0.79251385  0.39021504  1.0
  C  C86  1  0.12475227  0.40872744  0.47125295  1.0
  C  C87  1  0.09426727  0.33463374  0.45023487  1.0
  C  C88  1  0.92273896  0.77134830  0.93601252  1.0
  C  C89  1  0.88934066  0.71831225  0.88151476  1.0
  C  C90  1  0.91156908  0.41713998  0.83344346  1.0
  C  C91  1  0.95891973  0.36048353  0.86834455  1.0
  C  C92  1  0.93487034  0.51741599  0.65347680  1.0
  C  C93  1  0.94855549  0.58176886  0.72226813  1.0
  C  C94  1  0.01385019  0.64914976  0.71071615  1.0
  C  C95  1  0.06726268  0.64833473  0.63390276  1.0
  C  C96  1  0.05643242  0.58089111  0.56779603  1.0
  C  C97  1  0.98789850  0.51668534  0.57722710  1.0
  C  C98  1  0.74940676  0.34224494  0.19135088  1.0
  C  C99  1  0.68404010  0.38392611  0.21717647  1.0
  C  C100  1  0.29079361  0.40112151  0.18781428  1.0
  C  C101  1  0.36484174  0.42247928  0.21839809  1.0
  C  C102  1  0.67481589  0.83207325  0.98284566  1.0
  C  C103  1  0.72714432  0.88738384  0.01605703  1.0
  C  C104  1  0.37291924  0.78296636  0.00358019  1.0
  C  C105  1  0.31597409  0.81836875  0.05055130  1.0
  C  C106  1  0.60505939  0.66241692  0.10781438  1.0
  C  C107  1  0.53799838  0.67292455  0.04217371  1.0
  C  C108  1  0.47402062  0.60364322  0.02858681  1.0
  C  C109  1  0.47340015  0.52784596  0.08187308  1.0
  C  C110  1  0.53740161  0.51933138  0.15053900  1.0
  C  C111  1  0.60439969  0.58599331  0.16139718  1.0
  N  N112  1  0.53065329  0.74921871  0.98602443  1.0
  N  N113  1  0.53054373  0.44736156  0.21241450  1.0
  N  N114  1  0.89284699  0.57426303  0.79918108  1.0
  N  N115  1  0.11816475  0.57406033  0.49543425  1.0
  N  N116  1  0.70625354  0.93704708  0.62438468  1.0
  N  N117  1  0.40369282  0.16278580  0.62371054  1.0
  O  O118  1  0.21118687  0.91846645  0.01169684  1.0
  O  O119  1  0.21865840  0.06896375  0.35323924  1.0
  O  O120  1  0.26020554  0.26412035  0.11795469  1.0
  O  O121  1  0.14624964  0.91083667  0.30632208  1.0
  O  O122  1  0.00558342  0.85402021  0.27847080  1.0
  O  O123  1  0.14326072  0.35230350  0.13692497  1.0
  O  O124  1  0.30854534  0.08656736  0.23714245  1.0
  O  O125  1  0.26010553  0.92342333  0.15701570  1.0
  O  O126  1  0.03284320  0.04284857  0.24577051  1.0
  O  O127  1  0.15300808  0.07701988  0.09207968  1.0
  O  O128  1  0.13365843  0.17729835  0.22669492  1.0
  O  O129  1  0.08660537  0.92650238  0.13600343  1.0
  O  O130  1  0.86710133  0.25740954  0.24009872  1.0
  O  O131  1  0.99001572  0.98619001  0.87633416  1.0
  O  O132  1  0.02470747  0.30338131  0.31329785  1.0
  O  O133  1  0.87360926  0.96336743  0.30399562  1.0
  O  O134  1  0.94099919  0.82752943  0.08239206  1.0
  O  O135  1  0.21441773  0.19025122  0.96033876  1.0
  O  O136  1  0.91973220  0.25545096  0.96813266  1.0
  O  O137  1  0.78325916  0.03372908  0.03449300  1.0
  O  O138  1  0.06551336  0.30397494  0.97274343  1.0
  O  O139  1  0.81140735  0.92785669  0.13970862  1.0
  O  O140  1  0.04376950  0.18697472  0.40180827  1.0
  O  O141  1  0.18597608  0.05026007  0.90287221  1.0
  O  O142  1  0.04637646  0.85629230  0.97627205  1.0
  O  O143  1  0.87958706  0.10860221  0.35310893  1.0
  O  O144  1  0.80998438  0.22974774  0.09979558  1.0
  O  O145  1  0.88379996  0.09116811  0.90496602  1.0
  O  O146  1  0.96721270  0.01148065  0.06030518  1.0
  O  O147  1  0.99917362  0.19672038  0.12631538  1.0
  O  O148  1  0.04349607  0.13096165  0.97574135  1.0
  O  O149  1  0.88227681  0.08715983  0.17987861  1.0
