# generated using pymatgen
data_Zn4H55C63N9O17
_symmetry_space_group_name_H-M   'P 1'
_cell_length_a   12.33208414
_cell_length_b   19.95508305
_cell_length_c   19.95508727
_cell_angle_alpha   102.56105305
_cell_angle_beta   94.21293062
_cell_angle_gamma   94.21289951
_symmetry_Int_Tables_number   1
_chemical_formula_structural   Zn4H55C63N9O17
_chemical_formula_sum   'Zn8 H110 C126 N18 O34'
_cell_volume   4759.99240041
_cell_formula_units_Z   2
loop_
 _symmetry_equiv_pos_site_id
 _symmetry_equiv_pos_as_xyz
  1  'x, y, z'
loop_
 _atom_site_type_symbol
 _atom_site_label
 _atom_site_symmetry_multiplicity
 _atom_site_fract_x
 _atom_site_fract_y
 _atom_site_fract_z
 _atom_site_occupancy
  Zn  Zn0  1  0.61482187  0.56405569  0.07627697  1.0
  Zn  Zn1  1  0.11482233  0.07627749  0.56405581  1.0
  Zn  Zn2  1  0.80641942  0.52687167  0.01743934  1.0
  Zn  Zn3  1  0.30641886  0.01743990  0.52687167  1.0
  Zn  Zn4  1  0.40797856  0.61169696  0.33696322  1.0
  Zn  Zn5  1  0.90797744  0.33696376  0.61169685  1.0
  Zn  Zn6  1  0.49982028  0.74897115  0.48788422  1.0
  Zn  Zn7  1  0.99982040  0.48788340  0.74897077  1.0
  H  H8  1  0.33921383  0.63599354  0.53865151  1.0
  H  H9  1  0.83921416  0.53865171  0.63599341  1.0
  H  H10  1  0.37179186  0.47236150  0.58553413  1.0
  H  H11  1  0.87179171  0.58553425  0.47236138  1.0
  H  H12  1  0.26307786  0.50803630  0.54664592  1.0
  H  H13  1  0.76307779  0.54664574  0.50803537  1.0
  H  H14  1  0.33743667  0.55557775  0.62508348  1.0
  H  H15  1  0.83743534  0.62508289  0.55557718  1.0
  H  H16  1  0.51652362  0.46621589  0.53315095  1.0
  H  H17  1  0.01652361  0.53315077  0.46621609  1.0
  H  H18  1  0.59181115  0.54562912  0.53012082  1.0
  H  H19  1  0.09181125  0.53012033  0.54562870  1.0
  H  H20  1  0.51004237  0.49772917  0.45563872  1.0
  H  H21  1  0.01004291  0.45563854  0.49772896  1.0
  H  H22  1  0.49437492  0.53862877  0.20123525  1.0
  H  H23  1  0.99437506  0.20123532  0.53862918  1.0
  H  H24  1  0.56055988  0.62402585  0.22112404  1.0
  H  H25  1  0.06055936  0.22112365  0.62402631  1.0
  H  H26  1  0.53515849  0.69938206  0.14237005  1.0
  H  H27  1  0.03515827  0.14237016  0.69938265  1.0
  H  H28  1  0.45160938  0.66882085  0.06300703  1.0
  H  H29  1  0.95160921  0.06300707  0.66882138  1.0
  H  H30  1  0.36268100  0.55347175  0.03487794  1.0
  H  H31  1  0.86268047  0.03487786  0.55347180  1.0
  H  H32  1  0.38214069  0.49743497  0.09290313  1.0
  H  H33  1  0.88213974  0.09290295  0.49743549  1.0
  H  H34  1  0.30866020  0.70741661  0.25020366  1.0
  H  H35  1  0.80865820  0.25020345  0.70741663  1.0
  H  H36  1  0.45328394  0.72155246  0.24909844  1.0
  H  H37  1  0.95328269  0.24909833  0.72155210  1.0
  H  H38  1  0.19621639  0.66595993  0.14288139  1.0
  H  H39  1  0.69621652  0.14288100  0.66596007  1.0
  H  H40  1  0.25753770  0.64864043  0.06302105  1.0
  H  H41  1  0.75753687  0.06302123  0.64864090  1.0
  H  H42  1  0.30046572  0.51977769  0.20105837  1.0
  H  H43  1  0.80046519  0.20105830  0.51977754  1.0
  H  H44  1  0.21977135  0.59162735  0.22155847  1.0
  H  H45  1  0.71977008  0.22155858  0.59162766  1.0
  H  H46  1  0.86002611  0.46780014  0.87158507  1.0
  H  H47  1  0.36002544  0.87158483  0.46779980  1.0
  H  H48  1  0.91560482  0.55545707  0.89043448  1.0
  H  H49  1  0.41560483  0.89043422  0.55545732  1.0
  H  H50  1  0.98457774  0.42995849  0.02945993  1.0
  H  H51  1  0.48457755  0.02946017  0.42995876  1.0
  H  H52  1  0.90030516  0.39523127  0.95115202  1.0
  H  H53  1  0.40030514  0.95115258  0.39523120  1.0
  H  H54  1  0.02934681  0.60262390  0.99682679  1.0
  H  H55  1  0.52934585  0.99682702  0.60262421  1.0
  H  H56  1  0.06042841  0.54884284  0.05537326  1.0
  H  H57  1  0.56042843  0.05537335  0.54884270  1.0
  H  H58  1  0.97926858  0.37628462  0.84278477  1.0
  H  H59  1  0.47926895  0.84278542  0.37628491  1.0
  H  H60  1  0.12200632  0.39748944  0.84032154  1.0
  H  H61  1  0.62200624  0.84032155  0.39748937  1.0
  H  H62  1  0.17632172  0.45939680  0.02650691  1.0
  H  H63  1  0.67632154  0.02650692  0.45939705  1.0
  H  H64  1  0.23457550  0.44489217  0.94528640  1.0
  H  H65  1  0.73457578  0.94528713  0.44489269  1.0
  H  H66  1  0.19619831  0.51636187  0.86606106  1.0
  H  H67  1  0.69619832  0.86606057  0.51636182  1.0
  H  H68  1  0.10791443  0.58343805  0.88714605  1.0
  H  H69  1  0.60791499  0.88714543  0.58343765  1.0
  H  H70  1  0.67004900  0.34528303  0.85658262  1.0
  H  H71  1  0.17004939  0.85658304  0.34528380  1.0
  H  H72  1  0.26570017  0.32061981  0.86427405  1.0
  H  H73  1  0.76569981  0.86427381  0.32061933  1.0
  H  H74  1  0.38427118  0.40903558  0.95289064  1.0
  H  H75  1  0.88427002  0.95289077  0.40903545  1.0
  H  H76  1  0.65414124  0.24679189  0.75554192  1.0
  H  H77  1  0.15414276  0.75554268  0.24679214  1.0
  H  H78  1  0.53611867  0.15814000  0.66602053  1.0
  H  H79  1  0.03611949  0.66602038  0.15814023  1.0
  H  H80  1  0.24870244  0.22666470  0.75715014  1.0
  H  H81  1  0.74870362  0.75714958  0.22666478  1.0
  H  H82  1  0.93153526  0.40254656  0.15304470  1.0
  H  H83  1  0.43153309  0.15304449  0.40254590  1.0
  H  H84  1  0.98530441  0.34856947  0.25085981  1.0
  H  H85  1  0.48530377  0.25085905  0.34856981  1.0
  H  H86  1  0.64169348  0.46603220  0.24693391  1.0
  H  H87  1  0.14169236  0.24693551  0.46603180  1.0
  H  H88  1  0.94666694  0.32183519  0.36379026  1.0
  H  H89  1  0.44666719  0.36378996  0.32183409  1.0
  H  H90  1  0.66755396  0.39675655  0.46248920  1.0
  H  H91  1  0.16755638  0.46249052  0.39675641  1.0
  H  H92  1  0.60770992  0.44382406  0.36009452  1.0
  H  H93  1  0.10771076  0.36009578  0.44382436  1.0
  H  H94  1  0.12342688  0.62928492  0.33618823  1.0
  H  H95  1  0.62342668  0.33618849  0.62928494  1.0
  H  H96  1  0.96584295  0.80405247  0.51211933  1.0
  H  H97  1  0.46584269  0.51211885  0.80405280  1.0
  H  H98  1  0.16711648  0.80353451  0.50875565  1.0
  H  H99  1  0.66711602  0.50875620  0.80353464  1.0
  H  H100  1  0.93586768  0.57590599  0.29030525  1.0
  H  H101  1  0.43586794  0.29030480  0.57590599  1.0
  H  H102  1  0.73493353  0.57741130  0.29261558  1.0
  H  H103  1  0.23493391  0.29261485  0.57741059  1.0
  H  H104  1  0.77810419  0.75461094  0.46230646  1.0
  H  H105  1  0.27810390  0.46230598  0.75461052  1.0
  H  H106  1  0.78571449  0.62532701  0.85059267  1.0
  H  H107  1  0.28571500  0.85059286  0.62532660  1.0
  H  H108  1  0.42879548  0.72423956  0.82554583  1.0
  H  H109  1  0.92879661  0.82554546  0.72424044  1.0
  H  H110  1  0.47793032  0.67507681  0.92736743  1.0
  H  H111  1  0.97793099  0.92736808  0.67507814  1.0
  H  H112  1  0.83162746  0.64881738  0.74008257  1.0
  H  H113  1  0.33162782  0.74008176  0.64881665  1.0
  H  H114  1  0.78263051  0.69843024  0.63713643  1.0
  H  H115  1  0.28263111  0.63713596  0.69843022  1.0
  H  H116  1  0.47668184  0.75022879  0.71403594  1.0
  H  H117  1  0.97668392  0.71403547  0.75022832  1.0
  C  C118  1  0.41028015  0.61007294  0.51887844  1.0
  C  C119  1  0.91028106  0.51887838  0.61007304  1.0
  C  C120  1  0.34402007  0.52028595  0.57537920  1.0
  C  C121  1  0.84402009  0.57537864  0.52028602  1.0
  C  C122  1  0.51560466  0.51247707  0.51217564  1.0
  C  C123  1  0.01560440  0.51217564  0.51247658  1.0
  C  C124  1  0.48647858  0.59177254  0.19642768  1.0
  C  C125  1  0.98647806  0.19642782  0.59177302  1.0
  C  C126  1  0.46041101  0.66760066  0.11778923  1.0
  C  C127  1  0.96041051  0.11778887  0.66760151  1.0
  C  C128  1  0.37225735  0.55083241  0.08933850  1.0
  C  C129  1  0.87225660  0.08933902  0.55083268  1.0
  C  C130  1  0.37926085  0.68926614  0.22364039  1.0
  C  C131  1  0.87926022  0.22363990  0.68926662  1.0
  C  C132  1  0.26789414  0.64719621  0.11783274  1.0
  C  C133  1  0.76789401  0.11783294  0.64719656  1.0
  C  C134  1  0.29076468  0.57266595  0.19562023  1.0
  C  C135  1  0.79076451  0.19562033  0.57266616  1.0
  C  C136  1  0.93150152  0.50323283  0.89501714  1.0
  C  C137  1  0.43150221  0.89501724  0.50323333  1.0
  C  C138  1  0.97227781  0.43051726  0.97459249  1.0
  C  C139  1  0.47227747  0.97459242  0.43051743  1.0
  C  C140  1  0.04676212  0.55035463  0.00078402  1.0
  C  C141  1  0.54676144  0.00078385  0.55035448  1.0
  C  C142  1  0.05011291  0.41220326  0.86725314  1.0
  C  C143  1  0.55011321  0.86725286  0.41220312  1.0
  C  C144  1  0.16212063  0.45994095  0.97161942  1.0
  C  C145  1  0.66212029  0.97161937  0.45994105  1.0
  C  C146  1  0.12422739  0.53151734  0.89287036  1.0
  C  C147  1  0.62422688  0.89287136  0.53151800  1.0
  C  C148  1  0.60108097  0.43925643  0.96018296  1.0
  C  C149  1  0.10108041  0.96018336  0.43925676  1.0
  C  C150  1  0.53372802  0.38267878  0.90888186  1.0
  C  C151  1  0.03372805  0.90888204  0.38267925  1.0
  C  C152  1  0.58174752  0.33918613  0.85813265  1.0
  C  C153  1  0.08174767  0.85813326  0.33918627  1.0
  C  C154  1  0.51782033  0.28761223  0.80798127  1.0
  C  C155  1  0.01781955  0.80798111  0.28761322  1.0
  C  C156  1  0.40124762  0.28144519  0.80912714  1.0
  C  C157  1  0.90124728  0.80912693  0.28144471  1.0
  C  C158  1  0.35414432  0.32610855  0.86246811  1.0
  C  C159  1  0.85414544  0.86246867  0.32610801  1.0
  C  C160  1  0.41881372  0.37494937  0.91122692  1.0
  C  C161  1  0.91881406  0.91122726  0.37494948  1.0
  C  C162  1  0.56544197  0.24199254  0.75577310  1.0
  C  C163  1  0.06544346  0.75577350  0.24199307  1.0
  C  C164  1  0.50131132  0.19338241  0.70667645  1.0
  C  C165  1  0.00131230  0.70667565  0.19338328  1.0
  C  C166  1  0.38591214  0.18777223  0.70680279  1.0
  C  C167  1  0.88591279  0.70680143  0.18777325  1.0
  C  C168  1  0.33740398  0.23121269  0.75740066  1.0
  C  C169  1  0.83740453  0.75740027  0.23121322  1.0
  C  C170  1  0.31887442  0.13526753  0.65105171  1.0
  C  C171  1  0.81887607  0.65105087  0.13526784  1.0
  C  C172  1  0.75532355  0.47299317  0.13774434  1.0
  C  C173  1  0.25532245  0.13774466  0.47299314  1.0
  C  C174  1  0.78356287  0.43786275  0.19479881  1.0
  C  C175  1  0.28355997  0.19479861  0.43786209  1.0
  C  C176  1  0.88096105  0.40405961  0.19575607  1.0
  C  C177  1  0.38096077  0.19575558  0.40405910  1.0
  C  C178  1  0.91031044  0.37432048  0.24967051  1.0
  C  C179  1  0.41031063  0.24966982  0.37431927  1.0
  C  C180  1  0.84428883  0.37747231  0.30552439  1.0
  C  C181  1  0.34428868  0.30552502  0.37747229  1.0
  C  C182  1  0.74598852  0.41172764  0.30474887  1.0
  C  C183  1  0.24598854  0.30474923  0.41172697  1.0
  C  C184  1  0.71690908  0.44063844  0.24805468  1.0
  C  C185  1  0.21690887  0.24805480  0.44063738  1.0
  C  C186  1  0.87322243  0.34899666  0.36254163  1.0
  C  C187  1  0.37322416  0.36254134  0.34899547  1.0
  C  C188  1  0.81100140  0.35653620  0.41818659  1.0
  C  C189  1  0.31100283  0.41818699  0.35653555  1.0
  C  C190  1  0.71454004  0.39141137  0.41776885  1.0
  C  C191  1  0.21454270  0.41776986  0.39141151  1.0
  C  C192  1  0.68193189  0.41737453  0.36177462  1.0
  C  C193  1  0.18193501  0.36177601  0.41737492  1.0
  C  C194  1  0.85119163  0.33117743  0.47987553  1.0
  C  C195  1  0.35119317  0.47987589  0.33117673  1.0
  C  C196  1  0.27618652  0.71785415  0.41847205  1.0
  C  C197  1  0.77618591  0.41847236  0.71785418  1.0
  C  C198  1  0.15572687  0.71678404  0.42108833  1.0
  C  C199  1  0.65572722  0.42108824  0.71678318  1.0
  C  C200  1  0.08781603  0.66728154  0.37414322  1.0
  C  C201  1  0.58781573  0.37414322  0.66728136  1.0
  C  C202  1  0.97328829  0.66527908  0.37530898  1.0
  C  C203  1  0.47328796  0.37530870  0.66527957  1.0
  C  C204  1  0.92841719  0.71652363  0.42529678  1.0
  C  C205  1  0.42841691  0.42529597  0.71652361  1.0
  C  C206  1  0.00031727  0.76579846  0.47375538  1.0
  C  C207  1  0.50031652  0.47375503  0.76579808  1.0
  C  C208  1  0.11152769  0.76578833  0.47206594  1.0
  C  C209  1  0.61152805  0.47206663  0.76578778  1.0
  C  C210  1  0.90147837  0.61489477  0.32799041  1.0
  C  C211  1  0.40147792  0.32799027  0.61489490  1.0
  C  C212  1  0.79022894  0.61562841  0.32901080  1.0
  C  C213  1  0.29022963  0.32900940  0.61562816  1.0
  C  C214  1  0.74589835  0.66749368  0.37707462  1.0
  C  C215  1  0.24590031  0.37707387  0.66749299  1.0
  C  C216  1  0.81380107  0.71666301  0.42440832  1.0
  C  C217  1  0.31380130  0.42440770  0.71666315  1.0
  C  C218  1  0.62544597  0.66902782  0.37698344  1.0
  C  C219  1  0.12544192  0.37698250  0.66902804  1.0
  C  C220  1  0.66372392  0.61630021  0.95468334  1.0
  C  C221  1  0.16372374  0.95468304  0.61630166  1.0
  C  C222  1  0.63567644  0.64781513  0.89496636  1.0
  C  C223  1  0.13567729  0.89496728  0.64781518  1.0
  C  C224  1  0.70810477  0.64726367  0.84511809  1.0
  C  C225  1  0.20810723  0.84511708  0.64726459  1.0
  C  C226  1  0.68235811  0.67385097  0.78648709  1.0
  C  C227  1  0.18235568  0.78648705  0.67385047  1.0
  C  C228  1  0.58006455  0.70271916  0.77958495  1.0
  C  C229  1  0.08006293  0.77958610  0.70272025  1.0
  C  C230  1  0.50698283  0.70283149  0.83149842  1.0
  C  C231  1  0.00698266  0.83150085  0.70283335  1.0
  C  C232  1  0.53384932  0.67576250  0.88768141  1.0
  C  C233  1  0.03385112  0.88768234  0.67576391  1.0
  C  C234  1  0.75512090  0.67221987  0.73425402  1.0
  C  C235  1  0.25512164  0.73425286  0.67222021  1.0
  C  C236  1  0.72810696  0.69866252  0.67770520  1.0
  C  C237  1  0.22810768  0.67770466  0.69866164  1.0
  C  C238  1  0.62638480  0.72657270  0.67009634  1.0
  C  C239  1  0.12638443  0.67009653  0.72657292  1.0
  C  C240  1  0.55449810  0.72882560  0.72049922  1.0
  C  C241  1  0.05449973  0.72050104  0.72882489  1.0
  C  C242  1  0.59395968  0.74764218  0.60472440  1.0
  C  C243  1  0.09395961  0.60472397  0.74764191  1.0
  N  N244  1  0.42266138  0.54958840  0.53552489  1.0
  N  N245  1  0.92266150  0.53552446  0.54958819  1.0
  N  N246  1  0.47424727  0.59443002  0.12249982  1.0
  N  N247  1  0.97424728  0.12249928  0.59443038  1.0
  N  N248  1  0.39060047  0.61707588  0.23167956  1.0
  N  N249  1  0.89060015  0.23167976  0.61707623  1.0
  N  N250  1  0.36541388  0.69246262  0.15127216  1.0
  N  N251  1  0.86541238  0.15127234  0.69246234  1.0
  N  N252  1  0.27637097  0.57500271  0.12290729  1.0
  N  N253  1  0.77636980  0.12290763  0.57500310  1.0
  N  N254  1  0.94820830  0.50209338  0.96943514  1.0
  N  N255  1  0.44820799  0.96943512  0.50209385  1.0
  N  N256  1  0.02826479  0.48274598  0.85852657  1.0
  N  N257  1  0.52826513  0.85852640  0.48274571  1.0
  N  N258  1  0.06856453  0.41018225  0.93992976  1.0
  N  N259  1  0.56856482  0.93992962  0.41018266  1.0
  N  N260  1  0.14356474  0.53079847  0.96593008  1.0
  N  N261  1  0.64356454  0.96592967  0.53079880  1.0
  O  O262  1  0.47467297  0.63619678  0.48362098  1.0
  O  O263  1  0.97467283  0.48362098  0.63619623  1.0
  O  O264  1  0.55163186  0.47353187  0.00839330  1.0
  O  O265  1  0.05163120  0.00839351  0.47353264  1.0
  O  O266  1  0.70178955  0.44987507  0.95137547  1.0
  O  O267  1  0.20179064  0.95137646  0.44987535  1.0
  O  O268  1  0.37179484  0.09614054  0.60836687  1.0
  O  O269  1  0.87179733  0.60836769  0.09613996  1.0
  O  O270  1  0.21520345  0.13367486  0.64951282  1.0
  O  O271  1  0.71520530  0.64951095  0.13367638  1.0
  O  O272  1  0.67384891  0.50903625  0.14385525  1.0
  O  O273  1  0.17384830  0.14385608  0.50903704  1.0
  O  O274  1  0.81585737  0.46581235  0.08798193  1.0
  O  O275  1  0.31585568  0.08798232  0.46581139  1.0
  O  O276  1  0.91865062  0.28672408  0.47540412  1.0
  O  O277  1  0.41865241  0.47540416  0.28672415  1.0
  O  O278  1  0.81456191  0.36050212  0.53785861  1.0
  O  O279  1  0.31456137  0.53785943  0.36050215  1.0
  O  O280  1  0.59071531  0.61233282  0.99609849  1.0
  O  O281  1  0.09071450  0.99609825  0.61233314  1.0
  O  O282  1  0.33568968  0.74997589  0.47221847  1.0
  O  O283  1  0.83568952  0.47221818  0.74997570  1.0
  O  O284  1  0.31181156  0.68748298  0.36221844  1.0
  O  O285  1  0.81181105  0.36221807  0.68748271  1.0
  O  O286  1  0.56728344  0.61335634  0.34685443  1.0
  O  O287  1  0.06728423  0.34685433  0.61335653  1.0
  O  O288  1  0.58688571  0.72493506  0.40429294  1.0
  O  O289  1  0.08688671  0.40429087  0.72493383  1.0
  O  O290  1  0.75790761  0.59436295  0.95934934  1.0
  O  O291  1  0.25790725  0.95934985  0.59436313  1.0
  O  O292  1  0.65879980  0.74286017  0.55774453  1.0
  O  O293  1  0.15879942  0.55774368  0.74286020  1.0
  O  O294  1  0.49671660  0.76610296  0.59560120  1.0
  O  O295  1  0.99671648  0.59560147  0.76610273  1.0
