# generated using pymatgen
data_Zn3H6C18I4(O6F)2
_symmetry_space_group_name_H-M   'P 1'
_cell_length_a   16.95659807
_cell_length_b   16.95626950
_cell_length_c   17.06415785
_cell_angle_alpha   114.11100785
_cell_angle_beta   100.51881194
_cell_angle_gamma   113.90304995
_symmetry_Int_Tables_number   1
_chemical_formula_structural   Zn3H6C18I4(O6F)2
_chemical_formula_sum   'Zn6 H12 C36 I8 O24 F4'
_cell_volume   3720.97071364
_cell_formula_units_Z   2
loop_
 _symmetry_equiv_pos_site_id
 _symmetry_equiv_pos_as_xyz
  1  'x, y, z'
loop_
 _atom_site_type_symbol
 _atom_site_label
 _atom_site_symmetry_multiplicity
 _atom_site_fract_x
 _atom_site_fract_y
 _atom_site_fract_z
 _atom_site_occupancy
  Zn  Zn0  1  0.07066211  0.07066983  0.99999562  1.0
  Zn  Zn1  1  0.06004510  0.49977773  0.55981206  1.0
  Zn  Zn2  1  0.93995711  0.50022265  0.44018783  1.0
  Zn  Zn3  1  0.92933649  0.92932859  0.00000301  1.0
  Zn  Zn4  1  0.49840599  0.92961365  0.42801901  1.0
  Zn  Zn5  1  0.50159426  0.07039154  0.57198497  1.0
  H  H6  1  0.91527528  0.10721418  0.79330382  1.0
  H  H7  1  0.14533165  0.85448535  0.09561651  1.0
  H  H8  1  0.24113586  0.95028363  0.09560776  1.0
  H  H9  1  0.75886248  0.04971200  0.90438950  1.0
  H  H10  1  0.85466801  0.14551382  0.90438358  1.0
  H  H11  1  0.74726898  0.15018961  0.80223960  1.0
  H  H12  1  0.25272830  0.84980724  0.19775959  1.0
  H  H13  1  0.34794876  0.94501811  0.19775944  1.0
  H  H14  1  0.08472275  0.89278363  0.20669279  1.0
  H  H15  1  0.65204975  0.05497839  0.80224011  1.0
  H  H16  1  0.31391033  0.12196757  0.20669310  1.0
  H  H17  1  0.68608903  0.87803032  0.79330501  1.0
  C  C18  1  0.99971037  0.86079250  0.86051265  1.0
  C  C19  1  0.36065087  0.86066219  0.50001552  1.0
  C  C20  1  0.63935155  0.13935933  0.50000335  1.0
  C  C21  1  0.61862411  0.00112913  0.61974778  1.0
  C  C22  1  0.38137475  0.99888545  0.38026910  1.0
  C  C23  1  0.86058191  0.36059443  0.49999967  1.0
  C  C24  1  0.13941800  0.63940754  0.50000180  1.0
  C  C25  1  0.00028823  0.13920592  0.13948598  1.0
  C  C26  1  0.99992117  0.63959739  0.63950670  1.0
  C  C27  1  0.00008269  0.36040135  0.36049936  1.0
  C  C28  1  0.71720014  0.21720801  0.49998647  1.0
  C  C29  1  0.28279708  0.78279532  0.50001138  1.0
  C  C30  1  0.78291247  0.28291558  0.50000000  1.0
  C  C31  1  0.21708616  0.71708826  0.50000049  1.0
  C  C32  1  0.88125685  0.99601983  0.87731488  1.0
  C  C33  1  0.11874251  0.00397805  0.12268323  1.0
  C  C34  1  0.85611593  0.02830215  0.74345416  1.0
  C  C35  1  0.14388211  0.97169417  0.25654450  1.0
  C  C36  1  0.28486405  0.11266590  0.25655331  1.0
  C  C37  1  0.71513387  0.88733150  0.74344359  1.0
  C  C38  1  0.78225771  0.02395986  0.67032427  1.0
  C  C39  1  0.21774039  0.97603840  0.32967491  1.0
  C  C40  1  0.35364321  0.11191317  0.32967934  1.0
  C  C41  1  0.64635559  0.88808609  0.67032014  1.0
  C  C42  1  0.99947795  0.71738055  0.71685717  1.0
  C  C43  1  0.78786564  0.07058137  0.85847629  1.0
  C  C44  1  0.21213185  0.92941435  0.14152035  1.0
  C  C45  1  0.81109783  0.99016562  0.80130580  1.0
  C  C46  1  0.18890201  0.00983244  0.19869318  1.0
  C  C47  1  0.00052252  0.28261510  0.28314508  1.0
  C  C48  1  0.68965553  0.99763825  0.68726953  1.0
  C  C49  1  0.31034160  0.00235969  0.31272933  1.0
  C  C50  1  0.71717218  0.07376430  0.79094159  1.0
  C  C51  1  0.28282639  0.92623414  0.20905848  1.0
  C  C52  1  0.99937885  0.78307638  0.78243964  1.0
  C  C53  1  0.00062007  0.21691983  0.21755821  1.0
  I  I54  1  0.93000651  0.96062741  0.67886175  1.0
  I  I55  1  0.15395356  0.82571363  0.31701442  1.0
  I  I56  1  0.49128222  0.16302613  0.31698478  1.0
  I  I57  1  0.50871487  0.83696640  0.68301222  1.0
  I  I58  1  0.84604228  0.17428273  0.68298356  1.0
  I  I59  1  0.06999221  0.03937142  0.32113658  1.0
  I  I60  1  0.28177354  0.25115991  0.32115065  1.0
  I  I61  1  0.71822544  0.74883824  0.67884772  1.0
  O  O62  1  0.06184806  0.95314243  0.89117652  1.0
  O  O63  1  0.03123760  0.93801290  0.09212111  1.0
  O  O64  1  0.15411869  0.06089671  0.09210674  1.0
  O  O65  1  0.84588119  0.93910329  0.90789277  1.0
  O  O66  1  0.96876159  0.06198412  0.90787471  1.0
  O  O67  1  0.60739682  0.04717639  0.43646836  1.0
  O  O68  1  0.39259946  0.95281817  0.56352855  1.0
  O  O69  1  0.61071297  0.17093181  0.56352094  1.0
  O  O70  1  0.93815027  0.04685666  0.10882208  1.0
  O  O71  1  0.38928984  0.82906864  0.43647264  1.0
  O  O72  1  0.59037214  0.94143213  0.53179761  1.0
  O  O73  1  0.40962293  0.05856426  0.46819545  1.0
  O  O74  1  0.59434908  0.06400277  0.65839118  1.0
  O  O75  1  0.06196084  0.17067729  0.10880796  1.0
  O  O76  1  0.40565238  0.93599119  0.34160656  1.0
  O  O77  1  0.83857402  0.39095313  0.44709002  1.0
  O  O78  1  0.16142403  0.60904814  0.55290649  1.0
  O  O79  1  0.94384898  0.39149519  0.55289966  1.0
  O  O80  1  0.05614963  0.60850668  0.44709887  1.0
  O  O81  1  0.93803787  0.82932154  0.89119037  1.0
  O  O82  1  0.94750405  0.60913687  0.55662902  1.0
  O  O83  1  0.05249829  0.39085896  0.44337130  1.0
  O  O84  1  0.05277431  0.60899823  0.66176361  1.0
  O  O85  1  0.94722966  0.39100241  0.33824010  1.0
  F  F86  1  0.76124813  0.95554605  0.57899517  1.0
  F  F87  1  0.23874765  0.04444836  0.42100230  1.0
  F  F88  1  0.37657436  0.18225864  0.42099822  1.0
  F  F89  1  0.62342339  0.81773987  0.57899979  1.0
