# generated using pymatgen
data_ZnH24C25NO12
_symmetry_space_group_name_H-M   'P 1'
_cell_length_a   11.64602942
_cell_length_b   14.33505507
_cell_length_c   15.09164702
_cell_angle_alpha   90.01229842
_cell_angle_beta   86.53894575
_cell_angle_gamma   90.00022624
_symmetry_Int_Tables_number   1
_chemical_formula_structural   ZnH24C25NO12
_chemical_formula_sum   'Zn2 H48 C50 N2 O24'
_cell_volume   2514.90178437
_cell_formula_units_Z   2
loop_
 _symmetry_equiv_pos_site_id
 _symmetry_equiv_pos_as_xyz
  1  'x, y, z'
loop_
 _atom_site_type_symbol
 _atom_site_label
 _atom_site_symmetry_multiplicity
 _atom_site_fract_x
 _atom_site_fract_y
 _atom_site_fract_z
 _atom_site_occupancy
  Zn  Zn0  1  0.49995758  0.60098422  0.50006356  1.0
  Zn  Zn1  1  0.49996938  0.39696476  0.49999708  1.0
  H  H2  1  0.67014897  0.06658681  0.43455009  1.0
  H  H3  1  0.74203920  0.63994652  0.13025419  1.0
  H  H4  1  0.74149072  0.78460736  0.03586877  1.0
  H  H5  1  0.75540341  0.71478708  0.93804396  1.0
  H  H6  1  0.86931491  0.71873120  0.01187464  1.0
  H  H7  1  0.76148282  0.41720006  0.99347043  1.0
  H  H8  1  0.77763573  0.36351930  0.88615696  1.0
  H  H9  1  0.75400767  0.20552621  0.95701814  1.0
  H  H10  1  0.86987852  0.26691090  0.00246253  1.0
  H  H11  1  0.73460056  0.25859085  0.06376283  1.0
  H  H12  1  0.24199010  0.56941974  0.96818819  1.0
  H  H13  1  0.31439580  0.93115110  0.50003398  1.0
  H  H14  1  0.25726270  0.63955562  0.86997106  1.0
  H  H15  1  0.25743181  0.78424351  0.96435864  1.0
  H  H16  1  0.24400422  0.71446894  0.06220008  1.0
  H  H17  1  0.12988873  0.71808880  0.98852445  1.0
  H  H18  1  0.23796691  0.41713741  0.00677649  1.0
  H  H19  1  0.22205826  0.36350362  0.11409443  1.0
  H  H20  1  0.24562963  0.20548746  0.04324539  1.0
  H  H21  1  0.12961146  0.26678734  0.99792741  1.0
  H  H22  1  0.26478501  0.25847055  0.93647515  1.0
  H  H23  1  0.43502373  0.71870774  0.28809935  1.0
  H  H24  1  0.32974983  0.06659951  0.56536649  1.0
  H  H25  1  0.46521364  0.73665036  0.17144167  1.0
  H  H26  1  0.52638299  0.87365061  0.26696499  1.0
  H  H27  1  0.62956100  0.79803044  0.31283350  1.0
  H  H28  1  0.64106602  0.82566166  0.19796743  1.0
  H  H29  1  0.49855869  0.27781110  0.72963772  1.0
  H  H30  1  0.55736414  0.24261080  0.83171888  1.0
  H  H31  1  0.73620208  0.18612959  0.74781038  1.0
  H  H32  1  0.61360304  0.13210377  0.70488323  1.0
  H  H33  1  0.68351195  0.22687312  0.64655941  1.0
  H  H34  1  0.56474782  0.71855522  0.71210076  1.0
  H  H35  1  0.68550952  0.93115521  0.49984995  1.0
  H  H36  1  0.53441934  0.73659712  0.82874006  1.0
  H  H37  1  0.47349946  0.87357000  0.73315962  1.0
  H  H38  1  0.37036834  0.79796926  0.68715731  1.0
  H  H39  1  0.35864826  0.82565279  0.80202281  1.0
  H  H40  1  0.50121098  0.27781658  0.27034592  1.0
  H  H41  1  0.44234611  0.24269207  0.16825099  1.0
  H  H42  1  0.26359743  0.18609662  0.25212495  1.0
  H  H43  1  0.38623154  0.13208519  0.29500322  1.0
  H  H44  1  0.31625866  0.22680518  0.35341207  1.0
  H  H45  1  0.84772660  0.27826308  0.43828319  1.0
  H  H46  1  0.18964386  0.67754085  0.43256308  1.0
  H  H47  1  0.15219299  0.27836075  0.56158988  1.0
  H  H48  1  0.81013125  0.67751035  0.56748184  1.0
  H  H49  1  0.75769316  0.56980530  0.03202794  1.0
  C  C50  1  0.46969299  0.49628822  0.33548662  1.0
  C  C51  1  0.28138794  0.50385299  0.52870092  1.0
  C  C52  1  0.59433328  0.10136505  0.46462555  1.0
  C  C53  1  0.39781003  0.89691840  0.50013716  1.0
  C  C54  1  0.40556329  0.10137594  0.53528331  1.0
  C  C55  1  0.60208711  0.89692567  0.49975904  1.0
  C  C56  1  0.84125791  0.51292950  0.47838697  1.0
  C  C57  1  0.15869321  0.51299006  0.52150181  1.0
  C  C58  1  0.94362638  0.51730133  0.49226548  1.0
  C  C59  1  0.05632531  0.51729975  0.50754436  1.0
  C  C60  1  0.59104493  0.19842990  0.46547000  1.0
  C  C61  1  0.53011014  0.49625653  0.66459212  1.0
  C  C62  1  0.40085729  0.79977956  0.49869075  1.0
  C  C63  1  0.40884934  0.19844150  0.53445184  1.0
  C  C64  1  0.59903612  0.79978901  0.50127155  1.0
  C  C65  1  0.54157129  0.56840056  0.09660080  1.0
  C  C66  1  0.56730102  0.42443927  0.90447158  1.0
  C  C67  1  0.45794136  0.56835081  0.90349856  1.0
  C  C68  1  0.43228146  0.42446040  0.09562038  1.0
  C  C69  1  0.52678046  0.57192085  0.18958699  1.0
  C  C70  1  0.57657709  0.42469979  0.81114335  1.0
  C  C71  1  0.47279554  0.57187200  0.81051616  1.0
  C  C72  1  0.47031315  0.49860749  0.23638392  1.0
  C  C73  1  0.42306980  0.42472377  0.18895472  1.0
  C  C74  1  0.69337758  0.24748129  0.41980417  1.0
  C  C75  1  0.28309463  0.75466636  0.49994989  1.0
  C  C76  1  0.30653495  0.24749855  0.58011591  1.0
  C  C77  1  0.71677719  0.75467166  0.50006050  1.0
  C  C78  1  0.72386453  0.63645777  0.05954766  1.0
  C  C79  1  0.77534102  0.71854643  0.00817332  1.0
  C  C80  1  0.73831688  0.35579581  0.95401448  1.0
  C  C81  1  0.77618120  0.26632636  0.99688822  1.0
  C  C82  1  0.27555294  0.63613961  0.94066665  1.0
  C  C83  1  0.52933061  0.49857135  0.76370785  1.0
  C  C84  1  0.22388883  0.71811939  0.99210874  1.0
  C  C85  1  0.26125082  0.35576710  0.04619666  1.0
  C  C86  1  0.22331869  0.26624178  0.00338519  1.0
  C  C87  1  0.50417033  0.72849838  0.23577481  1.0
  C  C88  1  0.57989638  0.81119969  0.25454207  1.0
  C  C89  1  0.57860303  0.26679566  0.76337536  1.0
  C  C90  1  0.65783506  0.19915682  0.71266122  1.0
  C  C91  1  0.49553574  0.72842687  0.76437777  1.0
  C  C92  1  0.41992040  0.81114522  0.74551871  1.0
  C  C93  1  0.42114646  0.26681327  0.23663373  1.0
  C  C94  1  0.49357766  0.49533649  0.04905804  1.0
  C  C95  1  0.34195996  0.19913069  0.28729066  1.0
  C  C96  1  0.50593478  0.49530941  0.95103276  1.0
  C  C97  1  0.49994707  0.05055520  0.49994447  1.0
  C  C98  1  0.49994398  0.94785208  0.49993810  1.0
  C  C99  1  0.71853332  0.50379598  0.47130105  1.0
  N  N100  1  0.49993951  0.24770827  0.49995810  1.0
  N  N101  1  0.49994810  0.75023652  0.50000472  1.0
  O  O102  1  0.44265307  0.57040535  0.37836604  1.0
  O  O103  1  0.78615463  0.24188182  0.46922128  1.0
  O  O104  1  0.21217599  0.76926543  0.56105022  1.0
  O  O105  1  0.26470145  0.70892424  0.42463866  1.0
  O  O106  1  0.30706472  0.27957797  0.65449074  1.0
  O  O107  1  0.21376128  0.24193867  0.53065862  1.0
  O  O108  1  0.78775790  0.76923188  0.43901425  1.0
  O  O109  1  0.73508815  0.70892755  0.57538430  1.0
  O  O110  1  0.60073910  0.63857979  0.05117671  1.0
  O  O111  1  0.61442168  0.35256485  0.95097809  1.0
  O  O112  1  0.39870277  0.63852612  0.94891469  1.0
  O  O113  1  0.50000066  0.41941203  0.63052155  1.0
  O  O114  1  0.38513994  0.35256906  0.04909984  1.0
  O  O115  1  0.57516577  0.64533974  0.23297523  1.0
  O  O116  1  0.63843906  0.35551725  0.76643117  1.0
  O  O117  1  0.42447576  0.64530222  0.76713729  1.0
  O  O118  1  0.36128886  0.35553293  0.23367540  1.0
  O  O119  1  0.55720906  0.57037672  0.62176429  1.0
  O  O120  1  0.49990033  0.41945210  0.36948726  1.0
  O  O121  1  0.66494791  0.57564035  0.44706627  1.0
  O  O122  1  0.32228938  0.42446512  0.50708193  1.0
  O  O123  1  0.33494191  0.57569417  0.55301544  1.0
  O  O124  1  0.67765072  0.42441711  0.49293803  1.0
  O  O125  1  0.69280763  0.27956069  0.34544886  1.0
