# generated using pymatgen
data_Zn2H13C20I(NO4)2
_symmetry_space_group_name_H-M   'P 1'
_cell_length_a   9.75786289
_cell_length_b   10.99662436
_cell_length_c   11.33769615
_cell_angle_alpha   88.95229589
_cell_angle_beta   78.36442550
_cell_angle_gamma   66.76144927
_symmetry_Int_Tables_number   1
_chemical_formula_structural   Zn2H13C20I(NO4)2
_chemical_formula_sum   'Zn2 H13 C20 I1 N2 O8'
_cell_volume   1092.36025836
_cell_formula_units_Z   1
loop_
 _symmetry_equiv_pos_site_id
 _symmetry_equiv_pos_as_xyz
  1  'x, y, z'
loop_
 _atom_site_type_symbol
 _atom_site_label
 _atom_site_symmetry_multiplicity
 _atom_site_fract_x
 _atom_site_fract_y
 _atom_site_fract_z
 _atom_site_occupancy
  Zn  Zn0  1  0.34545438  0.53999245  0.50372669  1.0
  Zn  Zn1  1  0.66488742  0.42654523  0.49062081  1.0
  H  H2  1  0.68315436  0.80959933  0.35774718  1.0
  H  H3  1  0.31229951  0.27463115  0.70786748  1.0
  H  H4  1  0.70497866  0.02812200  0.37111839  1.0
  H  H5  1  0.38271637  0.53144134  0.09983678  1.0
  H  H6  1  0.31022496  0.56950098  0.91717945  1.0
  H  H7  1  0.72067352  0.35788834  0.09436283  1.0
  H  H8  1  0.15033865  0.38735639  0.55004748  1.0
  H  H9  1  0.85041823  0.58505932  0.46878050  1.0
  H  H10  1  0.05059990  0.65558589  0.46580448  1.0
  H  H11  1  0.95442932  0.31064709  0.53794860  1.0
  H  H12  1  0.27406920  0.83685665  0.68809827  1.0
  H  H13  1  0.10622966  0.00666855  0.85121597  1.0
  H  H14  1  0.12486049  0.22654835  0.86105180  1.0
  C  C15  1  0.56068511  0.44605035  0.26421940  1.0
  C  C16  1  0.53549576  0.45300307  0.92753977  1.0
  C  C17  1  0.92741387  0.49104268  0.49719398  1.0
  C  C18  1  0.49187823  0.72488653  0.49170717  1.0
  C  C19  1  0.07533231  0.47972735  0.51816897  1.0
  C  C20  1  0.43887554  0.51420134  0.73190713  1.0
  C  C21  1  0.52518929  0.23996522  0.51781929  1.0
  C  C22  1  0.28232610  0.93239483  0.69182525  1.0
  C  C23  1  0.18820662  0.02791354  0.78253989  1.0
  C  C24  1  0.19830715  0.15237283  0.78792874  1.0
  C  C25  1  0.30309988  0.17929620  0.70231373  1.0
  C  C26  1  0.39152317  0.95642435  0.60149927  1.0
  C  C27  1  0.40238685  0.08305071  0.60761538  1.0
  C  C28  1  0.49480289  0.85889661  0.50766170  1.0
  C  C29  1  0.60588886  0.88559538  0.42811474  1.0
  C  C30  1  0.61770731  0.00840470  0.43509733  1.0
  C  C31  1  0.51639459  0.10679333  0.52148157  1.0
  C  C32  1  0.60108883  0.41989273  0.13131005  1.0
  C  C33  1  0.50155458  0.46919599  0.05837156  1.0
  C  C34  1  0.42556717  0.51415367  0.86439985  1.0
  I  I35  1  0.76235697  0.32721953  0.84342476  1.0
  N  N36  1  0.88134946  0.39640114  0.50912830  1.0
  N  N37  1  0.12445816  0.57192671  0.49682417  1.0
  O  O38  1  0.42359079  0.51666696  0.31663252  1.0
  O  O39  1  0.67394464  0.39219982  0.31563557  1.0
  O  O40  1  0.36263385  0.71601121  0.51458614  1.0
  O  O41  1  0.61998312  0.62841256  0.45507468  1.0
  O  O42  1  0.31761112  0.53580128  0.69358849  1.0
  O  O43  1  0.56888566  0.49526423  0.66628326  1.0
  O  O44  1  0.40432280  0.33708346  0.50433755  1.0
  O  O45  1  0.65071601  0.24598352  0.52447674  1.0
