# generated using pymatgen
data_ZnH9C16NO5
_symmetry_space_group_name_H-M   'P 1'
_cell_length_a   8.98899782
_cell_length_b   16.50414060
_cell_length_c   17.95635753
_cell_angle_alpha   89.13211984
_cell_angle_beta   89.20319165
_cell_angle_gamma   79.96455214
_symmetry_Int_Tables_number   1
_chemical_formula_structural   ZnH9C16NO5
_chemical_formula_sum   'Zn2 H18 C32 N2 O10'
_cell_volume   2622.69728975
_cell_formula_units_Z   2
loop_
 _symmetry_equiv_pos_site_id
 _symmetry_equiv_pos_as_xyz
  1  'x, y, z'
loop_
 _atom_site_type_symbol
 _atom_site_label
 _atom_site_symmetry_multiplicity
 _atom_site_fract_x
 _atom_site_fract_y
 _atom_site_fract_z
 _atom_site_occupancy
  Zn  Zn0  1  0.48841148  0.58479283  0.49865091  1.0
  Zn  Zn1  1  0.51160211  0.41520804  0.50135450  1.0
  H  H2  1  0.02732282  0.40529988  0.49707493  1.0
  H  H3  1  0.97268399  0.59471278  0.50291426  1.0
  H  H4  1  0.50093478  0.62910006  0.87653284  1.0
  H  H5  1  0.49952288  0.37084631  0.12346398  1.0
  H  H6  1  0.49915608  0.62997691  0.73681653  1.0
  H  H7  1  0.50135636  0.36995386  0.26318633  1.0
  H  H8  1  0.50007960  0.36997211  0.73950459  1.0
  H  H9  1  0.49988611  0.63001416  0.26050782  1.0
  H  H10  1  0.67522323  0.84850052  0.41573098  1.0
  H  H11  1  0.32483821  0.15148976  0.58426653  1.0
  H  H12  1  0.66222233  0.69723061  0.41899108  1.0
  H  H13  1  0.33781473  0.30276282  0.58101040  1.0
  H  H14  1  0.32918191  0.72845058  0.58211578  1.0
  H  H15  1  0.67082545  0.27156393  0.41787283  1.0
  H  H16  1  0.32661199  0.88114996  0.58684198  1.0
  H  H17  1  0.67342290  0.11886200  0.41314265  1.0
  H  H18  1  0.49809720  0.30997783  0.85459516  1.0
  H  H19  1  0.50188788  0.69001754  0.14542490  1.0
  C  C20  1  0.50225917  0.50056157  0.35325488  1.0
  C  C21  1  0.49785403  0.49940815  0.64675819  1.0
  C  C22  1  0.50008225  0.49929925  0.96601416  1.0
  C  C23  1  0.50006626  0.50069676  0.03399854  1.0
  C  C24  1  0.59669351  0.82435322  0.45315452  1.0
  C  C25  1  0.40335472  0.17564388  0.54684187  1.0
  C  C26  1  0.58987447  0.74095954  0.45453383  1.0
  C  C27  1  0.41015366  0.25903762  0.54546709  1.0
  C  C28  1  0.40278992  0.75845904  0.54630794  1.0
  C  C29  1  0.59721985  0.24155114  0.45368404  1.0
  C  C30  1  0.40205525  0.84254782  0.54869321  1.0
  C  C31  1  0.59797128  0.15745862  0.45129595  1.0
  C  C32  1  0.50009594  0.87732939  0.50079216  1.0
  C  C33  1  0.49994768  0.12267206  0.49919864  1.0
  C  C34  1  0.50063715  0.96299767  0.50032884  1.0
  C  C35  1  0.49941725  0.03700498  0.49965968  1.0
  C  C36  1  0.79619034  0.47729321  0.49838150  1.0
  C  C37  1  0.20381978  0.52271942  0.50161101  1.0
  C  C38  1  0.96377281  0.46784532  0.49867382  1.0
  C  C39  1  0.03623493  0.53216795  0.50131591  1.0
  C  C40  1  0.50000787  0.57269718  0.84591075  1.0
  C  C41  1  0.50033225  0.42726257  0.15408143  1.0
  C  C42  1  0.49896655  0.57334915  0.76864989  1.0
  C  C43  1  0.50139899  0.42660371  0.23134782  1.0
  C  C44  1  0.49859012  0.49998960  0.73022043  1.0
  C  C45  1  0.50160219  0.49998354  0.26978672  1.0
  C  C46  1  0.49933158  0.42658242  0.77034170  1.0
  C  C47  1  0.50073777  0.57340348  0.22966584  1.0
  C  C48  1  0.49941542  0.42570519  0.84788132  1.0
  C  C49  1  0.50066930  0.57427755  0.15213120  1.0
  C  C50  1  0.49986465  0.49934815  0.88750596  1.0
  C  C51  1  0.50032783  0.50062806  0.11250115  1.0
  N  N52  1  0.49406234  0.70885960  0.49980066  1.0
  N  N53  1  0.50595691  0.29114500  0.50019356  1.0
  O  O54  1  0.49196598  0.57035910  0.38441518  1.0
  O  O55  1  0.50803677  0.42961906  0.61559270  1.0
  O  O56  1  0.51288779  0.43123934  0.38687466  1.0
  O  O57  1  0.48726819  0.56872533  0.61313215  1.0
  O  O58  1  0.71992053  0.54997855  0.49717482  1.0
  O  O59  1  0.28008988  0.45003424  0.50278873  1.0
  O  O60  1  0.74207253  0.41062576  0.49969646  1.0
  O  O61  1  0.25794230  0.58938484  0.50032835  1.0
  O  O62  1  0.49919743  0.35503264  0.88886837  1.0
  O  O63  1  0.50077578  0.64496155  0.11115119  1.0
