# generated using pymatgen
data_AlH13C18O5
_symmetry_space_group_name_H-M   'P 1'
_cell_length_a   6.64216189
_cell_length_b   24.01554180
_cell_length_c   25.35166771
_cell_angle_alpha   90.01907663
_cell_angle_beta   90.96295145
_cell_angle_gamma   90.67472109
_symmetry_Int_Tables_number   1
_chemical_formula_structural   AlH13C18O5
_chemical_formula_sum   'Al4 H52 C72 O20'
_cell_volume   4043.12217340
_cell_formula_units_Z   4
loop_
 _symmetry_equiv_pos_site_id
 _symmetry_equiv_pos_as_xyz
  1  'x, y, z'
loop_
 _atom_site_type_symbol
 _atom_site_label
 _atom_site_symmetry_multiplicity
 _atom_site_fract_x
 _atom_site_fract_y
 _atom_site_fract_z
 _atom_site_occupancy
  Al  Al0  1  0.07268989  0.99930966  0.50231741  1.0
  Al  Al1  1  0.57251866  0.00065851  0.50072105  1.0
  Al  Al2  1  0.92806514  0.49936368  0.99981277  1.0
  Al  Al3  1  0.42836857  0.50061484  0.99862160  1.0
  H  H4  1  0.82999649  0.07403386  0.50086850  1.0
  H  H5  1  0.31827311  0.93191490  0.47871347  1.0
  H  H6  1  0.67080234  0.42881153  0.98313428  1.0
  H  H7  1  0.18230564  0.56937498  0.01922575  1.0
  H  H8  1  0.45367306  0.42444957  0.85698636  1.0
  H  H9  1  0.49200311  0.35372237  0.78578156  1.0
  H  H10  1  0.92833617  0.27852621  0.83105912  1.0
  H  H11  1  0.57592652  0.22082567  0.66971665  1.0
  H  H12  1  0.04626890  0.07621699  0.64307597  1.0
  H  H13  1  0.00968430  0.14679920  0.71453548  1.0
  H  H14  1  0.97265480  0.63995445  0.08799449  1.0
  H  H15  1  0.00238371  0.71421011  0.15646842  1.0
  H  H16  1  0.45552378  0.65234011  0.22586738  1.0
  H  H17  1  0.04340229  0.84760088  0.27409311  1.0
  H  H18  1  0.52969011  0.85948243  0.41283459  1.0
  H  H19  1  0.49871244  0.78533226  0.34429875  1.0
  H  H20  1  0.39965318  0.63879527  0.89779564  1.0
  H  H21  1  0.41956700  0.71304372  0.82900865  1.0
  H  H22  1  0.99959984  0.65133566  0.78471959  1.0
  H  H23  1  0.50067161  0.84908007  0.71596293  1.0
  H  H24  1  0.10095852  0.86199461  0.60303880  1.0
  H  H25  1  0.08135259  0.78770501  0.67178268  1.0
  H  H26  1  0.47223518  0.36015274  0.08739642  1.0
  H  H27  1  0.50138105  0.28658061  0.15659797  1.0
  H  H28  1  0.93720982  0.33998506  0.22007586  1.0
  H  H29  1  0.55502595  0.15937066  0.27874918  1.0
  H  H30  1  0.02609078  0.13901692  0.41290675  1.0
  H  H31  1  0.99101071  0.21161418  0.34314158  1.0
  H  H32  1  0.74450564  0.30957897  0.90003519  1.0
  H  H33  1  0.87086740  0.34717067  0.95170084  1.0
  H  H34  1  0.73355085  0.38342552  0.90269822  1.0
  H  H35  1  0.76386234  0.11492384  0.59534470  1.0
  H  H36  1  0.62951728  0.15477415  0.54878555  1.0
  H  H37  1  0.76186261  0.18879581  0.60161800  1.0
  H  H38  1  0.41039502  0.52644012  0.14579988  1.0
  H  H39  1  0.31652913  0.56584700  0.19962468  1.0
  H  H40  1  0.24414175  0.58165461  0.13374810  1.0
  H  H41  1  0.26321554  0.91551515  0.36105597  1.0
  H  H42  1  0.16878306  0.93804702  0.29905395  1.0
  H  H43  1  0.09659531  0.97204799  0.35832247  1.0
  H  H44  1  0.12336637  0.57202220  0.88825417  1.0
  H  H45  1  0.97495666  0.52330472  0.85322149  1.0
  H  H46  1  0.12944207  0.57120301  0.81796748  1.0
  H  H47  1  0.37040977  0.92921836  0.68270781  1.0
  H  H48  1  0.52478371  0.97719388  0.64751154  1.0
  H  H49  1  0.37699634  0.92839083  0.61244159  1.0
  H  H50  1  0.76691348  0.41566418  0.18819901  1.0
  H  H51  1  0.90047829  0.46688199  0.15116871  1.0
  H  H52  1  0.75395602  0.41651604  0.11788505  1.0
  H  H53  1  0.74316755  0.08336728  0.38159036  1.0
  H  H54  1  0.59959172  0.03331434  0.34705257  1.0
  H  H55  1  0.73242070  0.08571424  0.31135534  1.0
  C  C56  1  0.31792884  0.06902295  0.43054992  1.0
  C  C57  1  0.33125462  0.06652219  0.57358916  1.0
  C  C58  1  0.82291805  0.93384327  0.57347740  1.0
  C  C59  1  0.81392267  0.93417641  0.42800324  1.0
  C  C60  1  0.18301252  0.43112529  0.06979947  1.0
  C  C61  1  0.16908296  0.43349507  0.92681040  1.0
  C  C62  1  0.67760089  0.56685398  0.92740927  1.0
  C  C63  1  0.68762499  0.56529374  0.07268404  1.0
  C  C64  1  0.17065002  0.39174270  0.88336373  1.0
  C  C65  1  0.33888356  0.39229649  0.85046430  1.0
  C  C66  1  0.36075483  0.35308282  0.81098802  1.0
  C  C67  1  0.21282579  0.31092723  0.80416742  1.0
  C  C68  1  0.04218742  0.31121730  0.83652717  1.0
  C  C69  1  0.01643633  0.35111558  0.87591924  1.0
  C  C70  1  0.23839159  0.26842978  0.76635508  1.0
  C  C71  1  0.26564412  0.23142146  0.73431023  1.0
  C  C72  1  0.29046098  0.18895651  0.69640788  1.0
  C  C73  1  0.46122915  0.18840558  0.66409413  1.0
  C  C74  1  0.48604872  0.14860905  0.62455248  1.0
  C  C75  1  0.33067900  0.10831069  0.61703449  1.0
  C  C76  1  0.16218513  0.10802755  0.64984818  1.0
  C  C77  1  0.14122643  0.14718773  0.68941365  1.0
  C  C78  1  0.69493156  0.60607689  0.11701369  1.0
  C  C79  1  0.85915363  0.64354742  0.11831349  1.0
  C  C80  1  0.87618032  0.68481619  0.15630835  1.0
  C  C81  1  0.72773988  0.68878819  0.19524992  1.0
  C  C82  1  0.56686369  0.64994570  0.19480380  1.0
  C  C83  1  0.54578696  0.60862037  0.15614041  1.0
  C  C84  1  0.74204531  0.73112834  0.23395964  1.0
  C  C85  1  0.75789292  0.76853698  0.26645509  1.0
  C  C86  1  0.77243581  0.81090831  0.30513023  1.0
  C  C87  1  0.93274133  0.84989808  0.30533292  1.0
  C  C88  1  0.95422961  0.89126321  0.34398539  1.0
  C  C89  1  0.80638885  0.89361562  0.38343054  1.0
  C  C90  1  0.64238950  0.85602805  0.38230161  1.0
  C  C91  1  0.62478076  0.81478375  0.34430941  1.0
  C  C92  1  0.69037293  0.60531184  0.88144214  1.0
  C  C93  1  0.53122399  0.64241767  0.87283344  1.0
  C  C94  1  0.54181903  0.68365019  0.83461560  1.0
  C  C95  1  0.71509692  0.68809700  0.80337852  1.0
  C  C96  1  0.86925490  0.64874052  0.81026653  1.0
  C  C97  1  0.86167711  0.60723929  0.84871466  1.0
  C  C98  1  0.73748155  0.73138348  0.76609565  1.0
  C  C99  1  0.76330521  0.76919548  0.73462986  1.0
  C  C100  1  0.78555987  0.81250633  0.69736208  1.0
  C  C101  1  0.63119147  0.85179168  0.69048700  1.0
  C  C102  1  0.63862592  0.89331726  0.65205986  1.0
  C  C103  1  0.81011386  0.89536161  0.61939672  1.0
  C  C104  1  0.96947982  0.85832109  0.62801459  1.0
  C  C105  1  0.95891646  0.81704155  0.66617213  1.0
  C  C106  1  0.18762218  0.38984488  0.11375101  1.0
  C  C107  1  0.35497421  0.35468144  0.11656344  1.0
  C  C108  1  0.37162797  0.31390259  0.15495140  1.0
  C  C109  1  0.21898672  0.30804632  0.19265151  1.0
  C  C110  1  0.05292666  0.34409843  0.19023026  1.0
  C  C111  1  0.03271538  0.38498184  0.15130624  1.0
  C  C112  1  0.23514496  0.26703170  0.23247024  1.0
  C  C113  1  0.25449460  0.23139430  0.26648144  1.0
  C  C114  1  0.27289262  0.19067644  0.30650478  1.0
  C  C115  1  0.44054477  0.15516319  0.30891033  1.0
  C  C116  1  0.46405664  0.11477231  0.34816877  1.0
  C  C117  1  0.31091083  0.10983015  0.38623241  1.0
  C  C118  1  0.14205958  0.14447111  0.38340986  1.0
  C  C119  1  0.12192363  0.18470800  0.34464486  1.0
  C  C120  1  0.83151307  0.34751087  0.90940435  1.0
  C  C121  1  0.67047350  0.15205131  0.59090843  1.0
  C  C122  1  0.37080778  0.56830444  0.15901611  1.0
  C  C123  1  0.12885907  0.93166471  0.34050069  1.0
  C  C124  1  0.03174620  0.56641394  0.85218611  1.0
  C  C125  1  0.46833116  0.93405361  0.64854215  1.0
  C  C126  1  0.85374488  0.42285615  0.15234338  1.0
  C  C127  1  0.64462340  0.07749422  0.34684730  1.0
  O  O128  1  0.14865136  0.05228337  0.44805832  1.0
  O  O129  1  0.49945520  0.05016719  0.55637916  1.0
  O  O130  1  0.65656837  0.94824729  0.55220830  1.0
  O  O131  1  0.98564903  0.94758482  0.44770086  1.0
  O  O132  1  0.99674709  0.94819560  0.55712692  1.0
  O  O133  1  0.64482179  0.95124893  0.44434750  1.0
  O  O134  1  0.49012308  0.05481793  0.44869994  1.0
  O  O135  1  0.15934759  0.05014414  0.55615206  1.0
  O  O136  1  0.82500442  0.03378677  0.50153717  1.0
  O  O137  1  0.32152384  0.96577958  0.49951799  1.0
  O  O138  1  0.01159808  0.44497498  0.05099077  1.0
  O  O139  1  0.34079903  0.44941905  0.94484816  1.0
  O  O140  1  0.50366569  0.55210708  0.94343755  1.0
  O  O141  1  0.85638659  0.54774603  0.05660008  1.0
  O  O142  1  0.84425585  0.55298016  0.94891976  1.0
  O  O143  1  0.51615583  0.55190529  0.05287023  1.0
  O  O144  1  0.35290303  0.44836988  0.05323016  1.0
  O  O145  1  0.00043325  0.45029062  0.94342187  1.0
  O  O146  1  0.67575433  0.46579294  0.99836265  1.0
  O  O147  1  0.17944298  0.53412889  0.00062689  1.0
