# generated using pymatgen
data_AlH5C10O5F
_symmetry_space_group_name_H-M   'P 1'
_cell_length_a   6.62534473
_cell_length_b   8.84201248
_cell_length_c   17.75733043
_cell_angle_alpha   95.63614887
_cell_angle_beta   100.37472274
_cell_angle_gamma   104.41541357
_symmetry_Int_Tables_number   1
_chemical_formula_structural   AlH5C10O5F
_chemical_formula_sum   'Al2 H10 C20 O10 F2'
_cell_volume   979.79169608
_cell_formula_units_Z   2
loop_
 _symmetry_equiv_pos_site_id
 _symmetry_equiv_pos_as_xyz
  1  'x, y, z'
loop_
 _atom_site_type_symbol
 _atom_site_label
 _atom_site_symmetry_multiplicity
 _atom_site_fract_x
 _atom_site_fract_y
 _atom_site_fract_z
 _atom_site_occupancy
  Al  Al0  1  0.99833402  0.49930347  0.50237846  1.0
  Al  Al1  1  0.49686061  0.49643386  0.50074683  1.0
  H  H2  1  0.16183151  0.38888519  0.40773977  1.0
  H  H3  1  0.83109060  0.68776974  0.55289898  1.0
  H  H4  1  0.09031751  0.57343397  0.73729922  1.0
  H  H5  1  0.16409588  0.58098208  0.88095890  1.0
  H  H6  1  0.69702918  0.38845961  0.86687962  1.0
  H  H7  1  0.62657626  0.38869840  0.72383982  1.0
  H  H8  1  0.31211884  0.61359312  0.13369658  1.0
  H  H9  1  0.37835114  0.61049262  0.27633402  1.0
  H  H10  1  0.90490583  0.41411993  0.26267791  1.0
  H  H11  1  0.83540291  0.41001168  0.11968820  1.0
  C  C12  1  0.66106765  0.21901734  0.49916052  1.0
  C  C13  1  0.67676048  0.50273018  0.36260316  1.0
  C  C14  1  0.33933046  0.78168209  0.50685916  1.0
  C  C15  1  0.31900587  0.48784788  0.63771560  1.0
  C  C16  1  0.35553690  0.48232508  0.72246830  1.0
  C  C17  1  0.22310410  0.53411472  0.76657607  1.0
  C  C18  1  0.26386248  0.53765221  0.84630930  1.0
  C  C19  1  0.43712324  0.48689233  0.88363806  1.0
  C  C20  1  0.56558039  0.43025558  0.83843084  1.0
  C  C21  1  0.52594669  0.42952252  0.75891585  1.0
  C  C22  1  0.48288880  0.49468516  0.96507261  1.0
  C  C23  1  0.52345847  0.50344643  0.03551332  1.0
  C  C24  1  0.56758588  0.51004079  0.11686909  1.0
  C  C25  1  0.44057979  0.56871974  0.16207320  1.0
  C  C26  1  0.47764914  0.56734789  0.24142971  1.0
  C  C27  1  0.64394465  0.51035089  0.27799963  1.0
  C  C28  1  0.77515601  0.45703946  0.23383295  1.0
  C  C29  1  0.73702668  0.45541484  0.15425129  1.0
  C  C30  1  0.60071862  0.04669604  0.50449165  1.0
  C  C31  1  0.40143697  0.95427495  0.50204949  1.0
  O  O32  1  0.85914751  0.28512402  0.51073713  1.0
  O  O33  1  0.52802619  0.52237251  0.39602164  1.0
  O  O34  1  0.48830852  0.71473852  0.51952933  1.0
  O  O35  1  0.14951859  0.52076089  0.60633033  1.0
  O  O36  1  0.14062363  0.71839495  0.49765597  1.0
  O  O37  1  0.46201091  0.46321972  0.60264612  1.0
  O  O38  1  0.51065478  0.28323523  0.48322767  1.0
  O  O39  1  0.84882310  0.47425334  0.39527648  1.0
  O  O40  1  0.20523923  0.43062004  0.46240909  1.0
  O  O41  1  0.78943978  0.57397193  0.53775941  1.0
  F  F42  1  0.76734258  0.98384780  0.51342248  1.0
  F  F43  1  0.23586036  0.01778218  0.49361761  1.0
