# generated using pymatgen
data_Zn4H55C72N21O2
_symmetry_space_group_name_H-M   'P 1'
_cell_length_a   19.83400137
_cell_length_b   20.29127044
_cell_length_c   21.08656626
_cell_angle_alpha   105.81493264
_cell_angle_beta   107.24045381
_cell_angle_gamma   112.03123742
_symmetry_Int_Tables_number   1
_chemical_formula_structural   Zn4H55C72N21O2
_chemical_formula_sum   'Zn4 H55 C72 N21 O2'
_cell_volume   6770.97088331
_cell_formula_units_Z   1
loop_
 _symmetry_equiv_pos_site_id
 _symmetry_equiv_pos_as_xyz
  1  'x, y, z'
loop_
 _atom_site_type_symbol
 _atom_site_label
 _atom_site_symmetry_multiplicity
 _atom_site_fract_x
 _atom_site_fract_y
 _atom_site_fract_z
 _atom_site_occupancy
  Zn  Zn0  1  0.89870533  0.89726050  0.48980291  1.0
  Zn  Zn1  1  0.09644387  0.12184937  0.49273798  1.0
  Zn  Zn2  1  0.09294990  0.02418554  0.61451022  1.0
  Zn  Zn3  1  0.89433673  0.99842898  0.38441614  1.0
  H  H4  1  0.86094449  0.81295924  0.61031241  1.0
  H  H5  1  0.07452676  0.25584492  0.58955042  1.0
  H  H6  1  0.27111271  0.13540138  0.74922245  1.0
  H  H7  1  0.80280143  0.08563080  0.44639673  1.0
  H  H8  1  0.22918561  0.30302211  0.67733637  1.0
  H  H9  1  0.84647921  0.98463341  0.60008655  1.0
  H  H10  1  0.87008700  0.16397645  0.37864528  1.0
  H  H11  1  0.07355509  0.04389850  0.75529047  1.0
  H  H12  1  0.80301134  0.72091351  0.35678196  1.0
  H  H13  1  0.29567885  0.18509404  0.53821030  1.0
  H  H14  1  0.11551275  0.87650052  0.64597471  1.0
  H  H15  1  0.89998506  0.89215625  0.24390034  1.0
  H  H16  1  0.15869131  0.05393759  0.37552550  1.0
  H  H17  1  0.91190485  0.74717375  0.42878933  1.0
  H  H18  1  0.76401103  0.84137799  0.22147081  1.0
  H  H19  1  0.20608228  0.96862407  0.56440607  1.0
  H  H20  1  0.56505554  0.20856493  0.62247807  1.0
  H  H21  1  0.68630152  0.20840164  0.63485701  1.0
  H  H22  1  0.60643473  0.00697753  0.62892903  1.0
  H  H23  1  0.66800375  0.10876219  0.68853926  1.0
  H  H24  1  0.55388243  0.11912510  0.68715859  1.0
  H  H25  1  0.49420486  0.01567695  0.63580498  1.0
  H  H26  1  0.56361768  0.03018618  0.45359750  1.0
  H  H27  1  0.55197558  0.95999803  0.48980576  1.0
  H  H28  1  0.44029342  0.01799936  0.45025790  1.0
  H  H29  1  0.65089537  0.17710342  0.53915500  1.0
  H  H30  1  0.52529700  0.16688766  0.52553589  1.0
  H  H31  1  0.43468168  0.95641468  0.49591239  1.0
  H  H32  1  0.01564407  0.61413541  0.66799636  1.0
  H  H33  1  0.00628701  0.49571609  0.66627045  1.0
  H  H34  1  0.82242304  0.38694336  0.47811518  1.0
  H  H35  1  0.86880688  0.54397313  0.58303861  1.0
  H  H36  1  0.83352779  0.50816906  0.48603983  1.0
  H  H37  1  0.02799172  0.44952601  0.49191241  1.0
  H  H38  1  0.92372245  0.40148604  0.43093365  1.0
  H  H39  1  0.04163564  0.56994301  0.49439334  1.0
  H  H40  1  0.07592794  0.50455686  0.62861829  1.0
  H  H41  1  0.08877304  0.62562877  0.63396636  1.0
  H  H42  1  0.93711824  0.52235373  0.43398629  1.0
  H  H43  1  0.40394870  0.22436046  0.81784184  1.0
  H  H44  1  0.54374937  0.32873748  0.91072695  1.0
  H  H45  1  0.65308084  0.47917589  0.12314250  1.0
  H  H46  1  0.71058272  0.59714327  0.24056880  1.0
  H  H47  1  0.37296972  0.38876531  0.73500830  1.0
  H  H48  1  0.71388286  0.62786715  0.01491468  1.0
  H  H49  1  0.51484450  0.49217936  0.82700898  1.0
  H  H50  1  0.77525747  0.74645450  0.13224621  1.0
  H  H51  1  0.92140962  0.83111757  0.15095275  1.0
  H  H52  1  0.92893891  0.80326854  0.03211045  1.0
  H  H53  1  0.87445773  0.76790889  0.82806251  1.0
  H  H54  1  0.85928901  0.79595515  0.71848672  1.0
  H  H55  1  0.17409834  0.01283314  0.26485683  1.0
  H  H56  1  0.11554912  0.96838695  0.95217997  1.0
  H  H57  1  0.18100187  0.98186250  0.14521384  1.0
  H  H58  1  0.10178468  0.99729058  0.84348758  1.0
  C  C59  1  0.91204557  0.87252055  0.63617631  1.0
  C  C60  1  0.02746222  0.22404838  0.53298487  1.0
  C  C61  1  0.24756185  0.16791986  0.72529135  1.0
  C  C62  1  0.82097516  0.05614525  0.47820765  1.0
  C  C63  1  0.22510857  0.25223935  0.68759525  1.0
  C  C64  1  0.84296386  0.00437942  0.55696179  1.0
  C  C65  1  0.92295790  0.17576812  0.42470140  1.0
  C  C66  1  0.02084843  0.98989696  0.71016582  1.0
  C  C67  1  0.97041090  0.91945449  0.71061756  1.0
  C  C68  1  0.96648170  0.23830246  0.49661195  1.0
  C  C69  1  0.28897709  0.24381090  0.73026637  1.0
  C  C70  1  0.80437162  0.04608604  0.53639113  1.0
  C  C71  1  0.80070799  0.76274507  0.33449267  1.0
  C  C72  1  0.26146423  0.13238986  0.54334426  1.0
  C  C73  1  0.06754184  0.85737706  0.59236666  1.0
  C  C74  1  0.96091255  0.93766018  0.28525560  1.0
  C  C75  1  0.09281456  0.02077138  0.35183182  1.0
  C  C76  1  0.96298599  0.79144583  0.48149933  1.0
  C  C77  1  0.78115322  0.82419258  0.26561285  1.0
  C  C78  1  0.21530421  0.02140573  0.55644505  1.0
  C  C79  1  0.77248588  0.75064056  0.26064146  1.0
  C  C80  1  0.28284936  0.07607502  0.55371011  1.0
  C  C81  1  0.00686749  0.78002019  0.53932210  1.0
  C  C82  1  0.03538586  0.95750960  0.28210891  1.0
  C  C83  1  0.63542379  0.16251064  0.58126585  1.0
  C  C84  1  0.61371474  0.06539310  0.63617352  1.0
  C  C85  1  0.53758181  0.06966482  0.63689207  1.0
  C  C86  1  0.35600316  0.07657242  0.56066886  1.0
  C  C87  1  0.62861499  0.08166191  0.57259826  1.0
  C  C88  1  0.55450652  0.16008908  0.57466138  1.0
  C  C89  1  0.49469157  0.08064185  0.56928419  1.0
  C  C90  1  0.47484220  0.01293018  0.49841077  1.0
  C  C91  1  0.55403618  0.01674810  0.49835463  1.0
  C  C92  1  0.42003093  0.07939099  0.56627421  1.0
  C  C93  1  0.70008375  0.07833570  0.57077738  1.0
  C  C94  1  0.75204315  0.06591574  0.55981131  1.0
  C  C95  1  0.01917812  0.50544759  0.62147666  1.0
  C  C96  1  0.86912832  0.43587947  0.53175015  1.0
  C  C97  1  0.87906045  0.51651822  0.53690390  1.0
  C  C98  1  0.99130892  0.70841572  0.54431108  1.0
  C  C99  1  0.95120037  0.43635334  0.54648669  1.0
  C  C100  1  0.02717744  0.58500751  0.62354920  1.0
  C  C101  1  0.96555305  0.57186424  0.54951974  1.0
  C  C102  1  0.98060385  0.53053743  0.48602378  1.0
  C  C103  1  0.97154260  0.45127425  0.48398705  1.0
  C  C104  1  0.97568648  0.64662235  0.54949583  1.0
  C  C105  1  0.94679561  0.36113588  0.53901189  1.0
  C  C106  1  0.95517477  0.30331436  0.52206584  1.0
  C  C107  1  0.74415510  0.68068136  0.19449955  1.0
  C  C108  1  0.74724826  0.68781900  0.13042071  1.0
  C  C109  1  0.71429543  0.62214548  0.06490455  1.0
  C  C110  1  0.67739360  0.54616803  0.06164668  1.0
  C  C111  1  0.68103750  0.53853699  0.12666162  1.0
  C  C112  1  0.71304612  0.60471366  0.19187267  1.0
  C  C113  1  0.50600663  0.34094316  0.87158860  1.0
  C  C114  1  0.42754600  0.28332772  0.82005425  1.0
  C  C115  1  0.53608217  0.41826323  0.87700780  1.0
  C  C116  1  0.37543023  0.30024538  0.77311565  1.0
  C  C117  1  0.41001556  0.37485532  0.77295168  1.0
  C  C118  1  0.48935908  0.43273814  0.82363349  1.0
  C  C119  1  0.97898259  0.89948271  0.77284471  1.0
  C  C120  1  0.05162366  0.94661586  0.83953942  1.0
  C  C121  1  0.06029822  0.93064016  0.90030613  1.0
  C  C122  1  0.99574376  0.86617765  0.89676368  1.0
  C  C123  1  0.92411586  0.81735729  0.83004508  1.0
  C  C124  1  0.91608124  0.83355038  0.76914990  1.0
  C  C125  1  0.98230925  0.84833927  0.08360617  1.0
  C  C126  1  0.97859955  0.86509587  0.15024643  1.0
  C  C127  1  0.05479336  0.89342176  0.08117407  1.0
  C  C128  1  0.04593868  0.92765804  0.21654736  1.0
  C  C129  1  0.12028204  0.96602574  0.21436176  1.0
  C  C130  1  0.12473641  0.94901635  0.14776367  1.0
  N  N131  1  0.92769801  0.91184828  0.59572415  1.0
  N  N132  1  0.02049152  0.15908317  0.48544249  1.0
  N  N133  1  0.16701910  0.13559563  0.68342993  1.0
  N  N134  1  0.86477085  0.02189478  0.46519559  1.0
  N  N135  1  0.15236068  0.18744548  0.65878163  1.0
  N  N136  1  0.87838931  0.98970719  0.51313456  1.0
  N  N137  1  0.95512610  0.12828122  0.41792887  1.0
  N  N138  1  0.99517474  0.98489972  0.64124730  1.0
  N  N139  1  0.82642111  0.83782093  0.37959232  1.0
  N  N140  1  0.18800867  0.11258409  0.54172125  1.0
  N  N141  1  0.05886492  0.90920196  0.56742716  1.0
  N  N142  1  0.97329230  0.98630934  0.35060839  1.0
  N  N143  1  0.05455980  0.03786522  0.39152552  1.0
  N  N144  1  0.99348553  0.86943759  0.49905573  1.0
  N  N145  1  0.81369178  0.87618589  0.33628330  1.0
  N  N146  1  0.15857523  0.04380770  0.54897925  1.0
  N  N147  1  0.62604186  0.47550994  0.99629431  1.0
  N  N148  1  0.60269844  0.48611407  0.93855578  1.0
  N  N149  1  0.99406593  0.85212725  0.95808730  1.0
  N  N150  1  0.06097854  0.89478835  0.01672590  1.0
  N  N151  1  0.83897228  0.41357517  0.58552536  1.0
  O  O152  1  0.86538513  0.46632061  0.64740911  1.0
  O  O153  1  0.79139871  0.34285983  0.56396013  1.0
