# generated using pymatgen
data_Zn4H12C27O14
_symmetry_space_group_name_H-M   'P 1'
_cell_length_a   16.10722138
_cell_length_b   16.13883315
_cell_length_c   16.14196968
_cell_angle_alpha   83.88359593
_cell_angle_beta   89.83892507
_cell_angle_gamma   83.96437830
_symmetry_Int_Tables_number   1
_chemical_formula_structural   Zn4H12C27O14
_chemical_formula_sum   'Zn4 H12 C27 O14'
_cell_volume   4148.96944398
_cell_formula_units_Z   1
loop_
 _symmetry_equiv_pos_site_id
 _symmetry_equiv_pos_as_xyz
  1  'x, y, z'
loop_
 _atom_site_type_symbol
 _atom_site_label
 _atom_site_symmetry_multiplicity
 _atom_site_fract_x
 _atom_site_fract_y
 _atom_site_fract_z
 _atom_site_occupancy
  Zn  Zn0  1  0.42841869  0.43047278  0.57076508  1.0
  Zn  Zn1  1  0.57759312  0.42850687  0.43691616  1.0
  Zn  Zn2  1  0.56296193  0.56416286  0.57102503  1.0
  Zn  Zn3  1  0.42818609  0.57875640  0.42236946  1.0
  H  H4  1  0.98788987  0.56457325  0.42847148  1.0
  H  H5  1  0.83212353  0.33447198  0.73855789  1.0
  H  H6  1  0.85856597  0.38466032  0.82589181  1.0
  H  H7  1  0.92222065  0.29491128  0.79941110  1.0
  H  H8  1  0.43516912  0.43483036  0.00784045  1.0
  H  H9  1  0.56416689  0.56456250  0.99192720  1.0
  H  H10  1  0.43478442  0.01543056  0.42776474  1.0
  H  H11  1  0.56437707  0.98474648  0.57173388  1.0
  H  H12  1  0.01868375  0.31140327  0.66757561  1.0
  H  H13  1  0.92349174  0.34045380  0.61040817  1.0
  H  H14  1  0.98828017  0.42882536  0.75322180  1.0
  H  H15  1  0.89780261  0.46681751  0.69306355  1.0
  C  C16  1  0.51234755  0.51130227  0.27580962  1.0
  C  C17  1  0.48545205  0.48443610  0.81388979  1.0
  C  C18  1  0.51655372  0.18448872  0.51763913  1.0
  C  C19  1  0.49005188  0.48863799  0.72473928  1.0
  C  C20  1  0.52226916  0.02086586  0.52490619  1.0
  C  C21  1  0.47702349  0.97953177  0.47453870  1.0
  C  C22  1  0.48196086  0.89187333  0.47968117  1.0
  C  C23  1  0.51857087  0.10841430  0.52052198  1.0
  C  C24  1  0.48501683  0.81573581  0.48264392  1.0
  C  C25  1  0.51239996  0.27458291  0.51271061  1.0
  C  C26  1  0.48962903  0.72602780  0.48757363  1.0
  C  C27  1  0.10972375  0.51908266  0.47896246  1.0
  C  C28  1  0.72475874  0.48689179  0.51267480  1.0
  C  C29  1  0.27457169  0.51201365  0.48692192  1.0
  C  C30  1  0.81486311  0.48086876  0.51833997  1.0
  C  C31  1  0.97896284  0.47130143  0.52958778  1.0
  C  C32  1  0.02311713  0.52158361  0.47555253  1.0
  C  C33  1  0.97287900  0.36432749  0.64539095  1.0
  C  C34  1  0.93681417  0.40941364  0.71762137  1.0
  C  C35  1  0.88465345  0.35267056  0.77348151  1.0
  C  C36  1  0.89071663  0.47597383  0.52348654  1.0
  C  C37  1  0.18584065  0.51640777  0.48189306  1.0
  C  C38  1  0.51634692  0.51583230  0.18619600  1.0
  C  C39  1  0.52227194  0.52234177  0.02327458  1.0
  C  C40  1  0.47720187  0.47698349  0.97675993  1.0
  C  C41  1  0.48215908  0.48168698  0.88966862  1.0
  C  C42  1  0.51854191  0.51841174  0.11037906  1.0
  O  O43  1  0.50073482  0.49990732  0.50004100  1.0
  O  O44  1  0.69521483  0.44142458  0.46252103  1.0
  O  O45  1  0.31036984  0.56293312  0.43558221  1.0
  O  O46  1  0.68507193  0.53675188  0.55852323  1.0
  O  O47  1  0.31050281  0.45731574  0.54252445  1.0
  O  O48  1  0.02030213  0.41678103  0.58860928  1.0
  O  O49  1  0.45797171  0.31027246  0.55817746  1.0
  O  O50  1  0.44377846  0.69568257  0.43646505  1.0
  O  O51  1  0.56371570  0.45561792  0.31566061  1.0
  O  O52  1  0.53974235  0.53825625  0.68969868  1.0
  O  O53  1  0.45803017  0.56292682  0.30551464  1.0
  O  O54  1  0.44427773  0.44250778  0.68941479  1.0
  O  O55  1  0.56374837  0.30881533  0.46306720  1.0
  O  O56  1  0.53946644  0.68547697  0.54286431  1.0
