# generated using pymatgen
data_Mg3H22(C15O8)2
_symmetry_space_group_name_H-M   'P 1'
_cell_length_a   14.86781791
_cell_length_b   19.11913903
_cell_length_c   19.11702429
_cell_angle_alpha   113.50940651
_cell_angle_beta   105.01973987
_cell_angle_gamma   105.02575381
_symmetry_Int_Tables_number   1
_chemical_formula_structural   Mg3H22(C15O8)2
_chemical_formula_sum   'Mg9 H66 C90 O48'
_cell_volume   4390.97832983
_cell_formula_units_Z   3
loop_
 _symmetry_equiv_pos_site_id
 _symmetry_equiv_pos_as_xyz
  1  'x, y, z'
loop_
 _atom_site_type_symbol
 _atom_site_label
 _atom_site_symmetry_multiplicity
 _atom_site_fract_x
 _atom_site_fract_y
 _atom_site_fract_z
 _atom_site_occupancy
  Mg  Mg0  1  0.99999962  0.49999939  0.50000010  1.0
  Mg  Mg1  1  0.50000105  0.50000370  0.00000179  1.0
  Mg  Mg2  1  0.50000183  0.00000098  0.50000044  1.0
  Mg  Mg3  1  0.91277588  0.29896139  0.33164900  1.0
  Mg  Mg4  1  0.58104265  0.66835140  0.96727894  1.0
  Mg  Mg5  1  0.61395749  0.03273194  0.70110962  1.0
  Mg  Mg6  1  0.08722255  0.70103811  0.66834744  1.0
  Mg  Mg7  1  0.41896144  0.33165414  0.03272188  1.0
  Mg  Mg8  1  0.38604282  0.96726630  0.29889057  1.0
  H  H9  1  0.70166128  0.37109292  0.18294412  1.0
  H  H10  1  0.51868455  0.81728626  0.18818949  1.0
  H  H11  1  0.33087657  0.81175063  0.62903474  1.0
  H  H12  1  0.29833380  0.62890542  0.81704982  1.0
  H  H13  1  0.48131251  0.18271520  0.81181258  1.0
  H  H14  1  0.66911479  0.18825629  0.37096295  1.0
  H  H15  1  0.80568446  0.60195872  0.18218167  1.0
  H  H16  1  0.62372246  0.81805719  0.41980017  1.0
  H  H17  1  0.20415699  0.58025936  0.39818183  1.0
  H  H18  1  0.19431801  0.39804417  0.81781728  1.0
  H  H19  1  0.37627414  0.18193798  0.58019815  1.0
  H  H20  1  0.79583742  0.41974371  0.60181774  1.0
  H  H21  1  0.00672517  0.55526674  0.35051110  1.0
  H  H22  1  0.65631503  0.64973507  0.20479507  1.0
  H  H23  1  0.45197843  0.79517483  0.44492022  1.0
  H  H24  1  0.99327281  0.44473132  0.64948722  1.0
  H  H25  1  0.34368680  0.35026667  0.79520262  1.0
  H  H26  1  0.54801302  0.20482586  0.55507622  1.0
  H  H27  1  0.05614274  0.28043883  0.30264988  1.0
  H  H28  1  0.75338435  0.69736700  0.97767092  1.0
  H  H29  1  0.77577254  0.02220405  0.71970960  1.0
  H  H30  1  0.94385617  0.71955192  0.69735719  1.0
  H  H31  1  0.24662461  0.30264883  0.02234803  1.0
  H  H32  1  0.22422368  0.97778710  0.28028934  1.0
  H  H33  1  0.97638043  0.22206300  0.20943852  1.0
  H  H34  1  0.76661719  0.79053037  0.01235079  1.0
  H  H35  1  0.75421964  0.98742883  0.77814298  1.0
  H  H36  1  0.02362742  0.77793150  0.79056418  1.0
  H  H37  1  0.23338642  0.20948209  0.98765190  1.0
  H  H38  1  0.24577589  0.01257332  0.22186159  1.0
  H  H39  1  0.76307105  0.15340494  0.25073156  1.0
  H  H40  1  0.51195712  0.74916688  0.90271690  1.0
  H  H41  1  0.60901928  0.09711876  0.84638395  1.0
  H  H42  1  0.23692288  0.84659287  0.74926425  1.0
  H  H43  1  0.48804824  0.25084319  0.09729205  1.0
  H  H44  1  0.39097786  0.90287004  0.15361124  1.0
  H  H45  1  0.85151547  0.14815705  0.30844177  1.0
  H  H46  1  0.54268613  0.69163205  0.83967026  1.0
  H  H47  1  0.70290439  0.16020486  0.85203605  1.0
  H  H48  1  0.14848419  0.85184683  0.69155717  1.0
  H  H49  1  0.45731827  0.30838231  0.16033681  1.0
  H  H50  1  0.29709592  0.83978775  0.14797103  1.0
  H  H51  1  0.96324590  0.64815713  0.17143537  1.0
  H  H52  1  0.79210330  0.82885169  0.47665154  1.0
  H  H53  1  0.31580018  0.52331177  0.35209243  1.0
  H  H54  1  0.03676905  0.35184148  0.82856483  1.0
  H  H55  1  0.20789013  0.17114204  0.52334741  1.0
  H  H56  1  0.68420439  0.47669536  0.64791214  1.0
  H  H57  1  0.11442035  0.77340465  0.21283949  1.0
  H  H58  1  0.90186951  0.78751062  0.56058568  1.0
  H  H59  1  0.34149101  0.43949281  0.22671234  1.0
  H  H60  1  0.88560301  0.22659006  0.78716633  1.0
  H  H61  1  0.09812330  0.21248143  0.43941201  1.0
  H  H62  1  0.65852714  0.56051643  0.77329848  1.0
  H  H63  1  0.21696741  0.82658965  0.46715957  1.0
  H  H64  1  0.74978992  0.53307406  0.35985003  1.0
  H  H65  1  0.38971872  0.64032847  0.17301614  1.0
  H  H66  1  0.78303487  0.17340318  0.53284312  1.0
  H  H67  1  0.25019900  0.46691835  0.64014267  1.0
  H  H68  1  0.61027374  0.35967216  0.82698093  1.0
  H  H69  1  0.06312908  0.70375698  0.42753403  1.0
  H  H70  1  0.63556450  0.57266409  0.27660809  1.0
  H  H71  1  0.35900452  0.72349830  0.29601729  1.0
  H  H72  1  0.93686961  0.29623600  0.57246429  1.0
  H  H73  1  0.36442888  0.42733209  0.72338522  1.0
  H  H74  1  0.64097575  0.27650050  0.70397353  1.0
  C  C75  1  0.85601582  0.45806216  0.26971907  1.0
  C  C76  1  0.58636643  0.73054458  0.18837630  1.0
  C  C77  1  0.39840190  0.81156844  0.54212791  1.0
  C  C78  1  0.14398121  0.54193705  0.73027737  1.0
  C  C79  1  0.41363276  0.26946048  0.81162451  1.0
  C  C80  1  0.60159467  0.18843248  0.45787041  1.0
  C  C81  1  0.76118833  0.43235960  0.20771180  1.0
  C  C82  1  0.55356276  0.79256051  0.22469489  1.0
  C  C83  1  0.32921472  0.77524733  0.56781098  1.0
  C  C84  1  0.23881281  0.56764357  0.79228590  1.0
  C  C85  1  0.44643724  0.20743742  0.77530468  1.0
  C  C86  1  0.67077882  0.22475536  0.43218546  1.0
  C  C87  1  0.74246897  0.48514538  0.17777557  1.0
  C  C88  1  0.56482119  0.82246486  0.30739728  1.0
  C  C89  1  0.25770413  0.69257516  0.51504307  1.0
  C  C90  1  0.25753211  0.51485670  0.82222338  1.0
  C  C91  1  0.43518007  0.17753379  0.69260479  1.0
  C  C92  1  0.74229304  0.30743055  0.48495649  1.0
  C  C93  1  0.82117431  0.56213210  0.20735432  1.0
  C  C94  1  0.61406947  0.79292929  0.35483832  1.0
  C  C95  1  0.25948580  0.64520103  0.43804480  1.0
  C  C96  1  0.17882685  0.43786689  0.79264338  1.0
  C  C97  1  0.38593045  0.20707121  0.64516250  1.0
  C  C98  1  0.74050754  0.35480154  0.56195540  1.0
  C  C99  1  0.91737101  0.58858379  0.26944578  1.0
  C  C100  1  0.64815324  0.73082283  0.31920631  1.0
  C  C101  1  0.32927226  0.68082514  0.41160084  1.0
  C  C102  1  0.08263044  0.41141707  0.73055254  1.0
  C  C103  1  0.35184597  0.26917214  0.68078888  1.0
  C  C104  1  0.67071905  0.31917599  0.58839810  1.0
  C  C105  1  0.93316917  0.53670924  0.30215210  1.0
  C  C106  1  0.63120005  0.69811903  0.23461196  1.0
  C  C107  1  0.39700566  0.76538276  0.46350363  1.0
  C  C108  1  0.06682786  0.46329049  0.69784434  1.0
  C  C109  1  0.36880210  0.30188093  0.76538636  1.0
  C  C110  1  0.60299051  0.23462251  0.53649531  1.0
  C  C111  1  0.87475201  0.39869630  0.29674161  1.0
  C  C112  1  0.57783483  0.70339236  0.10190992  1.0
  C  C113  1  0.47623095  0.89805491  0.60145119  1.0
  C  C114  1  0.12524991  0.60130183  0.70325484  1.0
  C  C115  1  0.42216584  0.29661197  0.89808964  1.0
  C  C116  1  0.52376874  0.10194376  0.39854776  1.0
  C  C117  1  0.63726418  0.45850356  0.11592652  1.0
  C  C118  1  0.52128742  0.88415432  0.34257954  1.0
  C  C119  1  0.17901735  0.65734431  0.54159986  1.0
  C  C120  1  0.36273833  0.54150407  0.88407117  1.0
  C  C121  1  0.47871011  0.11584282  0.65742065  1.0
  C  C122  1  0.82097698  0.34264968  0.45839533  1.0
  C  C123  1  0.00292102  0.66696319  0.29657513  1.0
  C  C124  1  0.70647612  0.70366811  0.37051654  1.0
  C  C125  1  0.33625362  0.62954576  0.33312320  1.0
  C  C126  1  0.99707943  0.33303512  0.70342256  1.0
  C  C127  1  0.29352262  0.29632856  0.62948052  1.0
  C  C128  1  0.66374263  0.37045745  0.66687449  1.0
  C  C129  1  0.01732628  0.68838834  0.23677321  1.0
  C  C130  1  0.78075923  0.76350213  0.45167274  1.0
  C  C131  1  0.32941208  0.54837807  0.31175301  1.0
  C  C132  1  0.98268209  0.31160763  0.76322636  1.0
  C  C133  1  0.21923512  0.23648924  0.54832245  1.0
  C  C134  1  0.67059155  0.45162706  0.68824968  1.0
  C  C135  1  0.10210759  0.75779409  0.25948620  1.0
  C  C136  1  0.84283448  0.74081344  0.49840999  1.0
  C  C137  1  0.34465762  0.50169966  0.24227731  1.0
  C  C138  1  0.89790577  0.24220203  0.74051775  1.0
  C  C139  1  0.15715764  0.25917744  0.50158771  1.0
  C  C140  1  0.65535369  0.49831033  0.75773101  1.0
  C  C141  1  0.17540938  0.80751222  0.34242516  1.0
  C  C142  1  0.83314522  0.65783583  0.46530986  1.0
  C  C143  1  0.36790495  0.53484705  0.19236425  1.0
  C  C144  1  0.82460080  0.19248558  0.65757941  1.0
  C  C145  1  0.16684804  0.34215609  0.53468596  1.0
  C  C146  1  0.63210187  0.46516178  0.80764344  1.0
  C  C147  1  0.16017233  0.78778097  0.40278888  1.0
  C  C148  1  0.75742318  0.59746232  0.38533634  1.0
  C  C149  1  0.37208344  0.61482475  0.21198642  1.0
  C  C150  1  0.83982919  0.21221273  0.59721507  1.0
  C  C151  1  0.24256636  0.40252809  0.61465760  1.0
  C  C152  1  0.62791205  0.38517671  0.78801252  1.0
  C  C153  1  0.07463939  0.71862645  0.38017842  1.0
  C  C154  1  0.69448491  0.62004822  0.33875486  1.0
  C  C155  1  0.35585232  0.66136509  0.28123583  1.0
  C  C156  1  0.92536574  0.28137171  0.61982303  1.0
  C  C157  1  0.30550966  0.37994813  0.66124221  1.0
  C  C158  1  0.64413690  0.33863614  0.71876311  1.0
  C  C159  1  0.26966843  0.87797689  0.36337408  1.0
  C  C160  1  0.90650731  0.63685407  0.51475327  1.0
  C  C161  1  0.39177149  0.48543733  0.12191709  1.0
  C  C162  1  0.73032981  0.12201936  0.63662612  1.0
  C  C163  1  0.09348121  0.36312790  0.48523442  1.0
  C  C164  1  0.60824336  0.51457706  0.87808997  1.0
  O  O165  1  0.94849425  0.42496669  0.36700705  1.0
  O  O166  1  0.58155418  0.63320575  0.05807996  1.0
  O  O167  1  0.52362177  0.94203648  0.57512559  1.0
  O  O168  1  0.05150292  0.57503260  0.63298689  1.0
  O  O169  1  0.41844898  0.36679885  0.94191899  1.0
  O  O170  1  0.47637930  0.05796508  0.42487335  1.0
  O  O171  1  0.82005291  0.32044221  0.24852244  1.0
  O  O172  1  0.57095473  0.75143041  0.07166918  1.0
  O  O173  1  0.49958556  0.92819309  0.67970696  1.0
  O  O174  1  0.17995332  0.67955736  0.75147150  1.0
  O  O175  1  0.42904448  0.24857309  0.92833164  1.0
  O  O176  1  0.50041646  0.07180627  0.32029386  1.0
  O  O177  1  0.62319812  0.50160591  0.08175334  1.0
  O  O178  1  0.54155972  0.91841116  0.41985332  1.0
  O  O179  1  0.12191088  0.58011000  0.49853137  1.0
  O  O180  1  0.37680298  0.49839580  0.91825123  1.0
  O  O181  1  0.45843940  0.08158848  0.58014312  1.0
  O  O182  1  0.87809247  0.41989813  0.50147633  1.0
  O  O183  1  0.56818737  0.39334320  0.10362356  1.0
  O  O184  1  0.46417734  0.89623398  0.28966015  1.0
  O  O185  1  0.17495623  0.71019593  0.60671385  1.0
  O  O186  1  0.43181347  0.60665495  0.89637351  1.0
  O  O187  1  0.53581352  0.10375721  0.71033504  1.0
  O  O188  1  0.82504478  0.28981253  0.39329197  1.0
  O  O189  1  0.34484275  0.91316754  0.43266307  1.0
  O  O190  1  0.91241644  0.56758190  0.48065057  1.0
  O  O191  1  0.43155392  0.51954496  0.08664013  1.0
  O  O192  1  0.65516650  0.08683732  0.56734525  1.0
  O  O193  1  0.08757240  0.43240943  0.51934338  1.0
  O  O194  1  0.56844570  0.48046322  0.91336569  1.0
  O  O195  1  0.26759700  0.89712009  0.30536807  1.0
  O  O196  1  0.96247228  0.69483354  0.59185480  1.0
  O  O197  1  0.37086461  0.40837305  0.10291337  1.0
  O  O198  1  0.73240550  0.10288086  0.69463650  1.0
  O  O199  1  0.03752269  0.30515741  0.40814164  1.0
  O  O200  1  0.62915834  0.59163715  0.89709870  1.0
  O  O201  1  0.00416639  0.27820034  0.25688681  1.0
  O  O202  1  0.74694338  0.74306493  0.02104688  1.0
  O  O203  1  0.72591490  0.97882169  0.72201825  1.0
  O  O204  1  0.99584577  0.72179613  0.74311338  1.0
  O  O205  1  0.25305885  0.25695211  0.97896144  1.0
  O  O206  1  0.27408411  0.02116951  0.27798069  1.0
  O  O207  1  0.83446681  0.16214526  0.26427921  1.0
  O  O208  1  0.56987322  0.73578905  0.89779514  1.0
  O  O209  1  0.67193299  0.10205853  0.83803519  1.0
  O  O210  1  0.16553231  0.83785438  0.73571723  1.0
  O  O211  1  0.43013033  0.26422181  0.10220881  1.0
  O  O212  1  0.32806438  0.89793526  0.16196188  1.0
