# generated using pymatgen
data_ZnH19C21NO6
_symmetry_space_group_name_H-M   'P 1'
_cell_length_a   10.75606956
_cell_length_b   13.95488255
_cell_length_c   15.28002598
_cell_angle_alpha   89.80546879
_cell_angle_beta   88.58867636
_cell_angle_gamma   89.14386082
_symmetry_Int_Tables_number   1
_chemical_formula_structural   ZnH19C21NO6
_chemical_formula_sum   'Zn2 H38 C42 N2 O12'
_cell_volume   2292.56488614
_cell_formula_units_Z   2
loop_
 _symmetry_equiv_pos_site_id
 _symmetry_equiv_pos_as_xyz
  1  'x, y, z'
loop_
 _atom_site_type_symbol
 _atom_site_label
 _atom_site_symmetry_multiplicity
 _atom_site_fract_x
 _atom_site_fract_y
 _atom_site_fract_z
 _atom_site_occupancy
  Zn  Zn0  1  0.50265337  0.60250878  0.49946294  1.0
  Zn  Zn1  1  0.50013115  0.40015285  0.50098012  1.0
  H  H2  1  0.12130898  0.43972658  0.37381564  1.0
  H  H3  1  0.42644320  0.35427645  0.05960701  1.0
  H  H4  1  0.53556390  0.64665248  0.22356400  1.0
  H  H5  1  0.58765231  0.35523027  0.77797753  1.0
  H  H6  1  0.46666932  0.64889047  0.77607625  1.0
  H  H7  1  0.41187771  0.35650992  0.22300531  1.0
  H  H8  1  0.68034931  0.24982860  0.45542897  1.0
  H  H9  1  0.61697159  0.75134875  0.60503587  1.0
  H  H10  1  0.31663130  0.25301974  0.54555771  1.0
  H  H11  1  0.38848518  0.75215826  0.39242501  1.0
  H  H12  1  0.84779984  0.14642306  0.47211134  1.0
  H  H13  1  0.88225621  0.54878717  0.63230173  1.0
  H  H14  1  0.79028401  0.15587922  0.36389273  1.0
  H  H15  1  0.87878256  0.99329609  0.32740358  1.0
  H  H16  1  0.99713961  0.06966355  0.36546258  1.0
  H  H17  1  0.93279486  0.98040204  0.43609784  1.0
  H  H18  1  0.77233815  0.85272743  0.65121694  1.0
  H  H19  1  0.63765990  0.84734144  0.72158446  1.0
  H  H20  1  0.68170760  0.01253598  0.77772529  1.0
  H  H21  1  0.80994760  0.93291505  0.79496064  1.0
  H  H22  1  0.81640964  0.01799339  0.70786666  1.0
  H  H23  1  0.14866117  0.15341214  0.52647294  1.0
  H  H24  1  0.94802046  0.59677025  0.37833646  1.0
  H  H25  1  0.20546464  0.15895053  0.63494639  1.0
  H  H26  1  0.11774488  0.99721968  0.66873582  1.0
  H  H27  1  0.99899028  0.07668160  0.63135937  1.0
  H  H28  1  0.06474393  0.98794283  0.55963805  1.0
  H  H29  1  0.23098668  0.85308871  0.34518124  1.0
  H  H30  1  0.36644737  0.84884845  0.27529415  1.0
  H  H31  1  0.31482006  0.01403181  0.21866117  1.0
  H  H32  1  0.19035032  0.93385878  0.20149049  1.0
  H  H33  1  0.17969345  0.01855518  0.28834915  1.0
  H  H34  1  0.05442520  0.39149788  0.62799022  1.0
  H  H35  1  0.06011010  0.65988249  0.53549038  1.0
  H  H36  1  0.94416742  0.32834182  0.47015313  1.0
  H  H37  1  0.55672199  0.64460870  0.06069448  1.0
  H  H38  1  0.57106309  0.35248427  0.94136290  1.0
  H  H39  1  0.44348553  0.64653524  0.93894571  1.0
  C  C40  1  0.46883066  0.50400555  0.33101635  1.0
  C  C41  1  0.43683526  0.79650112  0.43863453  1.0
  C  C42  1  0.49837027  0.05428904  0.49876260  1.0
  C  C43  1  0.49920448  0.94838156  0.49862449  1.0
  C  C44  1  0.74114792  0.49197950  0.47848151  1.0
  C  C45  1  0.26217568  0.50129270  0.52517892  1.0
  C  C46  1  0.97366374  0.55179460  0.43402060  1.0
  C  C47  1  0.02983132  0.43665482  0.57211974  1.0
  C  C48  1  0.03250335  0.58664086  0.52093105  1.0
  C  C49  1  0.97068374  0.40186852  0.48506206  1.0
  C  C50  1  0.06547785  0.46370216  0.43067024  1.0
  C  C51  1  0.53365652  0.50421105  0.66935992  1.0
  C  C52  1  0.93782498  0.52483624  0.57532703  1.0
  C  C53  1  0.12484325  0.49917098  0.51842077  1.0
  C  C54  1  0.87822961  0.48938716  0.48817934  1.0
  C  C55  1  0.52212669  0.58185958  0.09575670  1.0
  C  C56  1  0.54615103  0.41737349  0.90538051  1.0
  C  C57  1  0.47796792  0.58302317  0.90415056  1.0
  C  C58  1  0.45240297  0.41823550  0.09532247  1.0
  C  C59  1  0.51133902  0.58336487  0.18647399  1.0
  C  C60  1  0.55713502  0.41875832  0.81436969  1.0
  C  C61  1  0.48992347  0.58471555  0.81343299  1.0
  C  C62  1  0.60446002  0.10527632  0.47177336  1.0
  C  C63  1  0.44259134  0.41940039  0.18639289  1.0
  C  C64  1  0.47231705  0.50200643  0.23288193  1.0
  C  C65  1  0.52887614  0.50246179  0.76749789  1.0
  C  C66  1  0.49313116  0.49926228  0.04831474  1.0
  C  C67  1  0.50563638  0.49933353  0.95193930  1.0
  C  C68  1  0.81450409  0.10485589  0.41625766  1.0
  C  C69  1  0.91123864  0.03247257  0.38445517  1.0
  C  C70  1  0.69948249  0.89631691  0.68485737  1.0
  C  C71  1  0.75502997  0.96946103  0.74478925  1.0
  C  C72  1  0.18185514  0.10972135  0.58174561  1.0
  C  C73  1  0.56727526  0.89630779  0.56066043  1.0
  C  C74  1  0.08535372  0.03837796  0.61213077  1.0
  C  C75  1  0.30201944  0.89727334  0.31176660  1.0
  C  C76  1  0.24343329  0.97049737  0.25161181  1.0
  C  C77  1  0.39224581  0.10704486  0.52649014  1.0
  C  C78  1  0.43310842  0.89690803  0.43647803  1.0
  C  C79  1  0.60155518  0.20558975  0.47416891  1.0
  C  C80  1  0.56714853  0.79595134  0.55865517  1.0
  C  C81  1  0.39526637  0.20740351  0.52585296  1.0
  N  N82  1  0.49852080  0.25343529  0.50051647  1.0
  N  N83  1  0.50270272  0.74924755  0.49870083  1.0
  O  O84  1  0.48638282  0.58515795  0.36636843  1.0
  O  O85  1  0.62872249  0.94814412  0.62053078  1.0
  O  O86  1  0.29164807  0.05621496  0.55390936  1.0
  O  O87  1  0.36997216  0.94904158  0.37635045  1.0
  O  O88  1  0.55109539  0.42471974  0.62998223  1.0
  O  O89  1  0.51739258  0.58574350  0.63305565  1.0
  O  O90  1  0.45114140  0.42516816  0.37135252  1.0
  O  O91  1  0.69010768  0.57441868  0.48730985  1.0
  O  O92  1  0.31748448  0.42125564  0.53957822  1.0
  O  O93  1  0.31393180  0.58144039  0.51130649  1.0
  O  O94  1  0.68542208  0.41340672  0.46545298  1.0
  O  O95  1  0.70515004  0.05291766  0.44359419  1.0
