# generated using pymatgen
data_ZnH4C10O4F
_symmetry_space_group_name_H-M   'P 1'
_cell_length_a   18.99619731
_cell_length_b   19.00403979
_cell_length_c   30.86115661
_cell_angle_alpha   89.96932509
_cell_angle_beta   89.79982789
_cell_angle_gamma   119.94774183
_symmetry_Int_Tables_number   1
_chemical_formula_structural   ZnH4C10O4F
_chemical_formula_sum   'Zn12 H48 C120 O48 F12'
_cell_volume   9653.38736036
_cell_formula_units_Z   12
loop_
 _symmetry_equiv_pos_site_id
 _symmetry_equiv_pos_as_xyz
  1  'x, y, z'
loop_
 _atom_site_type_symbol
 _atom_site_label
 _atom_site_symmetry_multiplicity
 _atom_site_fract_x
 _atom_site_fract_y
 _atom_site_fract_z
 _atom_site_occupancy
  Zn  Zn0  1  0.99989377  0.56795945  0.49997430  1.0
  Zn  Zn1  1  0.00006521  0.43312365  0.50002278  1.0
  Zn  Zn2  1  0.43193540  0.43198546  0.50044924  1.0
  Zn  Zn3  1  0.56684439  0.56681558  0.50032632  1.0
  Zn  Zn4  1  0.56790782  0.99993042  0.50050954  1.0
  Zn  Zn5  1  0.43300233  0.00004701  0.50061018  1.0
  Zn  Zn6  1  0.00191631  0.43298031  0.00000504  1.0
  Zn  Zn7  1  0.00174743  0.56781585  0.99995537  1.0
  Zn  Zn8  1  0.56948759  0.56852814  0.00006899  1.0
  Zn  Zn9  1  0.43465317  0.43374155  0.00061684  1.0
  Zn  Zn10  1  0.43352600  0.00107651  0.00075086  1.0
  Zn  Zn11  1  0.56847116  0.00095322  0.00028405  1.0
  H  H12  1  0.74243592  0.48427834  0.50008071  1.0
  H  H13  1  0.51560941  0.25820490  0.50032195  1.0
  H  H14  1  0.74191996  0.25742031  0.50014761  1.0
  H  H15  1  0.25743319  0.74195509  0.50042396  1.0
  H  H16  1  0.48433992  0.74237910  0.50082206  1.0
  H  H17  1  0.25812688  0.51570274  0.50025693  1.0
  H  H18  1  0.00024335  0.61454575  0.36091112  1.0
  H  H19  1  0.00126187  0.38624956  0.13906959  1.0
  H  H20  1  0.00056631  0.61229948  0.13826720  1.0
  H  H21  1  0.00031447  0.61248703  0.21721451  1.0
  H  H22  1  0.00099514  0.38852619  0.36172958  1.0
  H  H23  1  0.00103945  0.38821724  0.28277985  1.0
  H  H24  1  0.99897661  0.61382104  0.63898186  1.0
  H  H25  1  0.00061705  0.38599319  0.86101263  1.0
  H  H26  1  0.99943476  0.61179328  0.86162095  1.0
  H  H27  1  0.99918557  0.61193150  0.78267043  1.0
  H  H28  1  0.00014717  0.38800274  0.63836937  1.0
  H  H29  1  0.00033467  0.38783903  0.71732360  1.0
  H  H30  1  0.38662803  0.38581247  0.36138985  1.0
  H  H31  1  0.61643112  0.61509812  0.13922179  1.0
  H  H32  1  0.39052271  0.38843927  0.13878137  1.0
  H  H33  1  0.38989040  0.38791812  0.21772977  1.0
  H  H34  1  0.61252167  0.61242275  0.36196869  1.0
  H  H35  1  0.61347296  0.61288061  0.28301149  1.0
  H  H36  1  0.38505210  0.38508330  0.63966318  1.0
  H  H37  1  0.61290252  0.61470397  0.86094677  1.0
  H  H38  1  0.38707786  0.38799805  0.86251128  1.0
  H  H39  1  0.38589599  0.38806071  0.78353435  1.0
  H  H40  1  0.61075762  0.61190353  0.63850976  1.0
  H  H41  1  0.61042955  0.61258432  0.71743795  1.0
  H  H42  1  0.61534194  0.00077442  0.36145035  1.0
  H  H43  1  0.38771066  0.00143580  0.13969594  1.0
  H  H44  1  0.61454905  0.00213234  0.13876007  1.0
  H  H45  1  0.61455239  0.00204888  0.21770820  1.0
  H  H46  1  0.38848214  0.00006877  0.36232536  1.0
  H  H47  1  0.38877913  0.00064472  0.28338093  1.0
  H  H48  1  0.61366305  0.99993803  0.63933662  1.0
  H  H49  1  0.38445270  0.99832439  0.86189001  1.0
  H  H50  1  0.61126848  0.99898586  0.86179862  1.0
  H  H51  1  0.61063259  0.99767496  0.78287181  1.0
  H  H52  1  0.38658922  0.99879190  0.63907717  1.0
  H  H53  1  0.38572569  0.99769744  0.71805188  1.0
  H  H54  1  0.74441520  0.25873524  0.00093574  1.0
  H  H55  1  0.51751701  0.25828585  0.00136553  1.0
  H  H56  1  0.74375665  0.48499482  0.00082598  1.0
  H  H57  1  0.25946358  0.51700292  0.99879931  1.0
  H  H58  1  0.48627950  0.74315954  0.99833319  1.0
  H  H59  1  0.25992284  0.74382639  0.99897169  1.0
  C  C60  1  0.99948293  0.50124061  0.58431446  1.0
  C  C61  1  0.84238444  0.42056394  0.50003839  1.0
  C  C62  1  0.00054359  0.50187911  0.41568891  1.0
  C  C63  1  0.15758071  0.57842666  0.50011654  1.0
  C  C64  1  0.49788910  0.49803369  0.58472333  1.0
  C  C65  1  0.57928776  0.42170124  0.50022392  1.0
  C  C66  1  0.49872665  0.49861007  0.41603833  1.0
  C  C67  1  0.42170204  0.57931537  0.50051032  1.0
  C  C68  1  0.50084821  0.99984553  0.58485963  1.0
  C  C69  1  0.57829083  0.15758856  0.50030061  1.0
  C  C70  1  0.50190487  0.00009170  0.41625374  1.0
  C  C71  1  0.42063725  0.84237929  0.50068355  1.0
  C  C72  1  0.00071000  0.49887952  0.91567568  1.0
  C  C73  1  0.84425717  0.42223867  0.00065638  1.0
  C  C74  1  0.00164306  0.49928221  0.08429599  1.0
  C  C75  1  0.15946181  0.58069491  0.99910649  1.0
  C  C76  1  0.50166464  0.50082280  0.91604471  1.0
  C  C77  1  0.58022828  0.42153893  0.00086017  1.0
  C  C78  1  0.50324712  0.50259251  0.08463719  1.0
  C  C79  1  0.42283778  0.57969605  0.99931593  1.0
  C  C80  1  0.49879526  0.00088119  0.91617977  1.0
  C  C81  1  0.58133346  0.15842826  0.00092859  1.0
  C  C82  1  0.50025842  0.00078135  0.08486486  1.0
  C  C83  1  0.42352538  0.84357625  0.99946813  1.0
  C  C84  1  0.62437815  0.37601979  0.50018819  1.0
  C  C85  1  0.70932575  0.41818815  0.50011429  1.0
  C  C86  1  0.75164727  0.37550293  0.50009829  1.0
  C  C87  1  0.70892508  0.29057710  0.50014379  1.0
  C  C88  1  0.62395012  0.24830974  0.50021421  1.0
  C  C89  1  0.58172692  0.29108847  0.50024325  1.0
  C  C90  1  0.37555598  0.75166029  0.50062285  1.0
  C  C91  1  0.29060210  0.70897378  0.50045747  1.0
  C  C92  1  0.24831696  0.62403985  0.50031146  1.0
  C  C93  1  0.29106745  0.58179059  0.50035495  1.0
  C  C94  1  0.37602336  0.62440846  0.50052618  1.0
  C  C95  1  0.41822863  0.70932056  0.50066784  1.0
  C  C96  1  0.00064246  0.50127395  0.36734754  1.0
  C  C97  1  0.00106835  0.49962940  0.13263851  1.0
  C  C98  1  0.00043666  0.56424880  0.34415290  1.0
  C  C99  1  0.00045057  0.56311824  0.29929491  1.0
  C  C100  1  0.00109048  0.43655562  0.15583035  1.0
  C  C101  1  0.00093493  0.43760606  0.20069127  1.0
  C  C102  1  0.00071753  0.56268490  0.15582544  1.0
  C  C103  1  0.00055172  0.56231159  0.20079120  1.0
  C  C104  1  0.00087291  0.43814926  0.34416770  1.0
  C  C105  1  0.00088676  0.43843759  0.29920393  1.0
  C  C106  1  0.00068439  0.50092922  0.27404419  1.0
  C  C107  1  0.00072304  0.49980418  0.22594810  1.0
  C  C108  1  0.99952977  0.50061935  0.63265462  1.0
  C  C109  1  0.00009924  0.49921188  0.86733817  1.0
  C  C110  1  0.99928103  0.56359158  0.65578757  1.0
  C  C111  1  0.99940816  0.56255303  0.70064564  1.0
  C  C112  1  0.00027215  0.43619958  0.84420508  1.0
  C  C113  1  0.00015258  0.43724482  0.79934860  1.0
  C  C114  1  0.99961729  0.56219351  0.84410234  1.0
  C  C115  1  0.99947400  0.56179553  0.79913882  1.0
  C  C116  1  0.99992237  0.43758005  0.65588873  1.0
  C  C117  1  0.00002317  0.43796043  0.70084910  1.0
  C  C118  1  0.99975277  0.50043553  0.72594946  1.0
  C  C119  1  0.99979548  0.49934470  0.77403931  1.0
  C  C120  1  0.49981453  0.49935723  0.36769495  1.0
  C  C121  1  0.50304132  0.50161844  0.13297545  1.0
  C  C122  1  0.43706152  0.43624745  0.34456793  1.0
  C  C123  1  0.43856327  0.43743479  0.29970844  1.0
  C  C124  1  0.56604344  0.56463154  0.15605399  1.0
  C  C125  1  0.56475457  0.56336455  0.20092534  1.0
  C  C126  1  0.43999522  0.43814657  0.15626709  1.0
  C  C127  1  0.44013767  0.43830584  0.20123004  1.0
  C  C128  1  0.56309815  0.56270814  0.34445207  1.0
  C  C129  1  0.56316167  0.56248805  0.29948026  1.0
  C  C130  1  0.50093343  0.49983086  0.27438310  1.0
  C  C131  1  0.50242846  0.50098183  0.22628202  1.0
  C  C132  1  0.49817648  0.49877658  0.63306574  1.0
  C  C133  1  0.50004007  0.50077313  0.86772710  1.0
  C  C134  1  0.43512040  0.43566187  0.65635891  1.0
  C  C135  1  0.43586769  0.43700837  0.70122225  1.0
  C  C136  1  0.56252713  0.56424824  0.84435245  1.0
  C  C137  1  0.56087670  0.56339410  0.79950618  1.0
  C  C138  1  0.43651494  0.43773414  0.84476833  1.0
  C  C139  1  0.43633792  0.43825153  0.79979680  1.0
  C  C140  1  0.56106055  0.56222766  0.65614343  1.0
  C  C141  1  0.56037672  0.56216191  0.70110473  1.0
  C  C142  1  0.49774348  0.49960496  0.72636267  1.0
  C  C143  1  0.49871074  0.50090575  0.77444576  1.0
  C  C144  1  0.50159026  0.00036988  0.36791753  1.0
  C  C145  1  0.50129460  0.00155735  0.13319813  1.0
  C  C146  1  0.56498502  0.00074820  0.34470607  1.0
  C  C147  1  0.56421864  0.00111643  0.29984511  1.0
  C  C148  1  0.43811070  0.00153671  0.15643621  1.0
  C  C149  1  0.43906373  0.00151039  0.20129372  1.0
  C  C150  1  0.56467177  0.00193002  0.15634046  1.0
  C  C151  1  0.56422094  0.00191337  0.20131645  1.0
  C  C152  1  0.43840141  0.00034457  0.34475781  1.0
  C  C153  1  0.43906364  0.00070736  0.29978480  1.0
  C  C154  1  0.50201577  0.00114566  0.27460711  1.0
  C  C155  1  0.50131777  0.00154248  0.22651409  1.0
  C  C156  1  0.49985782  0.99937774  0.63318876  1.0
  C  C157  1  0.49845403  0.99928243  0.86784742  1.0
  C  C158  1  0.56297798  0.99940366  0.65621415  1.0
  C  C159  1  0.56155070  0.99879515  0.70106615  1.0
  C  C160  1  0.43480677  0.99837234  0.84490807  1.0
  C  C161  1  0.43534534  0.99754164  0.80004396  1.0
  C  C162  1  0.56136002  0.99872065  0.84443777  1.0
  C  C163  1  0.56053849  0.99799675  0.79947976  1.0
  C  C164  1  0.43628813  0.99878205  0.65652025  1.0
  C  C165  1  0.43625400  0.99812867  0.70149261  1.0
  C  C166  1  0.49887406  0.99807372  0.72647727  1.0
  C  C167  1  0.49770790  0.99776206  0.77456501  1.0
  C  C168  1  0.62632799  0.24909690  0.00112689  1.0
  C  C169  1  0.71126417  0.29173965  0.00102662  1.0
  C  C170  1  0.75354068  0.37665957  0.00095295  1.0
  C  C171  1  0.71080323  0.41891066  0.00096031  1.0
  C  C172  1  0.62584236  0.37635965  0.00107616  1.0
  C  C173  1  0.58363516  0.29143303  0.00122582  1.0
  C  C174  1  0.37759073  0.62526446  0.99860581  1.0
  C  C175  1  0.29261529  0.58309307  0.99864607  1.0
  C  C176  1  0.25022421  0.62574127  0.99867066  1.0
  C  C177  1  0.29291506  0.71066227  0.99873865  1.0
  C  C178  1  0.37788586  0.75290655  0.99867958  1.0
  C  C179  1  0.42016643  0.71019215  0.99844982  1.0
  O  O180  1  0.99937342  0.56124288  0.56552258  1.0
  O  O181  1  0.99960873  0.44151813  0.56527127  1.0
  O  O182  1  0.87764013  0.37821130  0.50005000  1.0
  O  O183  1  0.87784511  0.49813566  0.49997624  1.0
  O  O184  1  0.00050528  0.44207921  0.43477689  1.0
  O  O185  1  0.00045925  0.56189854  0.43443671  1.0
  O  O186  1  0.12199246  0.62048361  0.50004971  1.0
  O  O187  1  0.12245638  0.50088758  0.50003276  1.0
  O  O188  1  0.43803689  0.43799311  0.56601410  1.0
  O  O189  1  0.55775279  0.55780594  0.56559282  1.0
  O  O190  1  0.62166620  0.49923504  0.50021216  1.0
  O  O191  1  0.50169190  0.37968185  0.50025417  1.0
  O  O192  1  0.55832876  0.55831102  0.43507032  1.0
  O  O193  1  0.43853782  0.43857938  0.43485310  1.0
  O  O194  1  0.37963970  0.50174622  0.50055283  1.0
  O  O195  1  0.49926478  0.62164879  0.50042593  1.0
  O  O196  1  0.56109895  0.00006064  0.56602618  1.0
  O  O197  1  0.44114602  0.99992523  0.56584685  1.0
  O  O198  1  0.50071906  0.12245841  0.50039911  1.0
  O  O199  1  0.62037709  0.12202894  0.50026166  1.0
  O  O200  1  0.44201403  0.00005329  0.43536410  1.0
  O  O201  1  0.56183048  0.99992495  0.43498406  1.0
  O  O202  1  0.49824333  0.87784352  0.50069373  1.0
  O  O203  1  0.37825795  0.87761588  0.50068114  1.0
  O  O204  1  0.00104197  0.43898953  0.93446573  1.0
  O  O205  1  0.00097005  0.55879683  0.93471244  1.0
  O  O206  1  0.87937086  0.49976921  0.00046832  1.0
  O  O207  1  0.87979507  0.38014528  0.00057072  1.0
  O  O208  1  0.00179847  0.55914159  0.06520579  1.0
  O  O209  1  0.00204137  0.43942969  0.06554516  1.0
  O  O210  1  0.12397466  0.50312808  0.99935178  1.0
  O  O211  1  0.12419815  0.62305366  0.99931783  1.0
  O  O212  1  0.56208672  0.56060048  0.93456254  1.0
  O  O213  1  0.44230837  0.44083232  0.93535174  1.0
  O  O214  1  0.50267202  0.37922373  0.00098926  1.0
  O  O215  1  0.62228468  0.49911106  0.00050304  1.0
  O  O216  1  0.44325028  0.44298225  0.06576873  1.0
  O  O217  1  0.56303698  0.56271103  0.06564250  1.0
  O  O218  1  0.50043999  0.62176284  0.99943309  1.0
  O  O219  1  0.38053515  0.50217569  0.99993476  1.0
  O  O220  1  0.43913088  0.00158675  0.93516495  1.0
  O  O221  1  0.55896237  0.00149068  0.93502797  1.0
  O  O222  1  0.62374944  0.12322623  0.00058484  1.0
  O  O223  1  0.50374685  0.12297134  0.00107519  1.0
  O  O224  1  0.55982984  0.00040500  0.06562314  1.0
  O  O225  1  0.43993964  0.00038759  0.06625703  1.0
  O  O226  1  0.38143466  0.87911314  0.00004519  1.0
  O  O227  1  0.50109667  0.87869370  0.99968330  1.0
  F  F228  1  0.00020065  0.62828900  0.28042092  1.0
  F  F229  1  0.00102086  0.37234729  0.21956015  1.0
  F  F230  1  0.99914787  0.62773613  0.71945755  1.0
  F  F231  1  0.00045760  0.37207749  0.78053821  1.0
  F  F232  1  0.37354162  0.37209256  0.28091921  1.0
  F  F233  1  0.62981716  0.62866546  0.21971871  1.0
  F  F234  1  0.37072682  0.37162388  0.72023357  1.0
  F  F235  1  0.62553738  0.62917662  0.78045692  1.0
  F  F236  1  0.62974997  0.00141992  0.28093758  1.0
  F  F237  1  0.37356271  0.00129495  0.22019403  1.0
  F  F238  1  0.62702421  0.99905085  0.71975132  1.0
  F  F239  1  0.36945288  0.99649708  0.78140341  1.0
