# generated using pymatgen
data_Cd3H10(C9O7)2
_symmetry_space_group_name_H-M   'P 1'
_cell_length_a   6.28885703
_cell_length_b   9.67157457
_cell_length_c   9.79346343
_cell_angle_alpha   63.66382021
_cell_angle_beta   81.92598974
_cell_angle_gamma   77.94275115
_symmetry_Int_Tables_number   1
_chemical_formula_structural   Cd3H10(C9O7)2
_chemical_formula_sum   'Cd3 H10 C18 O14'
_cell_volume   521.28935630
_cell_formula_units_Z   1
loop_
 _symmetry_equiv_pos_site_id
 _symmetry_equiv_pos_as_xyz
  1  'x, y, z'
loop_
 _atom_site_type_symbol
 _atom_site_label
 _atom_site_symmetry_multiplicity
 _atom_site_fract_x
 _atom_site_fract_y
 _atom_site_fract_z
 _atom_site_occupancy
  Cd  Cd0  1  0.21104797  0.43626853  0.36010531  1.0
  Cd  Cd1  1  0.78895410  0.56373190  0.63989605  1.0
  Cd  Cd2  1  0.50000342  0.49999920  0.00000135  1.0
  H  H3  1  0.14325630  0.39054356  0.90538273  1.0
  H  H4  1  0.85674567  0.60945688  0.09461659  1.0
  H  H5  1  0.29934444  0.97978526  0.82096643  1.0
  H  H6  1  0.70064920  0.02021648  0.17903220  1.0
  H  H7  1  0.19204923  0.93474618  0.28259405  1.0
  H  H8  1  0.80794975  0.06525314  0.71740609  1.0
  H  H9  1  0.31692941  0.53581392  0.69960571  1.0
  H  H10  1  0.68307615  0.46418528  0.30039683  1.0
  H  H11  1  0.27789401  0.69914579  0.70003365  1.0
  H  H12  1  0.72210838  0.30085346  0.29997024  1.0
  C  C13  1  0.12414732  0.25085621  0.20791441  1.0
  C  C14  1  0.87585489  0.74914306  0.79208540  1.0
  C  C15  1  0.22193861  0.29762755  0.67800076  1.0
  C  C16  1  0.77806015  0.70237294  0.32199888  1.0
  C  C17  1  0.29167142  0.76574233  0.11214567  1.0
  C  C18  1  0.70832568  0.23425819  0.88785312  1.0
  C  C19  1  0.17122679  0.17105564  0.10430165  1.0
  C  C20  1  0.82877220  0.82894368  0.89569849  1.0
  C  C21  1  0.17902136  0.26399153  0.94720904  1.0
  C  C22  1  0.82098014  0.73601125  0.05278931  1.0
  C  C23  1  0.22325634  0.19644634  0.84453685  1.0
  C  C24  1  0.77674241  0.80355415  0.15546279  1.0
  C  C25  1  0.26376754  0.03340233  0.90026855  1.0
  C  C26  1  0.73622638  0.96659823  0.09973158  1.0
  C  C27  1  0.25386213  0.93957133  0.05727393  1.0
  C  C28  1  0.74613502  0.06042918  0.94272588  1.0
  C  C29  1  0.20412852  0.00810308  0.16018864  1.0
  C  C30  1  0.79586858  0.99189743  0.83981015  1.0
  O  O31  1  0.26895230  0.23439249  0.58622664  1.0
  O  O32  1  0.73104669  0.76560683  0.41377349  1.0
  O  O33  1  0.17067552  0.44824411  0.62974550  1.0
  O  O34  1  0.82932641  0.55175633  0.37025281  1.0
  O  O35  1  0.00985283  0.19996208  0.32898725  1.0
  O  O36  1  0.99014796  0.80003605  0.67101219  1.0
  O  O37  1  0.20805066  0.37898204  0.16168136  1.0
  O  O38  1  0.79195718  0.62101364  0.83832146  1.0
  O  O39  1  0.33111918  0.71678108  0.00822131  1.0
  O  O40  1  0.66887820  0.28321826  0.99177899  1.0
  O  O41  1  0.27902682  0.68136373  0.25556914  1.0
  O  O42  1  0.72097193  0.31863676  0.74443051  1.0
  O  O43  1  0.38518308  0.60093556  0.73130799  1.0
  O  O44  1  0.61482064  0.39906484  0.26869423  1.0
