# generated using pymatgen
data_Cu4MoH28C28(S2N3)2
_symmetry_space_group_name_H-M   'P 1'
_cell_length_a   9.33339429
_cell_length_b   11.71675254
_cell_length_c   19.19082998
_cell_angle_alpha   89.99886822
_cell_angle_beta   98.14004975
_cell_angle_gamma   89.99878606
_symmetry_Int_Tables_number   1
_chemical_formula_structural   Cu4MoH28C28(S2N3)2
_chemical_formula_sum   'Cu8 Mo2 H56 C56 S8 N12'
_cell_volume   2077.50887644
_cell_formula_units_Z   2
loop_
 _symmetry_equiv_pos_site_id
 _symmetry_equiv_pos_as_xyz
  1  'x, y, z'
loop_
 _atom_site_type_symbol
 _atom_site_label
 _atom_site_symmetry_multiplicity
 _atom_site_fract_x
 _atom_site_fract_y
 _atom_site_fract_z
 _atom_site_occupancy
  Cu  Cu0  1  0.71316422  0.37483251  0.20895165  1.0
  Cu  Cu1  1  0.02920832  0.38396783  0.11147762  1.0
  Cu  Cu2  1  0.28681501  0.37485442  0.29105737  1.0
  Cu  Cu3  1  0.97077929  0.38395368  0.38853188  1.0
  Cu  Cu4  1  0.28684421  0.62520156  0.79105658  1.0
  Cu  Cu5  1  0.97079270  0.61604661  0.88851185  1.0
  Cu  Cu6  1  0.71317941  0.62517965  0.70894310  1.0
  Cu  Cu7  1  0.02921071  0.61606076  0.61147922  1.0
  Mo  Mo8  1  0.99998871  0.36462267  0.25000539  1.0
  Mo  Mo9  1  0.00001651  0.63541738  0.74999949  1.0
  H  H10  1  0.39973313  0.42872308  0.14888628  1.0
  H  H11  1  0.27673869  0.56478711  0.06205111  1.0
  H  H12  1  0.70111624  0.68247539  0.02794025  1.0
  H  H13  1  0.80813492  0.53967924  0.11482868  1.0
  H  H14  1  0.48193606  0.75246637  0.95172712  1.0
  H  H15  1  0.30908498  0.69549371  0.96070425  1.0
  H  H16  1  0.47446675  0.87070556  0.06022213  1.0
  H  H17  1  0.30345218  0.81268225  0.06947231  1.0
  H  H18  1  0.37354526  0.95552879  0.94430421  1.0
  H  H19  1  0.20717861  0.88796537  0.94659416  1.0
  H  H20  1  0.37088429  0.00988079  0.11862390  1.0
  H  H21  1  0.26814973  0.18319510  0.16800278  1.0
  H  H22  1  0.01604517  0.25904304  0.97943068  1.0
  H  H23  1  0.09758300  0.08126961  0.92246135  1.0
  H  H24  1  0.60023906  0.42872409  0.35111847  1.0
  H  H25  1  0.72323806  0.56478922  0.43794502  1.0
  H  H26  1  0.29887081  0.68248272  0.47207293  1.0
  H  H27  1  0.19185215  0.53968436  0.38518934  1.0
  H  H28  1  0.51805012  0.75247770  0.54826629  1.0
  H  H29  1  0.69089857  0.69549899  0.53929540  1.0
  H  H30  1  0.52552123  0.87071436  0.43976592  1.0
  H  H31  1  0.69654076  0.81268163  0.43052408  1.0
  H  H32  1  0.62644229  0.95552268  0.55568478  1.0
  H  H33  1  0.79279907  0.88795139  0.55340015  1.0
  H  H34  1  0.62911279  0.00990253  0.38137254  1.0
  H  H35  1  0.73184081  0.18323632  0.33200674  1.0
  H  H36  1  0.98395486  0.25903969  0.52059258  1.0
  H  H37  1  0.90239882  0.08123849  0.57754556  1.0
  H  H38  1  0.60027650  0.57126235  0.85110849  1.0
  H  H39  1  0.72326237  0.43518722  0.93793315  1.0
  H  H40  1  0.29887936  0.31752369  0.97204937  1.0
  H  H41  1  0.19187040  0.46033008  0.88516370  1.0
  H  H42  1  0.51804765  0.24752332  0.04825956  1.0
  H  H43  1  0.69090084  0.30449428  0.03928936  1.0
  H  H44  1  0.52553315  0.12927389  0.93977143  1.0
  H  H45  1  0.69654772  0.18729976  0.93052125  1.0
  H  H46  1  0.62645354  0.04446346  0.05569084  1.0
  H  H47  1  0.79281372  0.11202347  0.05339835  1.0
  H  H48  1  0.62909931  0.99009012  0.88137581  1.0
  H  H49  1  0.73183388  0.81677411  0.83199588  1.0
  H  H50  1  0.98395249  0.74094153  0.02057211  1.0
  H  H51  1  0.90240928  0.91872179  0.07753740  1.0
  H  H52  1  0.39975957  0.57127243  0.64889533  1.0
  H  H53  1  0.27675833  0.43519279  0.56207799  1.0
  H  H54  1  0.70113755  0.31751978  0.52794312  1.0
  H  H55  1  0.80814978  0.46032581  0.61482000  1.0
  H  H56  1  0.48196585  0.24752565  0.45174665  1.0
  H  H57  1  0.30911634  0.30450265  0.46071538  1.0
  H  H58  1  0.47447429  0.12926765  0.56023255  1.0
  H  H59  1  0.30345906  0.18729611  0.56947782  1.0
  H  H60  1  0.37356623  0.04447725  0.44431304  1.0
  H  H61  1  0.20721057  0.11204427  0.44659410  1.0
  H  H62  1  0.37089906  0.99008801  0.61861718  1.0
  H  H63  1  0.26815905  0.81676702  0.66799099  1.0
  H  H64  1  0.01605039  0.74096365  0.47940761  1.0
  H  H65  1  0.09759891  0.91875376  0.42244837  1.0
  C  C66  1  0.00303011  0.47049424  0.02726331  1.0
  C  C67  1  0.46355920  0.48772311  0.12202124  1.0
  C  C68  1  0.39493632  0.56548492  0.07393542  1.0
  C  C69  1  0.47924658  0.64033656  0.03975818  1.0
  C  C70  1  0.62979617  0.63023753  0.05499273  1.0
  C  C71  1  0.69089374  0.55056483  0.10387560  1.0
  C  C72  1  0.40966640  0.72952485  0.99019527  1.0
  C  C73  1  0.37386693  0.83685109  0.03036712  1.0
  C  C74  1  0.29893274  0.92717883  0.98076206  1.0
  C  C75  1  0.24428307  0.03078011  0.01521937  1.0
  C  C76  1  0.29164219  0.06144748  0.08525704  1.0
  C  C77  1  0.23539690  0.15896088  0.11308984  1.0
  C  C78  1  0.09278302  0.19914556  0.00812982  1.0
  C  C79  1  0.14066900  0.10196437  0.97687026  1.0
  C  C80  1  0.99696901  0.47047864  0.47273659  1.0
  C  C81  1  0.53641876  0.48772604  0.37798321  1.0
  C  C82  1  0.60504686  0.56549282  0.42606586  1.0
  C  C83  1  0.52074298  0.64034563  0.46024160  1.0
  C  C84  1  0.37019248  0.63024196  0.44502118  1.0
  C  C85  1  0.30908869  0.55057188  0.39614040  1.0
  C  C86  1  0.59031936  0.72952681  0.50980360  1.0
  C  C87  1  0.62612312  0.83685553  0.46962773  1.0
  C  C88  1  0.70105997  0.92718117  0.51923232  1.0
  C  C89  1  0.75570034  0.03077674  0.48478053  1.0
  C  C90  1  0.70833697  0.06147619  0.41474897  1.0
  C  C91  1  0.76459004  0.15899039  0.38692128  1.0
  C  C92  1  0.90721024  0.19914025  0.49188387  1.0
  C  C93  1  0.85931004  0.10194684  0.52313411  1.0
  C  C94  1  0.99701223  0.52954752  0.97270773  1.0
  C  C95  1  0.53644181  0.51227170  0.87796927  1.0
  C  C96  1  0.60506149  0.43449709  0.92605018  1.0
  C  C97  1  0.52075229  0.35965314  0.96022957  1.0
  C  C98  1  0.37019835  0.36975984  0.94499680  1.0
  C  C99  1  0.30910943  0.44944193  0.89611559  1.0
  C  C100  1  0.59032484  0.27045887  0.00979716  1.0
  C  C101  1  0.62612866  0.16313348  0.96962509  1.0
  C  C102  1  0.70106176  0.07280745  0.01922955  1.0
  C  C103  1  0.75571030  0.96920532  0.98477842  1.0
  C  C104  1  0.70833270  0.93851916  0.91474725  1.0
  C  C105  1  0.76458341  0.84100662  0.88691380  1.0
  C  C106  1  0.90721791  0.80083901  0.99186954  1.0
  C  C107  1  0.85932870  0.89802788  0.02312783  1.0
  C  C108  1  0.00299058  0.52955117  0.52728382  1.0
  C  C109  1  0.46358744  0.51227389  0.62203165  1.0
  C  C110  1  0.39496258  0.43450114  0.57395027  1.0
  C  C111  1  0.47926757  0.35965259  0.53977252  1.0
  C  C112  1  0.62981585  0.36975797  0.55499799  1.0
  C  C113  1  0.69091319  0.44943830  0.60387415  1.0
  C  C114  1  0.40969011  0.27046374  0.49020940  1.0
  C  C115  1  0.37387777  0.16313075  0.53037580  1.0
  C  C116  1  0.29895290  0.07282474  0.48076425  1.0
  C  C117  1  0.24429849  0.96922490  0.51521139  1.0
  C  C118  1  0.29166617  0.93851947  0.58524587  1.0
  C  C119  1  0.23541416  0.84101040  0.61307571  1.0
  C  C120  1  0.09278961  0.80085968  0.50811542  1.0
  C  C121  1  0.14068118  0.89805224  0.47686092  1.0
  S  S122  1  0.87512425  0.26437638  0.16172481  1.0
  S  S123  1  0.84740267  0.47975665  0.29655173  1.0
  S  S124  1  0.12487792  0.26436367  0.33827935  1.0
  S  S125  1  0.15254946  0.47977342  0.20346244  1.0
  S  S126  1  0.12487123  0.73566452  0.83827834  1.0
  S  S127  1  0.15261443  0.52028425  0.70345556  1.0
  S  S128  1  0.87513917  0.73568406  0.66172950  1.0
  S  S129  1  0.84744173  0.52027004  0.79653623  1.0
  N  N130  1  0.60879486  0.48061727  0.13781521  1.0
  N  N131  1  0.13932693  0.22788498  0.07547818  1.0
  N  N132  1  0.55809131  0.29393798  0.24401674  1.0
  N  N133  1  0.39118645  0.48061805  0.36220259  1.0
  N  N134  1  0.86067305  0.22790653  0.42453251  1.0
  N  N135  1  0.44186661  0.29394303  0.25598914  1.0
  N  N136  1  0.39120719  0.51939632  0.86218059  1.0
  N  N137  1  0.86066967  0.77208850  0.92452036  1.0
  N  N138  1  0.44190630  0.70609695  0.75599073  1.0
  N  N139  1  0.60881977  0.51939725  0.63781018  1.0
  N  N140  1  0.13932573  0.77210023  0.57546462  1.0
  N  N141  1  0.55812895  0.70609360  0.74400516  1.0
