# generated using pymatgen
data_Zn4H4C25S4Cl4O15
_symmetry_space_group_name_H-M   'P 1'
_cell_length_a   19.62287185
_cell_length_b   19.72657938
_cell_length_c   33.22736670
_cell_angle_alpha   79.07584449
_cell_angle_beta   79.38524984
_cell_angle_gamma   64.11404830
_symmetry_Int_Tables_number   1
_chemical_formula_structural   Zn4H4C25S4Cl4O15
_chemical_formula_sum   'Zn16 H16 C100 S16 Cl16 O60'
_cell_volume   11286.64362788
_cell_formula_units_Z   4
loop_
 _symmetry_equiv_pos_site_id
 _symmetry_equiv_pos_as_xyz
  1  'x, y, z'
loop_
 _atom_site_type_symbol
 _atom_site_label
 _atom_site_symmetry_multiplicity
 _atom_site_fract_x
 _atom_site_fract_y
 _atom_site_fract_z
 _atom_site_occupancy
  Zn  Zn0  1  0.05591757  0.40077831  0.47904235  1.0
  Zn  Zn1  1  0.98473180  0.48343151  0.56008267  1.0
  Zn  Zn2  1  0.05670631  0.56434138  0.48239042  1.0
  Zn  Zn3  1  0.90004530  0.55518980  0.47872010  1.0
  Zn  Zn4  1  0.69142276  0.35067718  0.27168777  1.0
  Zn  Zn5  1  0.68870837  0.19094802  0.26707032  1.0
  Zn  Zn6  1  0.76931392  0.26500439  0.18944931  1.0
  Zn  Zn7  1  0.84642049  0.19834026  0.27279610  1.0
  Zn  Zn8  1  0.26561476  0.76709901  0.68944176  1.0
  Zn  Zn9  1  0.35106469  0.69674943  0.76972267  1.0
  Zn  Zn10  1  0.19267748  0.84867792  0.77184853  1.0
  Zn  Zn11  1  0.19266131  0.68711711  0.76675344  1.0
  Zn  Zn12  1  0.55940442  0.06150985  0.98296652  1.0
  Zn  Zn13  1  0.40252118  0.05352790  0.97714240  1.0
  Zn  Zn14  1  0.55666134  0.90037774  0.97855180  1.0
  Zn  Zn15  1  0.48256606  0.98397579  0.06041382  1.0
  H  H16  1  0.95323380  0.25552697  0.34762937  1.0
  H  H17  1  0.73978400  0.45185082  0.35693563  1.0
  H  H18  1  0.00274655  0.30298784  0.39584717  1.0
  H  H19  1  0.09230087  0.60169177  0.70002972  1.0
  H  H20  1  0.21149840  0.69064586  0.59809672  1.0
  H  H21  1  0.04465791  0.55510844  0.65040820  1.0
  H  H22  1  0.55515714  0.04494515  0.15279050  1.0
  H  H23  1  0.64027782  0.16407794  0.04901519  1.0
  H  H24  1  0.60564744  0.09239424  0.20050189  1.0
  H  H25  1  0.49911375  0.79079952  0.90189275  1.0
  H  H26  1  0.30435256  0.00564872  0.89349806  1.0
  H  H27  1  0.44856954  0.74547571  0.85318413  1.0
  H  H28  1  0.78513986  0.57519520  0.36163669  1.0
  H  H29  1  0.11115112  0.74885338  0.53433636  1.0
  H  H30  1  0.78524628  0.14649758  0.07183490  1.0
  H  H31  1  0.17946507  0.96738507  0.89021305  1.0
  C  C32  1  0.06020011  0.31712867  0.56290060  1.0
  C  C33  1  0.06956740  0.56998013  0.56861184  1.0
  C  C34  1  0.18231234  0.44161543  0.43943930  1.0
  C  C35  1  0.93338088  0.68555311  0.43828990  1.0
  C  C36  1  0.93168599  0.43083531  0.43080540  1.0
  C  C37  1  0.81791552  0.55945101  0.56210269  1.0
  C  C38  1  0.56530947  0.31022490  0.31280790  1.0
  C  C39  1  0.68198842  0.17953665  0.18106349  1.0
  C  C40  1  0.68704466  0.43142080  0.18683224  1.0
  C  C41  1  0.93638796  0.19038926  0.19102880  1.0
  C  C42  1  0.81497977  0.32364213  0.32016083  1.0
  C  C43  1  0.81145939  0.06674014  0.31004946  1.0
  C  C44  1  0.43261345  0.68768796  0.68567960  1.0
  C  C45  1  0.31997975  0.81941754  0.81816916  1.0
  C  C46  1  0.19007945  0.93367050  0.68891968  1.0
  C  C47  1  0.06530469  0.80679008  0.81007879  1.0
  C  C48  1  0.18148573  0.67884715  0.68063880  1.0
  C  C49  1  0.31688027  0.56772073  0.81219682  1.0
  C  C50  1  0.43759711  0.18395539  0.93809978  1.0
  C  C51  1  0.43284425  0.92869023  0.92985061  1.0
  C  C52  1  0.68444140  0.94028222  0.93908815  1.0
  C  C53  1  0.56128428  0.81676530  0.06240366  1.0
  C  C54  1  0.56715368  0.07217362  0.06941752  1.0
  C  C55  1  0.31518201  0.06084241  0.05986969  1.0
  C  C56  1  0.89919993  0.40325145  0.40341492  1.0
  C  C57  1  0.84402289  0.35152860  0.34928487  1.0
  C  C58  1  0.82427050  0.44601003  0.39286204  1.0
  C  C59  1  0.91792943  0.30869638  0.36040412  1.0
  C  C60  1  0.79751976  0.41992835  0.36550626  1.0
  C  C61  1  0.94514398  0.33479246  0.38717008  1.0
  C  C62  1  0.10149571  0.59649713  0.59683070  1.0
  C  C63  1  0.15383312  0.64949092  0.65166594  1.0
  C  C64  1  0.14902637  0.63464601  0.58143606  1.0
  C  C65  1  0.10757502  0.61061983  0.66686677  1.0
  C  C66  1  0.17439774  0.66130733  0.60912376  1.0
  C  C67  1  0.08154994  0.58461867  0.63944862  1.0
  C  C68  1  0.30527135  0.45490287  0.40289735  1.0
  C  C69  1  0.44335442  0.29638440  0.35059989  1.0
  C  C70  1  0.25754284  0.41727790  0.41506641  1.0
  C  C71  1  0.49075234  0.33426432  0.33784288  1.0
  C  C72  1  0.37560370  0.34049899  0.37416884  1.0
  C  C73  1  0.37296266  0.41068420  0.37920380  1.0
  C  C74  1  0.72545169  0.57576722  0.62971926  1.0
  C  C75  1  0.52467915  0.66886081  0.61776835  1.0
  C  C76  1  0.74328641  0.58273262  0.58699558  1.0
  C  C77  1  0.50687888  0.66215167  0.66050968  1.0
  C  C78  1  0.60456282  0.63674248  0.60651627  1.0
  C  C79  1  0.64564563  0.60666626  0.64089280  1.0
  C  C80  1  0.07582740  0.22561129  0.63116283  1.0
  C  C81  1  0.17706111  0.02559695  0.62110264  1.0
  C  C82  1  0.08571354  0.24303913  0.58843079  1.0
  C  C83  1  0.16676880  0.00814152  0.66383138  1.0
  C  C84  1  0.14426558  0.10497797  0.60926558  1.0
  C  C85  1  0.10962171  0.14619557  0.64311398  1.0
  C  C86  1  0.83913256  0.80289484  0.39606018  1.0
  C  C87  1  0.90601868  0.94753540  0.35069866  1.0
  C  C88  1  0.90797451  0.75943424  0.41252991  1.0
  C  C89  1  0.83716631  0.99147377  0.33433944  1.0
  C  C90  1  0.90682761  0.87857060  0.37294851  1.0
  C  C91  1  0.83862389  0.87143503  0.37322405  1.0
  C  C92  1  0.65095881  0.15449690  0.15160370  1.0
  C  C93  1  0.59565261  0.10129327  0.09819590  1.0
  C  C94  1  0.66102680  0.17555970  0.10867609  1.0
  C  C95  1  0.58486864  0.08137321  0.14087932  1.0
  C  C96  1  0.63352655  0.14832083  0.08229805  1.0
  C  C97  1  0.61256899  0.10784261  0.16723718  1.0
  C  C98  1  0.66955905  0.52373552  0.11868732  1.0
  C  C99  1  0.57722229  0.72377683  0.13016938  1.0
  C  C100  1  0.66239107  0.50573361  0.16146066  1.0
  C  C101  1  0.58486637  0.74216314  0.08744193  1.0
  C  C102  1  0.60818542  0.64417863  0.14153572  1.0
  C  C103  1  0.63846256  0.60346791  0.10733720  1.0
  C  C104  1  0.08415249  0.12299814  0.17874494  1.0
  C  C105  1  0.16759748  0.12838125  0.07240308  1.0
  C  C106  1  0.01146890  0.16444106  0.16636645  1.0
  C  C107  1  0.24033693  0.08689537  0.08474053  1.0
  C  C108  1  0.11067284  0.14159379  0.10672675  1.0
  C  C109  1  0.14112749  0.10995545  0.14442559  1.0
  C  C110  1  0.34883818  0.84987609  0.84603036  1.0
  C  C111  1  0.40413187  0.90068460  0.90063965  1.0
  C  C112  1  0.30729924  0.92394966  0.85712330  1.0
  C  C113  1  0.44561282  0.82744014  0.88922788  1.0
  C  C114  1  0.33522539  0.94850533  0.88460204  1.0
  C  C115  1  0.41778042  0.80249349  0.86215741  1.0
  C  C116  1  0.41015478  0.44968048  0.85472336  1.0
  C  C117  1  0.34400142  0.30330342  0.89683630  1.0
  C  C118  1  0.34220850  0.49319700  0.83741032  1.0
  C  C119  1  0.41220227  0.25930946  0.91385003  1.0
  C  C120  1  0.34338962  0.37268512  0.87527723  1.0
  C  C121  1  0.41081622  0.38031930  0.87645513  1.0
  C  C122  1  0.94433513  0.79242572  0.84978231  1.0
  C  C123  1  0.80501301  0.95443934  0.89892454  1.0
  C  C124  1  0.99041457  0.83118862  0.83495229  1.0
  C  C125  1  0.75881274  0.91578160  0.91378284  1.0
  C  C126  1  0.87257581  0.90943079  0.87550928  1.0
  C  C127  1  0.87656306  0.83750922  0.87305446  1.0
  C  C128  1  0.76852582  0.51587579  0.41250038  1.0
  C  C129  1  0.17969065  0.64274937  0.53651513  1.0
  C  C130  1  0.69465771  0.23164258  0.08961467  1.0
  C  C131  1  0.23679177  0.98124040  0.83808504  1.0
  S  S132  1  0.29553132  0.32824578  0.39794551  1.0
  S  S133  1  0.45253176  0.42335826  0.35486760  1.0
  S  S134  1  0.66291727  0.62627089  0.56059576  1.0
  S  S135  1  0.58740874  0.61656339  0.68681742  1.0
  S  S136  1  0.13636702  0.16263671  0.56299873  1.0
  S  S137  1  0.11773814  0.08850850  0.68939544  1.0
  S  S138  1  0.97186368  0.80184664  0.40003462  1.0
  S  S139  1  0.77381843  0.94832165  0.34601292  1.0
  S  S140  1  0.61753731  0.58573162  0.18757308  1.0
  S  S141  1  0.62954837  0.66210640  0.06134867  1.0
  S  S142  1  0.01282632  0.18724791  0.11297892  1.0
  S  S143  1  0.23897351  0.06438584  0.13814769  1.0
  S  S144  1  0.27940326  0.44950322  0.84765875  1.0
  S  S145  1  0.47510500  0.30294658  0.90367016  1.0
  S  S146  1  0.95101411  0.92239008  0.84941158  1.0
  S  S147  1  0.79793273  0.82476902  0.89904532  1.0
  Cl  Cl148  1  0.28872257  0.54176014  0.41423370  1.0
  Cl  Cl149  1  0.46038872  0.20843421  0.34027975  1.0
  Cl  Cl150  1  0.78820443  0.53558148  0.66583348  1.0
  Cl  Cl151  1  0.46188754  0.70959950  0.58177214  1.0
  Cl  Cl152  1  0.02980060  0.28832074  0.66653867  1.0
  Cl  Cl153  1  0.22243438  0.96310657  0.58553439  1.0
  Cl  Cl154  1  0.76339246  0.77987997  0.40116708  1.0
  Cl  Cl155  1  0.98240644  0.96955219  0.34570528  1.0
  Cl  Cl156  1  0.70889896  0.46129583  0.08308274  1.0
  Cl  Cl157  1  0.53664018  0.78582106  0.16616612  1.0
  Cl  Cl158  1  0.10626321  0.08994006  0.22811023  1.0
  Cl  Cl159  1  0.14525744  0.16142902  0.02308402  1.0
  Cl  Cl160  1  0.48547850  0.47283504  0.85118353  1.0
  Cl  Cl161  1  0.26852747  0.28052512  0.90007999  1.0
  Cl  Cl162  1  0.96319102  0.70236034  0.84232968  1.0
  Cl  Cl163  1  0.78650156  0.04437055  0.90643701  1.0
  O  O164  1  0.00010385  0.50023772  0.49960941  1.0
  O  O165  1  0.08071436  0.31577939  0.52401468  1.0
  O  O166  1  0.04257717  0.52160158  0.58485025  1.0
  O  O167  1  0.15475676  0.50617723  0.45236734  1.0
  O  O168  1  0.02025013  0.37564830  0.58129898  1.0
  O  O169  1  0.15135769  0.39454739  0.44529191  1.0
  O  O170  1  0.07075901  0.59901416  0.53091343  1.0
  O  O171  1  0.00243716  0.65753857  0.44655688  1.0
  O  O172  1  0.89581137  0.50070092  0.43616414  1.0
  O  O173  1  0.88551057  0.65634806  0.45015927  1.0
  O  O174  1  0.99265055  0.38314658  0.44579234  1.0
  O  O175  1  0.87684291  0.53322341  0.58107508  1.0
  O  O176  1  0.81634642  0.56846861  0.52301675  1.0
  O  O177  1  0.74824184  0.25207067  0.25007471  1.0
  O  O178  1  0.59390968  0.35931699  0.30383206  1.0
  O  O179  1  0.65600808  0.17303356  0.21897171  1.0
  O  O180  1  0.72082619  0.37245829  0.16824957  1.0
  O  O181  1  0.59502201  0.24347306  0.30229968  1.0
  O  O182  1  0.67196110  0.43362986  0.22592651  1.0
  O  O183  1  0.73270695  0.20418660  0.16576447  1.0
  O  O184  1  0.87912832  0.22699842  0.17038067  1.0
  O  O185  1  0.85913027  0.25852891  0.30900835  1.0
  O  O186  1  0.93450159  0.17467018  0.23009152  1.0
  O  O187  1  0.74925065  0.36681202  0.30892042  1.0
  O  O188  1  0.74641792  0.09121327  0.29678104  1.0
  O  O189  1  0.85507563  0.10097608  0.30448304  1.0
  O  O190  1  0.25006312  0.75018863  0.75001613  1.0
  O  O191  1  0.37323831  0.72403762  0.66707841  1.0
  O  O192  1  0.36831855  0.76048948  0.80205565  1.0
  O  O193  1  0.17466826  0.93440390  0.72808732  1.0
  O  O194  1  0.43477431  0.67074870  0.72480082  1.0
  O  O195  1  0.22272249  0.87539980  0.66970805  1.0
  O  O196  1  0.24928107  0.85422539  0.81356082  1.0
  O  O197  1  0.09316323  0.85637855  0.80101943  1.0
  O  O198  1  0.16653127  0.66109369  0.71914697  1.0
  O  O199  1  0.09557882  0.73976223  0.79997318  1.0
  O  O200  1  0.21749940  0.71944538  0.66424365  1.0
  O  O201  1  0.36079082  0.60182941  0.80524241  1.0
  O  O202  1  0.25153513  0.59138014  0.79944963  1.0
  O  O203  1  0.50086883  0.99936807  0.99979534  1.0
  O  O204  1  0.50439051  0.15762474  0.94947849  1.0
  O  O205  1  0.38938398  0.99442017  0.94039084  1.0
  O  O206  1  0.65435585  0.89244066  0.94679818  1.0
  O  O207  1  0.39214390  0.15152445  0.94563096  1.0
  O  O208  1  0.65676919  0.00572180  0.95107477  1.0
  O  O209  1  0.49791958  0.88485723  0.94173331  1.0
  O  O210  1  0.57729110  0.81551885  0.02326812  1.0
  O  O211  1  0.52942846  0.03316673  0.08582805  1.0
  O  O212  1  0.52745576  0.87550508  0.08124474  1.0
  O  O213  1  0.58328839  0.08869424  0.03090495  1.0
  O  O214  1  0.31630840  0.07449444  0.02078435  1.0
  O  O215  1  0.37296824  0.02620729  0.08029608  1.0
  O  O216  1  0.75146532  0.58340493  0.38755162  1.0
  O  O217  1  0.73552733  0.51339055  0.44700932  1.0
  O  O218  1  0.15216161  0.71497385  0.51637959  1.0
  O  O219  1  0.22972613  0.59091561  0.51945941  1.0
  O  O220  1  0.76535219  0.20185926  0.06795873  1.0
  O  O221  1  0.66022145  0.29965504  0.09016541  1.0
  O  O222  1  0.17022137  0.00042369  0.86402727  1.0
  O  O223  1  0.23803861  0.01346099  0.80324404  1.0
