# generated using pymatgen
data_InH9(C7O3)2
_symmetry_space_group_name_H-M   'P 1'
_cell_length_a   13.92567568
_cell_length_b   13.92563940
_cell_length_c   25.35319053
_cell_angle_alpha   105.12081099
_cell_angle_beta   105.12075338
_cell_angle_gamma   92.77383573
_symmetry_Int_Tables_number   1
_chemical_formula_structural   InH9(C7O3)2
_chemical_formula_sum   'In8 H72 C112 O48'
_cell_volume   4546.13658496
_cell_formula_units_Z   8
loop_
 _symmetry_equiv_pos_site_id
 _symmetry_equiv_pos_as_xyz
  1  'x, y, z'
loop_
 _atom_site_type_symbol
 _atom_site_label
 _atom_site_symmetry_multiplicity
 _atom_site_fract_x
 _atom_site_fract_y
 _atom_site_fract_z
 _atom_site_occupancy
  In  In0  1  0.12500211  0.37500106  0.25000021  1.0
  In  In1  1  0.62499865  0.87499992  0.74999883  1.0
  In  In2  1  0.12499878  0.87500040  0.74999937  1.0
  In  In3  1  0.12499881  0.87499920  0.25000234  1.0
  In  In4  1  0.13978034  0.63970307  0.27957807  1.0
  In  In5  1  0.36029598  0.86021837  0.72042099  1.0
  In  In6  1  0.11021643  0.11029703  0.22042264  1.0
  In  In7  1  0.88970485  0.88978212  0.77957803  1.0
  H  H8  1  0.64096871  0.09433480  0.66419957  1.0
  H  H9  1  0.32001816  0.03799217  0.60007846  1.0
  H  H10  1  0.42836149  0.11403125  0.46638087  1.0
  H  H11  1  0.32643544  0.11007002  0.36905969  1.0
  H  H12  1  0.31226201  0.42663090  0.42535975  1.0
  H  H13  1  0.64277858  0.22496472  0.61230414  1.0
  H  H14  1  0.41719406  0.43204587  0.52375181  1.0
  H  H15  1  0.32060691  0.16925127  0.54889205  1.0
  H  H16  1  0.90566488  0.35903022  0.33580081  1.0
  H  H17  1  0.96200788  0.67998229  0.39991963  1.0
  H  H18  1  0.88596904  0.57163901  0.53361991  1.0
  H  H19  1  0.88993133  0.67356515  0.63094097  1.0
  H  H20  1  0.57337189  0.68774051  0.57464061  1.0
  H  H21  1  0.77503719  0.35722236  0.38769775  1.0
  H  H22  1  0.56795648  0.58280909  0.47624839  1.0
  H  H23  1  0.83074966  0.67939368  0.45110655  1.0
  H  H24  1  0.43001441  0.97680595  0.33594271  1.0
  H  H25  1  0.43772494  0.71969908  0.39994054  1.0
  H  H26  1  0.64740252  0.96172866  0.53376487  1.0
  H  H27  1  0.74095693  0.95735324  0.63112156  1.0
  H  H28  1  0.00110300  0.88697247  0.57458227  1.0
  H  H29  1  0.61244481  0.03041025  0.38783689  1.0
  H  H30  1  0.90794646  0.89326357  0.47617016  1.0
  H  H31  1  0.62009178  0.77136701  0.45110056  1.0
  H  H32  1  0.02319628  0.56998676  0.66405691  1.0
  H  H33  1  0.28030255  0.56227057  0.60005949  1.0
  H  H34  1  0.03827001  0.35259504  0.46623762  1.0
  H  H35  1  0.04264767  0.25904173  0.36888067  1.0
  H  H36  1  0.11302896  0.99889330  0.42541839  1.0
  H  H37  1  0.96959377  0.38755549  0.61216617  1.0
  H  H38  1  0.10673461  0.09204860  0.52383087  1.0
  H  H39  1  0.22863433  0.37990446  0.54890034  1.0
  H  H40  1  0.99028012  0.74154805  0.25543165  1.0
  H  H41  1  0.60903037  0.65566037  0.83580046  1.0
  H  H42  1  0.92998132  0.71200729  0.89992060  1.0
  H  H43  1  0.82163765  0.63596609  0.03361692  1.0
  H  H44  1  0.92356159  0.63993154  0.13093933  1.0
  H  H45  1  0.93773936  0.32337162  0.07464319  1.0
  H  H46  1  0.60722150  0.52503137  0.88769605  1.0
  H  H47  1  0.83281091  0.31795281  0.97625018  1.0
  H  H48  1  0.92939251  0.58074944  0.95110677  1.0
  H  H49  1  0.98472111  0.23625234  0.24446656  1.0
  H  H50  1  0.34433441  0.39096816  0.16419951  1.0
  H  H51  1  0.28799246  0.07001623  0.10007934  1.0
  H  H52  1  0.36403163  0.17836164  0.96638034  1.0
  H  H53  1  0.36006870  0.07643560  0.86905938  1.0
  H  H54  1  0.67662832  0.06226099  0.92535899  1.0
  H  H55  1  0.47496389  0.39277774  0.11230352  1.0
  H  H56  1  0.68204392  0.16719222  0.02375110  1.0
  H  H57  1  0.41925067  0.07060484  0.04889242  1.0
  H  H58  1  0.81998681  0.77319447  0.16405557  1.0
  H  H59  1  0.81227609  0.03030212  0.10005884  1.0
  H  H60  1  0.60259826  0.78827261  0.96623567  1.0
  H  H61  1  0.50904446  0.79264854  0.86887875  1.0
  H  H62  1  0.24889705  0.86302868  0.92541757  1.0
  H  H63  1  0.63755559  0.71959105  0.11216260  1.0
  H  H64  1  0.34205311  0.85673618  0.02382972  1.0
  H  H65  1  0.62990900  0.97863379  0.04889886  1.0
  H  H66  1  0.22680649  0.18001174  0.83594356  1.0
  H  H67  1  0.96969696  0.18772826  0.89993969  1.0
  H  H68  1  0.21172682  0.39740396  0.03376498  1.0
  H  H69  1  0.20734653  0.49095943  0.13112035  1.0
  H  H70  1  0.13697027  0.75110673  0.07458117  1.0
  H  H71  1  0.28041230  0.36244222  0.88783635  1.0
  H  H72  1  0.14326632  0.65794896  0.97617018  1.0
  H  H73  1  0.02136858  0.37009542  0.95109927  1.0
  H  H74  1  0.25845221  0.00971919  0.74456611  1.0
  H  H75  1  0.76374974  0.01528182  0.75553392  1.0
  H  H76  1  0.48625014  0.73471803  0.74446554  1.0
  H  H77  1  0.99154644  0.74028024  0.75543369  1.0
  H  H78  1  0.26528002  0.51375101  0.25553347  1.0
  H  H79  1  0.25971871  0.00845119  0.24456803  1.0
  C  C80  1  0.48097558  0.98363299  0.66785842  1.0
  C  C81  1  0.57145026  0.11092044  0.63857975  1.0
  C  C82  1  0.39035141  0.07887962  0.60222660  1.0
  C  C83  1  0.31414744  0.26836912  0.39115129  1.0
  C  C84  1  0.42740073  0.27364548  0.50030175  1.0
  C  C85  1  0.40313962  0.18239496  0.45728546  1.0
  C  C86  1  0.48057979  0.05816422  0.63507246  1.0
  C  C87  1  0.34685404  0.18051628  0.40290588  1.0
  C  C88  1  0.25158176  0.26511819  0.33319753  1.0
  C  C89  1  0.33893556  0.35904451  0.43486576  1.0
  C  C90  1  0.57283390  0.18342370  0.61008314  1.0
  C  C91  1  0.39602389  0.36223127  0.48933118  1.0
  C  C92  1  0.48224429  0.20400421  0.57815372  1.0
  C  C93  1  0.39058578  0.15191434  0.57383292  1.0
  C  C94  1  0.01636516  0.51902188  0.33214053  1.0
  C  C95  1  0.88908054  0.42854803  0.36142060  1.0
  C  C96  1  0.92112074  0.60964967  0.39777292  1.0
  C  C97  1  0.73163291  0.68585417  0.60884812  1.0
  C  C98  1  0.72635663  0.57260090  0.49969861  1.0
  C  C99  1  0.81760700  0.59686065  0.54271513  1.0
  C  C100  1  0.94183621  0.51941758  0.36492656  1.0
  C  C101  1  0.81948506  0.65314657  0.59709484  1.0
  C  C102  1  0.73488422  0.74842001  0.66680239  1.0
  C  C103  1  0.64095707  0.66106750  0.56513463  1.0
  C  C104  1  0.81657851  0.42716708  0.38991872  1.0
  C  C105  1  0.63777047  0.60398069  0.51066935  1.0
  C  C106  1  0.79599757  0.51775635  0.42184732  1.0
  C  C107  1  0.84808738  0.60941600  0.42616739  1.0
  C  C108  1  0.31568447  0.81302720  0.33216603  1.0
  C  C109  1  0.47217488  0.93279818  0.36151499  1.0
  C  C110  1  0.47645613  0.78789083  0.39778533  1.0
  C  C111  1  0.87710595  0.92301126  0.60890124  1.0
  C  C112  1  0.77303586  0.92681340  0.49972062  1.0
  C  C113  1  0.72486754  0.94560369  0.54280391  1.0
  C  C114  1  0.42293063  0.84536503  0.36496102  1.0
  C  C115  1  0.77747454  0.94385684  0.59720323  1.0
  C  C116  1  0.93195979  0.91858069  0.66686430  1.0
  C  C117  1  0.92399816  0.90404671  0.56512369  1.0
  C  C118  1  0.57312989  0.96263325  0.39002240  1.0
  C  C119  1  0.87261431  0.90651617  0.51064712  1.0
  C  C120  1  0.62559066  0.90384039  0.42188993  1.0
  C  C121  1  0.57782917  0.81646884  0.42618291  1.0
  C  C122  1  0.18697530  0.68431352  0.66783302  1.0
  C  C123  1  0.06720523  0.52782436  0.63848580  1.0
  C  C124  1  0.21211028  0.52354138  0.60221499  1.0
  C  C125  1  0.07698792  0.12289209  0.39109960  1.0
  C  C126  1  0.07318387  0.22696134  0.50028036  1.0
  C  C127  1  0.05439442  0.27512954  0.45719812  1.0
  C  C128  1  0.15463870  0.57706950  0.63503947  1.0
  C  C129  1  0.05614177  0.22252274  0.40279858  1.0
  C  C130  1  0.08141997  0.06803890  0.33313658  1.0
  C  C131  1  0.09595181  0.07599896  0.43487740  1.0
  C  C132  1  0.03736885  0.42687019  0.60998007  1.0
  C  C133  1  0.09348213  0.12738223  0.48935419  1.0
  C  C134  1  0.09615997  0.37440674  0.57811108  1.0
  C  C135  1  0.18353181  0.42216647  0.57381780  1.0
  C  C136  1  0.76902141  0.76636473  0.83214086  1.0
  C  C137  1  0.67854789  0.63907644  0.86141901  1.0
  C  C138  1  0.85964774  0.67111818  0.89777231  1.0
  C  C139  1  0.93585014  0.48163374  0.10884902  1.0
  C  C140  1  0.82260132  0.47635292  0.99969700  1.0
  C  C141  1  0.84686002  0.56760493  0.04271337  1.0
  C  C142  1  0.76941729  0.69183300  0.86492589  1.0
  C  C143  1  0.90314345  0.56948442  0.09709378  1.0
  C  C144  1  0.99841722  0.48488598  0.16680333  1.0
  C  C145  1  0.91106525  0.39095671  0.06513589  1.0
  C  C146  1  0.67716781  0.56657321  0.88991711  1.0
  C  C147  1  0.85397940  0.38776675  0.01066950  1.0
  C  C148  1  0.76775865  0.54599311  0.92184618  1.0
  C  C149  1  0.85941607  0.59808394  0.92616646  1.0
  C  C150  1  0.23363485  0.23097645  0.16785987  1.0
  C  C151  1  0.36092045  0.32144990  0.13858002  1.0
  C  C152  1  0.32888016  0.14035015  0.10222733  1.0
  C  C153  1  0.51836751  0.06414746  0.89115086  1.0
  C  C154  1  0.52364380  0.17739977  0.00030100  1.0
  C  C155  1  0.43239431  0.15313989  0.95728500  1.0
  C  C156  1  0.30816542  0.23058025  0.13507395  1.0
  C  C157  1  0.43051582  0.09685420  0.90290478  1.0
  C  C158  1  0.51511539  0.00158098  0.83319745  1.0
  C  C159  1  0.60904315  0.08893400  0.93486498  1.0
  C  C160  1  0.43342285  0.32283189  0.11008217  1.0
  C  C161  1  0.61223038  0.14602071  0.98933014  1.0
  C  C162  1  0.45400269  0.23224358  0.07815304  1.0
  C  C163  1  0.40191345  0.14058508  0.07383262  1.0
  C  C164  1  0.93431287  0.93697121  0.16783403  1.0
  C  C165  1  0.77782614  0.81720211  0.13848392  1.0
  C  C166  1  0.77354428  0.96210894  0.10221381  1.0
  C  C167  1  0.37289445  0.82698946  0.89109727  1.0
  C  C168  1  0.47696635  0.82318808  0.00027947  1.0
  C  C169  1  0.52513385  0.80439809  0.95719641  1.0
  C  C170  1  0.82707088  0.90463377  0.13503866  1.0
  C  C171  1  0.47252645  0.80614455  0.90279669  1.0
  C  C172  1  0.31804044  0.83141928  0.83313496  1.0
  C  C173  1  0.32600223  0.84595416  0.93487647  1.0
  C  C174  1  0.67687089  0.78736754  0.10997702  1.0
  C  C175  1  0.37738711  0.84348499  0.98935332  1.0
  C  C176  1  0.62440972  0.84616001  0.07810909  1.0
  C  C177  1  0.67217158  0.93353258  0.07381638  1.0
  C  C178  1  0.06302591  0.06568681  0.83216629  1.0
  C  C179  1  0.18279694  0.22217362  0.86151491  1.0
  C  C180  1  0.03789196  0.22645923  0.89778460  1.0
  C  C181  1  0.17300631  0.62710844  0.10890155  1.0
  C  C182  1  0.17681532  0.52303729  0.99972027  1.0
  C  C183  1  0.19560161  0.47486867  0.04280369  1.0
  C  C184  1  0.09536381  0.17292998  0.86495974  1.0
  C  C185  1  0.19385249  0.52747716  0.09720268  1.0
  C  C186  1  0.16857674  0.68196247  0.16686388  1.0
  C  C187  1  0.15404544  0.67400014  0.06512231  1.0
  C  C188  1  0.21263474  0.32312848  0.89002131  1.0
  C  C189  1  0.15651618  0.62261654  0.01064592  1.0
  C  C190  1  0.15384377  0.37559331  0.92188943  1.0
  C  C191  1  0.06646983  0.32783362  0.92618202  1.0
  O  O192  1  0.22123231  0.51392858  0.27976399  1.0
  O  O193  1  0.20735546  0.34192175  0.32834876  1.0
  O  O194  1  0.24545907  0.18604606  0.29246634  1.0
  O  O195  1  0.39774096  0.93150818  0.66018355  1.0
  O  O196  1  0.56505137  0.97870893  0.70186632  1.0
  O  O197  1  0.48753643  0.28226457  0.55446765  1.0
  O  O198  1  0.48607272  0.77876698  0.72023646  1.0
  O  O199  1  0.65808098  0.79264903  0.67165236  1.0
  O  O200  1  0.81395743  0.75454190  0.70753344  1.0
  O  O201  1  0.06848997  0.60225660  0.33981486  1.0
  O  O202  1  0.02128989  0.43494536  0.29813309  1.0
  O  O203  1  0.71773903  0.51246518  0.44553235  1.0
  O  O204  1  0.23439139  0.94150862  0.72030875  1.0
  O  O205  1  0.01372483  0.87941830  0.67170120  1.0
  O  O206  1  0.89359636  0.95311550  0.70762022  1.0
  O  O207  1  0.27130132  0.73729493  0.33972296  1.0
  O  O208  1  0.27673668  0.86335405  0.29828413  1.0
  O  O209  1  0.72750950  0.93270856  0.44554392  1.0
  O  O210  1  0.05848837  0.76560972  0.27969049  1.0
  O  O211  1  0.12057962  0.98627231  0.32829831  1.0
  O  O212  1  0.04688722  0.10640596  0.29238236  1.0
  O  O213  1  0.26270726  0.72869509  0.66027588  1.0
  O  O214  1  0.13664936  0.72326449  0.70171363  1.0
  O  O215  1  0.06728969  0.27248705  0.55445706  1.0
  O  O216  1  0.02876833  0.23607367  0.22023659  1.0
  O  O217  1  0.04264764  0.40808553  0.17165307  1.0
  O  O218  1  0.00453577  0.56395887  0.20753322  1.0
  O  O219  1  0.85225391  0.81849021  0.83981491  1.0
  O  O220  1  0.68494394  0.77128875  0.79813442  1.0
  O  O221  1  0.76246803  0.46773204  0.94553154  1.0
  O  O222  1  0.76392594  0.97123092  0.77976300  1.0
  O  O223  1  0.59191714  0.95735113  0.82834785  1.0
  O  O224  1  0.43604323  0.99545784  0.79246634  1.0
  O  O225  1  0.18150931  0.14774371  0.16018529  1.0
  O  O226  1  0.22871303  0.31505356  0.20186715  1.0
  O  O227  1  0.53226097  0.23753572  0.05446675  1.0
  O  O228  1  0.01560674  0.80848929  0.77968936  1.0
  O  O229  1  0.23627536  0.87058019  0.82829748  1.0
  O  O230  1  0.35640306  0.79688382  0.79237989  1.0
  O  O231  1  0.97869713  0.01270343  0.16027810  1.0
  O  O232  1  0.97325956  0.88664533  0.20171540  1.0
  O  O233  1  0.52249022  0.81729257  0.05445509  1.0
  O  O234  1  0.19150866  0.98439238  0.22030965  1.0
  O  O235  1  0.12941465  0.76372654  0.17170084  1.0
  O  O236  1  0.20311015  0.64359870  0.20761840  1.0
  O  O237  1  0.98729492  0.02130484  0.83972364  1.0
  O  O238  1  0.11335202  0.02673658  0.79828493  1.0
  O  O239  1  0.18271290  0.47751070  0.94554416  1.0
