# generated using pymatgen
data_TbH19(C3O)8
_symmetry_space_group_name_H-M   'P 1'
_cell_length_a   15.08306141
_cell_length_b   15.08245970
_cell_length_c   25.66324569
_cell_angle_alpha   95.32491604
_cell_angle_beta   102.70439138
_cell_angle_gamma   117.89972215
_symmetry_Int_Tables_number   1
_chemical_formula_structural   TbH19(C3O)8
_chemical_formula_sum   'Tb4 H76 C96 O32'
_cell_volume   4901.82586828
_cell_formula_units_Z   4
loop_
 _symmetry_equiv_pos_site_id
 _symmetry_equiv_pos_as_xyz
  1  'x, y, z'
loop_
 _atom_site_type_symbol
 _atom_site_label
 _atom_site_symmetry_multiplicity
 _atom_site_fract_x
 _atom_site_fract_y
 _atom_site_fract_z
 _atom_site_occupancy
  Tb  Tb0  1  0.87607339  0.79736024  0.94822402  1.0
  Tb  Tb1  1  0.34905359  0.92776681  0.55176620  1.0
  Tb  Tb2  1  0.12394649  0.20265515  0.05177711  1.0
  Tb  Tb3  1  0.65094937  0.07223548  0.44823319  1.0
  H  H4  1  0.76978708  0.83385275  0.76052306  1.0
  H  H5  1  0.57332383  0.00920074  0.73955586  1.0
  H  H6  1  0.23022040  0.16615570  0.23947725  1.0
  H  H7  1  0.42666996  0.99079691  0.26044598  1.0
  H  H8  1  0.09558337  0.87469572  0.72566994  1.0
  H  H9  1  0.64885226  0.36986220  0.77425691  1.0
  H  H10  1  0.90441118  0.12528885  0.27432621  1.0
  H  H11  1  0.35114317  0.63013469  0.22574198  1.0
  H  H12  1  0.06408120  0.84521815  0.81451239  1.0
  H  H13  1  0.53048857  0.24934157  0.68545956  1.0
  H  H14  1  0.93591601  0.15477027  0.18548587  1.0
  H  H15  1  0.46950579  0.75065454  0.31453993  1.0
  H  H16  1  0.74092698  0.92131015  0.52984138  1.0
  H  H17  1  0.89130621  0.21103128  0.97021870  1.0
  H  H18  1  0.25907644  0.07868906  0.47015750  1.0
  H  H19  1  0.10870461  0.78898104  0.02977836  1.0
  H  H20  1  0.67626233  0.85712296  0.70735693  1.0
  H  H21  1  0.65006820  0.96906316  0.79259330  1.0
  H  H22  1  0.32373927  0.14287933  0.29264228  1.0
  H  H23  1  0.34992152  0.03093449  0.20741192  1.0
  H  H24  1  0.55101006  0.87774391  0.63742853  1.0
  H  H25  1  0.74046953  0.91371255  0.86252761  1.0
  H  H26  1  0.44899261  0.12225915  0.36256930  1.0
  H  H27  1  0.25953473  0.08629359  0.13747450  1.0
  H  H28  1  0.11001740  0.87817296  0.65405072  1.0
  H  H29  1  0.72424799  0.45609823  0.84593099  1.0
  H  H30  1  0.88998438  0.12182701  0.34594916  1.0
  H  H31  1  0.27575140  0.54390636  0.15406923  1.0
  H  H32  1  0.85078220  0.90749217  0.51136615  1.0
  H  H33  1  0.89596829  0.33942177  0.98868562  1.0
  H  H34  1  0.14921875  0.09250088  0.48863169  1.0
  H  H35  1  0.10402941  0.66057821  0.01131374  1.0
  H  H36  1  0.00441557  0.90918608  0.49198421  1.0
  H  H37  1  0.91723296  0.51253322  0.00801420  1.0
  H  H38  1  0.99558361  0.09080619  0.50801452  1.0
  H  H39  1  0.08276893  0.48746829  0.99198617  1.0
  H  H40  1  0.93640662  0.75811685  0.08107308  1.0
  H  H41  1  0.17703031  0.85515499  0.41898969  1.0
  H  H42  1  0.06359385  0.24187927  0.91892603  1.0
  H  H43  1  0.82296423  0.14483882  0.58101165  1.0
  H  H44  1  0.82777504  0.74659783  0.10275778  1.0
  H  H45  1  0.14386556  0.72486218  0.39726210  1.0
  H  H46  1  0.17222323  0.25340061  0.89723845  1.0
  H  H47  1  0.85613034  0.27513162  0.60273980  1.0
  H  H48  1  0.92778623  0.93496348  0.14594856  1.0
  H  H49  1  0.28906846  0.78182654  0.35407109  1.0
  H  H50  1  0.07221222  0.06503265  0.85404991  1.0
  H  H51  1  0.71092647  0.21816803  0.64592995  1.0
  H  H52  1  0.03563755  0.94913586  0.12359736  1.0
  H  H53  1  0.32543283  0.91200751  0.37640694  1.0
  H  H54  1  0.96436458  0.05085949  0.87640465  1.0
  H  H55  1  0.67456143  0.08798707  0.62359402  1.0
  H  H56  1  0.94920897  0.81181856  0.20271374  1.0
  H  H57  1  0.10903957  0.74627291  0.29735202  1.0
  H  H58  1  0.05077917  0.18817603  0.79728565  1.0
  H  H59  1  0.89095350  0.25371935  0.70264982  1.0
  H  H60  1  0.06256431  0.93655713  0.22257311  1.0
  H  H61  1  0.21377285  0.83978543  0.27741457  1.0
  H  H62  1  0.93742722  0.06343743  0.77742982  1.0
  H  H63  1  0.78621885  0.16020682  0.72258670  1.0
  H  H64  1  0.06132653  0.83399890  0.18174588  1.0
  H  H65  1  0.15206039  0.87931853  0.31828191  1.0
  H  H66  1  0.93866586  0.16599336  0.81825782  1.0
  H  H67  1  0.84793269  0.12067374  0.68171994  1.0
  H  H68  1  0.85340620  0.88504355  0.04792384  1.0
  H  H69  1  0.33722092  0.80547600  0.45208549  1.0
  H  H70  1  0.14659949  0.11495874  0.95207746  1.0
  H  H71  1  0.66277508  0.19451935  0.54791534  1.0
  H  H72  1  0.68276132  0.79052847  0.92252689  1.0
  H  H73  1  0.36802347  0.76021015  0.57740937  1.0
  H  H74  1  0.31724237  0.20947921  0.07747327  1.0
  H  H75  1  0.63197351  0.23978443  0.42259467  1.0
  H  H76  1  0.65604171  0.68078034  0.89383922  1.0
  H  H77  1  0.28700550  0.76213969  0.60612967  1.0
  H  H78  1  0.34396787  0.31922423  0.10617089  1.0
  H  H79  1  0.71298597  0.23785875  0.39386802  1.0
  C  C80  1  0.89561220  0.81907195  0.84550106  1.0
  C  C81  1  0.47342406  0.04988251  0.65453455  1.0
  C  C82  1  0.10439144  0.18093033  0.15449841  1.0
  C  C83  1  0.52657449  0.95011516  0.34546596  1.0
  C  C84  1  0.91348954  0.83661289  0.79166993  1.0
  C  C85  1  0.54481386  0.12166848  0.70834993  1.0
  C  C86  1  0.08651264  0.16338786  0.20832927  1.0
  C  C87  1  0.45518078  0.87832686  0.29165189  1.0
  C  C88  1  0.84019116  0.84315801  0.75118182  1.0
  C  C89  1  0.59196391  0.08895303  0.74884739  1.0
  C  C90  1  0.15981045  0.15684428  0.24881739  1.0
  C  C91  1  0.40802920  0.91104462  0.25115475  1.0
  C  C92  1  0.85611626  0.86146897  0.70022271  1.0
  C  C93  1  0.66128323  0.15595873  0.79976764  1.0
  C  C94  1  0.14388501  0.13852870  0.29977620  1.0
  C  C95  1  0.33870893  0.84403970  0.20023443  1.0
  C  C96  1  0.94884400  0.87073510  0.69004741  1.0
  C  C97  1  0.68065160  0.25882082  0.80994035  1.0
  C  C98  1  0.05115512  0.12926103  0.30995114  1.0
  C  C99  1  0.31934231  0.74117838  0.19006043  1.0
  C  C100  1  0.02319362  0.86557280  0.73223943  1.0
  C  C101  1  0.63321152  0.29090886  0.76773877  1.0
  C  C102  1  0.97680584  0.13441870  0.26775890  1.0
  C  C103  1  0.36678148  0.70908726  0.23226133  1.0
  C  C104  1  0.00659994  0.84915454  0.78213796  1.0
  C  C105  1  0.56685497  0.22430524  0.71786819  1.0
  C  C106  1  0.99339868  0.15083928  0.21786001  1.0
  C  C107  1  0.43313763  0.77569010  0.28213142  1.0
  C  C108  1  0.56180350  0.91025624  0.53604737  1.0
  C  C109  1  0.87410626  0.02569730  0.96398875  1.0
  C  C110  1  0.43819997  0.08974836  0.46395182  1.0
  C  C111  1  0.12591950  0.97432427  0.03600880  1.0
  C  C112  1  0.63745865  0.89682261  0.57831554  1.0
  C  C113  1  0.81843117  0.05914851  0.92171690  1.0
  C  C114  1  0.36254353  0.10317814  0.42168288  1.0
  C  C115  1  0.18158004  0.94086457  0.07828220  1.0
  C  C116  1  0.72733930  0.90395808  0.56853940  1.0
  C  C117  1  0.83529376  0.15878856  0.93151162  1.0
  C  C118  1  0.27266169  0.09604036  0.43145913  1.0
  C  C119  1  0.16471100  0.84121989  0.06848717  1.0
  C  C120  1  0.79919786  0.88984856  0.60720836  1.0
  C  C121  1  0.78254455  0.19199844  0.89282583  1.0
  C  C122  1  0.20080194  0.11014757  0.39278872  1.0
  C  C123  1  0.21745025  0.80800384  0.10717445  1.0
  C  C124  1  0.78102009  0.87242750  0.65848900  1.0
  C  C125  1  0.71396384  0.12259918  0.84151033  1.0
  C  C126  1  0.21898061  0.12757171  0.34151031  1.0
  C  C127  1  0.28603046  0.87740079  0.15849054  1.0
  C  C128  1  0.69050011  0.86826844  0.66803804  1.0
  C  C129  1  0.70034760  0.02255882  0.83194450  1.0
  C  C130  1  0.30950217  0.13173386  0.33196087  1.0
  C  C131  1  0.29964737  0.97744114  0.16805918  1.0
  C  C132  1  0.61904838  0.87864357  0.62882541  1.0
  C  C133  1  0.74986179  0.99029465  0.87116959  1.0
  C  C134  1  0.38095400  0.12136026  0.37117320  1.0
  C  C135  1  0.25014197  0.00970918  0.12883233  1.0
  C  C136  1  0.16122372  0.89793988  0.56286935  1.0
  C  C137  1  0.83511382  0.59841677  0.93711118  1.0
  C  C138  1  0.83877834  0.10205933  0.43713053  1.0
  C  C139  1  0.16489655  0.40158936  0.06288820  1.0
  C  C140  1  0.06651250  0.89475685  0.57294438  1.0
  C  C141  1  0.82181147  0.49362469  0.92706191  1.0
  C  C142  1  0.93348651  0.10523773  0.42705485  1.0
  C  C143  1  0.17818945  0.50637760  0.07293760  1.0
  C  C144  1  0.05161101  0.88507910  0.62406674  1.0
  C  C145  1  0.76101803  0.42759346  0.87593687  1.0
  C  C146  1  0.94839026  0.11491857  0.37593334  1.0
  C  C147  1  0.23898057  0.57240960  0.12406239  1.0
  C  C148  1  0.96471866  0.88349614  0.63655437  1.0
  C  C149  1  0.74687616  0.32817893  0.86344239  1.0
  C  C150  1  0.03528036  0.11649844  0.36344486  1.0
  C  C151  1  0.25311989  0.67182182  0.13655758  1.0
  C  C152  1  0.89052463  0.89213452  0.59538186  1.0
  C  C153  1  0.79663296  0.29514685  0.90464967  1.0
  C  C154  1  0.10947545  0.10786084  0.40461677  1.0
  C  C155  1  0.20336388  0.70485543  0.09535009  1.0
  C  C156  1  0.90672030  0.90112132  0.54345794  1.0
  C  C157  1  0.85753344  0.36327733  0.95657677  1.0
  C  C158  1  0.09327831  0.09887249  0.45654041  1.0
  C  C159  1  0.14246437  0.63672419  0.04342308  1.0
  C  C160  1  0.99275637  0.90233118  0.53214300  1.0
  C  C161  1  0.87015426  0.46066777  0.96787787  1.0
  C  C162  1  0.00724224  0.09766263  0.46785613  1.0
  C  C163  1  0.12984649  0.53933683  0.03212214  1.0
  C  C164  1  0.89678179  0.79973081  0.09109052  1.0
  C  C165  1  0.20863043  0.80554691  0.40892822  1.0
  C  C166  1  0.10321989  0.20026763  0.90890810  1.0
  C  C167  1  0.79136411  0.19444690  0.59107351  1.0
  C  C168  1  0.97007813  0.89508013  0.13706507  1.0
  C  C169  1  0.25797215  0.83292769  0.36296097  1.0
  C  C170  1  0.02992099  0.10491599  0.86293504  1.0
  C  C171  1  0.74202278  0.16706688  0.63703968  1.0
  C  C172  1  0.01314074  0.86776258  0.18894372  1.0
  C  C173  1  0.17868933  0.82400794  0.31107894  1.0
  C  C174  1  0.98685107  0.13223121  0.81105765  1.0
  C  C175  1  0.82130344  0.17598509  0.68892212  1.0
  O  O176  1  0.96780858  0.81934638  0.88306446  1.0
  O  O177  1  0.43625575  0.08456518  0.61694108  1.0
  O  O178  1  0.03219502  0.18065052  0.11693276  1.0
  O  O179  1  0.56374455  0.91543325  0.38305891  1.0
  O  O180  1  0.81053895  0.80612587  0.85450978  1.0
  O  O181  1  0.45138236  0.95578404  0.64554486  1.0
  O  O182  1  0.18946894  0.19388336  0.14549141  1.0
  O  O183  1  0.54861794  0.04421439  0.35445475  1.0
  O  O184  1  0.46949645  0.87794668  0.54056210  1.0
  O  O185  1  0.83720303  0.92885154  0.95946591  1.0
  O  O186  1  0.53050702  0.12205792  0.45943865  1.0
  O  O187  1  0.16283597  0.07117464  0.04053399  1.0
  O  O188  1  0.59100925  0.95191806  0.49773670  1.0
  O  O189  1  0.95413714  0.09318101  0.00227783  1.0
  O  O190  1  0.40899229  0.04808809  0.50226272  1.0
  O  O191  1  0.04589320  0.90685214  0.99771472  1.0
  O  O192  1  0.18407659  0.91950458  0.51854076  1.0
  O  O193  1  0.90107680  0.66563670  0.98141055  1.0
  O  O194  1  0.81592479  0.08049462  0.48145903  1.0
  O  O195  1  0.09894399  0.33437253  0.01858567  1.0
  O  O196  1  0.22112098  0.88121255  0.59940165  1.0
  O  O197  1  0.78180162  0.62174773  0.90058963  1.0
  O  O198  1  0.77888148  0.11878742  0.40059793  1.0
  O  O199  1  0.21820479  0.37825994  0.09941362  1.0
  O  O200  1  0.86012708  0.82429262  0.04035411  1.0
  O  O201  1  0.28395242  0.81961121  0.45966760  1.0
  O  O202  1  0.13988681  0.17571507  0.95964582  1.0
  O  O203  1  0.71604505  0.18038567  0.54033389  1.0
  O  O204  1  0.68374498  0.72823454  0.92940920  1.0
  O  O205  1  0.29884412  0.75429208  0.57054476  1.0
  O  O206  1  0.31627014  0.27178083  0.07059794  1.0
  O  O207  1  0.70115415  0.24570634  0.42945497  1.0
