# generated using pymatgen
data_ZnH18C28SNO7
_symmetry_space_group_name_H-M   'P 1'
_cell_length_a   10.98243652
_cell_length_b   18.30283019
_cell_length_c   19.45202447
_cell_angle_alpha   90.38409344
_cell_angle_beta   91.53421542
_cell_angle_gamma   90.80829292
_symmetry_Int_Tables_number   1
_chemical_formula_structural   ZnH18C28SNO7
_chemical_formula_sum   'Zn2 H36 C56 S2 N2 O14'
_cell_volume   3908.15631884
_cell_formula_units_Z   2
loop_
 _symmetry_equiv_pos_site_id
 _symmetry_equiv_pos_as_xyz
  1  'x, y, z'
loop_
 _atom_site_type_symbol
 _atom_site_label
 _atom_site_symmetry_multiplicity
 _atom_site_fract_x
 _atom_site_fract_y
 _atom_site_fract_z
 _atom_site_occupancy
  Zn  Zn0  1  0.48917279  0.57784552  0.49985358  1.0
  Zn  Zn1  1  0.48437747  0.41992380  0.49792985  1.0
  H  H2  1  0.73246560  0.19172584  0.63627970  1.0
  H  H3  1  0.63847321  0.16965999  0.42619776  1.0
  H  H4  1  0.61604789  0.82945903  0.41475136  1.0
  H  H5  1  0.36568769  0.16835752  0.58273365  1.0
  H  H6  1  0.60408716  0.69270790  0.41606157  1.0
  H  H7  1  0.36398625  0.30431890  0.57479580  1.0
  H  H8  1  0.69588057  0.93305413  0.48259291  1.0
  H  H9  1  0.31224008  0.06398748  0.52648068  1.0
  H  H10  1  0.69539346  0.06795044  0.48344700  1.0
  H  H11  1  0.31366500  0.92914300  0.52717630  1.0
  H  H12  1  0.67435475  0.31532339  0.67864366  1.0
  H  H13  1  0.23266898  0.81782679  0.38564214  1.0
  H  H14  1  0.23604760  0.70594098  0.31212802  1.0
  H  H15  1  0.76539885  0.42611145  0.62895824  1.0
  H  H16  1  0.15512794  0.58798797  0.35559726  1.0
  H  H17  1  0.96925400  0.29322593  0.49032952  1.0
  H  H18  1  0.06018201  0.69344520  0.54462892  1.0
  H  H19  1  0.88095069  0.18134314  0.54203916  1.0
  H  H20  1  0.14261378  0.81131385  0.50193964  1.0
  H  H21  1  0.11068062  0.39064883  0.53357447  1.0
  H  H22  1  0.87018276  0.60809009  0.47451591  1.0
  H  H23  1  0.34354632  0.40878643  0.70545200  1.0
  H  H24  1  0.42179993  0.62085173  0.93581811  1.0
  H  H25  1  0.36046237  0.59322719  0.29229523  1.0
  H  H26  1  0.30970727  0.41256761  0.83129535  1.0
  H  H27  1  0.32215488  0.59118610  0.16549128  1.0
  H  H28  1  0.57056059  0.59024825  0.85145999  1.0
  H  H29  1  0.58613523  0.42049040  0.14700232  1.0
  H  H30  1  0.69479748  0.57308358  0.61567337  1.0
  H  H31  1  0.70243127  0.43365737  0.38911895  1.0
  H  H32  1  0.42765669  0.38574485  0.06182505  1.0
  H  H33  1  0.42839925  0.62111729  0.06291652  1.0
  H  H34  1  0.42244060  0.38547122  0.93476773  1.0
  H  H35  1  0.39421727  0.69253747  0.58966027  1.0
  H  H36  1  0.62738340  0.30441310  0.42613344  1.0
  H  H37  1  0.39292441  0.82899943  0.59463092  1.0
  C  C38  1  0.49576018  0.50471915  0.36814836  1.0
  C  C39  1  0.38721253  0.55365698  0.18887886  1.0
  C  C40  1  0.43542690  0.50277426  0.85055643  1.0
  C  C41  1  0.44809677  0.50391406  0.14715618  1.0
  C  C42  1  0.51586073  0.55231305  0.81973222  1.0
  C  C43  1  0.53171249  0.45628404  0.17850238  1.0
  C  C44  1  0.53243962  0.55108079  0.74894946  1.0
  C  C45  1  0.55081605  0.45676399  0.24965844  1.0
  C  C46  1  0.46998710  0.49921993  0.70709741  1.0
  C  C47  1  0.48755522  0.50544523  0.29126274  1.0
  C  C48  1  0.42342260  0.56915732  0.96338446  1.0
  C  C49  1  0.47947725  0.49736099  0.63051929  1.0
  C  C50  1  0.42680051  0.43746961  0.03427993  1.0
  C  C51  1  0.42585363  0.56924127  0.03492363  1.0
  C  C52  1  0.42248317  0.43735186  0.96273838  1.0
  C  C53  1  0.72765504  0.49809067  0.50680985  1.0
  C  C54  1  0.25303394  0.49657051  0.49381004  1.0
  C  C55  1  0.43138707  0.50346558  0.07161895  1.0
  C  C56  1  0.42449951  0.50321008  0.92602023  1.0
  C  C57  1  0.44011156  0.72540943  0.55146592  1.0
  C  C58  1  0.57190124  0.27241524  0.46063081  1.0
  C  C59  1  0.44031701  0.80120828  0.55373940  1.0
  C  C60  1  0.11655212  0.49962394  0.49552451  1.0
  C  C61  1  0.57755465  0.19672893  0.46121095  1.0
  C  C62  1  0.50423301  0.84101148  0.50467389  1.0
  C  C63  1  0.50238071  0.15646009  0.50457986  1.0
  C  C64  1  0.56624082  0.80139666  0.45471822  1.0
  C  C65  1  0.42448309  0.19614770  0.54670660  1.0
  C  C66  1  0.56030805  0.72566176  0.45498249  1.0
  C  C67  1  0.42350203  0.27174936  0.54315928  1.0
  C  C68  1  0.61136798  0.96176132  0.49165292  1.0
  C  C69  1  0.39725141  0.03553362  0.51830955  1.0
  C  C70  1  0.61096613  0.03772505  0.49210514  1.0
  C  C71  1  0.86342313  0.49727276  0.50938272  1.0
  C  C72  1  0.39784620  0.95962771  0.51848373  1.0
  C  C73  1  0.50383174  0.07596618  0.50529527  1.0
  C  C74  1  0.50485508  0.92152284  0.50503499  1.0
  C  C75  1  0.73942927  0.30985163  0.63764570  1.0
  C  C76  1  0.19822087  0.70325613  0.36338291  1.0
  C  C77  1  0.78992582  0.37260113  0.60902596  1.0
  C  C78  1  0.15238364  0.63712564  0.38752608  1.0
  C  C79  1  0.87311807  0.36750328  0.55566051  1.0
  C  C80  1  0.10340314  0.63264312  0.45331543  1.0
  C  C81  1  0.90566093  0.29782830  0.53223628  1.0
  C  C82  1  0.05014489  0.56310665  0.47920715  1.0
  C  C83  1  0.09890398  0.69631449  0.49360420  1.0
  C  C84  1  0.85539735  0.23507663  0.56112543  1.0
  C  C85  1  0.14568997  0.76251341  0.46952503  1.0
  C  C86  1  0.77198522  0.24082471  0.61388366  1.0
  C  C87  1  0.19598821  0.76622935  0.40448987  1.0
  C  C88  1  0.05551192  0.43732633  0.51900823  1.0
  C  C89  1  0.92403135  0.56037702  0.48770894  1.0
  C  C90  1  0.92953875  0.43402318  0.52655570  1.0
  C  C91  1  0.39168639  0.44901266  0.73806308  1.0
  C  C92  1  0.40771051  0.55470651  0.25975253  1.0
  C  C93  1  0.37337517  0.45106080  0.80853065  1.0
  S  S94  1  0.64260878  0.61570027  0.71738259  1.0
  S  S95  1  0.66463599  0.39571695  0.28274936  1.0
  N  N96  1  0.49836067  0.68834692  0.50258929  1.0
  N  N97  1  0.49547573  0.30944314  0.50051419  1.0
  O  O98  1  0.52798193  0.56384094  0.39880132  1.0
  O  O99  1  0.72382210  0.63330550  0.77445334  1.0
  O  O100  1  0.71859708  0.56763501  0.66585961  1.0
  O  O101  1  0.60765073  0.33232407  0.31270178  1.0
  O  O102  1  0.75124667  0.38648525  0.22943203  1.0
  O  O103  1  0.73266944  0.44289028  0.34167370  1.0
  O  O104  1  0.50840718  0.43736587  0.60236668  1.0
  O  O105  1  0.46566076  0.44479903  0.39583327  1.0
  O  O106  1  0.45520818  0.55681273  0.60018741  1.0
  O  O107  1  0.67429522  0.55423905  0.53060187  1.0
  O  O108  1  0.30178669  0.43566977  0.50906192  1.0
  O  O109  1  0.67177278  0.44388041  0.47805057  1.0
  O  O110  1  0.31022290  0.55476361  0.47854461  1.0
  O  O111  1  0.58246304  0.67363893  0.68040824  1.0
