# generated using pymatgen
data_AlH12C21NO12
_symmetry_space_group_name_H-M   'P 1'
_cell_length_a   4.18286195
_cell_length_b   13.46965307
_cell_length_c   13.46951047
_cell_angle_alpha   59.99974213
_cell_angle_beta   89.99986673
_cell_angle_gamma   89.99992600
_symmetry_Int_Tables_number   1
_chemical_formula_structural   AlH12C21NO12
_chemical_formula_sum   'Al1 H12 C21 N1 O12'
_cell_volume   657.22073522
_cell_formula_units_Z   1
loop_
 _symmetry_equiv_pos_site_id
 _symmetry_equiv_pos_as_xyz
  1  'x, y, z'
loop_
 _atom_site_type_symbol
 _atom_site_label
 _atom_site_symmetry_multiplicity
 _atom_site_fract_x
 _atom_site_fract_y
 _atom_site_fract_z
 _atom_site_occupancy
  Al  Al0  1  0.99999853  0.50000412  0.99999867  1.0
  H  H1  1  0.80885199  0.10626591  0.86417620  1.0
  H  H2  1  0.19119876  0.36417846  0.60626709  1.0
  H  H3  1  0.19112675  0.02955927  0.86417378  1.0
  H  H4  1  0.80882913  0.02955235  0.60627685  1.0
  H  H5  1  0.19107757  0.10628973  0.52955554  1.0
  H  H6  1  0.80893636  0.36414600  0.52956499  1.0
  H  H7  1  0.02383041  0.48917077  0.76617709  1.0
  H  H8  1  0.97624732  0.26617760  0.98916426  1.0
  H  H9  1  0.02374070  0.74465670  0.98916505  1.0
  H  H10  1  0.97618267  0.74465703  0.76618984  1.0
  H  H11  1  0.02373113  0.26621813  0.24464809  1.0
  H  H12  1  0.97627231  0.48913961  0.24465138  1.0
  C  C13  1  0.49999636  0.67833499  0.91084355  1.0
  C  C14  1  0.50000070  0.41083682  0.17833374  1.0
  C  C15  1  0.50003271  0.41083791  0.91082615  1.0
  C  C16  1  0.68468179  0.24709605  0.88684116  1.0
  C  C17  1  0.67308000  0.18527165  0.82963446  1.0
  C  C18  1  0.50003498  0.22737149  0.72737974  1.0
  C  C19  1  0.32697271  0.32964550  0.68525717  1.0
  C  C20  1  0.31539180  0.38685063  0.74709058  1.0
  C  C21  1  0.50003066  0.34752936  0.84751994  1.0
  C  C22  1  0.32688732  0.98509884  0.82964133  1.0
  C  C23  1  0.31530915  0.86605918  0.88685044  1.0
  C  C24  1  0.49995809  0.80494692  0.84753837  1.0
  C  C25  1  0.68460463  0.86605801  0.74710718  1.0
  C  C26  1  0.67302643  0.98508935  0.68527909  1.0
  C  C27  1  0.49998272  0.04525141  0.72737443  1.0
  C  C28  1  0.32688890  0.18527246  0.48509399  1.0
  C  C29  1  0.31531340  0.24711098  0.36605833  1.0
  C  C30  1  0.49999081  0.34752505  0.30494855  1.0
  C  C31  1  0.68470855  0.38683119  0.36606519  1.0
  C  C32  1  0.67310852  0.32961791  0.48509485  1.0
  C  C33  1  0.50001410  0.22737867  0.54525649  1.0
  N  N34  1  0.50000661  0.16666607  0.66666850  1.0
  O  O35  1  0.26238421  0.39620344  0.97717568  1.0
  O  O36  1  0.26235538  0.62662553  0.89620309  1.0
  O  O37  1  0.26236920  0.47717524  0.12663007  1.0
  O  O38  1  0.73764029  0.47718004  0.89619677  1.0
  O  O39  1  0.73762290  0.39620544  0.12662468  1.0
  O  O40  1  0.73761104  0.62662773  0.97717915  1.0
  O  O41  1  0.13009759  0.48340552  0.70431284  1.0
  O  O42  1  0.87000441  0.20432240  0.98339994  1.0
  O  O43  1  0.12996691  0.81228861  0.98339820  1.0
  O  O44  1  0.86992776  0.81227309  0.70433002  1.0
  O  O45  1  0.12992624  0.20434594  0.31227823  1.0
  O  O46  1  0.87006490  0.48337424  0.31228764  1.0
