# generated using pymatgen
data_Zn2H17C36I2N2ClO8
_symmetry_space_group_name_H-M   'P 1'
_cell_length_a   11.52638522
_cell_length_b   11.79887578
_cell_length_c   13.12201906
_cell_angle_alpha   89.86455656
_cell_angle_beta   77.94535424
_cell_angle_gamma   71.50146531
_symmetry_Int_Tables_number   1
_chemical_formula_structural   Zn2H17C36I2N2ClO8
_chemical_formula_sum   'Zn2 H17 C36 I2 N2 Cl1 O8'
_cell_volume   1651.11605013
_cell_formula_units_Z   1
loop_
 _symmetry_equiv_pos_site_id
 _symmetry_equiv_pos_as_xyz
  1  'x, y, z'
loop_
 _atom_site_type_symbol
 _atom_site_label
 _atom_site_symmetry_multiplicity
 _atom_site_fract_x
 _atom_site_fract_y
 _atom_site_fract_z
 _atom_site_occupancy
  Zn  Zn0  1  0.09890204  0.55104997  0.48446456  1.0
  Zn  Zn1  1  0.89709231  0.45757821  0.50668563  1.0
  H  H2  1  0.13743452  0.09710187  0.35837586  1.0
  H  H3  1  0.24129557  0.47842570  0.14078892  1.0
  H  H4  1  0.75029438  0.52127061  0.04230907  1.0
  H  H5  1  0.76471040  0.51710165  0.84968811  1.0
  H  H6  1  0.15214894  0.49437849  0.79548877  1.0
  H  H7  1  0.35763227  0.41446816  0.38835257  1.0
  H  H8  1  0.19275778  0.70180543  0.60879010  1.0
  H  H9  1  0.59775557  0.30635523  0.34962758  1.0
  H  H10  1  0.39854415  0.68987579  0.65190307  1.0
  H  H11  1  0.80447621  0.29951758  0.38813068  1.0
  H  H12  1  0.63813537  0.58429033  0.61115758  1.0
  H  H13  1  0.30305080  0.89841441  0.31114456  1.0
  H  H14  1  0.89709823  0.92753163  0.55865790  1.0
  H  H15  1  0.54603464  0.18295656  0.53075658  1.0
  H  H16  1  0.75473665  0.13977336  0.56961191  1.0
  H  H17  1  0.69707536  0.70301941  0.39977952  1.0
  H  H18  1  0.85102385  0.51076189  0.19187979  1.0
  C  C19  1  0.96730968  0.50894651  0.69729603  1.0
  C  C20  1  0.56542717  0.99824892  0.49399640  1.0
  C  C21  1  0.65307952  0.87963394  0.47587764  1.0
  C  C22  1  0.44230361  0.02202610  0.46959018  1.0
  C  C23  1  0.42530318  0.93607065  0.40097939  1.0
  C  C24  1  0.52293875  0.82198693  0.37624134  1.0
  C  C25  1  0.62747128  0.79162845  0.41700393  1.0
  C  C26  1  0.33666570  0.12586114  0.50683360  1.0
  C  C27  1  0.22141295  0.07317572  0.39031623  1.0
  C  C28  1  0.77078388  0.85504837  0.50523998  1.0
  C  C29  1  0.04424178  0.49498719  0.17717805  1.0
  C  C30  1  0.85970112  0.73013667  0.50248692  1.0
  C  C31  1  0.95993750  0.50639543  0.81244392  1.0
  C  C32  1  0.83867616  0.51316724  0.98790410  1.0
  C  C33  1  0.84587412  0.51206620  0.88190509  1.0
  C  C34  1  0.06561388  0.49805553  0.85021774  1.0
  C  C35  1  0.06234494  0.49419759  0.95830312  1.0
  C  C36  1  0.94559042  0.50390695  0.02938193  1.0
  C  C37  1  0.93951836  0.50333813  0.13807033  1.0
  C  C38  1  0.16007525  0.48492024  0.10835445  1.0
  C  C39  1  0.16850097  0.48295911  0.00217670  1.0
  C  C40  1  0.60263748  0.36895622  0.40825381  1.0
  C  C41  1  0.03579089  0.49782307  0.29266844  1.0
  C  C42  1  0.71614233  0.36407895  0.42905448  1.0
  C  C43  1  0.62397485  0.52381926  0.55578321  1.0
  C  C44  1  0.50293559  0.53728906  0.53965628  1.0
  C  C45  1  0.49270163  0.45777448  0.46297294  1.0
  C  C46  1  0.37194822  0.47373512  0.44474383  1.0
  C  C47  1  0.28063828  0.63554140  0.56934563  1.0
  C  C48  1  0.39345467  0.62752426  0.59315563  1.0
  C  C49  1  0.12986621  0.27584119  0.48160424  1.0
  C  C50  1  0.31433146  0.96411835  0.36311444  1.0
  C  C51  1  0.23079056  0.15542815  0.46305734  1.0
  C  C52  1  0.80541031  0.94836844  0.53944064  1.0
  C  C53  1  0.72461500  0.06662105  0.54687479  1.0
  C  C54  1  0.60662373  0.09053234  0.52573066  1.0
  I  I55  1  0.50788603  0.69257427  0.27258587  1.0
  I  I56  1  0.31628456  0.22350067  0.65003879  1.0
  N  N57  1  0.27109325  0.55921364  0.49580471  1.0
  N  N58  1  0.72573956  0.44140339  0.50175125  1.0
  Cl  Cl59  1  0.31312724  0.46629551  0.91961528  1.0
  O  O60  1  0.04447602  0.55544510  0.64500882  1.0
  O  O61  1  0.89592954  0.46378669  0.66114305  1.0
  O  O62  1  0.97667745  0.71698885  0.48114061  1.0
  O  O63  1  0.81225038  0.64709061  0.52460404  1.0
  O  O64  1  0.12334950  0.51974611  0.32564360  1.0
  O  O65  1  0.94022159  0.47888426  0.34920628  1.0
  O  O66  1  0.16840029  0.36474407  0.48634633  1.0
  O  O67  1  0.01719155  0.28126078  0.48443544  1.0
