# generated using pymatgen
data_ZnH16C24I9NO4
_symmetry_space_group_name_H-M   'P 1'
_cell_length_a   14.54975483
_cell_length_b   15.96249099
_cell_length_c   16.07472618
_cell_angle_alpha   90.91752598
_cell_angle_beta   90.78528994
_cell_angle_gamma   93.28029890
_symmetry_Int_Tables_number   1
_chemical_formula_structural   ZnH16C24I9NO4
_chemical_formula_sum   'Zn2 H32 C48 I18 N2 O8'
_cell_volume   3726.36582617
_cell_formula_units_Z   2
loop_
 _symmetry_equiv_pos_site_id
 _symmetry_equiv_pos_as_xyz
  1  'x, y, z'
loop_
 _atom_site_type_symbol
 _atom_site_label
 _atom_site_symmetry_multiplicity
 _atom_site_fract_x
 _atom_site_fract_y
 _atom_site_fract_z
 _atom_site_occupancy
  Zn  Zn0  1  0.40393878  0.49473242  0.49463417  1.0
  Zn  Zn1  1  0.59695994  0.50789566  0.49987526  1.0
  H  H2  1  0.05537279  0.54218910  0.61863845  1.0
  H  H3  1  0.35085337  0.15879649  0.44297133  1.0
  H  H4  1  0.30556485  0.07599941  0.37665036  1.0
  H  H5  1  0.33952511  0.64730788  0.00954641  1.0
  H  H6  1  0.32371486  0.58547771  0.10028628  1.0
  H  H7  1  0.41334792  0.66614743  0.09814851  1.0
  H  H8  1  0.95434824  0.71751920  0.52289958  1.0
  H  H9  1  0.95933213  0.66333454  0.42685533  1.0
  H  H10  1  0.85307247  0.66493593  0.48013998  1.0
  H  H11  1  0.93807350  0.40409145  0.29490153  1.0
  H  H12  1  0.95888993  0.35306030  0.38957051  1.0
  H  H13  1  0.46077062  0.92914867  0.38397465  1.0
  H  H14  1  0.84731001  0.38874100  0.36662267  1.0
  H  H15  1  0.94946888  0.47310656  0.67595323  1.0
  H  H16  1  0.83818225  0.43094209  0.64512186  1.0
  H  H17  1  0.92668963  0.36335418  0.67116452  1.0
  H  H18  1  0.72862810  0.55534685  0.00181133  1.0
  H  H19  1  0.68330182  0.60269550  0.09264694  1.0
  H  H20  1  0.70878792  0.49476404  0.09285735  1.0
  H  H21  1  0.42974583  0.29071739  0.00711105  1.0
  H  H22  1  0.50312520  0.31201630  0.09560175  1.0
  H  H23  1  0.38597061  0.33851479  0.09840655  1.0
  H  H24  1  0.64900040  0.03921624  0.62946362  1.0
  H  H25  1  0.74584806  0.93187426  0.48707989  1.0
  H  H26  1  0.69306390  0.92272741  0.58560303  1.0
  H  H27  1  0.67247515  0.84238599  0.50922828  1.0
  H  H28  1  0.74014010  0.05950084  0.55981753  1.0
  H  H29  1  0.66886219  0.14140986  0.58835752  1.0
  H  H30  1  0.31498413  0.02996179  0.57777170  1.0
  H  H31  1  0.34640877  0.06356365  0.67884387  1.0
  H  H32  1  0.35472143  0.13738178  0.59728082  1.0
  H  H33  1  0.29172416  0.06791560  0.48385734  1.0
  C  C34  1  0.50313360  0.66348823  0.50030979  1.0
  C  C35  1  0.60138917  0.95475271  0.48226260  1.0
  C  C36  1  0.60638252  0.05151059  0.49896459  1.0
  C  C37  1  0.49812181  0.50113571  0.65834564  1.0
  C  C38  1  0.50184675  0.24931434  0.50674711  1.0
  C  C39  1  0.49947981  0.91969637  0.51054390  1.0
  C  C40  1  0.43276260  0.04931587  0.43945315  1.0
  C  C41  1  0.50471332  0.08378849  0.51032840  1.0
  C  C42  1  0.46322507  0.04931701  0.59926130  1.0
  C  C43  1  0.47534267  0.95221955  0.60147021  1.0
  C  C44  1  0.50647107  0.17400153  0.51160194  1.0
  C  C45  1  0.49544979  0.49744354  0.91095549  1.0
  C  C46  1  0.49673121  0.82929860  0.50745426  1.0
  C  C47  1  0.50046463  0.75372379  0.50366506  1.0
  C  C48  1  0.95014423  0.58415916  0.53687858  1.0
  C  C49  1  0.49911540  0.33919933  0.50079822  1.0
  C  C50  1  0.94823079  0.48891658  0.40034973  1.0
  C  C51  1  0.05500899  0.50782934  0.40304659  1.0
  C  C52  1  0.91201621  0.49630335  0.49538853  1.0
  C  C53  1  0.05097587  0.56906728  0.55657565  1.0
  C  C54  1  0.08780402  0.49718744  0.49688013  1.0
  C  C55  1  0.04895689  0.41256315  0.54097039  1.0
  C  C56  1  0.47311134  0.42010237  0.02571210  1.0
  C  C57  1  0.94198780  0.41750567  0.55024024  1.0
  C  C58  1  0.18740726  0.49885252  0.49862107  1.0
  C  C59  1  0.81289316  0.49683489  0.49436373  1.0
  C  C60  1  0.50152025  0.49942651  0.33598178  1.0
  C  C61  1  0.43945088  0.55565010  0.02714017  1.0
  C  C62  1  0.52402686  0.57546184  0.96981076  1.0
  C  C63  1  0.49638109  0.49931738  0.74803380  1.0
  C  C64  1  0.50268916  0.49904134  0.24616063  1.0
  C  C65  1  0.41244017  0.47656508  0.97100425  1.0
  C  C66  1  0.66953138  0.07421261  0.57408167  1.0
  C  C67  1  0.50215592  0.49981500  0.08266948  1.0
  C  C68  1  0.36339698  0.07181126  0.61332579  1.0
  C  C69  1  0.33952263  0.09046751  0.43663463  1.0
  C  C70  1  0.37545940  0.61708247  0.06058891  1.0
  C  C71  1  0.92769858  0.66157334  0.48802058  1.0
  C  C72  1  0.92136389  0.40308200  0.36100267  1.0
  C  C73  1  0.91211008  0.42225380  0.64091096  1.0
  C  C74  1  0.68235235  0.54481044  0.05458603  1.0
  C  C75  1  0.44641397  0.33559267  0.05843420  1.0
  C  C76  1  0.68290176  0.91033711  0.51905547  1.0
  C  C77  1  0.55679755  0.44273079  0.96836718  1.0
  C  C78  1  0.58710621  0.52102196  0.02443559  1.0
  C  C79  1  0.49452647  0.49760248  0.82358155  1.0
  C  C80  1  0.50348088  0.49965077  0.17044266  1.0
  C  C81  1  0.43230109  0.95323704  0.44161483  1.0
  I  I82  1  0.56233531  0.69629116  0.92471054  1.0
  I  I83  1  0.11266599  0.63079770  0.35827510  1.0
  I  I84  1  0.12884854  0.42946107  0.31217948  1.0
  I  I85  1  0.85037649  0.29818465  0.51653451  1.0
  I  I86  1  0.12763202  0.41276854  0.66505324  1.0
  I  I87  1  0.88161146  0.62070156  0.65651426  1.0
  I  I88  1  0.09681548  0.29529547  0.48986892  1.0
  I  I89  1  0.64718317  0.35437062  0.92126202  1.0
  I  I90  1  0.27623341  0.44232485  0.92904627  1.0
  I  I91  1  0.47488249  0.09087912  0.30925926  1.0
  I  I92  1  0.61862843  0.90890059  0.34898837  1.0
  I  I93  1  0.69164992  0.12742054  0.40702956  1.0
  I  I94  1  0.34788708  0.87898857  0.64642357  1.0
  I  I95  1  0.56781853  0.90540095  0.69975807  1.0
  I  I96  1  0.29680126  0.88745378  0.42288215  1.0
  I  I97  1  0.52300670  0.12675268  0.70883364  1.0
  I  I98  1  0.14178950  0.67931398  0.58226215  1.0
  I  I99  1  0.87100752  0.56647760  0.31167314  1.0
  N  N100  1  0.26652727  0.49684991  0.49528938  1.0
  N  N101  1  0.73441328  0.50394870  0.49801350  1.0
  O  O102  1  0.42569951  0.62296524  0.50385082  1.0
  O  O103  1  0.58251224  0.63456171  0.49431493  1.0
  O  O104  1  0.42071545  0.48877406  0.62112321  1.0
  O  O105  1  0.57671100  0.51476887  0.62582014  1.0
  O  O106  1  0.42011696  0.36762265  0.48933953  1.0
  O  O107  1  0.57644671  0.37997762  0.50759402  1.0
  O  O108  1  0.42257683  0.50049085  0.36910508  1.0
  O  O109  1  0.57936219  0.49884558  0.37298498  1.0
