# generated using pymatgen
data_ZnH9C11S2(NO2)2
_symmetry_space_group_name_H-M   'P 1'
_cell_length_a   10.93084281
_cell_length_b   11.43369157
_cell_length_c   12.72514198
_cell_angle_alpha   89.80364518
_cell_angle_beta   87.20270527
_cell_angle_gamma   89.38753511
_symmetry_Int_Tables_number   1
_chemical_formula_structural   ZnH9C11S2(NO2)2
_chemical_formula_sum   'Zn2 H18 C22 S4 N4 O8'
_cell_volume   1588.39427279
_cell_formula_units_Z   2
loop_
 _symmetry_equiv_pos_site_id
 _symmetry_equiv_pos_as_xyz
  1  'x, y, z'
loop_
 _atom_site_type_symbol
 _atom_site_label
 _atom_site_symmetry_multiplicity
 _atom_site_fract_x
 _atom_site_fract_y
 _atom_site_fract_z
 _atom_site_occupancy
  Zn  Zn0  1  0.50406398  0.62317265  0.50062320  1.0
  Zn  Zn1  1  0.50272554  0.38096527  0.50094520  1.0
  H  H2  1  0.64947046  0.16836628  0.58752516  1.0
  H  H3  1  0.49354511  0.31099427  0.85980755  1.0
  H  H4  1  0.88849920  0.47726582  0.66328404  1.0
  H  H5  1  0.88929990  0.62486985  0.62166391  1.0
  H  H6  1  0.10329776  0.62137173  0.62416156  1.0
  H  H7  1  0.10193601  0.47116141  0.65748445  1.0
  H  H8  1  0.09965639  0.68408326  0.43666412  1.0
  H  H9  1  0.11518935  0.58126059  0.33317609  1.0
  H  H10  1  0.88744201  0.67421943  0.42610688  1.0
  H  H11  1  0.90295022  0.56054929  0.33273835  1.0
  H  H12  1  0.90331449  0.31620187  0.52758314  1.0
  H  H13  1  0.89914328  0.34930917  0.39268895  1.0
  H  H14  1  0.11284781  0.36336935  0.37887091  1.0
  H  H15  1  0.11738725  0.31803683  0.51101239  1.0
  H  H16  1  0.26092001  0.88650379  0.38109566  1.0
  H  H17  1  0.30276613  0.74432719  0.41849189  1.0
  H  H18  1  0.52672971  0.77048504  0.09542968  1.0
  H  H19  1  0.51398784  0.71844404  0.22369433  1.0
  C  C20  1  0.49086372  0.49364919  0.70570870  1.0
  C  C21  1  0.74224808  0.50117642  0.49941038  1.0
  C  C22  1  0.50601618  0.49788472  0.29413377  1.0
  C  C23  1  0.26096611  0.50708101  0.49289381  1.0
  C  C24  1  0.41940593  0.87370013  0.45864928  1.0
  C  C25  1  0.57554719  0.12940761  0.54570235  1.0
  C  C26  1  0.55087784  0.00944934  0.53152521  1.0
  C  C27  1  0.44679843  0.99483542  0.47287549  1.0
  C  C28  1  0.49716357  0.59501229  0.11335436  1.0
  C  C29  1  0.49244518  0.40042143  0.88866589  1.0
  C  C30  1  0.49924388  0.49748866  0.18038984  1.0
  C  C31  1  0.49045313  0.49568396  0.82157115  1.0
  C  C32  1  0.49331915  0.43579577  0.99485760  1.0
  C  C33  1  0.49310306  0.55806304  0.00681267  1.0
  C  C34  1  0.92644885  0.53739001  0.60266505  1.0
  C  C35  1  0.06828578  0.53577860  0.60127512  1.0
  C  C36  1  0.12162390  0.50529750  0.48954221  1.0
  C  C37  1  0.07252513  0.59634920  0.41214822  1.0
  C  C38  1  0.93105858  0.58868859  0.41050243  1.0
  C  C39  1  0.88220745  0.50039612  0.49414409  1.0
  C  C40  1  0.93558009  0.37882246  0.46694330  1.0
  C  C41  1  0.07703709  0.38326714  0.45922430  1.0
  S  S42  1  0.61021834  0.87527667  0.56447900  1.0
  S  S43  1  0.38854044  0.12877600  0.43975103  1.0
  S  S44  1  0.49508475  0.36396842  0.11418917  1.0
  S  S45  1  0.48889010  0.62901476  0.88713445  1.0
  N  N46  1  0.50083234  0.80328160  0.50361744  1.0
  N  N47  1  0.49637238  0.20015886  0.50073030  1.0
  N  N48  1  0.32611275  0.83071384  0.40533238  1.0
  N  N49  1  0.49428517  0.70894355  0.14665047  1.0
  O  O50  1  0.47866773  0.59205873  0.65919464  1.0
  O  O51  1  0.50368390  0.39392854  0.66191736  1.0
  O  O52  1  0.68847044  0.40339438  0.49358961  1.0
  O  O53  1  0.68892830  0.60050073  0.51047000  1.0
  O  O54  1  0.49824658  0.39912694  0.34152811  1.0
  O  O55  1  0.51958743  0.59738465  0.33927952  1.0
  O  O56  1  0.31448709  0.60588790  0.48247151  1.0
  O  O57  1  0.31591167  0.41111345  0.50956892  1.0
