# generated using pymatgen
data_ZnH4C14NO4
_symmetry_space_group_name_H-M   'P 1'
_cell_length_a   14.48335806
_cell_length_b   14.87633143
_cell_length_c   16.17570929
_cell_angle_alpha   90.00122800
_cell_angle_beta   90.35669703
_cell_angle_gamma   89.99778819
_symmetry_Int_Tables_number   1
_chemical_formula_structural   ZnH4C14NO4
_chemical_formula_sum   'Zn2 H8 C28 N2 O8'
_cell_volume   3485.13840290
_cell_formula_units_Z   2
loop_
 _symmetry_equiv_pos_site_id
 _symmetry_equiv_pos_as_xyz
  1  'x, y, z'
loop_
 _atom_site_type_symbol
 _atom_site_label
 _atom_site_symmetry_multiplicity
 _atom_site_fract_x
 _atom_site_fract_y
 _atom_site_fract_z
 _atom_site_occupancy
  Zn  Zn0  1  0.50000186  0.40466920  0.49999863  1.0
  Zn  Zn1  1  0.49999928  0.59533046  0.50000175  1.0
  H  H2  1  0.60440061  0.91604386  0.59616599  1.0
  H  H3  1  0.39559845  0.08395513  0.40383315  1.0
  H  H4  1  0.39559905  0.91604738  0.40383276  1.0
  H  H5  1  0.60440002  0.08395229  0.59616700  1.0
  H  H6  1  0.49966352  0.35514842  0.92290281  1.0
  H  H7  1  0.50033693  0.64485191  0.07709695  1.0
  H  H8  1  0.49978024  0.35515483  0.07709447  1.0
  H  H9  1  0.50022090  0.64484551  0.92290591  1.0
  C  C10  1  0.50008425  0.50000136  0.74987335  1.0
  C  C11  1  0.49970382  0.49999866  0.33940403  1.0
  C  C12  1  0.68022179  0.50000066  0.50032357  1.0
  C  C13  1  0.31977867  0.50000034  0.49967804  1.0
  C  C14  1  0.49999809  0.18872215  0.50000142  1.0
  C  C15  1  0.50000029  0.81127617  0.49999957  1.0
  C  C16  1  0.77999541  0.49999687  0.50015412  1.0
  C  C17  1  0.22000366  0.50000414  0.49984563  1.0
  C  C18  1  0.86475070  0.49999805  0.50007957  1.0
  C  C19  1  0.13525043  0.50000161  0.49991834  1.0
  C  C20  1  0.95737922  0.50000043  0.50001137  1.0
  C  C21  1  0.49991413  0.49999830  0.25012640  1.0
  C  C22  1  0.04262052  0.50000192  0.49998591  1.0
  C  C23  1  0.55918468  0.04665578  0.55449392  1.0
  C  C24  1  0.44081301  0.95334254  0.44550583  1.0
  C  C25  1  0.44081051  0.04665865  0.44550672  1.0
  C  C26  1  0.55918786  0.95334168  0.55449304  1.0
  C  C27  1  0.49988870  0.41824257  0.04287042  1.0
  C  C28  1  0.50011244  0.58175709  0.95712996  1.0
  C  C29  1  0.49982311  0.41823224  0.95713314  1.0
  C  C30  1  0.50017803  0.58176742  0.04286724  1.0
  C  C31  1  0.50005084  0.50000517  0.08724770  1.0
  C  C32  1  0.49995030  0.49999584  0.91275268  1.0
  C  C33  1  0.50001631  0.50000349  0.17476326  1.0
  C  C34  1  0.49998414  0.49999618  0.82523712  1.0
  C  C35  1  0.49999732  0.09313003  0.50000171  1.0
  C  C36  1  0.50000037  0.90686963  0.49999928  1.0
  C  C37  1  0.50029593  0.50000167  0.66059572  1.0
  N  N38  1  0.49999709  0.73331676  0.50000250  1.0
  N  N39  1  0.50000128  0.26668357  0.49999787  1.0
  O  O40  1  0.50039156  0.42323570  0.62547384  1.0
  O  O41  1  0.49961096  0.57676396  0.37452592  1.0
  O  O42  1  0.49960863  0.42323350  0.37452439  1.0
  O  O43  1  0.50039044  0.57676616  0.62547598  1.0
  O  O44  1  0.64143691  0.42316184  0.50039699  1.0
  O  O45  1  0.35856353  0.57683916  0.49960091  1.0
  O  O46  1  0.35856331  0.42316216  0.49960804  1.0
  O  O47  1  0.64143716  0.57683952  0.50039852  1.0
