# generated using pymatgen
data_MnH9C11N2O5
_symmetry_space_group_name_H-M   'P 1'
_cell_length_a   12.51868906
_cell_length_b   12.63103996
_cell_length_c   12.63103837
_cell_angle_alpha   75.78424310
_cell_angle_beta   60.29381290
_cell_angle_gamma   60.29375389
_symmetry_Int_Tables_number   1
_chemical_formula_structural   MnH9C11N2O5
_chemical_formula_sum   'Mn4 H36 C44 N8 O20'
_cell_volume   1506.79585924
_cell_formula_units_Z   4
loop_
 _symmetry_equiv_pos_site_id
 _symmetry_equiv_pos_as_xyz
  1  'x, y, z'
loop_
 _atom_site_type_symbol
 _atom_site_label
 _atom_site_symmetry_multiplicity
 _atom_site_fract_x
 _atom_site_fract_y
 _atom_site_fract_z
 _atom_site_occupancy
  Mn  Mn0  1  0.18126029  0.99999989  0.63748084  1.0
  Mn  Mn1  1  0.43125914  0.13748070  0.49999994  1.0
  Mn  Mn2  1  0.81873968  0.99999990  0.36251983  1.0
  Mn  Mn3  1  0.06874053  0.86251973  0.50000072  1.0
  H  H4  1  0.66694316  0.87263636  0.36767591  1.0
  H  H5  1  0.78958055  0.86767600  0.62736248  1.0
  H  H6  1  0.90725522  0.12736402  0.63232327  1.0
  H  H7  1  0.28461911  0.13232349  0.37263522  1.0
  H  H8  1  0.58305705  0.13232434  0.62736391  1.0
  H  H9  1  0.96538173  0.12736406  0.36767622  1.0
  H  H10  1  0.34274282  0.86767697  0.37263782  1.0
  H  H11  1  0.46042191  0.87263541  0.63232281  1.0
  H  H12  1  0.88728986  0.31365636  0.56097116  1.0
  H  H13  1  0.45094574  0.06097202  0.18634298  1.0
  H  H14  1  0.76191793  0.68634403  0.43902720  1.0
  H  H15  1  0.69826149  0.93902748  0.81365639  1.0
  H  H16  1  0.36271083  0.93902759  0.18634448  1.0
  H  H17  1  0.55173947  0.68634309  0.56097211  1.0
  H  H18  1  0.48808331  0.06097190  0.81365592  1.0
  H  H19  1  0.79905522  0.31365546  0.43902774  1.0
  H  H20  1  0.12196269  0.50000066  0.50000034  1.0
  H  H21  1  0.87196330  0.99999983  0.99999959  1.0
  H  H22  1  0.12803666  0.99999996  0.00000029  1.0
  H  H23  1  0.37803698  0.49999977  0.50000033  1.0
  H  H24  1  0.75628053  0.66677798  0.26603272  1.0
  H  H25  1  0.67305812  0.76603289  0.83322268  1.0
  H  H26  1  0.68909072  0.33322239  0.73396666  1.0
  H  H27  1  0.27231397  0.23396751  0.16677759  1.0
  H  H28  1  0.49371911  0.23396649  0.83322280  1.0
  H  H29  1  0.97768691  0.33322246  0.26603263  1.0
  H  H30  1  0.56090743  0.76603392  0.16677839  1.0
  H  H31  1  0.57694156  0.66677792  0.73396789  1.0
  H  H32  1  0.73555017  0.79539852  0.16677787  1.0
  H  H33  1  0.78094919  0.66677884  0.70460165  1.0
  H  H34  1  0.69772646  0.20460191  0.83322157  1.0
  H  H35  1  0.15232937  0.33322156  0.29539792  1.0
  H  H36  1  0.51444873  0.33322239  0.70460216  1.0
  H  H37  1  0.09767167  0.20460200  0.16677812  1.0
  H  H38  1  0.55227317  0.66677802  0.29539804  1.0
  H  H39  1  0.46905124  0.79539838  0.83322187  1.0
  C  C40  1  0.11784184  0.27663344  0.55898658  1.0
  C  C41  1  0.64447804  0.05898588  0.22336478  1.0
  C  C42  1  0.95346223  0.72336697  0.44101452  1.0
  C  C43  1  0.92682916  0.94101364  0.77663235  1.0
  C  C44  1  0.13215839  0.94101280  0.22336806  1.0
  C  C45  1  0.32317020  0.72336607  0.55898589  1.0
  C  C46  1  0.29653715  0.05898575  0.77663413  1.0
  C  C47  1  0.60552525  0.27663251  0.44101289  1.0
  C  C48  1  0.01474464  0.39465783  0.53308372  1.0
  C  C49  1  0.65940174  0.03308406  0.10534152  1.0
  C  C50  1  0.94248560  0.60534257  0.46691636  1.0
  C  C51  1  0.79782839  0.96691636  0.89465754  1.0
  C  C52  1  0.23525596  0.96691648  0.10534200  1.0
  C  C53  1  0.45217215  0.60534168  0.53308398  1.0
  C  C54  1  0.30751482  0.03308299  0.89465792  1.0
  C  C55  1  0.59059760  0.39465782  0.46691696  1.0
  C  C56  1  0.90159102  0.39601686  0.53448286  1.0
  C  C57  1  0.54760708  0.03448320  0.10398264  1.0
  C  C58  1  0.83209027  0.60398353  0.46551667  1.0
  C  C59  1  0.68607411  0.96551722  0.89601586  1.0
  C  C60  1  0.34840984  0.96551643  0.10398368  1.0
  C  C61  1  0.56392671  0.60398260  0.53448335  1.0
  C  C62  1  0.41790988  0.03448305  0.89601680  1.0
  C  C63  1  0.70239357  0.39601594  0.46551657  1.0
  C  C64  1  0.80923072  0.49999974  0.49999947  1.0
  C  C65  1  0.55922996  0.99999981  0.99999996  1.0
  C  C66  1  0.44076976  0.99999981  0.00000013  1.0
  C  C67  1  0.69077052  0.49999973  0.49999964  1.0
  C  C68  1  0.03493608  0.50000066  0.50000022  1.0
  C  C69  1  0.78493577  0.99999982  0.99999992  1.0
  C  C70  1  0.21506419  0.99999996  0.00000075  1.0
  C  C71  1  0.46506451  0.49999977  0.50000079  1.0
  C  C72  1  0.47814062  0.89685835  0.39685964  1.0
  C  C73  1  0.62500004  0.89686558  0.60313525  1.0
  C  C74  1  0.77186688  0.10313295  0.60313362  1.0
  C  C75  1  0.12500069  0.10313208  0.39686718  1.0
  C  C76  1  0.68180252  0.75717878  0.25288834  1.0
  C  C77  1  0.68898135  0.75288920  0.74282264  1.0
  C  C78  1  0.69186936  0.24282255  0.74711151  1.0
  C  C79  1  0.18469246  0.24711211  0.25717734  1.0
  C  C80  1  0.56819555  0.24711202  0.74282301  1.0
  C  C81  1  0.06530813  0.24282263  0.25288806  1.0
  C  C82  1  0.55812925  0.75288930  0.25717882  1.0
  C  C83  1  0.56101907  0.75717776  0.74711152  1.0
  N  N84  1  0.61623264  0.83795965  0.35470906  1.0
  N  N85  1  0.70419194  0.85470912  0.66204126  1.0
  N  N86  1  0.80890058  0.16204169  0.64529252  1.0
  N  N87  1  0.22094415  0.14529219  0.33795761  1.0
  N  N88  1  0.63376378  0.14529212  0.66204227  1.0
  N  N89  1  0.02905779  0.16204173  0.35470731  1.0
  N  N90  1  0.44109876  0.85470920  0.33795987  1.0
  N  N91  1  0.54580715  0.83795865  0.64529179  1.0
  O  O92  1  0.07834805  0.19575228  0.62005164  1.0
  O  O93  1  0.52409742  0.12005302  0.30424866  1.0
  O  O94  1  0.89415217  0.80424812  0.37994704  1.0
  O  O95  1  0.94840040  0.87994832  0.69575227  1.0
  O  O96  1  0.17165249  0.87994746  0.30424754  1.0
  O  O97  1  0.30160050  0.80424811  0.62005301  1.0
  O  O98  1  0.35584968  0.12005110  0.69575096  1.0
  O  O99  1  0.72589974  0.19575229  0.37994808  1.0
  O  O100  1  0.23982326  0.26496636  0.51065238  1.0
  O  O101  1  0.75478686  0.01065409  0.23503360  1.0
  O  O102  1  0.01543945  0.73503405  0.48934816  1.0
  O  O103  1  0.00047483  0.98934818  0.76496513  1.0
  O  O104  1  0.01017818  0.98934733  0.23503434  1.0
  O  O105  1  0.24952590  0.73503315  0.51065459  1.0
  O  O106  1  0.23455900  0.01065218  0.76496669  1.0
  O  O107  1  0.49521163  0.26496547  0.48934779  1.0
  O  O108  1  0.39594233  0.97905750  0.47905819  1.0
  O  O109  1  0.62499958  0.97905655  0.52094379  1.0
  O  O110  1  0.85405372  0.02094565  0.52094649  1.0
  O  O111  1  0.12500070  0.02094567  0.47905299  1.0
