# generated using pymatgen
data_Al2H5C12BrO12
_symmetry_space_group_name_H-M   'P 1'
_cell_length_a   6.67509729
_cell_length_b   14.06549928
_cell_length_c   17.40982110
_cell_angle_alpha   93.46779193
_cell_angle_beta   89.66840042
_cell_angle_gamma   89.58238687
_symmetry_Int_Tables_number   1
_chemical_formula_structural   Al2H5C12BrO12
_chemical_formula_sum   'Al4 H10 C24 Br2 O24'
_cell_volume   1631.51522032
_cell_formula_units_Z   2
loop_
 _symmetry_equiv_pos_site_id
 _symmetry_equiv_pos_as_xyz
  1  'x, y, z'
loop_
 _atom_site_type_symbol
 _atom_site_label
 _atom_site_symmetry_multiplicity
 _atom_site_fract_x
 _atom_site_fract_y
 _atom_site_fract_z
 _atom_site_occupancy
  Al  Al0  1  0.86005974  0.49578771  0.50026994  1.0
  Al  Al1  1  0.36037646  0.50339476  0.50619425  1.0
  Al  Al2  1  0.38791672  0.99964274  0.00113227  1.0
  Al  Al3  1  0.88755199  0.00096541  0.00263602  1.0
  H  H4  1  0.99473273  0.31072164  0.29205253  1.0
  H  H5  1  0.48389060  0.70740031  0.70309323  1.0
  H  H6  1  0.57143928  0.17654801  0.24998449  1.0
  H  H7  1  0.08510482  0.79045255  0.76552552  1.0
  H  H8  1  0.85790255  0.17206627  0.16347659  1.0
  H  H9  1  0.36531935  0.82921864  0.84337220  1.0
  H  H10  1  0.59743044  0.38409813  0.46474143  1.0
  H  H11  1  0.10339863  0.61589450  0.47462306  1.0
  H  H12  1  0.63554330  0.11758557  0.97644245  1.0
  H  H13  1  0.13774907  0.88126886  0.02408260  1.0
  C  C14  1  0.60813670  0.61024855  0.40009543  1.0
  C  C15  1  0.11460522  0.39331065  0.60594189  1.0
  C  C16  1  0.61611936  0.61639474  0.61070461  1.0
  C  C17  1  0.11621352  0.37874392  0.39658127  1.0
  C  C18  1  0.29409966  0.19551131  0.23115222  1.0
  C  C19  1  0.80387841  0.78852006  0.77976324  1.0
  C  C20  1  0.13061450  0.17306856  0.18542429  1.0
  C  C21  1  0.63862388  0.82042286  0.82250599  1.0
  C  C22  1  0.28288654  0.25538365  0.30310647  1.0
  C  C23  1  0.79490312  0.72174733  0.71163530  1.0
  C  C24  1  0.12811956  0.31239282  0.32780280  1.0
  C  C25  1  0.62706649  0.68449375  0.67797715  1.0
  C  C26  1  0.13381528  0.16981748  0.83583318  1.0
  C  C27  1  0.63397593  0.83174283  0.16890302  1.0
  C  C28  1  0.12664171  0.22163036  0.78195162  1.0
  C  C29  1  0.62608945  0.78029673  0.22300156  1.0
  C  C30  1  0.11963802  0.27905994  0.72264940  1.0
  C  C31  1  0.61785859  0.72334853  0.28261511  1.0
  C  C32  1  0.11354300  0.33138743  0.66912423  1.0
  C  C33  1  0.61029188  0.67154581  0.33647247  1.0
  C  C34  1  0.64669816  0.88403511  0.89326144  1.0
  C  C35  1  0.13994171  0.11410002  0.11199910  1.0
  C  C36  1  0.63736194  0.89258187  0.10528475  1.0
  C  C37  1  0.13714497  0.10858499  0.89908200  1.0
  Br  Br38  1  0.52377347  0.24569577  0.36319912  1.0
  Br  Br39  1  0.05616961  0.68887533  0.67077507  1.0
  O  O40  1  0.44075933  0.59802199  0.58376237  1.0
  O  O41  1  0.93942399  0.40783694  0.41603115  1.0
  O  O42  1  0.77911962  0.58685151  0.42517105  1.0
  O  O43  1  0.28409803  0.42675978  0.58863755  1.0
  O  O44  1  0.77726244  0.57999774  0.58267700  1.0
  O  O45  1  0.27703696  0.40401518  0.43076588  1.0
  O  O46  1  0.94792959  0.40764054  0.57357094  1.0
  O  O47  1  0.43670007  0.58644740  0.42462297  1.0
  O  O48  1  0.60802906  0.44176928  0.49816148  1.0
  O  O49  1  0.10709876  0.55742081  0.50142778  1.0
  O  O50  1  0.80849865  0.91796654  0.08161422  1.0
  O  O51  1  0.30833040  0.08266081  0.92246099  1.0
  O  O52  1  0.47108752  0.90662199  0.92069625  1.0
  O  O53  1  0.96550216  0.09363109  0.08428794  1.0
  O  O54  1  0.46793321  0.91489279  0.07828922  1.0
  O  O55  1  0.96763761  0.08635308  0.92631323  1.0
  O  O56  1  0.30670473  0.09044196  0.08157752  1.0
  O  O57  1  0.81226526  0.90957593  0.92254391  1.0
  O  O58  1  0.63642399  0.05807955  0.00184914  1.0
  O  O59  1  0.13806644  0.94298411  0.00210067  1.0
  O  O60  1  0.47654559  0.16038108  0.20791182  1.0
  O  O61  1  0.98666478  0.82073212  0.80254069  1.0
  O  O62  1  0.94078120  0.20255330  0.20516570  1.0
  O  O63  1  0.44803429  0.79488540  0.80273978  1.0
