# generated using pymatgen
data_AlH6C13BrO5F
_symmetry_space_group_name_H-M   'P 1'
_cell_length_a   6.63283749
_cell_length_b   11.11935996
_cell_length_c   15.22459573
_cell_angle_alpha   88.08559789
_cell_angle_beta   79.21206515
_cell_angle_gamma   72.81562251
_symmetry_Int_Tables_number   1
_chemical_formula_structural   AlH6C13BrO5F
_chemical_formula_sum   'Al2 H12 C26 Br2 O10 F2'
_cell_volume   1053.48710233
_cell_formula_units_Z   2
loop_
 _symmetry_equiv_pos_site_id
 _symmetry_equiv_pos_as_xyz
  1  'x, y, z'
loop_
 _atom_site_type_symbol
 _atom_site_label
 _atom_site_symmetry_multiplicity
 _atom_site_fract_x
 _atom_site_fract_y
 _atom_site_fract_z
 _atom_site_occupancy
  Al  Al0  1  0.00939638  0.49525338  0.49717034  1.0
  Al  Al1  1  0.50758817  0.49907822  0.49743347  1.0
  H  H2  1  0.35943735  0.34922076  0.44461373  1.0
  H  H3  1  0.67997174  0.55825107  0.60486575  1.0
  H  H4  1  0.68230666  0.46605833  0.04995760  1.0
  H  H5  1  0.37176653  0.42846734  0.94601310  1.0
  H  H6  1  0.80638523  0.58972894  0.76352823  1.0
  H  H7  1  0.70588821  0.60609949  0.92868993  1.0
  H  H8  1  0.15595568  0.55815898  0.23821538  1.0
  H  H9  1  0.24905227  0.57049640  0.07292260  1.0
  H  H10  1  0.53158664  0.22901783  0.61681572  1.0
  H  H11  1  0.75337626  0.76177315  0.59452923  1.0
  H  H12  1  0.36501857  0.87734819  0.43795754  1.0
  H  H13  1  0.24862756  0.11291610  0.44423870  1.0
  C  C14  1  0.87080342  0.26836656  0.50831664  1.0
  C  C15  1  0.81702084  0.50657394  0.33715659  1.0
  C  C16  1  0.13811549  0.72297513  0.49534724  1.0
  C  C17  1  0.19330964  0.49766296  0.66109757  1.0
  C  C18  1  0.86441800  0.51222038  0.23777533  1.0
  C  C19  1  0.14289218  0.50438053  0.76066862  1.0
  C  C20  1  0.73399297  0.48813010  0.18208370  1.0
  C  C21  1  0.78511230  0.49129917  0.08959131  1.0
  C  C22  1  0.29781365  0.46210836  0.81509485  1.0
  C  C23  1  0.24498812  0.46795470  0.90776387  1.0
  C  C24  1  0.92887899  0.55542413  0.80450950  1.0
  C  C25  1  0.87277924  0.56310245  0.89706952  1.0
  C  C26  1  0.05204757  0.54050733  0.19576301  1.0
  C  C27  1  0.10509230  0.54531700  0.10332506  1.0
  C  C28  1  0.97268728  0.51986302  0.04872435  1.0
  C  C29  1  0.03036961  0.51827144  0.95028791  1.0
  C  C30  1  0.93206004  0.12847989  0.51528227  1.0
  C  C31  1  0.78545210  0.06339798  0.55885769  1.0
  C  C32  1  0.13804299  0.06133015  0.47458985  1.0
  C  C33  1  0.58242832  0.12687849  0.61097965  1.0
  C  C34  1  0.44919085  0.06135432  0.65618346  1.0
  C  C35  1  0.06130665  0.86294578  0.50620479  1.0
  C  C36  1  0.20305807  0.92932729  0.47050918  1.0
  C  C37  1  0.85079770  0.92808421  0.55344745  1.0
  C  C38  1  0.70853901  0.86371286  0.59963317  1.0
  C  C39  1  0.51351521  0.92791911  0.65044412  1.0
  Br  Br40  1  0.18255639  0.15363449  0.72562255  1.0
  Br  Br41  1  0.33934519  0.83265989  0.71329395  1.0
  O  O42  1  0.01598643  0.32085122  0.51188939  1.0
  O  O43  1  0.62442837  0.51985306  0.37581969  1.0
  O  O44  1  0.33272780  0.66962426  0.50160102  1.0
  O  O45  1  0.03511300  0.50985530  0.62156096  1.0
  O  O46  1  0.00529171  0.66697231  0.48089251  1.0
  O  O47  1  0.38706642  0.48313839  0.62274113  1.0
  O  O48  1  0.68115985  0.32413733  0.49543352  1.0
  O  O49  1  0.97676563  0.48835203  0.37626600  1.0
  O  O50  1  0.30450725  0.43793872  0.46113695  1.0
  O  O51  1  0.71456095  0.54994263  0.54005868  1.0
  F  F52  1  0.55486223  0.45457868  0.21699651  1.0
  F  F53  1  0.50784965  0.40830774  0.77872144  1.0
