# generated using pymatgen
data_Zr3H19C44N5(ClO13)2
_symmetry_space_group_name_H-M   'P 1'
_cell_length_a   18.94685758
_cell_length_b   19.03690355
_cell_length_c   19.03815677
_cell_angle_alpha   90.30816989
_cell_angle_beta   119.76584968
_cell_angle_gamma   119.76137496
_symmetry_Int_Tables_number   1
_chemical_formula_structural   Zr3H19C44N5(ClO13)2
_chemical_formula_sum   'Zr6 H38 C88 N10 Cl4 O52'
_cell_volume   4877.16046419
_cell_formula_units_Z   2
loop_
 _symmetry_equiv_pos_site_id
 _symmetry_equiv_pos_as_xyz
  1  'x, y, z'
loop_
 _atom_site_type_symbol
 _atom_site_label
 _atom_site_symmetry_multiplicity
 _atom_site_fract_x
 _atom_site_fract_y
 _atom_site_fract_z
 _atom_site_occupancy
  Zr  Zr0  1  0.49491220  0.90310120  0.90551001  1.0
  Zr  Zr1  1  0.50540047  0.09448843  0.09685855  1.0
  Zr  Zr2  1  0.68598220  0.08855626  0.09051087  1.0
  Zr  Zr3  1  0.31432657  0.90946635  0.91141821  1.0
  Zr  Zr4  1  0.50016372  0.90631185  0.09371925  1.0
  Zr  Zr5  1  0.50020432  0.09155198  0.90846649  1.0
  H  H6  1  0.64198404  0.92063220  0.06842544  1.0
  H  H7  1  0.35832602  0.93162018  0.07931989  1.0
  H  H8  1  0.65112046  0.21808765  0.07448839  1.0
  H  H9  1  0.34923401  0.92548770  0.78191711  1.0
  H  H10  1  0.52746354  0.46832179  0.12325266  1.0
  H  H11  1  0.49994885  0.54351958  0.89157680  1.0
  H  H12  1  0.43896743  0.65041570  0.07983360  1.0
  H  H13  1  0.42699206  0.51431821  0.07636829  1.0
  H  H14  1  0.43421169  0.28261693  0.86540448  1.0
  H  H15  1  0.41151743  0.40069347  0.85399943  1.0
  H  H16  1  0.50031038  0.10844601  0.45646848  1.0
  H  H17  1  0.47292435  0.87670149  0.53175573  1.0
  H  H18  1  0.56584827  0.13447372  0.71725916  1.0
  H  H19  1  0.58842572  0.14586616  0.59914094  1.0
  H  H20  1  0.56107825  0.92007303  0.34944522  1.0
  H  H21  1  0.57301639  0.92345965  0.48550064  1.0
  H  H22  1  0.84417676  0.45670953  0.89447768  1.0
  H  H23  1  0.15372676  0.55396829  0.11945940  1.0
  H  H24  1  0.07780471  0.65082872  0.86528936  1.0
  H  H25  1  0.94738575  0.51106793  0.85374602  1.0
  H  H26  1  0.92624870  0.28580006  0.07500937  1.0
  H  H27  1  0.05845355  0.40947987  0.07090398  1.0
  H  H28  1  0.84666258  0.88058145  0.44606664  1.0
  H  H29  1  0.15612785  0.10545635  0.54318320  1.0
  H  H30  1  0.07424109  0.92523586  0.71436414  1.0
  H  H31  1  0.94202523  0.92933608  0.59067337  1.0
  H  H32  1  0.92246600  0.13476327  0.34921688  1.0
  H  H33  1  0.05291335  0.14632640  0.48897535  1.0
  H  H34  1  0.29384247  0.12794828  0.10847178  1.0
  H  H35  1  0.07606666  0.90392340  0.88277273  1.0
  H  H36  1  0.70649220  0.89133959  0.87217605  1.0
  H  H37  1  0.92427055  0.11730469  0.09594969  1.0
  H  H38  1  0.06951912  0.46375415  0.45098947  1.0
  H  H39  1  0.93063927  0.54902109  0.53630117  1.0
  H  H40  1  0.28531758  0.65303722  0.71581446  1.0
  H  H41  1  0.16191269  0.51671878  0.59368239  1.0
  H  H42  1  0.71483613  0.28408683  0.34691833  1.0
  H  H43  1  0.83817447  0.40622064  0.48323172  1.0
  C  C44  1  0.48340015  0.75536015  0.99269466  1.0
  C  C45  1  0.51689011  0.00735508  0.24462226  1.0
  C  C46  1  0.49986001  0.23386063  0.00204702  1.0
  C  C47  1  0.50046763  0.99789602  0.76616950  1.0
  C  C48  1  0.72976332  0.99742929  0.98930288  1.0
  C  C49  1  0.25713047  0.75940290  0.77064954  1.0
  C  C50  1  0.27056879  0.01074453  0.00249471  1.0
  C  C51  1  0.74312162  0.22934258  0.24057573  1.0
  C  C52  1  0.73499739  0.99896673  0.23667602  1.0
  C  C53  1  0.73472836  0.22594801  0.99192361  1.0
  C  C54  1  0.26570403  0.00816044  0.77406261  1.0
  C  C55  1  0.26533034  0.76332864  0.00104836  1.0
  C  C56  1  0.49217460  0.30807869  0.99908332  1.0
  C  C57  1  0.47405879  0.67276813  0.98748232  1.0
  C  C58  1  0.51673579  0.36109802  0.07025458  1.0
  C  C59  1  0.50461638  0.42741816  0.06548806  1.0
  C  C60  1  0.48836147  0.63954130  0.93362803  1.0
  C  C61  1  0.48375712  0.56450618  0.93164684  1.0
  C  C62  1  0.45132578  0.62561910  0.03838956  1.0
  C  C63  1  0.44571940  0.54996493  0.03672874  1.0
  C  C64  1  0.45426468  0.32398248  0.92130124  1.0
  C  C65  1  0.44230706  0.39053821  0.91559192  1.0
  C  C66  1  0.46821631  0.44387372  0.98772537  1.0
  C  C67  1  0.46386583  0.51911519  0.98462138  1.0
  C  C68  1  0.52614651  0.01253111  0.32717611  1.0
  C  C69  1  0.50810432  0.00082982  0.69194112  1.0
  C  C70  1  0.51189700  0.06641496  0.36044022  1.0
  C  C71  1  0.51644837  0.06833947  0.43545007  1.0
  C  C72  1  0.48364479  0.92969197  0.63896631  1.0
  C  C73  1  0.49566652  0.93445062  0.57259050  1.0
  C  C74  1  0.54584558  0.07857801  0.67593052  1.0
  C  C75  1  0.55773794  0.08428587  0.60933942  1.0
  C  C76  1  0.54875893  0.96153717  0.37426866  1.0
  C  C77  1  0.55434227  0.96315623  0.44990640  1.0
  C  C78  1  0.53624484  0.01529373  0.48079278  1.0
  C  C79  1  0.53190001  0.01217804  0.55602789  1.0
  C  C80  1  0.81147554  0.29992207  0.98659986  1.0
  C  C81  1  0.18840012  0.68072434  0.99725772  1.0
  C  C82  1  0.79050068  0.34839034  0.93485409  1.0
  C  C83  1  0.86341917  0.41886620  0.93281379  1.0
  C  C84  1  0.20784342  0.65052547  0.06704737  1.0
  C  C85  1  0.13596142  0.57303092  0.06241484  1.0
  C  C86  1  0.09306524  0.62866702  0.92048576  1.0
  C  C87  1  0.02031674  0.55071082  0.91465399  1.0
  C  C88  1  0.90955082  0.32364352  0.03518666  1.0
  C  C89  1  0.98331202  0.39351259  0.03330016  1.0
  C  C90  1  0.96174539  0.44327295  0.98323918  1.0
  C  C91  1  0.04008684  0.52222349  0.98591394  1.0
  C  C92  1  0.81193432  0.00276754  0.31928631  1.0
  C  C93  1  0.18895047  0.01350522  0.70012591  1.0
  C  C94  1  0.79254419  0.93298710  0.34950141  1.0
  C  C95  1  0.86441458  0.93763414  0.42702086  1.0
  C  C96  1  0.20986932  0.06513927  0.65156339  1.0
  C  C97  1  0.13694746  0.06720088  0.58110245  1.0
  C  C98  1  0.09090966  0.96500484  0.67648344  1.0
  C  C99  1  0.01715752  0.96689546  0.60661611  1.0
  C  C100  1  0.90723191  0.07957344  0.37137608  1.0
  C  C101  1  0.98000197  0.08540762  0.44932863  1.0
  C  C102  1  0.96027874  0.01415663  0.47782502  1.0
  C  C103  1  0.03865818  0.01686094  0.55677549  1.0
  C  C104  1  0.21608451  0.08001780  0.05708050  1.0
  C  C105  1  0.14090504  0.08171173  0.05273043  1.0
  C  C106  1  0.16309192  0.14729636  0.11435809  1.0
  C  C107  1  0.09246617  0.95292906  0.92930008  1.0
  C  C108  1  0.01533537  0.95226039  0.92290865  1.0
  C  C109  1  0.91229492  0.88819906  0.85506899  1.0
  C  C110  1  0.78424228  0.94279763  0.92004111  1.0
  C  C111  1  0.85942282  0.94715933  0.91832357  1.0
  C  C112  1  0.83724122  0.88545069  0.85281873  1.0
  C  C113  1  0.90785656  0.07071263  0.04698939  1.0
  C  C114  1  0.98498872  0.07711042  0.04763656  1.0
  C  C115  1  0.08802454  0.14502772  0.11161317  1.0
  C  C116  1  0.19146214  0.01536172  0.99632629  1.0
  C  C117  1  0.03886465  0.01633579  0.98615928  1.0
  C  C118  1  0.80886372  0.00360235  0.98465314  1.0
  C  C119  1  0.96145401  0.01379406  0.98362233  1.0
  C  C120  1  0.82118727  0.30298826  0.32286913  1.0
  C  C121  1  0.17901943  0.67712179  0.69699661  1.0
  C  C122  1  0.92226452  0.35377515  0.35540671  1.0
  C  C123  1  0.99257875  0.42402982  0.43053330  1.0
  C  C124  1  0.07794757  0.64460493  0.64626335  1.0
  C  C125  1  0.00757948  0.56946633  0.57600913  1.0
  C  C126  1  0.20711400  0.62902558  0.67613569  1.0
  C  C127  1  0.13754421  0.55308768  0.60692402  1.0
  C  C128  1  0.79304400  0.32380558  0.37093765  1.0
  C  C129  1  0.86256263  0.39301213  0.44687332  1.0
  C  C130  1  0.96327576  0.44539664  0.47723762  1.0
  C  C131  1  0.03682606  0.52273493  0.55458118  1.0
  N  N132  1  0.56405467  0.35374936  0.15670861  1.0
  N  N133  1  0.51483152  0.68456166  0.87840646  1.0
  N  N134  1  0.48558526  0.12174743  0.31549030  1.0
  N  N135  1  0.43665217  0.84327990  0.64649348  1.0
  N  N136  1  0.69023108  0.33069214  0.88172442  1.0
  N  N137  1  0.30473602  0.70159844  0.15207997  1.0
  N  N138  1  0.69569158  0.84791542  0.29837907  1.0
  N  N139  1  0.31008194  0.11811561  0.66911361  1.0
  N  N140  1  0.96007503  0.33775038  0.30959342  1.0
  N  N141  1  0.04017965  0.69043179  0.66235399  1.0
  Cl  Cl142  1  0.11553872  0.22374007  0.18545163  1.0
  Cl  Cl143  1  0.28537489  0.22830924  0.19117989  1.0
  Cl  Cl144  1  0.71496309  0.80850797  0.77194268  1.0
  Cl  Cl145  1  0.88478091  0.81424759  0.77645829  1.0
  O  O146  1  0.48656110  0.78730165  0.93467138  1.0
  O  O147  1  0.51371491  0.06535705  0.21266259  1.0
  O  O148  1  0.50406467  0.20549688  0.06362433  1.0
  O  O149  1  0.49622108  0.93628908  0.79452122  1.0
  O  O150  1  0.75965211  0.05465833  0.05222097  1.0
  O  O151  1  0.22895130  0.79312098  0.79965487  1.0
  O  O152  1  0.24068000  0.94782118  0.94526372  1.0
  O  O153  1  0.77134033  0.20033572  0.20690727  1.0
  O  O154  1  0.64480242  0.93830121  0.20489957  1.0
  O  O155  1  0.64439802  0.19790634  0.93551193  1.0
  O  O156  1  0.35602536  0.06456860  0.80209960  1.0
  O  O157  1  0.35552547  0.79512792  0.06171988  1.0
  O  O158  1  0.76515673  0.19705528  0.05232400  1.0
  O  O159  1  0.23524039  0.94772056  0.80289579  1.0
  O  O160  1  0.23496426  0.79488337  0.94334825  1.0
  O  O161  1  0.76535887  0.05666457  0.20512839  1.0
  O  O162  1  0.63935348  0.93645741  0.93233444  1.0
  O  O163  1  0.65361977  0.20136037  0.21030690  1.0
  O  O164  1  0.36097156  0.06771183  0.06345193  1.0
  O  O165  1  0.34662558  0.78961893  0.79864644  1.0
  O  O166  1  0.50043595  0.05776743  0.79625299  1.0
  O  O167  1  0.48829301  0.78797720  0.05486588  1.0
  O  O168  1  0.51201922  0.94517600  0.21203204  1.0
  O  O169  1  0.49995524  0.20380830  0.94220094  1.0
  O  O170  1  0.39177216  0.94649224  0.84420633  1.0
  O  O171  1  0.60858752  0.15579890  0.05350081  1.0
  O  O172  1  0.39884103  0.95028405  0.05730603  1.0
  O  O173  1  0.60147929  0.94266106  0.04974974  1.0
  O  O174  1  0.57978413  0.03734671  0.11643793  1.0
  O  O175  1  0.42053431  0.88354953  0.96266457  1.0
  O  O176  1  0.42550504  0.04001521  0.96529293  1.0
  O  O177  1  0.57484716  0.03466977  0.95998613  1.0
  O  O178  1  0.65026801  0.37505320  0.19262303  1.0
  O  O179  1  0.51582262  0.33160240  0.18793864  1.0
  O  O180  1  0.60328638  0.74272730  0.91277260  1.0
  O  O181  1  0.44711208  0.65665257  0.80126167  1.0
  O  O182  1  0.39716421  0.08749456  0.25730296  1.0
  O  O183  1  0.55340637  0.19886649  0.34347061  1.0
  O  O184  1  0.35036323  0.80707680  0.62507692  1.0
  O  O185  1  0.48524730  0.81238647  0.66892891  1.0
  O  O186  1  0.66796638  0.36123977  0.91806777  1.0
  O  O187  1  0.63966270  0.29141089  0.80418350  1.0
  O  O188  1  0.32193660  0.76333634  0.19609117  1.0
  O  O189  1  0.35798825  0.67531894  0.17409737  1.0
  O  O190  1  0.67851906  0.80400676  0.23659626  1.0
  O  O191  1  0.64244891  0.82577539  0.32467199  1.0
  O  O192  1  0.33222014  0.08159147  0.63860430  1.0
  O  O193  1  0.36072792  0.19570831  0.70824246  1.0
  O  O194  1  0.95302476  0.36705862  0.25055163  1.0
  O  O195  1  0.00050911  0.29996583  0.33728297  1.0
  O  O196  1  0.04711848  0.74942083  0.63298480  1.0
  O  O197  1  0.99991909  0.66281767  0.70027560  1.0
