# generated using pymatgen
data_ZnH20C36NO13
_symmetry_space_group_name_H-M   'P 1'
_cell_length_a   10.85179441
_cell_length_b   17.10839862
_cell_length_c   17.83978663
_cell_angle_alpha   89.28995456
_cell_angle_beta   86.17342997
_cell_angle_gamma   89.27382073
_symmetry_Int_Tables_number   1
_chemical_formula_structural   ZnH20C36NO13
_chemical_formula_sum   'Zn2 H40 C72 N2 O26'
_cell_volume   3304.20755270
_cell_formula_units_Z   2
loop_
 _symmetry_equiv_pos_site_id
 _symmetry_equiv_pos_as_xyz
  1  'x, y, z'
loop_
 _atom_site_type_symbol
 _atom_site_label
 _atom_site_symmetry_multiplicity
 _atom_site_fract_x
 _atom_site_fract_y
 _atom_site_fract_z
 _atom_site_occupancy
  Zn  Zn0  1  0.49192156  0.59284080  0.50366875  1.0
  Zn  Zn1  1  0.50060647  0.40578763  0.49602251  1.0
  H  H2  1  0.20315051  0.17491310  0.46441217  1.0
  H  H3  1  0.79950537  0.82224432  0.53710294  1.0
  H  H4  1  0.87247197  0.39712120  0.44619385  1.0
  H  H5  1  0.11771057  0.59851962  0.56173378  1.0
  H  H6  1  0.35331360  0.17422707  0.26985399  1.0
  H  H7  1  0.65761069  0.83758382  0.73139774  1.0
  H  H8  1  0.82672808  0.45282169  0.14954736  1.0
  H  H9  1  0.20910019  0.56236963  0.88791605  1.0
  H  H10  1  0.38512358  0.94847177  0.61079937  1.0
  H  H11  1  0.63773374  0.05294469  0.38539396  1.0
  H  H12  1  0.34982056  0.72634931  0.65746701  1.0
  H  H13  1  0.23356769  0.73781191  0.59565601  1.0
  H  H14  1  0.33076653  0.65281690  0.58866902  1.0
  H  H15  1  0.63953230  0.29320604  0.34246215  1.0
  H  H16  1  0.68495779  0.34815454  0.42022261  1.0
  H  H17  1  0.76387344  0.25935168  0.39191268  1.0
  H  H18  1  0.69633177  0.74026736  0.34845873  1.0
  H  H19  1  0.67339206  0.65533251  0.40625380  1.0
  H  H20  1  0.56035830  0.68388670  0.34497364  1.0
  H  H21  1  0.29600063  0.25091009  0.64204436  1.0
  H  H22  1  0.42657876  0.31141089  0.65040006  1.0
  H  H23  1  0.31767508  0.33661033  0.58527750  1.0
  H  H24  1  0.74517740  0.84580211  0.36991949  1.0
  H  H25  1  0.26279730  0.14068031  0.62313861  1.0
  H  H26  1  0.37626594  0.28953474  0.23539909  1.0
  H  H27  1  0.22853320  0.28982104  0.19777043  1.0
  H  H28  1  0.29159733  0.37843100  0.22489311  1.0
  H  H29  1  0.63682043  0.73606334  0.77702306  1.0
  H  H30  1  0.65617487  0.63282084  0.77245934  1.0
  H  H31  1  0.77353144  0.68876456  0.80607365  1.0
  H  H32  1  0.05667516  0.48060127  0.33880226  1.0
  H  H33  1  0.91468148  0.51460012  0.66628392  1.0
  H  H34  1  0.02543978  0.33250660  0.57292547  1.0
  H  H35  1  0.96229143  0.65713573  0.43213439  1.0
  H  H36  1  0.33427406  0.60228039  0.05855183  1.0
  H  H37  1  0.69605602  0.41855580  0.94005153  1.0
  H  H38  1  0.31407400  0.65285622  0.27331582  1.0
  H  H39  1  0.66823064  0.33693969  0.73467434  1.0
  H  H40  1  0.76539433  0.39132538  0.25269546  1.0
  H  H41  1  0.28344876  0.55282427  0.67825895  1.0
  C  C42  1  0.49443122  0.50006289  0.64514538  1.0
  C  C43  1  0.50353982  0.49973321  0.35585276  1.0
  C  C44  1  0.86637806  0.50450533  0.50594949  1.0
  C  C45  1  0.12406344  0.49095046  0.50190472  1.0
  C  C46  1  0.93394537  0.56273297  0.53976204  1.0
  C  C47  1  0.05587195  0.43243641  0.46862235  1.0
  C  C48  1  0.42885790  0.55141591  0.15514968  1.0
  C  C49  1  0.59191678  0.45827501  0.84342941  1.0
  C  C50  1  0.42246561  0.54840751  0.23408015  1.0
  C  C51  1  0.58598031  0.45253129  0.76519000  1.0
  C  C52  1  0.51571571  0.51014862  0.27160679  1.0
  C  C53  1  0.49472803  0.49474511  0.72958551  1.0
  C  C54  1  0.62136191  0.48183532  0.23009704  1.0
  C  C55  1  0.40229272  0.53552426  0.77307670  1.0
  C  C56  1  0.63063024  0.48621500  0.15098521  1.0
  C  C57  1  0.40583280  0.54053912  0.85137276  1.0
  C  C58  1  0.53029839  0.51748570  0.11200808  1.0
  C  C59  1  0.50452888  0.50405894  0.88742329  1.0
  C  C60  1  0.52786330  0.51453113  0.03310272  1.0
  C  C61  1  0.51457444  0.51075130  0.96574317  1.0
  C  C62  1  0.42108125  0.84074012  0.54793648  1.0
  C  C63  1  0.58384746  0.16066849  0.44481153  1.0
  C  C64  1  0.26196271  0.48882754  0.50255229  1.0
  C  C65  1  0.72930191  0.50791238  0.50210262  1.0
  C  C66  1  0.41423235  0.75846508  0.54534439  1.0
  C  C67  1  0.58746315  0.24297016  0.44998003  1.0
  C  C68  1  0.56112545  0.75434663  0.44195863  1.0
  C  C69  1  0.43889658  0.24157014  0.55238306  1.0
  C  C70  1  0.56980968  0.83623817  0.44013574  1.0
  C  C71  1  0.43767159  0.15965407  0.55383825  1.0
  C  C72  1  0.49890728  0.88096066  0.49396702  1.0
  C  C73  1  0.51083393  0.11755569  0.49913783  1.0
  C  C74  1  0.50546706  0.96363814  0.49484933  1.0
  C  C75  1  0.50802326  0.03483969  0.49726059  1.0
  C  C76  1  0.22468909  0.30614926  0.31810994  1.0
  C  C77  1  0.76272847  0.69498175  0.68605455  1.0
  C  C78  1  0.15039599  0.36653516  0.35203585  1.0
  C  C79  1  0.82982227  0.63042768  0.65335803  1.0
  C  C80  1  0.11421499  0.36309029  0.42959241  1.0
  C  C81  1  0.87453795  0.63286056  0.57706610  1.0
  C  C82  1  0.12928338  0.29209141  0.46967755  1.0
  C  C83  1  0.86543237  0.70329965  0.53542819  1.0
  C  C84  1  0.19282185  0.23016463  0.43415454  1.0
  C  C85  1  0.80557444  0.76763324  0.56893474  1.0
  C  C86  1  0.24567371  0.23754910  0.36081639  1.0
  C  C87  1  0.75156494  0.76394407  0.64222467  1.0
  C  C88  1  0.92777718  0.44066566  0.47198203  1.0
  C  C89  1  0.06223657  0.55442440  0.53667679  1.0
  C  C90  1  0.31805438  0.16987709  0.32968183  1.0
  C  C91  1  0.68672783  0.83578845  0.67056809  1.0
  C  C92  1  0.74978619  0.46280559  0.11188523  1.0
  C  C93  1  0.30429088  0.58183359  0.89676784  1.0
  C  C94  1  0.35402763  0.88720815  0.60807706  1.0
  C  C95  1  0.64817750  0.11724453  0.38160631  1.0
  C  C96  1  0.32821218  0.71538856  0.59927212  1.0
  C  C97  1  0.67403006  0.28927581  0.39895245  1.0
  C  C98  1  0.62786677  0.70647334  0.38228741  1.0
  C  C99  1  0.36463813  0.28687514  0.61075284  1.0
  C  C100  1  0.65428464  0.87515370  0.38217697  1.0
  C  C101  1  0.35894882  0.11807022  0.61309724  1.0
  C  C102  1  0.28382757  0.31644800  0.23996910  1.0
  C  C103  1  0.70345147  0.68882569  0.76431970  1.0
  C  C104  1  0.09596477  0.43021425  0.30664115  1.0
  C  C105  1  0.86337077  0.56090552  0.69879247  1.0
  C  C106  1  0.07780109  0.28172138  0.54802138  1.0
  C  C107  1  0.91572783  0.71018306  0.45649285  1.0
  C  C108  1  0.32539643  0.59121129  0.11992072  1.0
  C  C109  1  0.69413685  0.41632205  0.87816843  1.0
  C  C110  1  0.31691893  0.58809005  0.27899030  1.0
  C  C111  1  0.67444539  0.40008562  0.71975042  1.0
  C  C112  1  0.72635526  0.44875829  0.27183790  1.0
  C  C113  1  0.29812165  0.57298049  0.73596229  1.0
  N  N114  1  0.48530282  0.71653201  0.49432370  1.0
  N  N115  1  0.51358647  0.28216470  0.50163355  1.0
  O  O116  1  0.50253184  0.56922784  0.61882100  1.0
  O  O117  1  0.51019040  0.43003069  0.37988752  1.0
  O  O118  1  0.48317863  0.43688077  0.61068229  1.0
  O  O119  1  0.48719149  0.56201817  0.39276425  1.0
  O  O120  1  0.31350035  0.55268514  0.51696133  1.0
  O  O121  1  0.67621230  0.44256919  0.49865748  1.0
  O  O122  1  0.31582414  0.42315514  0.49070961  1.0
  O  O123  1  0.67857892  0.57527881  0.50083041  1.0
  O  O124  1  0.33929886  0.11061078  0.36637664  1.0
  O  O125  1  0.66550232  0.89229133  0.63015103  1.0
  O  O126  1  0.76905281  0.45617734  0.04391595  1.0
  O  O127  1  0.32451004  0.63010583  0.94429266  1.0
  O  O128  1  0.27269003  0.86235141  0.65276269  1.0
  O  O129  1  0.70534131  0.14757152  0.32737093  1.0
  O  O130  1  0.62839361  0.93664686  0.35085687  1.0
  O  O131  1  0.39611586  0.06167017  0.64819491  1.0
  O  O132  1  0.08393819  0.42548022  0.23886470  1.0
  O  O133  1  0.84415346  0.55393806  0.76710829  1.0
  O  O134  1  0.08921937  0.22112729  0.58479395  1.0
  O  O135  1  0.90777035  0.77015061  0.41837361  1.0
  O  O136  1  0.23306828  0.61290673  0.15831361  1.0
  O  O137  1  0.77359504  0.38051684  0.83956543  1.0
  O  O138  1  0.24811098  0.55313588  0.32461438  1.0
  O  O139  1  0.73911280  0.42328859  0.66543323  1.0
  O  O140  1  0.76673088  0.48237260  0.32483664  1.0
  O  O141  1  0.22899442  0.62188809  0.76670380  1.0
