# generated using pymatgen
data_Al2H18C18O11
_symmetry_space_group_name_H-M   'P 1'
_cell_length_a   6.68324249
_cell_length_b   10.99767839
_cell_length_c   11.12708587
_cell_angle_alpha   87.95754511
_cell_angle_beta   73.08670237
_cell_angle_gamma   72.40426819
_symmetry_Int_Tables_number   1
_chemical_formula_structural   Al2H18C18O11
_chemical_formula_sum   'Al2 H18 C18 O11'
_cell_volume   744.63068478
_cell_formula_units_Z   1
loop_
 _symmetry_equiv_pos_site_id
 _symmetry_equiv_pos_as_xyz
  1  'x, y, z'
loop_
 _atom_site_type_symbol
 _atom_site_label
 _atom_site_symmetry_multiplicity
 _atom_site_fract_x
 _atom_site_fract_y
 _atom_site_fract_z
 _atom_site_occupancy
  Al  Al0  1  0.99989372  0.49697713  0.49903471  1.0
  Al  Al1  1  0.49629872  0.50138090  0.50264565  1.0
  H  H2  1  0.85542673  0.35073111  0.42016629  1.0
  H  H3  1  0.12762647  0.64212276  0.59401613  1.0
  H  H4  1  0.25103138  0.47697745  0.87985038  1.0
  H  H5  1  0.87335184  0.51324160  0.88265364  1.0
  H  H6  1  0.13362474  0.48286179  0.11456542  1.0
  H  H7  1  0.41121315  0.89387893  0.70289603  1.0
  H  H8  1  0.23528955  0.89523231  0.61082952  1.0
  H  H9  1  0.12628693  0.11875439  0.62741203  1.0
  H  H10  1  0.32270746  0.11595109  0.70582189  1.0
  H  H11  1  0.23532640  0.09826215  0.39268616  1.0
  H  H12  1  0.49698838  0.10389086  0.30061686  1.0
  H  H13  1  0.37517306  0.87516843  0.37543375  1.0
  H  H14  1  0.64264820  0.88242309  0.29780030  1.0
  H  H15  1  0.80165338  0.89961014  0.59171407  1.0
  H  H16  1  0.90309640  0.88287632  0.42667174  1.0
  H  H17  1  0.78215983  0.10393626  0.41236333  1.0
  H  H18  1  0.70641580  0.12108002  0.57738244  1.0
  H  H19  1  0.71144557  0.52619054  0.21755870  1.0
  C  C20  1  0.36017562  0.26861888  0.50234280  1.0
  C  C21  1  0.36127923  0.50447831  0.27036274  1.0
  C  C22  1  0.64116043  0.72967451  0.49881675  1.0
  C  C23  1  0.63772852  0.49324124  0.72764604  1.0
  C  C24  1  0.43494600  0.50231320  0.13164571  1.0
  C  C25  1  0.56921980  0.49426620  0.86810821  1.0
  C  C26  1  0.64580849  0.51209224  0.06558264  1.0
  C  C27  1  0.35972951  0.48557582  0.93307104  1.0
  C  C28  1  0.71141391  0.50669125  0.93367524  1.0
  C  C29  1  0.29536356  0.48900713  0.06324230  1.0
  C  C30  1  0.36966819  0.93024589  0.61698733  1.0
  C  C31  1  0.30053838  0.07817790  0.62196618  1.0
  C  C32  1  0.43975415  0.12382275  0.50296755  1.0
  C  C33  1  0.41075486  0.06625470  0.38645020  1.0
  C  C34  1  0.50044889  0.91844616  0.38141673  1.0
  C  C35  1  0.57014229  0.87467650  0.50096289  1.0
  C  C36  1  0.75631933  0.92769274  0.50498412  1.0
  C  C37  1  0.68287638  0.07457219  0.49899802  1.0
  O  O38  1  0.15839353  0.32167592  0.51015909  1.0
  O  O39  1  0.49658678  0.51813397  0.32808657  1.0
  O  O40  1  0.49340726  0.67543739  0.50953804  1.0
  O  O41  1  0.82766238  0.50310534  0.67260103  1.0
  O  O42  1  0.84238053  0.67149004  0.48668049  1.0
  O  O43  1  0.49800393  0.48474753  0.67350993  1.0
  O  O44  1  0.50093358  0.32764815  0.49152947  1.0
  O  O45  1  0.17477940  0.49119026  0.32537179  1.0
  O  O46  1  0.80332704  0.44174081  0.44250104  1.0
  O  O47  1  0.19191339  0.55598891  0.55590130  1.0
  O  O48  1  0.78734742  0.52627996  0.12511613  1.0
