# generated using pymatgen
data_Zr3H14C48(Br3O4)4
_symmetry_space_group_name_H-M   'P 1'
_cell_length_a   21.68097711
_cell_length_b   21.68104297
_cell_length_c   21.68078865
_cell_angle_alpha   120.00006826
_cell_angle_beta   89.99947072
_cell_angle_gamma   119.99974822
_symmetry_Int_Tables_number   1
_chemical_formula_structural   Zr3H14C48(Br3O4)4
_chemical_formula_sum   'Zr6 H28 C96 Br24 O32'
_cell_volume   7206.46546253
_cell_formula_units_Z   2
loop_
 _symmetry_equiv_pos_site_id
 _symmetry_equiv_pos_as_xyz
  1  'x, y, z'
loop_
 _atom_site_type_symbol
 _atom_site_label
 _atom_site_symmetry_multiplicity
 _atom_site_fract_x
 _atom_site_fract_y
 _atom_site_fract_z
 _atom_site_occupancy
  Zr  Zr0  1  0.08153360  0.99999007  0.08156301  1.0
  Zr  Zr1  1  0.91837464  0.00000771  0.91842058  1.0
  Zr  Zr2  1  0.91837516  0.83685076  0.91841270  1.0
  Zr  Zr3  1  0.08154688  0.16315675  0.08156825  1.0
  Zr  Zr4  1  0.08152332  0.99999377  0.91839877  1.0
  Zr  Zr5  1  0.91837571  0.00000499  0.08156831  1.0
  H  H6  1  0.06412560  0.87162358  0.93579098  1.0
  H  H7  1  0.06414616  0.12836669  0.93580875  1.0
  H  H8  1  0.80741566  0.87164122  0.93580358  1.0
  H  H9  1  0.06415597  0.12837543  0.19253464  1.0
  H  H10  1  0.28399555  0.00258201  0.10047181  1.0
  H  H11  1  0.28399140  0.00264554  0.90207114  1.0
  H  H12  1  0.71842696  0.00257611  0.10051521  1.0
  H  H13  1  0.71843994  0.00255386  0.90206515  1.0
  H  H14  1  0.09785862  0.99735289  0.28145483  1.0
  H  H15  1  0.89941114  0.99732190  0.28138172  1.0
  H  H16  1  0.09781892  0.99728365  0.71583691  1.0
  H  H17  1  0.89941683  0.99733614  0.71589921  1.0
  H  H18  1  0.28407795  0.18353938  0.90210425  1.0
  H  H19  1  0.28409326  0.38194920  0.10056166  1.0
  H  H20  1  0.71855921  0.61802712  0.90214347  1.0
  H  H21  1  0.71851327  0.81643139  0.10054681  1.0
  H  H22  1  0.89944009  0.18358101  0.28145625  1.0
  H  H23  1  0.09783562  0.38198941  0.28140754  1.0
  H  H24  1  0.89937711  0.61801184  0.71584452  1.0
  H  H25  1  0.09784547  0.81645530  0.71589733  1.0
  H  H26  1  0.89942606  0.61800801  0.90211246  1.0
  H  H27  1  0.09782425  0.81648294  0.10057381  1.0
  H  H28  1  0.89941349  0.18358220  0.90216241  1.0
  H  H29  1  0.09786811  0.38202484  0.10056733  1.0
  H  H30  1  0.28410615  0.18350268  0.28133838  1.0
  H  H31  1  0.28408893  0.38194052  0.28137001  1.0
  H  H32  1  0.71855167  0.61801019  0.71584519  1.0
  H  H33  1  0.71858538  0.81643418  0.71579729  1.0
  C  C34  1  0.20914194  0.00389975  0.00192304  1.0
  C  C35  1  0.99799651  0.99608765  0.79076383  1.0
  C  C36  1  0.79460170  0.00385774  0.00193185  1.0
  C  C37  1  0.99800634  0.99608509  0.20528698  1.0
  C  C38  1  0.99799155  0.79273750  0.00194952  1.0
  C  C39  1  0.20919551  0.20722981  0.20525492  1.0
  C  C40  1  0.99801617  0.20728417  0.00198313  1.0
  C  C41  1  0.79467335  0.79274747  0.79075039  1.0
  C  C42  1  0.99798103  0.79273444  0.79075352  1.0
  C  C43  1  0.79465950  0.79274176  0.00196245  1.0
  C  C44  1  0.99801199  0.20727394  0.20529439  1.0
  C  C45  1  0.20919241  0.20724281  0.00194356  1.0
  C  C46  1  0.27754952  0.00307539  0.00150138  1.0
  C  C47  1  0.30922165  0.00209559  0.05699875  1.0
  C  C48  1  0.37235303  0.00042188  0.05588385  1.0
  C  C49  1  0.40663414  0.99969537  0.99978827  1.0
  C  C50  1  0.37235078  0.00044722  0.94444276  1.0
  C  C51  1  0.30922256  0.00212967  0.94503051  1.0
  C  C52  1  0.47106661  0.99868035  0.99928825  1.0
  C  C53  1  0.52743158  0.99861784  0.99929570  1.0
  C  C54  1  0.59284413  0.99956813  0.99978035  1.0
  C  C55  1  0.62786121  0.00032542  0.05588828  1.0
  C  C56  1  0.69268634  0.00203208  0.05701376  1.0
  C  C57  1  0.72534067  0.00300184  0.00150788  1.0
  C  C58  1  0.69269362  0.00202372  0.94502255  1.0
  C  C59  1  0.62786468  0.00030924  0.94442486  1.0
  C  C60  1  0.99840816  0.99688626  0.27451603  1.0
  C  C61  1  0.05488298  0.99786429  0.30717819  1.0
  C  C62  1  0.05544246  0.99954984  0.37199298  1.0
  C  C63  1  0.00006033  0.00027213  0.40698006  1.0
  C  C64  1  0.94396252  0.99951259  0.37193897  1.0
  C  C65  1  0.94288084  0.99783487  0.30713164  1.0
  C  C66  1  0.00054086  0.00127650  0.47241908  1.0
  C  C67  1  0.00056464  0.00128739  0.52882500  1.0
  C  C68  1  0.00007723  0.00027481  0.59325432  1.0
  C  C69  1  0.05543689  0.99952490  0.62751295  1.0
  C  C70  1  0.05486397  0.99782966  0.69063762  1.0
  C  C71  1  0.99839680  0.99687679  0.72232843  1.0
  C  C72  1  0.94288526  0.99784636  0.69066081  1.0
  C  C73  1  0.94398152  0.99953055  0.62753308  1.0
  C  C74  1  0.27763998  0.27606797  0.00156256  1.0
  C  C75  1  0.30932475  0.25224043  0.94509363  1.0
  C  C76  1  0.37247927  0.31647911  0.94454589  1.0
  C  C77  1  0.40677257  0.40684892  0.99993308  1.0
  C  C78  1  0.37248194  0.42792610  0.05601730  1.0
  C  C79  1  0.30932771  0.36421507  0.05709238  1.0
  C  C80  1  0.47121666  0.47178362  0.99944992  1.0
  C  C81  1  0.52761317  0.52817921  0.99942957  1.0
  C  C82  1  0.59302406  0.59311632  0.99991321  1.0
  C  C83  1  0.62803840  0.57204678  0.94455242  1.0
  C  C84  1  0.69282338  0.63576167  0.94511137  1.0
  C  C85  1  0.72544598  0.72391053  0.00157619  1.0
  C  C86  1  0.69279320  0.74773030  0.05707960  1.0
  C  C87  1  0.62799937  0.68348593  0.05598344  1.0
  C  C88  1  0.99840891  0.27610304  0.27452247  1.0
  C  C89  1  0.94291222  0.25228055  0.30718123  1.0
  C  C90  1  0.94402100  0.31651998  0.37199219  1.0
  C  C91  1  0.00009891  0.40688860  0.40697830  1.0
  C  C92  1  0.05544967  0.42796313  0.37195570  1.0
  C  C93  1  0.05487271  0.36425273  0.30714884  1.0
  C  C94  1  0.00059884  0.47182769  0.47240542  1.0
  C  C95  1  0.00057824  0.52822195  0.52879764  1.0
  C  C96  1  0.00007505  0.59315218  0.59322880  1.0
  C  C97  1  0.94397150  0.57205863  0.62749568  1.0
  C  C98  1  0.94286317  0.63575872  0.69062897  1.0
  C  C99  1  0.99838786  0.72391142  0.72232595  1.0
  C  C100  1  0.05487228  0.74775350  0.69065957  1.0
  C  C101  1  0.05545000  0.68352485  0.62752468  1.0
  C  C102  1  0.99839664  0.72392092  0.00156793  1.0
  C  C103  1  0.94289549  0.63576457  0.94509892  1.0
  C  C104  1  0.94400223  0.57207293  0.94455014  1.0
  C  C105  1  0.00008629  0.59318199  0.99994334  1.0
  C  C106  1  0.05544178  0.68355808  0.05602729  1.0
  C  C107  1  0.05486529  0.74777693  0.05710111  1.0
  C  C108  1  0.00059109  0.52825567  0.99945143  1.0
  C  C109  1  0.00058820  0.47183262  0.99941461  1.0
  C  C110  1  0.00009354  0.40689341  0.99990098  1.0
  C  C111  1  0.94399776  0.31651995  0.94454952  1.0
  C  C112  1  0.94289565  0.25228544  0.94512574  1.0
  C  C113  1  0.99841655  0.27611781  0.00158968  1.0
  C  C114  1  0.05489378  0.36427381  0.05709037  1.0
  C  C115  1  0.05546920  0.42797835  0.05598095  1.0
  C  C116  1  0.27765085  0.27604674  0.27444731  1.0
  C  C117  1  0.30934135  0.25220464  0.30706238  1.0
  C  C118  1  0.37249067  0.31643716  0.37185279  1.0
  C  C119  1  0.40679187  0.40681136  0.40684887  1.0
  C  C120  1  0.37249908  0.42789658  0.37185391  1.0
  C  C121  1  0.30933629  0.36419582  0.30707875  1.0
  C  C122  1  0.47124851  0.47175376  0.47226822  1.0
  C  C123  1  0.52764992  0.52817593  0.52866621  1.0
  C  C124  1  0.59305949  0.59312525  0.59313447  1.0
  C  C125  1  0.62805431  0.57205138  0.62744023  1.0
  C  C126  1  0.69284092  0.63575535  0.69059800  1.0
  C  C127  1  0.72548113  0.72390979  0.72228290  1.0
  C  C128  1  0.69285730  0.74773316  0.69057449  1.0
  C  C129  1  0.62806354  0.68349696  0.62742393  1.0
  Br  Br130  1  0.41309116  0.99913827  0.86693472  1.0
  Br  Br131  1  0.41313714  0.99915351  0.13208776  1.0
  Br  Br132  1  0.58575444  0.99902932  0.86696526  1.0
  Br  Br133  1  0.58573343  0.99905793  0.13205521  1.0
  Br  Br134  1  0.86775832  0.00080837  0.41399267  1.0
  Br  Br135  1  0.13292075  0.00087925  0.41412818  1.0
  Br  Br136  1  0.86781017  0.00082646  0.58672442  1.0
  Br  Br137  1  0.13290464  0.00082630  0.58669543  1.0
  Br  Br138  1  0.41327859  0.54619459  0.13220627  1.0
  Br  Br139  1  0.41327537  0.28112720  0.86706083  1.0
  Br  Br140  1  0.58585965  0.71883412  0.13212136  1.0
  Br  Br141  1  0.58594383  0.45377134  0.86708224  1.0
  Br  Br142  1  0.13293299  0.54623778  0.41407062  1.0
  Br  Br143  1  0.86789920  0.28116965  0.41414926  1.0
  Br  Br144  1  0.13296437  0.71888491  0.58676174  1.0
  Br  Br145  1  0.86781461  0.45377570  0.58668788  1.0
  Br  Br146  1  0.13293033  0.71895357  0.13219955  1.0
  Br  Br147  1  0.86789537  0.45378946  0.86704342  1.0
  Br  Br148  1  0.13297847  0.54625536  0.13209631  1.0
  Br  Br149  1  0.86783779  0.28114567  0.86706342  1.0
  Br  Br150  1  0.41328549  0.54617102  0.41397139  1.0
  Br  Br151  1  0.41325046  0.28104461  0.41397099  1.0
  Br  Br152  1  0.58592161  0.71885309  0.58664362  1.0
  Br  Br153  1  0.58590904  0.45377418  0.58666504  1.0
  O  O154  1  0.18205744  0.00351165  0.05418830  1.0
  O  O155  1  0.94574920  0.99650295  0.81787247  1.0
  O  O156  1  0.82132333  0.00349313  0.94929525  1.0
  O  O157  1  0.05065127  0.99646847  0.17857723  1.0
  O  O158  1  0.94572949  0.76717180  0.94929431  1.0
  O  O159  1  0.18209957  0.23279705  0.17856827  1.0
  O  O160  1  0.05068068  0.23283615  0.05422614  1.0
  O  O161  1  0.82135768  0.76719469  0.81786807  1.0
  O  O162  1  0.05062552  0.87208893  0.81784961  1.0
  O  O163  1  0.82135619  0.87209556  0.05421215  1.0
  O  O164  1  0.94573723  0.12792054  0.17857530  1.0
  O  O165  1  0.18207680  0.12788822  0.94927612  1.0
  O  O166  1  0.82135207  0.76718837  0.94929873  1.0
  O  O167  1  0.05067703  0.23282765  0.17860411  1.0
  O  O168  1  0.18209428  0.23280464  0.05419834  1.0
  O  O169  1  0.94572561  0.76718136  0.81785287  1.0
  O  O170  1  0.05064683  0.87209288  0.05420027  1.0
  O  O171  1  0.82136568  0.87210129  0.81785836  1.0
  O  O172  1  0.94574478  0.12793122  0.94934336  1.0
  O  O173  1  0.18207841  0.12787570  0.17856809  1.0
  O  O174  1  0.94575255  0.99649471  0.17859788  1.0
  O  O175  1  0.18204566  0.00350367  0.94926974  1.0
  O  O176  1  0.05064376  0.99647578  0.81785874  1.0
  O  O177  1  0.82133006  0.00349649  0.05420224  1.0
  O  O178  1  0.04589046  0.09186165  0.13777324  1.0
  O  O179  1  0.86217644  0.90815328  0.95406261  1.0
  O  O180  1  0.04588367  0.09186100  0.95406464  1.0
  O  O181  1  0.04587228  0.90813191  0.95404694  1.0
  O  O182  1  0.96606406  0.93223572  0.89833609  1.0
  O  O183  1  0.10161319  0.06776311  0.03386706  1.0
  O  O184  1  0.96607648  0.06777373  0.03387836  1.0
  O  O185  1  0.96606619  0.93222777  0.03387805  1.0
