# generated using pymatgen
data_CdH13C15NO5
_symmetry_space_group_name_H-M   'P 1'
_cell_length_a   18.09287027
_cell_length_b   18.09292211
_cell_length_c   18.09287007
_cell_angle_alpha   96.00370364
_cell_angle_beta   116.59638618
_cell_angle_gamma   116.59652502
_symmetry_Int_Tables_number   1
_chemical_formula_structural   CdH13C15NO5
_chemical_formula_sum   'Cd8 H104 C120 N8 O40'
_cell_volume   4377.44828952
_cell_formula_units_Z   8
loop_
 _symmetry_equiv_pos_site_id
 _symmetry_equiv_pos_as_xyz
  1  'x, y, z'
loop_
 _atom_site_type_symbol
 _atom_site_label
 _atom_site_symmetry_multiplicity
 _atom_site_fract_x
 _atom_site_fract_y
 _atom_site_fract_z
 _atom_site_occupancy
  Cd  Cd0  1  0.83652329  0.68834146  0.16484181  1.0
  Cd  Cd1  1  0.66348395  0.82832222  0.85182356  1.0
  Cd  Cd2  1  0.47649664  0.66483663  0.32831604  1.0
  Cd  Cd3  1  0.02350176  0.35181996  0.18834066  1.0
  Cd  Cd4  1  0.16347874  0.31166088  0.83515892  1.0
  Cd  Cd5  1  0.33651932  0.17167812  0.14818029  1.0
  Cd  Cd6  1  0.52350023  0.33516037  0.67168183  1.0
  Cd  Cd7  1  0.97649863  0.64818172  0.81166038  1.0
  H  H8  1  0.95993025  0.88938259  0.24404581  1.0
  H  H9  1  0.85784510  0.85697601  0.23037782  1.0
  H  H10  1  0.63833087  0.55453024  0.00389502  1.0
  H  H11  1  0.58685614  0.48221099  0.89559679  1.0
  H  H12  1  0.69082589  0.59407181  0.94256917  1.0
  H  H13  1  0.98632486  0.62882579  0.25019277  1.0
  H  H14  1  0.94568696  0.52311162  0.26041323  1.0
  H  H15  1  0.88265671  0.57596114  0.25953332  1.0
  H  H16  1  0.88996298  0.44433275  0.91315253  1.0
  H  H17  1  0.88614759  0.33503461  0.81562200  1.0
  H  H18  1  0.77679008  0.17173571  0.77704758  1.0
  H  H19  1  0.67425735  0.11950832  0.84026701  1.0
  H  H20  1  0.67916800  0.23009855  0.93987912  1.0
  H  H21  1  0.54008295  0.78412554  0.92946221  1.0
  H  H22  1  0.64216973  0.87254218  0.99913995  1.0
  H  H23  1  0.86166822  0.86556303  0.91619715  1.0
  H  H24  1  0.91314421  0.80874118  0.89535321  1.0
  H  H25  1  0.80917507  0.75174344  0.90324563  1.0
  H  H26  1  0.51367395  0.76386741  0.64249987  1.0
  H  H27  1  0.55431281  0.81472593  0.57742380  1.0
  H  H28  1  0.61734377  0.87687642  0.69330415  1.0
  H  H29  1  0.61003859  0.52318934  0.55436975  1.0
  H  H30  1  0.61385580  0.42947371  0.44888937  1.0
  H  H31  1  0.72321094  0.50025773  0.39494587  1.0
  H  H32  1  0.82574052  0.66600787  0.44524815  1.0
  H  H33  1  0.82082932  0.76071004  0.55092658  1.0
  H  H34  1  0.35466542  0.74404385  0.28412441  1.0
  H  H35  1  0.37339920  0.73037007  0.37253838  1.0
  H  H36  1  0.44936431  0.50389324  0.36556214  1.0
  H  H37  1  0.41338467  0.39559545  0.30873911  1.0
  H  H38  1  0.34849710  0.44256822  0.25174294  1.0
  H  H39  1  0.62136694  0.75019230  0.26386785  1.0
  H  H40  1  0.73730235  0.76041280  0.31472588  1.0
  H  H41  1  0.68357220  0.75953183  0.37687693  1.0
  H  H42  1  0.46881855  0.41315015  0.02318989  1.0
  H  H43  1  0.48058317  0.31561818  0.92947345  1.0
  H  H44  1  0.60531084  0.27704710  0.00025649  1.0
  H  H45  1  0.72076008  0.34026756  0.16600647  1.0
  H  H46  1  0.70978440  0.43988093  0.26070993  1.0
  H  H47  1  0.14533812  0.42945784  0.38938017  1.0
  H  H48  1  0.12659544  0.49913365  0.35697260  1.0
  H  H49  1  0.05063399  0.41619696  0.05452926  1.0
  H  H50  1  0.08661385  0.39535296  0.98220958  1.0
  H  H51  1  0.15150230  0.40324468  0.09407180  1.0
  H  H52  1  0.87863344  0.14249993  0.12882506  1.0
  H  H53  1  0.76269652  0.07742179  0.02311010  1.0
  H  H54  1  0.81642552  0.19330275  0.07595976  1.0
  H  H55  1  0.03117894  0.05437153  0.94433209  1.0
  H  H56  1  0.01941525  0.94888831  0.83503772  1.0
  H  H57  1  0.89468949  0.89494470  0.67173726  1.0
  H  H58  1  0.77924287  0.94524833  0.61950729  1.0
  H  H59  1  0.79021655  0.05092803  0.73009433  1.0
  H  H60  1  0.04007612  0.11062177  0.75595653  1.0
  H  H61  1  0.14216045  0.14302702  0.76962512  1.0
  H  H62  1  0.36166766  0.44547144  0.99610518  1.0
  H  H63  1  0.41314218  0.51778935  0.10440428  1.0
  H  H64  1  0.30917141  0.40592788  0.05743028  1.0
  H  H65  1  0.01367573  0.37117523  0.74980829  1.0
  H  H66  1  0.05431219  0.47688806  0.73958539  1.0
  H  H67  1  0.11734306  0.42403854  0.74046669  1.0
  H  H68  1  0.11004174  0.55567094  0.08684900  1.0
  H  H69  1  0.11385836  0.66496708  0.18438264  1.0
  H  H70  1  0.22321216  0.82826598  0.22295318  1.0
  H  H71  1  0.32574140  0.88049471  0.15973289  1.0
  H  H72  1  0.32083157  0.76990581  0.06011963  1.0
  H  H73  1  0.45992341  0.21587681  0.07054433  1.0
  H  H74  1  0.35783788  0.12746219  0.00086571  1.0
  H  H75  1  0.13833257  0.13443530  0.08380262  1.0
  H  H76  1  0.08685515  0.19125784  0.10464378  1.0
  H  H77  1  0.19082573  0.24825491  0.09675359  1.0
  H  H78  1  0.48632293  0.23613160  0.35749932  1.0
  H  H79  1  0.44568551  0.18527241  0.42257596  1.0
  H  H80  1  0.38265600  0.12312127  0.30669565  1.0
  H  H81  1  0.38995705  0.47680566  0.44562570  1.0
  H  H82  1  0.38614479  0.57052530  0.55110927  1.0
  H  H83  1  0.27678903  0.49974128  0.60505304  1.0
  H  H84  1  0.17425759  0.33399113  0.55475159  1.0
  H  H85  1  0.17916797  0.23928764  0.44907321  1.0
  H  H86  1  0.64533166  0.25595248  0.71587404  1.0
  H  H87  1  0.62660119  0.26963161  0.62746267  1.0
  H  H88  1  0.55063360  0.49610443  0.63443627  1.0
  H  H89  1  0.58661489  0.60440290  0.69126011  1.0
  H  H90  1  0.65150143  0.55742945  0.74825630  1.0
  H  H91  1  0.37863220  0.24980737  0.73613186  1.0
  H  H92  1  0.26269741  0.23958688  0.68527411  1.0
  H  H93  1  0.31642653  0.24046717  0.62312309  1.0
  H  H94  1  0.53118143  0.58685087  0.97681035  1.0
  H  H95  1  0.51941577  0.68438216  0.07052625  1.0
  H  H96  1  0.39468893  0.72295458  0.99974262  1.0
  H  H97  1  0.27923969  0.65973212  0.83399243  1.0
  H  H98  1  0.29021495  0.56011808  0.73929036  1.0
  H  H99  1  0.85466248  0.57054518  0.61062000  1.0
  H  H100  1  0.87340372  0.50086804  0.64302458  1.0
  H  H101  1  0.94936742  0.58380338  0.94546989  1.0
  H  H102  1  0.91338694  0.60464538  0.01779018  1.0
  H  H103  1  0.84849808  0.59675499  0.90592847  1.0
  H  H104  1  0.12136818  0.85749975  0.87117522  1.0
  H  H105  1  0.23730366  0.92257656  0.97688884  1.0
  H  H106  1  0.18357342  0.80669559  0.92403863  1.0
  H  H107  1  0.96882249  0.94563283  0.05566860  1.0
  H  H108  1  0.98058720  0.05111270  0.16496583  1.0
  H  H109  1  0.10531131  0.10505365  0.32826582  1.0
  H  H110  1  0.22075669  0.05474801  0.38049283  1.0
  H  H111  1  0.20978074  0.94906965  0.26990325  1.0
  C  C112  1  0.91694245  0.42203335  0.13008745  1.0
  C  C113  1  0.64980287  0.39735039  0.84860536  1.0
  C  C114  1  0.72046779  0.43842908  0.94822579  1.0
  C  C115  1  0.72428727  0.50537246  0.99957029  1.0
  C  C116  1  0.65640205  0.53554027  0.95787739  1.0
  C  C117  1  0.85165055  0.51868530  0.13121799  1.0
  C  C118  1  0.92044062  0.56390291  0.23105796  1.0
  C  C119  1  0.84998420  0.45166078  0.08282057  1.0
  C  C120  1  0.78507746  0.41173737  0.98940590  1.0
  C  C121  1  0.78469759  0.34463856  0.93338208  1.0
  C  C122  1  0.84246218  0.37339983  0.89761848  1.0
  C  C123  1  0.83932735  0.31132774  0.84138574  1.0
  C  C124  1  0.77815103  0.21990885  0.82004812  1.0
  C  C125  1  0.72074476  0.19074050  0.85577795  1.0
  C  C126  1  0.72407580  0.25283598  0.91220321  1.0
  C  C127  1  0.58305554  0.71314337  0.50508965  1.0
  C  C128  1  0.85019714  0.69880190  0.74754682  1.0
  C  C129  1  0.77953052  0.72775648  0.71795951  1.0
  C  C130  1  0.77571386  0.77528378  0.78108550  1.0
  C  C131  1  0.84359833  0.80147494  0.87913762  1.0
  C  C132  1  0.64834861  0.77956582  0.66703364  1.0
  C  C133  1  0.57955956  0.81061670  0.64346151  1.0
  C  C134  1  0.65001340  0.73283422  0.60167389  1.0
  C  C135  1  0.71491671  0.70432311  0.62665800  1.0
  C  C136  1  0.71530511  0.64868604  0.55993996  1.0
  C  C137  1  0.65753738  0.55515614  0.53093830  1.0
  C  C138  1  0.66067197  0.50205710  0.47199922  1.0
  C  C139  1  0.72184775  0.54189571  0.44175784  1.0
  C  C140  1  0.77925304  0.63503057  0.46999099  1.0
  C  C141  1  0.77592248  0.68812560  0.52875738  1.0
  C  C142  1  0.70805551  0.63008776  0.21314552  1.0
  C  C143  1  0.45125484  0.34860465  0.19880133  1.0
  C  C144  1  0.50979648  0.44822540  0.22775627  1.0
  C  C145  1  0.49419753  0.49956843  0.27528329  1.0
  C  C146  1  0.42233612  0.45787575  0.30147354  1.0
  C  C147  1  0.61253334  0.63121677  0.27956811  1.0
  C  C148  1  0.66715539  0.73105707  0.31061709  1.0
  C  C149  1  0.63116142  0.58282040  0.23283645  1.0
  C  C150  1  0.57766529  0.48940460  0.20432374  1.0
  C  C151  1  0.58874460  0.43337897  0.14868652  1.0
  C  C152  1  0.52421815  0.39761930  0.05515635  1.0
  C  C153  1  0.53005677  0.34138478  0.00205639  1.0
  C  C154  1  0.60013778  0.32004883  0.04189442  1.0
  C  C155  1  0.66503981  0.35577731  0.13503007  1.0
  C  C156  1  0.65936704  0.41220109  0.18812518  1.0
  C  C157  1  0.79194360  0.00509128  0.92202935  1.0
  C  C158  1  0.04875077  0.24754789  0.89735493  1.0
  C  C159  1  0.99020485  0.21796053  0.93843009  1.0
  C  C160  1  0.00580039  0.28108480  0.00537054  1.0
  C  C161  1  0.07766332  0.37913713  0.03554003  1.0
  C  C162  1  0.88746368  0.16703338  0.01868157  1.0
  C  C163  1  0.83284286  0.14346090  0.06389991  1.0
  C  C164  1  0.86883625  0.10167423  0.95165668  1.0
  C  C165  1  0.92233375  0.12665824  0.91173838  1.0
  C  C166  1  0.91125534  0.05994266  0.84463475  1.0
  C  C167  1  0.97578092  0.03093637  0.87339985  1.0
  C  C168  1  0.96994207  0.97199977  0.81132855  1.0
  C  C169  1  0.89986258  0.94175677  0.71991147  1.0
  C  C170  1  0.83496141  0.96999079  0.69073809  1.0
  C  C171  1  0.84062951  0.02875618  0.75283219  1.0
  C  C172  1  0.08305897  0.57796901  0.86991135  1.0
  C  C173  1  0.35019649  0.60265063  0.15139626  1.0
  C  C174  1  0.27953095  0.56157194  0.05177499  1.0
  C  C175  1  0.27571311  0.49462922  0.00042963  1.0
  C  C176  1  0.34359627  0.46446007  0.04212314  1.0
  C  C177  1  0.14835128  0.48131772  0.86878328  1.0
  C  C178  1  0.07956059  0.43609811  0.76894283  1.0
  C  C179  1  0.15001536  0.54834156  0.91717906  1.0
  C  C180  1  0.21491901  0.58826097  0.01059414  1.0
  C  C181  1  0.21531044  0.65536848  0.06662128  1.0
  C  C182  1  0.15753924  0.62660053  0.10238122  1.0
  C  C183  1  0.16067407  0.68867461  0.15861528  1.0
  C  C184  1  0.22184895  0.78009017  0.17995246  1.0
  C  C185  1  0.27925523  0.80926454  0.14422327  1.0
  C  C186  1  0.27592377  0.74716838  0.08779553  1.0
  C  C187  1  0.41693741  0.28685029  0.49490942  1.0
  C  C188  1  0.14980159  0.30119711  0.25245099  1.0
  C  C189  1  0.22046780  0.27224186  0.28203860  1.0
  C  C190  1  0.22428487  0.22471523  0.21891396  1.0
  C  C191  1  0.15640123  0.19852340  0.12086105  1.0
  C  C192  1  0.35164559  0.22042785  0.33296490  1.0
  C  C193  1  0.42043773  0.18938097  0.35653828  1.0
  C  C194  1  0.34998121  0.26716012  0.39832491  1.0
  C  C195  1  0.28507811  0.29567257  0.37333992  1.0
  C  C196  1  0.28468991  0.35131096  0.44005653  1.0
  C  C197  1  0.34246115  0.44484153  0.46906093  1.0
  C  C198  1  0.33932594  0.49794058  0.52799863  1.0
  C  C199  1  0.27815222  0.45810330  0.55824162  1.0
  C  C200  1  0.22074528  0.36496777  0.53000822  1.0
  C  C201  1  0.22407605  0.31187208  0.47124297  1.0
  C  C202  1  0.29194529  0.36991259  0.78685556  1.0
  C  C203  1  0.54874554  0.65139502  0.80119894  1.0
  C  C204  1  0.49020329  0.55177428  0.77224318  1.0
  C  C205  1  0.50580202  0.50042991  0.72471702  1.0
  C  C206  1  0.57766220  0.54212259  0.69852512  1.0
  C  C207  1  0.38746643  0.36878292  0.72043189  1.0
  C  C208  1  0.33284355  0.26894327  0.68938316  1.0
  C  C209  1  0.36883876  0.41717995  0.76716436  1.0
  C  C210  1  0.42233386  0.51059508  0.79567488  1.0
  C  C211  1  0.41125496  0.56662137  0.85131401  1.0
  C  C212  1  0.47578183  0.60238172  0.94484333  1.0
  C  C213  1  0.46994279  0.65861556  0.99794358  1.0
  C  C214  1  0.39986220  0.67995219  0.95810526  1.0
  C  C215  1  0.33496037  0.64422304  0.86497018  1.0
  C  C216  1  0.34063108  0.58779792  0.81187346  1.0
  C  C217  1  0.20805494  0.99491042  0.07796589  1.0
  C  C218  1  0.95125642  0.75245380  0.10265026  1.0
  C  C219  1  0.00979821  0.78204048  0.06157097  1.0
  C  C220  1  0.99419979  0.71891555  0.99462806  1.0
  C  C221  1  0.92233872  0.62086323  0.96446050  1.0
  C  C222  1  0.11253588  0.83296697  0.98131785  1.0
  C  C223  1  0.16715690  0.85653877  0.93609898  1.0
  C  C224  1  0.13116269  0.89832612  0.04834081  1.0
  C  C225  1  0.07766561  0.87334278  0.08825936  1.0
  C  C226  1  0.08874650  0.94006037  0.15536377  1.0
  C  C227  1  0.02422091  0.96906465  0.12660177  1.0
  C  C228  1  0.03006121  0.02800259  0.18867275  1.0
  C  C229  1  0.10013739  0.05824224  0.28009076  1.0
  C  C230  1  0.16503752  0.03000554  0.30926173  1.0
  C  C231  1  0.15937088  0.97124351  0.24716754  1.0
  N  N232  1  0.79079787  0.54514508  0.08892820  1.0
  N  N233  1  0.70920154  0.79812824  0.75434533  1.0
  N  N234  1  0.54378238  0.58892611  0.29812897  1.0
  N  N235  1  0.95621571  0.25434557  0.04514235  1.0
  N  N236  1  0.20920128  0.45485660  0.91107284  1.0
  N  N237  1  0.29079575  0.20186943  0.24565390  1.0
  N  N238  1  0.45621677  0.41107357  0.70187075  1.0
  N  N239  1  0.04378550  0.74565545  0.95485677  1.0
  O  O240  1  0.00710719  0.46842674  0.15339339  1.0
  O  O241  1  0.87977180  0.35024522  0.14337564  1.0
  O  O242  1  0.67632542  0.44043924  0.80419199  1.0
  O  O243  1  0.56743358  0.32238794  0.81290154  1.0
  O  O244  1  0.90987641  0.84541501  0.25149072  1.0
  O  O245  1  0.49289149  0.64628353  0.46131781  1.0
  O  O246  1  0.62022417  0.76360153  0.47047142  1.0
  O  O247  1  0.82367442  0.62786644  0.76411371  1.0
  O  O248  1  0.93256719  0.74546855  0.75495510  1.0
  O  O249  1  0.59013782  0.84162170  0.93554694  1.0
  O  O250  1  0.68496837  0.65339305  0.14628616  1.0
  O  O251  1  0.79313268  0.64337774  0.26360481  1.0
  O  O252  1  0.36375225  0.30419224  0.12786670  1.0
  O  O253  1  0.49051263  0.31290142  0.24546755  1.0
  O  O254  1  0.40607475  0.75148275  0.34162056  1.0
  O  O255  1  0.81503255  0.96131963  0.96842364  1.0
  O  O256  1  0.70686667  0.97047199  0.85024165  1.0
  O  O257  1  0.13624823  0.26410769  0.94043968  1.0
  O  O258  1  0.00949519  0.25496068  0.82239384  1.0
  O  O259  1  0.09392486  0.43554152  0.34541081  1.0
  O  O260  1  0.99289464  0.53157628  0.84660733  1.0
  O  O261  1  0.12022962  0.64975713  0.85662317  1.0
  O  O262  1  0.32367414  0.55956110  0.19580964  1.0
  O  O263  1  0.43256660  0.67761241  0.18710037  1.0
  O  O264  1  0.09013038  0.15459003  0.74851409  1.0
  O  O265  1  0.50710126  0.35371080  0.53868125  1.0
  O  O266  1  0.37976796  0.23639080  0.52952605  1.0
  O  O267  1  0.17632411  0.37213324  0.23588518  1.0
  O  O268  1  0.06743154  0.25453046  0.24504215  1.0
  O  O269  1  0.40986792  0.15838064  0.06445878  1.0
  O  O270  1  0.31503284  0.34660596  0.85371497  1.0
  O  O271  1  0.20686936  0.35662462  0.73639759  1.0
  O  O272  1  0.63624875  0.69580944  0.87213461  1.0
  O  O273  1  0.50948734  0.68709759  0.75453192  1.0
  O  O274  1  0.59392336  0.24851425  0.65837731  1.0
  O  O275  1  0.18496681  0.03868139  0.03157245  1.0
  O  O276  1  0.29313124  0.02952769  0.14975365  1.0
  O  O277  1  0.86375483  0.73588932  0.05956317  1.0
  O  O278  1  0.99051448  0.74504502  0.17761178  1.0
  O  O279  1  0.90607595  0.56446084  0.65458939  1.0
