# generated using pymatgen
data_Al3H17C36(O7F)2
_symmetry_space_group_name_H-M   'P 1'
_cell_length_a   12.17582062
_cell_length_b   12.20451076
_cell_length_c   27.03297212
_cell_angle_alpha   97.57311755
_cell_angle_beta   90.89090101
_cell_angle_gamma   118.28754612
_symmetry_Int_Tables_number   1
_chemical_formula_structural   Al3H17C36(O7F)2
_chemical_formula_sum   'Al6 H34 C72 O28 F4'
_cell_volume   3492.49390120
_cell_formula_units_Z   2
loop_
 _symmetry_equiv_pos_site_id
 _symmetry_equiv_pos_as_xyz
  1  'x, y, z'
loop_
 _atom_site_type_symbol
 _atom_site_label
 _atom_site_symmetry_multiplicity
 _atom_site_fract_x
 _atom_site_fract_y
 _atom_site_fract_z
 _atom_site_occupancy
  Al  Al0  1  0.58827162  0.18945497  0.51020130  1.0
  Al  Al1  1  0.59093441  0.92518603  0.50045748  1.0
  Al  Al2  1  0.34172978  0.91898943  0.49655158  1.0
  Al  Al3  1  0.08625183  0.16147809  0.98343311  1.0
  Al  Al4  1  0.34216931  0.42315403  0.99685173  1.0
  Al  Al5  1  0.10075527  0.43454829  0.99749303  1.0
  H  H6  1  0.52049666  0.68543613  0.79277101  1.0
  H  H7  1  0.21589393  0.39865487  0.38257308  1.0
  H  H8  1  0.04960246  0.17917628  0.35075917  1.0
  H  H9  1  0.15347133  0.24137789  0.30456876  1.0
  H  H10  1  0.98769019  0.60773904  0.73488682  1.0
  H  H11  1  0.96186208  0.45209929  0.71485641  1.0
  H  H12  1  0.89107370  0.48372898  0.76756418  1.0
  H  H13  1  0.07109499  0.46196016  0.79770373  1.0
  H  H14  1  0.09910820  0.61581619  0.81637740  1.0
  H  H15  1  0.59644688  0.25460770  0.34182660  1.0
  H  H16  1  0.66591759  0.34931407  0.29465544  1.0
  H  H17  1  0.14228734  0.59395854  0.68623547  1.0
  H  H18  1  0.69483304  0.41921085  0.35904207  1.0
  H  H19  1  0.53891775  0.46126027  0.31495497  1.0
  H  H20  1  0.47071773  0.36644852  0.36188146  1.0
  H  H21  1  0.96954686  0.00078836  0.19702423  1.0
  H  H22  1  0.04969925  0.09551526  0.15123090  1.0
  H  H23  1  0.95009285  0.93180205  0.13291856  1.0
  H  H24  1  0.17371776  0.98134809  0.13650222  1.0
  H  H25  1  0.09564005  0.88440737  0.18117402  1.0
  H  H26  1  0.18874813  0.81609574  0.24217239  1.0
  H  H27  1  0.25283062  0.88153124  0.30510376  1.0
  H  H28  1  0.58373714  0.90368293  0.68112279  1.0
  H  H29  1  0.09593661  0.75770419  0.29251519  1.0
  H  H30  1  0.10018504  0.96439603  0.31719201  1.0
  H  H31  1  0.03477882  0.90074699  0.25478206  1.0
  H  H32  1  0.65589994  0.91874024  0.74107173  1.0
  H  H33  1  0.73125904  0.90793033  0.68610628  1.0
  H  H34  1  0.63310422  0.70125126  0.71826163  1.0
  H  H35  1  0.56246247  0.68709931  0.65828321  1.0
  H  H36  1  0.17195705  0.45520924  0.33258465  1.0
  H  H37  1  0.06718759  0.39300910  0.37911444  1.0
  H  H38  1  0.70022584  0.39889806  0.55009136  1.0
  H  H39  1  0.95796509  0.95584509  0.94213997  1.0
  C  C40  1  0.72752206  0.11284714  0.58109100  1.0
  C  C41  1  0.33274023  0.19897070  0.81958448  1.0
  C  C42  1  0.33981524  0.18122189  0.77006705  1.0
  C  C43  1  0.39153234  0.76457367  0.55313360  1.0
  C  C44  1  0.34231208  0.16430461  0.72418822  1.0
  C  C45  1  0.34695898  0.14429800  0.67457190  1.0
  C  C46  1  0.35237044  0.12437842  0.62924275  1.0
  C  C47  1  0.89742596  0.23337834  0.86830839  1.0
  C  C48  1  0.87535255  0.21849469  0.82276839  1.0
  C  C49  1  0.85392041  0.20298794  0.77295025  1.0
  C  C50  1  0.83608475  0.18866360  0.72696323  1.0
  C  C51  1  0.21236466  0.59665910  0.76020633  1.0
  C  C52  1  0.81096244  0.16878796  0.67719719  1.0
  C  C53  1  0.78313607  0.14590057  0.63181904  1.0
  C  C54  1  0.32474284  0.63163288  0.12599809  1.0
  C  C55  1  0.37793535  0.09933098  0.57855914  1.0
  C  C56  1  0.33800452  0.65231147  0.17198960  1.0
  C  C57  1  0.35131604  0.67294586  0.22225165  1.0
  C  C58  1  0.36205043  0.69021540  0.26851619  1.0
  C  C59  1  0.37399729  0.71298395  0.31877705  1.0
  C  C60  1  0.38515061  0.73595525  0.36475102  1.0
  C  C61  1  0.32262834  0.11744978  0.39220705  1.0
  C  C62  1  0.22402333  0.61334992  0.71029313  1.0
  C  C63  1  0.40984918  0.26909242  0.28694182  1.0
  C  C64  1  0.40997655  0.28188697  0.23680180  1.0
  C  C65  1  0.22483496  0.07584082  0.21222994  1.0
  C  C66  1  0.21991029  0.05948914  0.26260218  1.0
  C  C67  1  0.73120312  0.10006804  0.44086151  1.0
  C  C68  1  0.31313404  0.15470272  0.29900156  1.0
  C  C69  1  0.32178138  0.18916816  0.19920357  1.0
  C  C70  1  0.32937301  0.21043371  0.14914782  1.0
  C  C71  1  0.31417983  0.13432606  0.34914518  1.0
  C  C72  1  0.33136103  0.22622632  0.10552083  1.0
  C  C73  1  0.34013055  0.65602959  0.68929674  1.0
  C  C74  1  0.78938011  0.12005818  0.39456777  1.0
  C  C75  1  0.74755590  0.13476782  0.26824913  1.0
  C  C76  1  0.76828784  0.16159504  0.21992066  1.0
  C  C77  1  0.98866475  0.24679316  0.24073639  1.0
  C  C78  1  0.97207072  0.22017581  0.28934595  1.0
  C  C79  1  0.40532290  0.78408308  0.41745051  1.0
  C  C80  1  0.84768107  0.16396573  0.30342189  1.0
  C  C81  1  0.89026351  0.21823658  0.20458453  1.0
  C  C82  1  0.91175480  0.23890273  0.15472441  1.0
  C  C83  1  0.82022926  0.13888205  0.35257470  1.0
  C  C84  1  0.32287847  0.62582502  0.79020864  1.0
  C  C85  1  0.93118873  0.25139384  0.11127421  1.0
  C  C86  1  0.29288814  0.23763743  0.91486721  1.0
  C  C87  1  0.29340353  0.56479259  0.93416200  1.0
  C  C88  1  0.94840095  0.25597010  0.91922654  1.0
  C  C89  1  0.30967202  0.24877946  0.05674514  1.0
  C  C90  1  0.29671950  0.58096752  0.07353167  1.0
  C  C91  1  0.36118124  0.09514157  0.43833608  1.0
  C  C92  1  0.97219543  0.26310294  0.06158008  1.0
  C  C93  1  0.36217923  0.70529543  0.59679508  1.0
  C  C94  1  0.44928431  0.68075736  0.71881542  1.0
  C  C95  1  0.31763091  0.61437572  0.84163725  1.0
  C  C96  1  0.43798879  0.66542768  0.76893050  1.0
  C  C97  1  0.57443159  0.72958773  0.69778723  1.0
  C  C98  1  0.64033988  0.87349827  0.70182421  1.0
  C  C99  1  0.08107606  0.25026698  0.32561463  1.0
  C  C100  1  0.13708268  0.38227564  0.35679104  1.0
  C  C101  1  0.08872360  0.54829831  0.78288883  1.0
  C  C102  1  0.97657491  0.52182418  0.74797744  1.0
  C  C103  1  0.50975109  0.36802965  0.32545287  1.0
  C  C104  1  0.62376053  0.34652567  0.33044062  1.0
  C  C105  1  0.12908189  0.97914022  0.17163284  1.0
  C  C106  1  0.34912051  0.67902006  0.63916517  1.0
  C  C107  1  0.01784177  0.00306313  0.16281956  1.0
  C  C108  1  0.12201002  0.94084040  0.27923983  1.0
  C  C109  1  0.16728423  0.84301520  0.27969862  1.0
  C  C110  1  0.31184877  0.60360959  0.88593970  1.0
  C  C111  1  0.32309781  0.21504986  0.86472153  1.0
  O  O112  1  0.47695495  0.18272820  0.56422362  1.0
  O  O113  1  0.19374957  0.55069521  0.95412516  1.0
  O  O114  1  0.97628502  0.36425382  0.94472942  1.0
  O  O115  1  0.70331587  0.19169001  0.56447837  1.0
  O  O116  1  0.99769406  0.17963168  0.04143197  1.0
  O  O117  1  0.21052388  0.16670094  0.03057477  1.0
  O  O118  1  0.39051597  0.35441972  0.04398060  1.0
  O  O119  1  0.37545574  0.55445231  0.05201537  1.0
  O  O120  1  0.19124522  0.55992052  0.05338226  1.0
  O  O121  1  0.98385863  0.35959873  0.04294723  1.0
  O  O122  1  0.17671019  0.34185097  0.99243952  1.0
  O  O123  1  0.50865238  0.80748283  0.44027424  1.0
  O  O124  1  0.70282237  0.00324187  0.55814240  1.0
  O  O125  1  0.50066228  0.79644588  0.53806470  1.0
  O  O126  1  0.30994302  0.78780083  0.53320618  1.0
  O  O127  1  0.29972655  0.99166248  0.55319335  1.0
  O  O128  1  0.46994193  0.17445109  0.45787983  1.0
  O  O129  1  0.69191949  0.17550614  0.45714889  1.0
  O  O130  1  0.71961426  0.00468249  0.46057998  1.0
  O  O131  1  0.32041494  0.80496700  0.43654451  1.0
  O  O132  1  0.28472239  0.99392881  0.45533711  1.0
  O  O133  1  0.50656972  0.00943938  0.50304252  1.0
  O  O134  1  0.96704879  0.17158501  0.93363554  1.0
  O  O135  1  0.18295988  0.16484917  0.92456380  1.0
  O  O136  1  0.37850293  0.33261282  0.94458978  1.0
  O  O137  1  0.37547300  0.54049478  0.95298656  1.0
  O  O138  1  0.66472740  0.35386359  0.51674560  1.0
  O  O139  1  0.00170726  0.99712202  0.97486358  1.0
  F  F140  1  0.67008682  0.13149948  0.18710510  1.0
  F  F141  1  0.10687930  0.30231839  0.22621090  1.0
  F  F142  1  0.50033470  0.38923538  0.22271327  1.0
  F  F143  1  0.62865232  0.07853561  0.28123086  1.0
