# generated using pymatgen
data_Zn2H20C29N2O9
_symmetry_space_group_name_H-M   'P 1'
_cell_length_a   9.67693996
_cell_length_b   11.08659288
_cell_length_c   13.21451703
_cell_angle_alpha   90.75867552
_cell_angle_beta   98.53168649
_cell_angle_gamma   90.83485801
_symmetry_Int_Tables_number   1
_chemical_formula_structural   Zn2H20C29N2O9
_chemical_formula_sum   'Zn2 H20 C29 N2 O9'
_cell_volume   1401.70278899
_cell_formula_units_Z   1
loop_
 _symmetry_equiv_pos_site_id
 _symmetry_equiv_pos_as_xyz
  1  'x, y, z'
loop_
 _atom_site_type_symbol
 _atom_site_label
 _atom_site_symmetry_multiplicity
 _atom_site_fract_x
 _atom_site_fract_y
 _atom_site_fract_z
 _atom_site_occupancy
  Zn  Zn0  1  0.36237525  0.49511909  0.49521845  1.0
  Zn  Zn1  1  0.64761006  0.50209677  0.51012354  1.0
  H  H2  1  0.68106679  0.52274938  0.18887191  1.0
  H  H3  1  0.23520877  0.49005308  0.16503409  1.0
  H  H4  1  0.79442737  0.51888264  0.03065336  1.0
  H  H5  1  0.21327816  0.47332208  0.97456964  1.0
  H  H6  1  0.77215886  0.50311595  0.84017866  1.0
  H  H7  1  0.32672460  0.46797920  0.81671464  1.0
  H  H8  1  0.72421077  0.89608912  0.57018237  1.0
  H  H9  1  0.72121825  0.11953763  0.55568731  1.0
  H  H10  1  0.16118530  0.10149489  0.46911438  1.0
  H  H11  1  0.99484025  0.80203053  0.36377690  1.0
  H  H12  1  0.96210166  0.94992506  0.41088390  1.0
  H  H13  1  0.21011103  0.09725374  0.34342506  1.0
  H  H14  1  0.93215290  0.82027764  0.48409965  1.0
  H  H15  1  0.22176699  0.87058403  0.35213127  1.0
  H  H16  1  0.84051172  0.38042201  0.38150545  1.0
  H  H17  1  0.10022132  0.37847930  0.37440228  1.0
  H  H18  1  0.19887796  0.61455828  0.72168738  1.0
  H  H19  1  0.17014452  0.73611039  0.63272055  1.0
  H  H20  1  0.93779285  0.60531477  0.73209817  1.0
  H  H21  1  0.91221614  0.73174965  0.64972467  1.0
  C  C22  1  0.51135453  0.73460248  0.51761586  1.0
  C  C23  1  0.62569667  0.06641008  0.53287470  1.0
  C  C24  1  0.50289500  0.12816541  0.49498344  1.0
  C  C25  1  0.53558000  0.48366585  0.70346341  1.0
  C  C26  1  0.38308096  0.05642830  0.46849747  1.0
  C  C27  1  0.23099416  0.05983876  0.42073189  1.0
  C  C28  1  0.23296543  0.91683152  0.42776177  1.0
  C  C29  1  0.95193440  0.56096513  0.57136371  1.0
  C  C30  1  0.91430035  0.43295332  0.43568489  1.0
  C  C31  1  0.05744222  0.43227424  0.43163773  1.0
  C  C32  1  0.09502702  0.56135317  0.56672714  1.0
  C  C33  1  0.43639980  0.48885637  0.97199846  1.0
  C  C34  1  0.12964825  0.64904860  0.65545547  1.0
  C  C35  1  0.96670790  0.64597436  0.66270811  1.0
  C  C36  1  0.50217299  0.26241725  0.48867686  1.0
  C  C37  1  0.47156558  0.51096497  0.30167680  1.0
  C  C38  1  0.46035750  0.50641543  0.18730812  1.0
  C  C39  1  0.54713925  0.48665058  0.81786568  1.0
  C  C40  1  0.69196857  0.50821178  0.98379781  1.0
  C  C41  1  0.68036700  0.49978717  0.87889663  1.0
  C  C42  1  0.42820766  0.48013858  0.86437933  1.0
  C  C43  1  0.00035462  0.85933273  0.43342178  1.0
  C  C44  1  0.57126601  0.50363677  0.03336532  1.0
  C  C45  1  0.57951528  0.51203039  0.14100187  1.0
  C  C46  1  0.32703893  0.49331373  0.12633473  1.0
  C  C47  1  0.31565569  0.48433088  0.02146972  1.0
  C  C48  1  0.38409112  0.93121831  0.47839962  1.0
  C  C49  1  0.50577578  0.86906708  0.51392391  1.0
  C  C50  1  0.62708305  0.94112657  0.54165457  1.0
  N  N51  1  0.85872270  0.49858618  0.50693197  1.0
  N  N52  1  0.15124901  0.49771564  0.49799956  1.0
  O  O53  1  0.39474807  0.67820576  0.51112072  1.0
  O  O54  1  0.63142443  0.68675250  0.52466708  1.0
  O  O55  1  0.41323368  0.47630246  0.65228250  1.0
  O  O56  1  0.64927178  0.49068800  0.66574577  1.0
  O  O57  1  0.38275320  0.31187722  0.47676463  1.0
  O  O58  1  0.62005055  0.31733297  0.49753388  1.0
  O  O59  1  0.35763210  0.51004930  0.33922857  1.0
  O  O60  1  0.59414483  0.51399529  0.35303302  1.0
  O  O61  1  0.13890882  0.86447808  0.48806936  1.0
