# generated using pymatgen
data_CoH16(C4N)4
_symmetry_space_group_name_H-M   'P 1'
_cell_length_a   7.12521111
_cell_length_b   18.56023537
_cell_length_c   18.56012012
_cell_angle_alpha   89.99994935
_cell_angle_beta   90.00006751
_cell_angle_gamma   89.99987952
_symmetry_Int_Tables_number   1
_chemical_formula_structural   CoH16(C4N)4
_chemical_formula_sum   'Co4 H64 C64 N16'
_cell_volume   2454.49413341
_cell_formula_units_Z   4
loop_
 _symmetry_equiv_pos_site_id
 _symmetry_equiv_pos_as_xyz
  1  'x, y, z'
loop_
 _atom_site_type_symbol
 _atom_site_label
 _atom_site_symmetry_multiplicity
 _atom_site_fract_x
 _atom_site_fract_y
 _atom_site_fract_z
 _atom_site_occupancy
  Co  Co0  1  0.24999937  0.25000070  0.25000026  1.0
  Co  Co1  1  0.75000080  0.74999986  0.74999907  1.0
  Co  Co2  1  0.25000158  0.74999899  0.74999950  1.0
  Co  Co3  1  0.74999718  0.24999996  0.24999930  1.0
  H  H4  1  0.06400741  0.39241219  0.32405086  1.0
  H  H5  1  0.18898880  0.47079530  0.35150434  1.0
  H  H6  1  0.20027263  0.43962547  0.26066874  1.0
  H  H7  1  0.77884087  0.48414022  0.42139303  1.0
  H  H8  1  0.06401217  0.10759260  0.17594957  1.0
  H  H9  1  0.18899109  0.02920777  0.14849561  1.0
  H  H10  1  0.20028203  0.06037813  0.23933122  1.0
  H  H11  1  0.77883740  0.01586021  0.07860612  1.0
  H  H12  1  0.56401011  0.82405294  0.60758936  1.0
  H  H13  1  0.68898727  0.85150624  0.52920519  1.0
  H  H14  1  0.70027565  0.76067171  0.56037582  1.0
  H  H15  1  0.27884904  0.92140423  0.51586786  1.0
  H  H16  1  0.56400813  0.67594855  0.89240978  1.0
  H  H17  1  0.68898567  0.64849569  0.97079401  1.0
  H  H18  1  0.70027487  0.73932967  0.93962284  1.0
  H  H19  1  0.27884786  0.57859803  0.98413115  1.0
  H  H20  1  0.43598955  0.60758959  0.82405193  1.0
  H  H21  1  0.31101105  0.52920592  0.85150380  1.0
  H  H22  1  0.29972274  0.56037745  0.76067086  1.0
  H  H23  1  0.72114641  0.51586645  0.92140162  1.0
  H  H24  1  0.43598856  0.89240986  0.67594985  1.0
  H  H25  1  0.31100955  0.97079362  0.64849738  1.0
  H  H26  1  0.29972029  0.93962157  0.73933193  1.0
  H  H27  1  0.72114603  0.98413222  0.57860029  1.0
  H  H28  1  0.93598745  0.17594754  0.10758920  1.0
  H  H29  1  0.81100865  0.14849431  0.02920553  1.0
  H  H30  1  0.79972317  0.23932828  0.06037500  1.0
  H  H31  1  0.22115963  0.07860590  0.01585906  1.0
  H  H32  1  0.93598748  0.32405276  0.39241002  1.0
  H  H33  1  0.81100315  0.35150663  0.47079417  1.0
  H  H34  1  0.79971948  0.26067213  0.43962416  1.0
  H  H35  1  0.22116503  0.42139337  0.48413929  1.0
  H  H36  1  0.93598995  0.60758675  0.67594955  1.0
  H  H37  1  0.81100856  0.52920419  0.64849607  1.0
  H  H38  1  0.79972333  0.56037402  0.73933006  1.0
  H  H39  1  0.22116491  0.51585765  0.57860685  1.0
  H  H40  1  0.93599221  0.89241066  0.82405084  1.0
  H  H41  1  0.81100908  0.97079333  0.85150372  1.0
  H  H42  1  0.79972375  0.93962405  0.76067027  1.0
  H  H43  1  0.22116136  0.98413981  0.92139321  1.0
  H  H44  1  0.43598585  0.17594816  0.39241105  1.0
  H  H45  1  0.31100869  0.14849540  0.47079577  1.0
  H  H46  1  0.29972031  0.23933047  0.43962459  1.0
  H  H47  1  0.72114833  0.07859794  0.48413309  1.0
  H  H48  1  0.43598783  0.32405201  0.10758955  1.0
  H  H49  1  0.31100748  0.35150488  0.02920532  1.0
  H  H50  1  0.29972109  0.26067035  0.06037596  1.0
  H  H51  1  0.72115512  0.42140146  0.01586980  1.0
  H  H52  1  0.56401062  0.39240990  0.17594956  1.0
  H  H53  1  0.68899052  0.47079302  0.14849715  1.0
  H  H54  1  0.70027883  0.43962204  0.23933117  1.0
  H  H55  1  0.27885376  0.48413303  0.07859933  1.0
  H  H56  1  0.56401021  0.10759071  0.32405056  1.0
  H  H57  1  0.68899202  0.02920694  0.35150465  1.0
  H  H58  1  0.70028129  0.06037738  0.26066956  1.0
  H  H59  1  0.27885133  0.01587050  0.42140120  1.0
  H  H60  1  0.06401272  0.82405194  0.89240798  1.0
  H  H61  1  0.18899292  0.85150517  0.97079327  1.0
  H  H62  1  0.20028261  0.76067013  0.93962272  1.0
  H  H63  1  0.77883914  0.92139412  0.98414027  1.0
  H  H64  1  0.06401269  0.67594673  0.60758931  1.0
  H  H65  1  0.18899280  0.64849339  0.52920516  1.0
  H  H66  1  0.20027929  0.73932735  0.56037572  1.0
  H  H67  1  0.77883935  0.57860450  0.51586059  1.0
  C  C68  1  0.19540834  0.42263320  0.31739736  1.0
  C  C69  1  0.36427366  0.37884166  0.33578092  1.0
  C  C70  1  0.65718416  0.49039341  0.45655602  1.0
  C  C71  1  0.19541328  0.07736932  0.18260259  1.0
  C  C72  1  0.36427690  0.12116019  0.16421749  1.0
  C  C73  1  0.65718062  0.00960497  0.04344361  1.0
  C  C74  1  0.69541251  0.81740051  0.57736814  1.0
  C  C75  1  0.86427489  0.83578434  0.62115938  1.0
  C  C76  1  0.15718938  0.95656332  0.50960870  1.0
  C  C77  1  0.69541199  0.68260142  0.92263106  1.0
  C  C78  1  0.86427293  0.66421690  0.87884098  1.0
  C  C79  1  0.15719122  0.54343850  0.99039241  1.0
  C  C80  1  0.30458720  0.57736804  0.81739840  1.0
  C  C81  1  0.13572474  0.62116012  0.83578453  1.0
  C  C82  1  0.84281585  0.50960785  0.95656306  1.0
  C  C83  1  0.30458747  0.92263097  0.68260278  1.0
  C  C84  1  0.13572660  0.87884011  0.66421710  1.0
  C  C85  1  0.84281113  0.99039288  0.54343621  1.0
  C  C86  1  0.80458777  0.18260162  0.07736738  1.0
  C  C87  1  0.63572411  0.16421774  0.12115855  1.0
  C  C88  1  0.34281926  0.04344412  0.00960484  1.0
  C  C89  1  0.80458512  0.31739987  0.42263178  1.0
  C  C90  1  0.63572264  0.33578227  0.37883946  1.0
  C  C91  1  0.34282449  0.45655397  0.49039519  1.0
  C  C92  1  0.80458902  0.57736628  0.68260197  1.0
  C  C93  1  0.63572791  0.62115837  0.66421733  1.0
  C  C94  1  0.34282583  0.50960231  0.54344654  1.0
  C  C95  1  0.80458970  0.92263178  0.81739728  1.0
  C  C96  1  0.63572608  0.87884037  0.83578184  1.0
  C  C97  1  0.34281955  0.99039452  0.95655519  1.0
  C  C98  1  0.30458345  0.18260167  0.42263281  1.0
  C  C99  1  0.13572248  0.16421730  0.37884157  1.0
  C  C100  1  0.84280939  0.04343939  0.49039279  1.0
  C  C101  1  0.30458538  0.31739915  0.07736828  1.0
  C  C102  1  0.13572443  0.33578366  0.12115944  1.0
  C  C103  1  0.84281036  0.45656098  0.00960854  1.0
  C  C104  1  0.69541157  0.42263144  0.18260309  1.0
  C  C105  1  0.86427543  0.37883991  0.16421749  1.0
  C  C106  1  0.15718432  0.49039110  0.04343735  1.0
  C  C107  1  0.69541130  0.07736906  0.31739763  1.0
  C  C108  1  0.86427357  0.12115991  0.33578277  1.0
  C  C109  1  0.15718483  0.00960876  0.45656420  1.0
  C  C110  1  0.19541661  0.81739840  0.92263088  1.0
  C  C111  1  0.36427746  0.83578228  0.87884079  1.0
  C  C112  1  0.65717950  0.95655590  0.99039450  1.0
  C  C113  1  0.19541505  0.68260016  0.57736755  1.0
  C  C114  1  0.36427753  0.66421507  0.62115880  1.0
  C  C115  1  0.65718550  0.54344282  0.50960684  1.0
  C  C116  1  0.50000021  0.39000846  0.39000582  1.0
  C  C117  1  0.50000296  0.44584501  0.44584379  1.0
  C  C118  1  0.49999774  0.10999382  0.10999159  1.0
  C  C119  1  0.49999921  0.05415619  0.05415523  1.0
  C  C120  1  0.99999983  0.89000882  0.60999189  1.0
  C  C121  1  0.99999959  0.94584434  0.55415656  1.0
  C  C122  1  0.99999679  0.60999070  0.89000799  1.0
  C  C123  1  0.99999843  0.55415463  0.94584386  1.0
  C  C124  1  0.50000136  0.60998941  0.60999406  1.0
  C  C125  1  0.50000423  0.55415232  0.55415662  1.0
  C  C126  1  0.50000103  0.89000729  0.89000613  1.0
  C  C127  1  0.50000237  0.94584384  0.94584357  1.0
  C  C128  1  0.99999738  0.10999456  0.39000983  1.0
  C  C129  1  0.99999481  0.05415742  0.44584354  1.0
  C  C130  1  0.00000198  0.39000933  0.10999243  1.0
  C  C131  1  0.00000174  0.44584431  0.05415763  1.0
  N  N132  1  0.41622590  0.32142482  0.29538737  1.0
  N  N133  1  0.41623035  0.17857807  0.20461054  1.0
  N  N134  1  0.91622863  0.79538987  0.67857552  1.0
  N  N135  1  0.91622769  0.70461025  0.82142378  1.0
  N  N136  1  0.08377098  0.67857645  0.79539036  1.0
  N  N137  1  0.08377186  0.82142274  0.70460964  1.0
  N  N138  1  0.58377195  0.20461216  0.17857571  1.0
  N  N139  1  0.58377051  0.29539004  0.32142173  1.0
  N  N140  1  0.58377427  0.67857629  0.70461089  1.0
  N  N141  1  0.58377543  0.82142303  0.79538772  1.0
  N  N142  1  0.08377014  0.20461069  0.32142381  1.0
  N  N143  1  0.08376968  0.29538870  0.17857610  1.0
  N  N144  1  0.91622779  0.32142250  0.20461005  1.0
  N  N145  1  0.91622831  0.17857674  0.29538970  1.0
  N  N146  1  0.41623243  0.79538948  0.82142201  1.0
  N  N147  1  0.41623106  0.70460944  0.67857545  1.0
