# generated using pymatgen
data_Zn4H9C24S4NO13
_symmetry_space_group_name_H-M   'P 1'
_cell_length_a   19.68165291
_cell_length_b   19.68810716
_cell_length_c   33.37311668
_cell_angle_alpha   79.09728247
_cell_angle_beta   79.11244788
_cell_angle_gamma   63.86635079
_symmetry_Int_Tables_number   1
_chemical_formula_structural   Zn4H9C24S4NO13
_chemical_formula_sum   'Zn16 H36 C96 S16 N4 O52'
_cell_volume   11318.25561324
_cell_formula_units_Z   4
loop_
 _symmetry_equiv_pos_site_id
 _symmetry_equiv_pos_as_xyz
  1  'x, y, z'
loop_
 _atom_site_type_symbol
 _atom_site_label
 _atom_site_symmetry_multiplicity
 _atom_site_fract_x
 _atom_site_fract_y
 _atom_site_fract_z
 _atom_site_occupancy
  Zn  Zn0  1  0.60011643  0.94554772  0.52212281  1.0
  Zn  Zn1  1  0.51684734  0.01532402  0.43900159  1.0
  Zn  Zn2  1  0.44108156  0.94057310  0.51740762  1.0
  Zn  Zn3  1  0.44460229  0.09755820  0.52082045  1.0
  Zn  Zn4  1  0.65085845  0.30568081  0.72771413  1.0
  Zn  Zn5  1  0.81060070  0.31031567  0.73390948  1.0
  Zn  Zn6  1  0.73270546  0.23218105  0.80899471  1.0
  Zn  Zn7  1  0.80482639  0.15104278  0.72750756  1.0
  Zn  Zn8  1  0.23461773  0.73270252  0.31043060  1.0
  Zn  Zn9  1  0.30459653  0.65102660  0.22763177  1.0
  Zn  Zn10  1  0.15351133  0.80588092  0.22885395  1.0
  Zn  Zn11  1  0.31164560  0.81026881  0.23357001  1.0
  Zn  Zn12  1  0.93976413  0.43989986  0.01647834  1.0
  Zn  Zn13  1  0.94526534  0.59841482  0.02188075  1.0
  Zn  Zn14  1  0.09879663  0.44544307  0.02206921  1.0
  Zn  Zn15  1  0.01614778  0.51621538  0.93948282  1.0
  H  H16  1  0.75062678  0.04483271  0.64876341  1.0
  H  H17  1  0.54772479  0.25424470  0.64924694  1.0
  H  H18  1  0.69817232  0.99987296  0.60144976  1.0
  H  H19  1  0.40256274  0.90414911  0.30023992  1.0
  H  H20  1  0.30019385  0.79651250  0.40144749  1.0
  H  H21  1  0.44709927  0.95175659  0.35018917  1.0
  H  H22  1  0.48948336  0.71472913  0.59092160  1.0
  H  H23  1  0.76135520  0.53561074  0.65897653  1.0
  H  H24  1  0.45377518  0.22792961  0.35144758  1.0
  H  H25  1  0.29658823  0.52108493  0.39820783  1.0
  H  H26  1  0.72914288  0.95326397  0.35131998  1.0
  H  H27  1  0.02225296  0.79590979  0.39831463  1.0
  H  H28  1  0.22010438  0.19967397  0.59699918  1.0
  H  H29  1  0.02932147  0.05068736  0.65281499  1.0
  H  H30  1  0.95025479  0.44877304  0.84649641  1.0
  H  H31  1  0.84658351  0.35054894  0.95176809  1.0
  H  H32  1  0.90197298  0.39715312  0.80050472  1.0
  H  H33  1  0.52147092  0.29676069  0.89831088  1.0
  H  H34  1  0.22801354  0.45341101  0.85174224  1.0
  H  H35  1  0.89204530  0.91258033  0.78966197  1.0
  H  H36  1  0.85843766  0.83645923  0.95983587  1.0
  H  H37  1  0.20525071  0.49926052  0.10148783  1.0
  H  H38  1  0.99580451  0.70215000  0.10075170  1.0
  H  H39  1  0.25013909  0.55183241  0.14870946  1.0
  H  H40  1  0.52927238  0.55075995  0.15251195  1.0
  H  H41  1  0.72074310  0.69918327  0.09731042  1.0
  H  H42  1  0.26172128  0.03643477  0.15900022  1.0
  H  H43  1  0.98945191  0.21432902  0.09106030  1.0
  H  H44  1  0.45790968  0.20472716  0.58088840  1.0
  H  H45  1  0.45230577  0.27466466  0.60906400  1.0
  H  H46  1  0.35672687  0.85777698  0.48064783  1.0
  H  H47  1  0.31131020  0.80496174  0.46939555  1.0
  H  H48  1  0.76939883  0.26934640  0.89292623  1.0
  H  H49  1  0.77683562  0.28454598  0.94205211  1.0
  H  H50  1  0.04538202  0.79218671  0.16898796  1.0
  H  H51  1  0.97545364  0.79785423  0.14075794  1.0
  C  C52  1  0.68440451  0.93866450  0.43819007  1.0
  C  C53  1  0.42832764  0.93119801  0.43101945  1.0
  C  C54  1  0.56172090  0.81583526  0.56115553  1.0
  C  C55  1  0.31581859  0.06182784  0.56147180  1.0
  C  C56  1  0.56770930  0.07018510  0.57033110  1.0
  C  C57  1  0.43923190  0.18348598  0.43826469  1.0
  C  C58  1  0.68882805  0.43451613  0.68886842  1.0
  C  C59  1  0.82029556  0.31712673  0.82028097  1.0
  C  C60  1  0.56581315  0.31149801  0.81142361  1.0
  C  C61  1  0.81041935  0.06502254  0.81067155  1.0
  C  C62  1  0.68064374  0.18114171  0.67979878  1.0
  C  C63  1  0.93407144  0.18824417  0.68868565  1.0
  C  C64  1  0.31093641  0.56568653  0.31142590  1.0
  C  C65  1  0.17993443  0.68260165  0.17964248  1.0
  C  C66  1  0.06697730  0.81064579  0.31155166  1.0
  C  C67  1  0.18946100  0.93524625  0.18944506  1.0
  C  C68  1  0.32101413  0.81840244  0.31966675  1.0
  C  C69  1  0.43412353  0.68837567  0.18842094  1.0
  C  C70  1  0.81605849  0.56166707  0.06141983  1.0
  C  C71  1  0.06899745  0.56918180  0.07015977  1.0
  C  C72  1  0.06124499  0.31589055  0.06104460  1.0
  C  C73  1  0.18373391  0.43867731  0.93856417  1.0
  C  C74  1  0.92923376  0.43146293  0.93034066  1.0
  C  C75  1  0.93900510  0.68406181  0.93880285  1.0
  C  C76  1  0.59380311  0.10075257  0.59853838  1.0
  C  C77  1  0.65133941  0.15263883  0.65142405  1.0
  C  C78  1  0.54926745  0.17431744  0.61201632  1.0
  C  C79  1  0.69507400  0.08005404  0.63829662  1.0
  C  C80  1  0.58029118  0.19845809  0.63846953  1.0
  C  C81  1  0.66582474  0.05556656  0.61224584  1.0
  C  C82  1  0.39922090  0.90160362  0.40383663  1.0
  C  C83  1  0.34883685  0.84736648  0.34855182  1.0
  C  C84  1  0.35679323  0.85700314  0.41935354  1.0
  C  C85  1  0.39043314  0.89148109  0.33326239  1.0
  C  C86  1  0.33264463  0.83063263  0.39057357  1.0
  C  C87  1  0.41477093  0.91759180  0.36095036  1.0
  C  C88  1  0.54651888  0.69686378  0.59879263  1.0
  C  C89  1  0.70435631  0.55343755  0.65106376  1.0
  C  C90  1  0.58709043  0.74101617  0.58609999  1.0
  C  C91  1  0.66381284  0.50930026  0.66378467  1.0
  C  C92  1  0.66175240  0.62174489  0.62742009  1.0
  C  C93  1  0.58906405  0.62859521  0.62245106  1.0
  C  C94  1  0.42460084  0.27316930  0.37110404  1.0
  C  C95  1  0.32601642  0.47585757  0.37854909  1.0
  C  C96  1  0.41427935  0.25848992  0.41350109  1.0
  C  C97  1  0.33637708  0.49051531  0.33613455  1.0
  C  C98  1  0.35815898  0.39680407  0.39135069  1.0
  C  C99  1  0.39260947  0.35224784  0.35832043  1.0
  C  C100  1  0.77430629  0.92387319  0.37102801  1.0
  C  C101  1  0.97705478  0.82521673  0.37861440  1.0
  C  C102  1  0.75955480  0.91342592  0.41343209  1.0
  C  C103  1  0.99184533  0.83562117  0.33621793  1.0
  C  C104  1  0.89793729  0.85724074  0.39135419  1.0
  C  C105  1  0.85342353  0.89178543  0.35829339  1.0
  C  C106  1  0.19964492  0.15532684  0.60206715  1.0
  C  C107  1  0.05007912  0.09481087  0.64788756  1.0
  C  C108  1  0.24101986  0.08632082  0.58638687  1.0
  C  C109  1  0.00892646  0.16373709  0.66367371  1.0
  C  C110  1  0.11963156  0.09154437  0.62554746  1.0
  C  C111  1  0.13026555  0.15844001  0.62455914  1.0
  C  C112  1  0.84723166  0.34473329  0.84960946  1.0
  C  C113  1  0.90065266  0.40215016  0.90193258  1.0
  C  C114  1  0.83065590  0.33056921  0.89320281  1.0
  C  C115  1  0.91706129  0.41602405  0.85900326  1.0
  C  C116  1  0.85831818  0.36051796  0.91844764  1.0
  C  C117  1  0.89028487  0.38735881  0.83379419  1.0
  C  C118  1  0.47621164  0.32611907  0.87864736  1.0
  C  C119  1  0.27335210  0.42411243  0.87135587  1.0
  C  C120  1  0.49080790  0.33665964  0.83622754  1.0
  C  C121  1  0.25882664  0.41357344  0.91376063  1.0
  C  C122  1  0.35244235  0.39232462  0.85851872  1.0
  C  C123  1  0.39713741  0.35788791  0.89150850  1.0
  C  C124  1  0.87545484  0.91954831  0.82211751  1.0
  C  C125  1  0.87509403  0.82957470  0.92737877  1.0
  C  C126  1  0.83585189  0.99044636  0.83589227  1.0
  C  C127  1  0.91435725  0.75869611  0.91356541  1.0
  C  C128  1  0.86088321  0.88819860  0.89415022  1.0
  C  C129  1  0.88980515  0.86092562  0.85535773  1.0
  C  C130  1  0.14932663  0.65630142  0.15150987  1.0
  C  C131  1  0.09743189  0.59851918  0.09861827  1.0
  C  C132  1  0.07571366  0.70068602  0.13799584  1.0
  C  C133  1  0.16997868  0.55485685  0.11186099  1.0
  C  C134  1  0.05161461  0.66958668  0.11154009  1.0
  C  C135  1  0.19444390  0.58422693  0.13787781  1.0
  C  C136  1  0.55011148  0.59481223  0.14765623  1.0
  C  C137  1  0.70005228  0.65501749  0.10223248  1.0
  C  C138  1  0.50899266  0.66367259  0.16349711  1.0
  C  C139  1  0.74121729  0.58617300  0.08637856  1.0
  C  C140  1  0.63053986  0.65823477  0.12460086  1.0
  C  C141  1  0.61973331  0.59149328  0.12539579  1.0
  C  C142  1  0.20468598  0.05400670  0.15119855  1.0
  C  C143  1  0.04648678  0.19669354  0.09887883  1.0
  C  C144  1  0.16424532  0.00979851  0.16421565  1.0
  C  C145  1  0.08681507  0.24102623  0.08603210  1.0
  C  C146  1  0.08928671  0.12860080  0.12259619  1.0
  C  C147  1  0.16193517  0.12204506  0.12741584  1.0
  S  S148  1  0.67678991  0.70002117  0.60278981  1.0
  S  S149  1  0.57399137  0.55038171  0.64716163  1.0
  S  S150  1  0.36577923  0.34036268  0.43801658  1.0
  S  S151  1  0.38500790  0.40866925  0.31165528  1.0
  S  S152  1  0.84141208  0.86476075  0.43797882  1.0
  S  S153  1  0.90998370  0.88423632  0.31166453  1.0
  S  S154  1  0.19596647  0.02504603  0.59882697  1.0
  S  S155  1  0.05416688  0.22478511  0.65147917  1.0
  S  S156  1  0.40875232  0.38506342  0.81182280  1.0
  S  S157  1  0.34081681  0.36519180  0.93820602  1.0
  S  S158  1  0.81597307  0.98630612  0.88913275  1.0
  S  S159  1  0.93428305  0.76282019  0.86033896  1.0
  S  S160  1  0.55442992  0.72458634  0.15149174  1.0
  S  S161  1  0.69590226  0.52514893  0.09850430  1.0
  S  S162  1  0.07441188  0.05046889  0.14764764  1.0
  S  S163  1  0.17663517  0.20038968  0.10256312  1.0
  N  N164  1  0.47883141  0.22141047  0.60088072  1.0
  N  N165  1  0.33867619  0.83920929  0.46015497  1.0
  N  N166  1  0.79016454  0.28957503  0.91123961  1.0
  N  N167  1  0.02855530  0.77101684  0.14918067  1.0
  O  O168  1  0.50183943  0.99937253  0.49943970  1.0
  O  O169  1  0.68455800  0.92258875  0.47720081  1.0
  O  O170  1  0.46821772  0.96807255  0.41432040  1.0
  O  O171  1  0.49557788  0.84255560  0.54940731  1.0
  O  O172  1  0.62622401  0.97411289  0.41858677  1.0
  O  O173  1  0.60812580  0.84738732  0.55351662  1.0
  O  O174  1  0.41187663  0.91796729  0.47018154  1.0
  O  O175  1  0.34497474  0.99403775  0.55153377  1.0
  O  O176  1  0.50087794  0.11135268  0.55886442  1.0
  O  O177  1  0.34514558  0.11000161  0.55191072  1.0
  O  O178  1  0.61259842  0.00496746  0.55876433  1.0
  O  O179  1  0.47383282  0.12510491  0.41887064  1.0
  O  O180  1  0.42359454  0.18393960  0.47731670  1.0
  O  O181  1  0.75005539  0.25000338  0.74908270  1.0
  O  O182  1  0.64112225  0.40437711  0.69701669  1.0
  O  O183  1  0.83580779  0.33480927  0.78182628  1.0
  O  O184  1  0.62420315  0.27687835  0.83095979  1.0
  O  O185  1  0.75529783  0.40665276  0.70016196  1.0
  O  O186  1  0.56577407  0.32656937  0.77238719  1.0
  O  O187  1  0.78238962  0.27676869  0.83516722  1.0
  O  O188  1  0.77340161  0.12335876  0.83022510  1.0
  O  O189  1  0.74634565  0.13707208  0.69085012  1.0
  O  O190  1  0.82730597  0.06510235  0.77179361  1.0
  O  O191  1  0.63765987  0.24713196  0.69078424  1.0
  O  O192  1  0.90663952  0.25467615  0.70016376  1.0
  O  O193  1  0.90359185  0.14104855  0.69660496  1.0
  O  O194  1  0.25193691  0.74936498  0.25020948  1.0
  O  O195  1  0.27501035  0.62363032  0.33116655  1.0
  O  O196  1  0.24533450  0.63786832  0.19109073  1.0
  O  O197  1  0.06696308  0.82590154  0.27249516  1.0
  O  O198  1  0.32721331  0.56591736  0.27243182  1.0
  O  O199  1  0.12521935  0.77624422  0.33113413  1.0
  O  O200  1  0.13876486  0.74934667  0.19118394  1.0
  O  O201  1  0.14171810  0.90507869  0.19810837  1.0
  O  O202  1  0.33702793  0.83534568  0.28128591  1.0
  O  O203  1  0.25617863  0.90726333  0.20043280  1.0
  O  O204  1  0.28327852  0.77914987  0.33571673  1.0
  O  O205  1  0.40318689  0.64157521  0.19642575  1.0
  O  O206  1  0.40705697  0.75492280  0.19977068  1.0
  O  O207  1  0.00019650  0.49996706  0.99988258  1.0
  O  O208  1  0.84394219  0.49478474  0.05043573  1.0
  O  O209  1  0.00298118  0.61223334  0.05911557  1.0
  O  O210  1  0.10809283  0.34696418  0.05317018  1.0
  O  O211  1  0.84627680  0.60909522  0.05299063  1.0
  O  O212  1  0.99493822  0.34295256  0.04957184  1.0
  O  O213  1  0.11294867  0.50356954  0.05903098  1.0
  O  O214  1  0.18398062  0.42333120  0.97758126  1.0
  O  O215  1  0.96779752  0.46962334  0.91383167  1.0
  O  O216  1  0.12549555  0.47329732  0.91898600  1.0
  O  O217  1  0.91300635  0.41581765  0.96889562  1.0
  O  O218  1  0.92286659  0.68436306  0.97770869  1.0
  O  O219  1  0.97435314  0.62567709  0.91925904  1.0
