# generated using pymatgen
data_Al6H74C99O31
_symmetry_space_group_name_H-M   'P 1'
_cell_length_a   12.44488896
_cell_length_b   12.85628385
_cell_length_c   27.76800286
_cell_angle_alpha   90.48026018
_cell_angle_beta   90.46306772
_cell_angle_gamma   117.81929675
_symmetry_Int_Tables_number   1
_chemical_formula_structural   Al6H74C99O31
_chemical_formula_sum   'Al6 H74 C99 O31'
_cell_volume   3928.76789350
_cell_formula_units_Z   1
loop_
 _symmetry_equiv_pos_site_id
 _symmetry_equiv_pos_as_xyz
  1  'x, y, z'
loop_
 _atom_site_type_symbol
 _atom_site_label
 _atom_site_symmetry_multiplicity
 _atom_site_fract_x
 _atom_site_fract_y
 _atom_site_fract_z
 _atom_site_occupancy
  Al  Al0  1  0.18291719  0.58338537  0.49287578  1.0
  Al  Al1  1  0.92459691  0.58149043  0.49673912  1.0
  Al  Al2  1  0.92539788  0.34868410  0.49527428  1.0
  Al  Al3  1  0.16472094  0.07440155  0.98141737  1.0
  Al  Al4  1  0.41063472  0.32082487  0.98174554  1.0
  Al  Al5  1  0.43300235  0.09889299  0.98157190  1.0
  H  H6  1  0.12287992  0.47181617  0.19877684  1.0
  H  H7  1  0.59230467  0.47043025  0.85851322  1.0
  H  H8  1  0.83556890  0.54509684  0.72058699  1.0
  H  H9  1  0.86914952  0.56906349  0.63306995  1.0
  H  H10  1  0.94669340  0.22031862  0.62168450  1.0
  H  H11  1  0.26347241  0.50948560  0.78205633  1.0
  H  H12  1  0.29814776  0.47773839  0.86827475  1.0
  H  H13  1  0.97653336  0.19718992  0.70916015  1.0
  H  H14  1  0.09649160  0.13565814  0.75572885  1.0
  H  H15  1  0.12388421  0.10452747  0.84256324  1.0
  H  H16  1  0.33724913  0.48962252  0.70356076  1.0
  H  H17  1  0.36931477  0.35733733  0.21858589  1.0
  H  H18  1  0.30485139  0.51353498  0.61601736  1.0
  H  H19  1  0.28424193  0.72346043  0.61999745  1.0
  H  H20  1  0.00966016  0.79605475  0.78157245  1.0
  H  H21  1  0.05074543  0.85438952  0.86831095  1.0
  H  H22  1  0.32243129  0.77920313  0.70684722  1.0
  H  H23  1  0.39392459  0.92641933  0.75991098  1.0
  H  H24  1  0.83201554  0.29487223  0.20237231  1.0
  H  H25  1  0.43191990  0.97585861  0.84716236  1.0
  H  H26  1  0.02418671  0.86216163  0.70528869  1.0
  H  H27  1  0.98327026  0.80007440  0.61919489  1.0
  H  H28  1  0.17636767  0.66283676  0.25641422  1.0
  H  H29  1  0.47510389  0.17188733  0.21584678  1.0
  H  H30  1  0.01831394  0.12645804  0.20535530  1.0
  H  H31  1  0.20255604  0.17327090  0.27675996  1.0
  H  H32  1  0.95490750  0.28308727  0.25560411  1.0
  H  H33  1  0.70851664  0.61240198  0.23203546  1.0
  H  H34  1  0.77198422  0.58965229  0.17818552  1.0
  H  H35  1  0.61242655  0.53313888  0.18246238  1.0
  H  H36  1  0.46536992  0.51076898  0.28340379  1.0
  H  H37  1  0.37021486  0.49363419  0.33395144  1.0
  H  H38  1  0.52730126  0.72745928  0.28419727  1.0
  H  H39  1  0.02996532  0.70310794  0.18589193  1.0
  H  H40  1  0.44261442  0.70840832  0.33744106  1.0
  H  H41  1  0.57402456  0.63207628  0.37979603  1.0
  H  H42  1  0.66287366  0.77635144  0.35822528  1.0
  H  H43  1  0.65919207  0.65434120  0.32646653  1.0
  H  H44  1  0.45467522  0.85250802  0.25420290  1.0
  H  H45  1  0.40073586  0.79761395  0.19513493  1.0
  H  H46  1  0.47403277  0.95163798  0.20633029  1.0
  H  H47  1  0.41840585  0.10141221  0.28964454  1.0
  H  H48  1  0.29568700  0.05348031  0.33043253  1.0
  H  H49  1  0.39030888  0.98509526  0.33027386  1.0
  H  H50  1  0.18534288  0.04054176  0.22458723  1.0
  H  H51  1  0.90755710  0.85512422  0.22614196  1.0
  H  H52  1  0.88187914  0.75132198  0.27250649  1.0
  H  H53  1  0.95692535  0.90377303  0.28651466  1.0
  H  H54  1  0.73440950  0.03007860  0.77144474  1.0
  H  H55  1  0.64262021  0.03486482  0.81919992  1.0
  H  H56  1  0.91952313  0.18700288  0.81140979  1.0
  H  H57  1  0.83273357  0.19662006  0.85942255  1.0
  H  H58  1  0.76606205  0.98211587  0.87932960  1.0
  H  H59  1  0.92540898  0.06916091  0.88408855  1.0
  H  H60  1  0.86041854  0.97684162  0.83273449  1.0
  H  H61  1  0.64864388  0.19638357  0.61122307  1.0
  H  H62  1  0.73110309  0.69359158  0.76548963  1.0
  H  H63  1  0.71679020  0.63381824  0.82422329  1.0
  H  H64  1  0.50462131  0.59856721  0.75730902  1.0
  H  H65  1  0.48945358  0.54726754  0.81668156  1.0
  H  H66  1  0.60640335  0.75888533  0.84771066  1.0
  H  H67  1  0.47373904  0.73549433  0.81495838  1.0
  H  H68  1  0.61832616  0.80874761  0.78763884  1.0
  H  H69  1  0.96547397  0.55364816  0.23399266  1.0
  H  H70  1  0.90641647  0.58448610  0.28745459  1.0
  H  H71  1  0.95686123  0.47665296  0.28778847  1.0
  H  H72  1  0.51670952  0.36879376  0.27511978  1.0
  H  H73  1  0.65383088  0.05664355  0.24665923  1.0
  H  H74  1  0.75153151  0.14351119  0.29448286  1.0
  H  H75  1  0.59205569  0.07632761  0.30158414  1.0
  H  H76  1  0.63973679  0.16196714  0.86453230  1.0
  H  H77  1  0.60322833  0.17381819  0.69833232  1.0
  H  H78  1  0.37814113  0.68381908  0.46055215  1.0
  H  H79  1  0.96500533  0.97961158  0.00985785  1.0
  C  C80  1  0.08697883  0.70874048  0.42566450  1.0
  C  C81  1  0.70558086  0.35321042  0.33867243  1.0
  C  C82  1  0.18450076  0.23846041  0.25845350  1.0
  C  C83  1  0.77877057  0.39637452  0.42955695  1.0
  C  C84  1  0.08195414  0.21287764  0.22008846  1.0
  C  C85  1  0.20957355  0.31193367  0.09556193  1.0
  C  C86  1  0.11333262  0.33722842  0.37893285  1.0
  C  C87  1  0.27787844  0.34196536  0.22778503  1.0
  C  C88  1  0.17541636  0.31755618  0.18861120  1.0
  C  C89  1  0.24215719  0.43043719  0.25415954  1.0
  C  C90  1  0.14770417  0.32410059  0.28647514  1.0
  C  C91  1  0.72724017  0.37130413  0.38178779  1.0
  C  C92  1  0.13948546  0.40477164  0.21637189  1.0
  C  C93  1  0.04690147  0.30000724  0.24676510  1.0
  C  C94  1  0.19219522  0.31539298  0.13850546  1.0
  C  C95  1  0.09384640  0.37201809  0.42596131  1.0
  C  C96  1  0.12957196  0.32767356  0.33626876  1.0
  C  C97  1  0.26330168  0.93541946  0.27079592  1.0
  C  C98  1  0.29182849  0.85958908  0.23271622  1.0
  C  C99  1  0.25598130  0.93254018  0.10205262  1.0
  C  C100  1  0.10420205  0.75902027  0.37847186  1.0
  C  C101  1  0.18270736  0.95621090  0.23246003  1.0
  C  C102  1  0.56394129  0.24260434  0.22701496  1.0
  C  C103  1  0.21117771  0.88206022  0.19379094  1.0
  C  C104  1  0.06719267  0.84320584  0.24872392  1.0
  C  C105  1  0.14733961  0.81954032  0.28757712  1.0
  C  C106  1  0.09585436  0.76793971  0.21102710  1.0
  C  C107  1  0.10453534  0.71176712  0.56406902  1.0
  C  C108  1  0.17680492  0.74631910  0.24877016  1.0
  C  C109  1  0.23832417  0.91079334  0.14482671  1.0
  C  C110  1  0.12074564  0.78732767  0.33625034  1.0
  C  C111  1  0.75953368  0.38473734  0.61629977  1.0
  C  C112  1  0.68730163  0.27293302  0.63528417  1.0
  C  C113  1  0.66138320  0.32550635  0.18963558  1.0
  C  C114  1  0.66315182  0.26045522  0.68434294  1.0
  C  C115  1  0.71448826  0.35793261  0.71628141  1.0
  C  C116  1  0.79137211  0.46866936  0.69684067  1.0
  C  C117  1  0.81106821  0.48250215  0.64763261  1.0
  C  C118  1  0.68133600  0.25038733  0.79552556  1.0
  C  C119  1  0.79308988  0.40272500  0.56485386  1.0
  C  C120  1  0.64509846  0.23512878  0.84359588  1.0
  C  C121  1  0.61999774  0.41136760  0.84067294  1.0
  C  C122  1  0.65621365  0.42629881  0.79260071  1.0
  C  C123  1  0.68484372  0.34485480  0.76825919  1.0
  C  C124  1  0.66604839  0.22830066  0.25576163  1.0
  C  C125  1  0.61331856  0.31471436  0.86577712  1.0
  C  C126  1  0.12497660  0.36715339  0.61400891  1.0
  C  C127  1  0.03232853  0.27743726  0.63994562  1.0
  C  C128  1  0.04961007  0.26474308  0.68852139  1.0
  C  C129  1  0.15929050  0.34120647  0.71199227  1.0
  C  C130  1  0.25117279  0.43147129  0.68570854  1.0
  C  C131  1  0.10352104  0.38673682  0.56319023  1.0
  C  C132  1  0.23447462  0.44447347  0.63707088  1.0
  C  C133  1  0.23467128  0.42082316  0.79518142  1.0
  C  C134  1  0.25307083  0.40358650  0.84328058  1.0
  C  C135  1  0.68746208  0.33901053  0.28827178  1.0
  C  C136  1  0.15402688  0.19266918  0.82872427  1.0
  C  C137  1  0.13794393  0.21043707  0.78063295  1.0
  C  C138  1  0.17748711  0.32467082  0.76316976  1.0
  C  C139  1  0.21189318  0.28924136  0.86028867  1.0
  C  C140  1  0.13160323  0.75820221  0.61442801  1.0
  C  C141  1  0.22841212  0.75446630  0.63924248  1.0
  C  C142  1  0.24963633  0.78665564  0.68759955  1.0
  C  C143  1  0.58682623  0.35253431  0.25836877  1.0
  C  C144  1  0.17605473  0.82467937  0.71259967  1.0
  C  C145  1  0.08050316  0.83005126  0.68706079  1.0
  C  C146  1  0.76228449  0.31156594  0.21923773  1.0
  C  C147  1  0.05799475  0.79672293  0.63869718  1.0
  C  C148  1  0.10279294  0.83711833  0.79553821  1.0
  C  C149  1  0.12454837  0.86750187  0.84412775  1.0
  C  C150  1  0.33966643  0.93518583  0.83242491  1.0
  C  C151  1  0.31766251  0.90668082  0.78369403  1.0
  C  C152  1  0.19883011  0.85657841  0.76426565  1.0
  C  C153  1  0.24336951  0.91632167  0.86302604  1.0
  C  C154  1  0.23689778  0.28855019  0.04781880  1.0
  C  C155  1  0.68462935  0.43651000  0.22230537  1.0
  C  C156  1  0.56727661  0.27971693  0.04842422  1.0
  C  C157  1  0.78666831  0.42146150  0.25087476  1.0
  C  C158  1  0.26705587  0.97265648  0.05324905  1.0
  C  C159  1  0.23202968  0.26582074  0.91077537  1.0
  C  C160  1  0.56217578  0.28978486  0.91493286  1.0
  C  C161  1  0.26724996  0.95833542  0.91391222  1.0
  C  C162  1  0.61931691  0.30683503  0.09605113  1.0
  C  C163  1  0.69492756  0.54884451  0.20286827  1.0
  C  C164  1  0.41284938  0.54792878  0.30222505  1.0
  C  C165  1  0.49544175  0.67457425  0.31699285  1.0
  C  C166  1  0.60366157  0.68486461  0.34699771  1.0
  C  C167  1  0.41200829  0.86606569  0.22170718  1.0
  C  C168  1  0.64190503  0.31582546  0.13921432  1.0
  C  C169  1  0.34695004  0.02373358  0.30687428  1.0
  C  C170  1  0.94691526  0.83788389  0.25885007  1.0
  C  C171  1  0.72721855  0.08758678  0.79938940  1.0
  C  C172  1  0.83803800  0.13537994  0.83282731  1.0
  C  C173  1  0.84829759  0.03576693  0.85863541  1.0
  C  C174  1  0.67118113  0.62096733  0.78884408  1.0
  C  C175  1  0.54865754  0.61923985  0.79314064  1.0
  C  C176  1  0.56235492  0.73687114  0.81192864  1.0
  C  C177  1  0.90996375  0.51430561  0.26577825  1.0
  C  C178  1  0.66501596  0.11999824  0.27552870  1.0
  O  O179  1  0.17029363  0.47373147  0.44018098  1.0
  O  O180  1  0.55005336  0.18118632  0.02995983  1.0
  O  O181  1  0.35973494  0.98436543  0.02886264  1.0
  O  O182  1  0.16725585  0.68254562  0.44080937  1.0
  O  O183  1  0.18346293  0.96623383  0.93626565  1.0
  O  O184  1  0.16506326  0.16340722  0.92590196  1.0
  O  O185  1  0.31841910  0.34942957  0.93521651  1.0
  O  O186  1  0.52783978  0.36118449  0.93361133  1.0
  O  O187  1  0.54918272  0.19575864  0.93527089  1.0
  O  O188  1  0.37500078  0.98956623  0.93151579  1.0
  O  O189  1  0.33821214  0.16613226  0.98227462  1.0
  O  O190  1  0.81574264  0.50204072  0.54654618  1.0
  O  O191  1  0.98928624  0.69121433  0.44793352  1.0
  O  O192  1  0.79964002  0.49385143  0.44980591  1.0
  O  O193  1  0.80609447  0.31981832  0.44713662  1.0
  O  O194  1  0.99819555  0.29917293  0.44832750  1.0
  O  O195  1  0.18148664  0.47830469  0.54298080  1.0
  O  O196  1  0.17925650  0.68431534  0.54461294  1.0
  O  O197  1  0.00404650  0.69748526  0.54425195  1.0
  O  O198  1  0.31884724  0.54278705  0.26966632  1.0
  O  O199  1  0.71586916  0.17710734  0.77215492  1.0
  O  O200  1  0.66213473  0.51693039  0.76549524  1.0
  O  O201  1  0.80513910  0.32150989  0.54218493  1.0
  O  O202  1  0.00256250  0.31002649  0.54353533  1.0
  O  O203  1  0.00899842  0.50348914  0.49422221  1.0
  O  O204  1  0.18440993  0.99642642  0.03872004  1.0
  O  O205  1  0.16216919  0.19347873  0.02767653  1.0
  O  O206  1  0.33962206  0.36518846  0.03066800  1.0
  O  O207  1  0.53623950  0.35163337  0.02905333  1.0
  O  O208  1  0.34252793  0.65716087  0.49175134  1.0
  O  O209  1  0.00549235  0.99093174  0.97932775  1.0
