# generated using pymatgen
data_Al6H71C95N5O28
_symmetry_space_group_name_H-M   'P 1'
_cell_length_a   12.80310832
_cell_length_b   12.86289990
_cell_length_c   27.70839458
_cell_angle_alpha   88.71074335
_cell_angle_beta   89.23834480
_cell_angle_gamma   60.35352530
_symmetry_Int_Tables_number   1
_chemical_formula_structural   Al6H71C95N5O28
_chemical_formula_sum   'Al6 H71 C95 N5 O28'
_cell_volume   3964.79845872
_cell_formula_units_Z   1
loop_
 _symmetry_equiv_pos_site_id
 _symmetry_equiv_pos_as_xyz
  1  'x, y, z'
loop_
 _atom_site_type_symbol
 _atom_site_label
 _atom_site_symmetry_multiplicity
 _atom_site_fract_x
 _atom_site_fract_y
 _atom_site_fract_z
 _atom_site_occupancy
  Al  Al0  1  0.58018480  0.81899822  0.50195321  1.0
  Al  Al1  1  0.33738289  0.07287494  0.50054292  1.0
  Al  Al2  1  0.57052026  0.07348777  0.49978968  1.0
  Al  Al3  1  0.10025417  0.83582524  0.01511931  1.0
  Al  Al4  1  0.08914647  0.59277737  0.01428689  1.0
  Al  Al5  1  0.33189739  0.57567777  0.01552942  1.0
  H  H6  1  0.12633166  0.42872048  0.78160808  1.0
  H  H7  1  0.24713731  0.20186731  0.73879289  1.0
  H  H8  1  0.44263103  0.13321672  0.80322416  1.0
  H  H9  1  0.55181769  0.21774907  0.73442524  1.0
  H  H10  1  0.43493079  0.44158769  0.77623064  1.0
  H  H11  1  0.87316165  0.98878302  0.78569052  1.0
  H  H12  1  0.99700446  0.80935241  0.71536684  1.0
  H  H13  1  0.65202566  0.04102578  0.74225846  1.0
  H  H14  1  0.63945868  0.87186249  0.80556384  1.0
  H  H15  1  0.76240277  0.69250914  0.73505626  1.0
  H  H16  1  0.98384260  0.63884455  0.77830437  1.0
  H  H17  1  0.54488972  0.77383209  0.78776939  1.0
  H  H18  1  0.40242566  0.99237774  0.73721579  1.0
  H  H19  1  0.12954872  0.92286449  0.73615367  1.0
  H  H20  1  0.19776547  0.24598376  0.38011309  1.0
  H  H21  1  0.47365931  0.28466814  0.12540323  1.0
  H  H22  1  0.17406266  0.28340430  0.29129919  1.0
  H  H23  1  0.12299077  0.44626164  0.23571256  1.0
  H  H24  1  0.09242170  0.49778549  0.14802609  1.0
  H  H25  1  0.47664770  0.34291980  0.28930451  1.0
  H  H26  1  0.50008970  0.30442796  0.37781157  1.0
  H  H27  1  0.78057370  0.70235672  0.22026001  1.0
  H  H28  1  0.83591309  0.67936228  0.13313036  1.0
  H  H29  1  0.82460882  0.98738764  0.28250213  1.0
  H  H30  1  0.99011672  0.87647609  0.24101304  1.0
  H  H31  1  0.03308522  0.86465588  0.15304036  1.0
  H  H32  1  0.78407193  0.70201096  0.39123170  1.0
  H  H33  1  0.50730266  0.69951282  0.38468912  1.0
  H  H34  1  0.16914602  0.96345933  0.21790431  1.0
  H  H35  1  0.16400190  0.91874143  0.13175710  1.0
  H  H36  1  0.49634653  0.66049520  0.29790483  1.0
  H  H37  1  0.53590299  0.67605865  0.22500448  1.0
  H  H38  1  0.21778520  0.02768792  0.27716428  1.0
  H  H39  1  0.22257031  0.06086158  0.36467946  1.0
  H  H40  1  0.65085124  0.55780436  0.76244645  1.0
  H  H41  1  0.54576996  0.51534632  0.78223588  1.0
  H  H42  1  0.63871810  0.44463665  0.73164396  1.0
  H  H43  1  0.43857754  0.59198605  0.69898185  1.0
  H  H44  1  0.53930818  0.64434204  0.68561163  1.0
  H  H45  1  0.11419101  0.11916853  0.78512769  1.0
  H  H46  1  0.13860274  0.17958310  0.86259866  1.0
  H  H47  1  0.27715422  0.13762340  0.83212141  1.0
  H  H48  1  0.26423948  0.03594449  0.87330749  1.0
  H  H49  1  0.33019515  0.61073996  0.80284892  1.0
  H  H50  1  0.13190375  0.66421587  0.82534270  1.0
  H  H51  1  0.07965613  0.80706051  0.79713309  1.0
  H  H52  1  0.16459503  0.77081426  0.85118671  1.0
  H  H53  1  0.23239966  0.60513619  0.72654363  1.0
  H  H54  1  0.11558056  0.64849515  0.65353764  1.0
  H  H55  1  0.05588416  0.58026115  0.69382429  1.0
  H  H56  1  0.16226105  0.49462107  0.64852149  1.0
  H  H57  1  0.58886880  0.17201697  0.18561273  1.0
  H  H58  1  0.64028613  0.01807409  0.23608921  1.0
  H  H59  1  0.48598993  0.05840203  0.23137495  1.0
  H  H60  1  0.53705578  0.10769884  0.28087263  1.0
  H  H61  1  0.84818193  0.12848231  0.31728828  1.0
  H  H62  1  0.69681742  0.17939718  0.30041344  1.0
  H  H63  1  0.72951439  0.25258892  0.34647013  1.0
  H  H64  1  0.65592268  0.12751521  0.38544605  1.0
  H  H65  1  0.80482726  0.07437589  0.40080384  1.0
  H  H66  1  0.92433120  0.58734499  0.27438503  1.0
  H  H67  1  0.92273609  0.43520466  0.31857328  1.0
  H  H68  1  0.80443047  0.53803510  0.35588659  1.0
  H  H69  1  0.95446636  0.50531827  0.36690119  1.0
  H  H70  1  0.56357682  0.45981526  0.18901071  1.0
  H  H71  1  0.49015073  0.46977829  0.13368435  1.0
  H  H72  1  0.64979734  0.39739598  0.13573570  1.0
  H  H73  1  0.56591797  0.60161586  0.09816713  1.0
  H  H74  1  0.63880579  0.59284390  0.15321712  1.0
  H  H75  1  0.69680134  0.62210590  0.53133684  1.0
  H  H76  1  0.01054257  0.03355123  0.98566976  1.0
  C  C77  1  0.36824570  0.90364417  0.56997351  1.0
  C  C78  1  0.38642619  0.20712884  0.56838311  1.0
  C  C79  1  0.70482263  0.90346195  0.57009744  1.0
  C  C80  1  0.37895137  0.90589028  0.43085335  1.0
  C  C81  1  0.38114581  0.22039502  0.43442834  1.0
  C  C82  1  0.70746689  0.90256373  0.43239873  1.0
  C  C83  1  0.28387233  0.43041230  0.73273495  1.0
  C  C84  1  0.22072369  0.38228070  0.77044397  1.0
  C  C85  1  0.30394237  0.39881112  0.89889686  1.0
  C  C86  1  0.36676623  0.25389592  0.61612315  1.0
  C  C87  1  0.39144890  0.38961682  0.76791933  1.0
  C  C88  1  0.32880285  0.34572400  0.80650604  1.0
  C  C89  1  0.45736356  0.26375464  0.74520150  1.0
  C  C90  1  0.35020022  0.29936127  0.70886643  1.0
  C  C91  1  0.39668924  0.21731395  0.78256133  1.0
  C  C92  1  0.28798743  0.25609861  0.74771361  1.0
  C  C93  1  0.31727032  0.37145626  0.85642131  1.0
  C  C94  1  0.35985316  0.27549796  0.65909419  1.0
  C  C95  1  0.91806896  0.82317278  0.73607377  1.0
  C  C96  1  0.84870794  0.92308248  0.77390507  1.0
  C  C97  1  0.89838911  0.79563060  0.90112193  1.0
  C  C98  1  0.75108406  0.88287036  0.61849430  1.0
  C  C99  1  0.90996716  0.72839134  0.76974987  1.0
  C  C100  1  0.84172233  0.82794498  0.80900609  1.0
  C  C101  1  0.78734422  0.75788823  0.74679742  1.0
  C  C102  1  0.79485874  0.85291024  0.71175173  1.0
  C  C103  1  0.71845502  0.85759811  0.78478077  1.0
  C  C104  1  0.72631892  0.95204790  0.75089781  1.0
  C  C105  1  0.86885249  0.81197694  0.85879768  1.0
  C  C106  1  0.77207625  0.86817270  0.66162710  1.0
  C  C107  1  0.41217950  0.74084240  0.74046087  1.0
  C  C108  1  0.45251593  0.80755548  0.77581517  1.0
  C  C109  1  0.34894447  0.77795582  0.90341187  1.0
  C  C110  1  0.33576488  0.88949606  0.61855942  1.0
  C  C111  1  0.30222608  0.76690566  0.77412565  1.0
  C  C112  1  0.34737440  0.83251230  0.81168938  1.0
  C  C113  1  0.22232220  0.88896018  0.74785622  1.0
  C  C114  1  0.32953237  0.86455649  0.71283551  1.0
  C  C115  1  0.26185532  0.95448315  0.78380851  1.0
  C  C116  1  0.37328463  0.92897397  0.74895759  1.0
  C  C117  1  0.35273091  0.80635520  0.86128861  1.0
  C  C118  1  0.32717622  0.88038395  0.66215653  1.0
  C  C119  1  0.35227929  0.26943932  0.38439859  1.0
  C  C120  1  0.25740676  0.26879186  0.35990386  1.0
  C  C121  1  0.24457089  0.29002178  0.31030373  1.0
  C  C122  1  0.32540582  0.31318733  0.28366346  1.0
  C  C123  1  0.41519466  0.32188614  0.30915897  1.0
  C  C124  1  0.42862043  0.30024184  0.35865857  1.0
  C  C125  1  0.41449071  0.28087307  0.19856805  1.0
  C  C126  1  0.39671438  0.31902892  0.14990348  1.0
  C  C127  1  0.18167322  0.43782987  0.16229733  1.0
  C  C128  1  0.19947652  0.40711196  0.21101927  1.0
  C  C129  1  0.31408241  0.33161098  0.23063520  1.0
  C  C130  1  0.28237648  0.39608326  0.13172117  1.0
  C  C131  1  0.76372184  0.87599542  0.38363322  1.0
  C  C132  1  0.77737166  0.95993494  0.35411626  1.0
  C  C133  1  0.81806684  0.92385938  0.30721030  1.0
  C  C134  1  0.84618469  0.81255920  0.28846707  1.0
  C  C135  1  0.83858140  0.72707169  0.31953840  1.0
  C  C136  1  0.79572432  0.76235616  0.36647780  1.0
  C  C137  1  0.83907554  0.73493637  0.20597965  1.0
  C  C138  1  0.86800062  0.72374399  0.15701042  1.0
  C  C139  1  0.97837486  0.82903160  0.16834513  1.0
  C  C140  1  0.95313544  0.83632729  0.21729034  1.0
  C  C141  1  0.88107629  0.79152953  0.23717226  1.0
  C  C142  1  0.93673763  0.77211283  0.13772815  1.0
  C  C143  1  0.36494963  0.88214927  0.37986126  1.0
  C  C144  1  0.44297617  0.76961507  0.36064746  1.0
  C  C145  1  0.43761889  0.74945795  0.31195839  1.0
  C  C146  1  0.35687464  0.84144326  0.28069258  1.0
  C  C147  1  0.27932791  0.95393767  0.30057115  1.0
  C  C148  1  0.28214996  0.97363154  0.34949758  1.0
  C  C149  1  0.24829960  0.89019191  0.20137274  1.0
  C  C150  1  0.24402168  0.86452104  0.15342813  1.0
  C  C151  1  0.44865623  0.69698557  0.15737679  1.0
  C  C152  1  0.45164650  0.72736703  0.20532943  1.0
  C  C153  1  0.35244909  0.81977622  0.22886663  1.0
  C  C154  1  0.34074977  0.76570380  0.13135109  1.0
  C  C155  1  0.95503050  0.76640586  0.94770555  1.0
  C  C156  1  0.27980521  0.44912527  0.94637413  1.0
  C  C157  1  0.30964953  0.75096147  0.94820018  1.0
  C  C158  1  0.97446609  0.75962147  0.08636291  1.0
  C  C159  1  0.26495459  0.44153278  0.08112852  1.0
  C  C160  1  0.31548806  0.73727375  0.08255925  1.0
  C  C161  1  0.49354399  0.62557269  0.71572851  1.0
  C  C162  1  0.58708470  0.53064602  0.74976053  1.0
  C  C163  1  0.21660847  0.10513547  0.84544309  1.0
  C  C164  1  0.15448731  0.73450458  0.81707814  1.0
  C  C165  1  0.13766724  0.56669154  0.67436571  1.0
  C  C166  1  0.54804828  0.09004029  0.24205669  1.0
  C  C167  1  0.74695852  0.08349482  0.37010577  1.0
  C  C168  1  0.75610230  0.16472425  0.33125967  1.0
  C  C169  1  0.88945100  0.51877149  0.33827078  1.0
  C  C170  1  0.56064693  0.59222121  0.13739085  1.0
  C  C171  1  0.56650145  0.47252524  0.14972776  1.0
  N  N172  1  0.17550541  0.05596208  0.80797665  1.0
  N  N173  1  0.26258123  0.68511778  0.78640259  1.0
  N  N174  1  0.23925150  0.53666708  0.70583073  1.0
  N  N175  1  0.52950791  0.19508544  0.21342227  1.0
  N  N176  1  0.87097973  0.61345370  0.30408802  1.0
  O  O177  1  0.68476432  0.82486482  0.55300837  1.0
  O  O178  1  0.47348236  0.82925474  0.55680431  1.0
  O  O179  1  0.28980533  0.99368538  0.54463490  1.0
  O  O180  1  0.31047923  0.17901433  0.55240541  1.0
  O  O181  1  0.48125724  0.19181328  0.54619996  1.0
  O  O182  1  0.68330177  0.00274693  0.54931253  1.0
  O  O183  1  0.67818708  0.82939094  0.45038935  1.0
  O  O184  1  0.46891014  0.82662628  0.45367372  1.0
  O  O185  1  0.30111743  0.00851163  0.44792463  1.0
  O  O186  1  0.30438523  0.20118186  0.45725455  1.0
  O  O187  1  0.48557282  0.19110143  0.45080191  1.0
  O  O188  1  0.68795127  0.99968762  0.45328856  1.0
  O  O189  1  0.49521787  0.99045651  0.50139154  1.0
  O  O190  1  0.20230098  0.82448457  0.95998387  1.0
  O  O191  1  0.98444765  0.83751819  0.96547288  1.0
  O  O192  1  0.97578819  0.66469617  0.96631300  1.0
  O  O193  1  0.17896540  0.47523638  0.96575301  1.0
  O  O194  1  0.35983972  0.46884274  0.96459447  1.0
  O  O195  1  0.38228799  0.65417944  0.97149004  1.0
  O  O196  1  0.22463979  0.81729602  0.06040879  1.0
  O  O197  1  0.00985654  0.82968630  0.07028888  1.0
  O  O198  1  0.97353356  0.67561872  0.06197973  1.0
  O  O199  1  0.16255575  0.47384588  0.06187921  1.0
  O  O200  1  0.34910246  0.45242575  0.06038174  1.0
  O  O201  1  0.38298332  0.63008696  0.06661611  1.0
  O  O202  1  0.17460043  0.66557962  0.01433318  1.0
  O  O203  1  0.65656574  0.66173701  0.50166979  1.0
  O  O204  1  0.02700039  0.99257387  0.01664377  1.0
