# generated using pymatgen
data_ZnH8C12(NO2)2
_symmetry_space_group_name_H-M   'P 1'
_cell_length_a   5.71070566
_cell_length_b   15.96067533
_cell_length_c   15.97499156
_cell_angle_alpha   60.03636770
_cell_angle_beta   89.99905480
_cell_angle_gamma   89.99966694
_symmetry_Int_Tables_number   1
_chemical_formula_structural   ZnH8C12(NO2)2
_chemical_formula_sum   'Zn3 H24 C36 N6 O12'
_cell_volume   1261.45379002
_cell_formula_units_Z   3
loop_
 _symmetry_equiv_pos_site_id
 _symmetry_equiv_pos_as_xyz
  1  'x, y, z'
loop_
 _atom_site_type_symbol
 _atom_site_label
 _atom_site_symmetry_multiplicity
 _atom_site_fract_x
 _atom_site_fract_y
 _atom_site_fract_z
 _atom_site_occupancy
  Zn  Zn0  1  0.14875370  0.50000096  0.50000131  1.0
  Zn  Zn1  1  0.81729074  0.00000457  0.49999735  1.0
  Zn  Zn2  1  0.48224685  0.49999965  0.00000571  1.0
  H  H3  1  0.82127444  0.25325818  0.62457013  1.0
  H  H4  1  0.58992702  0.39664127  0.60443790  1.0
  H  H5  1  0.08755253  0.35732612  0.43938939  1.0
  H  H6  1  0.29335462  0.21026020  0.45724238  1.0
  H  H7  1  0.48859190  0.12242812  0.25283245  1.0
  H  H8  1  0.25869256  0.99918390  0.39650158  1.0
  H  H9  1  0.75483946  0.20308562  0.35749009  1.0
  H  H10  1  0.95921238  0.33218663  0.21014513  1.0
  H  H11  1  0.15376322  0.62442331  0.12283377  1.0
  H  H12  1  0.92341907  0.60424768  0.99948243  1.0
  H  H13  1  0.41989469  0.43924779  0.20306194  1.0
  H  H14  1  0.62464720  0.45717291  0.33233159  1.0
  H  H15  1  0.82128957  0.74673037  0.37543772  1.0
  H  H16  1  0.58995162  0.60335164  0.39557213  1.0
  H  H17  1  0.08754661  0.64267056  0.56061369  1.0
  H  H18  1  0.29334689  0.78973323  0.54276518  1.0
  H  H19  1  0.48857799  0.87756997  0.74716883  1.0
  H  H20  1  0.25868827  0.00081426  0.60350041  1.0
  H  H21  1  0.75485481  0.79692007  0.64250879  1.0
  H  H22  1  0.95920021  0.66782229  0.78985030  1.0
  H  H23  1  0.15375388  0.37558955  0.87715299  1.0
  H  H24  1  0.92343669  0.39576982  0.00050599  1.0
  H  H25  1  0.41985960  0.56074248  0.79694772  1.0
  H  H26  1  0.62458014  0.54280966  0.66767894  1.0
  C  C27  1  0.71240986  0.13780026  0.54855405  1.0
  C  C28  1  0.57491664  0.22180032  0.54142759  1.0
  C  C29  1  0.65844773  0.27453817  0.58356509  1.0
  C  C30  1  0.53224922  0.35404765  0.57218808  1.0
  C  C31  1  0.25103597  0.33181790  0.47950031  1.0
  C  C32  1  0.36585766  0.25098433  0.48903180  1.0
  C  C33  1  0.37832812  0.31365855  0.13750283  1.0
  C  C34  1  0.24152933  0.23676832  0.22154321  1.0
  C  C35  1  0.32578471  0.14204561  0.27425653  1.0
  C  C36  1  0.20030154  0.07390238  0.35387457  1.0
  C  C37  1  0.91834715  0.18851983  0.33186166  1.0
  C  C38  1  0.03238964  0.25981535  0.25089796  1.0
  C  C39  1  0.04380792  0.54842451  0.31393842  1.0
  C  C40  1  0.90675047  0.54132793  0.23702699  1.0
  C  C41  1  0.99091360  0.58342915  0.14235025  1.0
  C  C42  1  0.86528464  0.57198572  0.07418410  1.0
  C  C43  1  0.58343489  0.47935891  0.18863715  1.0
  C  C44  1  0.69760111  0.48895354  0.25997244  1.0
  C  C45  1  0.71238071  0.86219714  0.45144654  1.0
  C  C46  1  0.57490267  0.77819904  0.45857459  1.0
  C  C47  1  0.65845426  0.72545769  0.41644378  1.0
  C  C48  1  0.53225314  0.64594475  0.42781941  1.0
  C  C49  1  0.25102276  0.66817557  0.52050607  1.0
  C  C50  1  0.36586796  0.74901873  0.51096375  1.0
  C  C51  1  0.37830861  0.68633201  0.86251141  1.0
  C  C52  1  0.24147046  0.76324475  0.77844155  1.0
  C  C53  1  0.32579145  0.85796896  0.72573493  1.0
  C  C54  1  0.20028987  0.92609970  0.64611478  1.0
  C  C55  1  0.91832773  0.81148350  0.66813257  1.0
  C  C56  1  0.03234835  0.74018697  0.74909028  1.0
  C  C57  1  0.04375213  0.45157900  0.68604614  1.0
  C  C58  1  0.90670486  0.45866888  0.76298033  1.0
  C  C59  1  0.99088345  0.41657280  0.85765148  1.0
  C  C60  1  0.86528952  0.42801771  0.92581264  1.0
  C  C61  1  0.58339983  0.52063372  0.81137220  1.0
  C  C62  1  0.69753114  0.51104122  0.74003474  1.0
  N  N63  1  0.33256211  0.38267820  0.52004585  1.0
  N  N64  1  0.00055124  0.09723356  0.38269604  1.0
  N  N65  1  0.66561571  0.51985627  0.09741784  1.0
  N  N66  1  0.33256053  0.61731412  0.47996002  1.0
  N  N67  1  0.00057990  0.90275832  0.61731696  1.0
  N  N68  1  0.66559099  0.48015230  0.90257436  1.0
  O  O69  1  0.60016046  0.08613584  0.51922656  1.0
  O  O70  1  0.91936095  0.12509608  0.57690214  1.0
  O  O71  1  0.26555448  0.39447735  0.08590939  1.0
  O  O72  1  0.58540455  0.29822257  0.12472959  1.0
  O  O73  1  0.93144259  0.51891163  0.39484207  1.0
  O  O74  1  0.25069665  0.57689936  0.29840355  1.0
  O  O75  1  0.60013247  0.91386556  0.48076894  1.0
  O  O76  1  0.91932944  0.87490092  0.42310725  1.0
  O  O77  1  0.26550242  0.60551040  0.91409835  1.0
  O  O78  1  0.58539465  0.70179553  0.87526891  1.0
  O  O79  1  0.93137616  0.48110332  0.60513764  1.0
  O  O80  1  0.25063012  0.42309912  0.70158404  1.0
