# generated using pymatgen
data_ZnH23C42N6Cl11O9
_symmetry_space_group_name_H-M   'P 1'
_cell_length_a   18.47991271
_cell_length_b   19.13130524
_cell_length_c   27.90006746
_cell_angle_alpha   91.29007232
_cell_angle_beta   89.63951814
_cell_angle_gamma   89.98625416
_symmetry_Int_Tables_number   1
_chemical_formula_structural   ZnH23C42N6Cl11O9
_chemical_formula_sum   'Zn2 H46 C84 N12 Cl22 O18'
_cell_volume   9861.22903864
_cell_formula_units_Z   2
loop_
 _symmetry_equiv_pos_site_id
 _symmetry_equiv_pos_as_xyz
  1  'x, y, z'
loop_
 _atom_site_type_symbol
 _atom_site_label
 _atom_site_symmetry_multiplicity
 _atom_site_fract_x
 _atom_site_fract_y
 _atom_site_fract_z
 _atom_site_occupancy
  Zn  Zn0  1  0.42021430  0.49662005  0.49829855  1.0
  Zn  Zn1  1  0.58238510  0.50055430  0.49705521  1.0
  H  H2  1  0.38101844  0.52272592  0.64635378  1.0
  H  H3  1  0.51329877  0.09467648  0.14956271  1.0
  H  H4  1  0.56060930  0.13182198  0.10085808  1.0
  H  H5  1  0.52263483  0.77675047  0.85489831  1.0
  H  H6  1  0.54687864  0.74011650  0.91062649  1.0
  H  H7  1  0.39872136  0.80367545  0.88729240  1.0
  H  H8  1  0.42366269  0.77216960  0.94392867  1.0
  H  H9  1  0.52380962  0.86295857  0.94931852  1.0
  H  H10  1  0.43773999  0.90263032  0.94308018  1.0
  H  H11  1  0.49719032  0.89541250  0.89296142  1.0
  H  H12  1  0.47424668  0.22921193  0.83429506  1.0
  H  H13  1  0.38062255  0.47520162  0.34818901  1.0
  H  H14  1  0.41144568  0.29804624  0.84391696  1.0
  H  H15  1  0.46173895  0.19626397  0.92098231  1.0
  H  H16  1  0.39827059  0.26419626  0.93043242  1.0
  H  H17  1  0.31558596  0.20818144  0.86800352  1.0
  H  H18  1  0.33333333  0.15054340  0.91547888  1.0
  H  H19  1  0.37867601  0.13905575  0.85958330  1.0
  H  H20  1  0.44846465  0.77759926  0.16466497  1.0
  H  H21  1  0.39345074  0.70444664  0.15054647  1.0
  H  H22  1  0.43861658  0.81624607  0.07856935  1.0
  H  H23  1  0.37966799  0.74551460  0.06630011  1.0
  H  H24  1  0.48597313  0.33427660  0.03394954  1.0
  H  H25  1  0.29217622  0.79260951  0.13041216  1.0
  H  H26  1  0.30705078  0.85400041  0.08465980  1.0
  H  H27  1  0.35082117  0.86464123  0.14079946  1.0
  H  H28  1  0.61749821  0.34009386  0.00905993  1.0
  H  H29  1  0.63410764  0.32336198  0.94656818  1.0
  H  H30  1  0.57747039  0.21214478  0.01461584  1.0
  H  H31  1  0.60744468  0.19883229  0.95492481  1.0
  H  H32  1  0.73462457  0.23651606  0.97994900  1.0
  H  H33  1  0.70447469  0.16337241  0.01248397  1.0
  H  H34  1  0.70329775  0.24801091  0.03987866  1.0
  H  H35  1  0.48032414  0.67955651  0.96194851  1.0
  H  H36  1  0.59421327  0.76052137  0.99591311  1.0
  H  H37  1  0.60633095  0.66916111  0.98420943  1.0
  H  H38  1  0.63270831  0.74341077  0.08135794  1.0
  H  H39  1  0.64683684  0.65360815  0.06855401  1.0
  H  H40  1  0.74070100  0.68386859  0.00534714  1.0
  H  H41  1  0.76472546  0.71734876  0.06288255  1.0
  H  H42  1  0.72835664  0.77401751  0.01970945  1.0
  H  H43  1  0.54142540  0.26188796  0.08307158  1.0
  H  H44  1  0.44547494  0.25069913  0.08051679  1.0
  H  H45  1  0.53987764  0.22162272  0.16798215  1.0
  H  H46  1  0.44570299  0.20755867  0.16448159  1.0
  H  H47  1  0.46577819  0.11756231  0.09712793  1.0
  C  C48  1  0.51951496  0.36469188  0.49938791  1.0
  C  C49  1  0.48715163  0.43312078  0.87053482  1.0
  C  C50  1  0.48720004  0.51845854  0.35387680  1.0
  C  C51  1  0.49070494  0.48692139  0.64252106  1.0
  C  C52  1  0.49923779  0.44001236  0.97301097  1.0
  C  C53  1  0.49731379  0.57427163  0.02319294  1.0
  C  C54  1  0.49204594  0.56953677  0.97067524  1.0
  C  C55  1  0.49412818  0.44455398  0.02555412  1.0
  C  C56  1  0.49205777  0.50267251  0.94644408  1.0
  C  C57  1  0.49257503  0.51133269  0.04975327  1.0
  C  C58  1  0.50951002  0.37684585  0.94695986  1.0
  C  C59  1  0.51188469  0.63319627  0.50329829  1.0
  C  C60  1  0.50424997  0.63781431  0.04929700  1.0
  C  C61  1  0.50089139  0.37247248  0.89641975  1.0
  C  C62  1  0.49253428  0.64179488  0.09974470  1.0
  C  C63  1  0.48485672  0.50888886  0.40728720  1.0
  C  C64  1  0.48832333  0.49125258  0.58879910  1.0
  C  C65  1  0.48833323  0.38440190  0.05265770  1.0
  C  C66  1  0.48419649  0.62927776  0.94351216  1.0
  C  C67  1  0.50097326  0.26184340  0.55278495  1.0
  C  C68  1  0.51059455  0.75572315  0.47193901  1.0
  C  C69  1  0.49517463  0.73949385  0.55739257  1.0
  C  C70  1  0.48807216  0.51415426  0.10118254  1.0
  C  C71  1  0.52396192  0.23936622  0.46820135  1.0
  C  C72  1  0.49489444  0.18976923  0.56015775  1.0
  C  C73  1  0.50500210  0.82833636  0.47921128  1.0
  C  C74  1  0.48908505  0.81214057  0.56472641  1.0
  C  C75  1  0.51733690  0.16721578  0.47542368  1.0
  C  C76  1  0.50300217  0.14244767  0.52141386  1.0
  C  C77  1  0.49460573  0.85657208  0.52555759  1.0
  C  C78  1  0.51586980  0.28662137  0.50688407  1.0
  C  C79  1  0.50629030  0.71148436  0.51112612  1.0
  C  C80  1  0.49183139  0.93356586  0.53229856  1.0
  C  C81  1  0.48693330  0.49953655  0.89508399  1.0
  C  C82  1  0.49645439  0.06634012  0.52934071  1.0
  C  C83  1  0.73812033  0.46939678  0.46291594  1.0
  C  C84  1  0.26404248  0.54626882  0.52694817  1.0
  C  C85  1  0.73654846  0.53793629  0.53307267  1.0
  C  C86  1  0.26350363  0.44606487  0.47810813  1.0
  C  C87  1  0.81426510  0.46772994  0.46222242  1.0
  C  C88  1  0.18789492  0.54881057  0.52776065  1.0
  C  C89  1  0.81266730  0.53716311  0.53551290  1.0
  C  C90  1  0.18740093  0.44415248  0.47788552  1.0
  C  C91  1  0.85165495  0.50171850  0.49939796  1.0
  C  C92  1  0.48898424  0.45154209  0.12784020  1.0
  C  C93  1  0.14948729  0.49689337  0.50276803  1.0
  C  C94  1  0.06918328  0.49814079  0.50219147  1.0
  C  C95  1  0.93192823  0.50040912  0.50045584  1.0
  C  C96  1  0.49668630  0.45427532  0.18020674  1.0
  C  C97  1  0.49060281  0.55975287  0.81576561  1.0
  C  C98  1  0.47446103  0.58414476  0.17843368  1.0
  C  C99  1  0.47759641  0.42873345  0.81809858  1.0
  C  C100  1  0.42492597  0.49772613  0.27860979  1.0
  C  C101  1  0.42473701  0.50834146  0.71685203  1.0
  C  C102  1  0.42653156  0.49544063  0.32826367  1.0
  C  C103  1  0.48371899  0.56217961  0.86834872  1.0
  C  C104  1  0.42775018  0.50745915  0.66715534  1.0
  C  C105  1  0.54665414  0.54641513  0.32883523  1.0
  C  C106  1  0.55163183  0.46532483  0.66856774  1.0
  C  C107  1  0.54500927  0.54773647  0.27837654  1.0
  C  C108  1  0.54846822  0.46734315  0.71904428  1.0
  C  C109  1  0.48459040  0.52282884  0.25307856  1.0
  C  C110  1  0.48538387  0.48910685  0.74328769  1.0
  C  C111  1  0.49135228  0.26123442  0.10481135  1.0
  C  C112  1  0.49610456  0.20663943  0.14326719  1.0
  C  C113  1  0.50962136  0.13375620  0.12145952  1.0
  C  C114  1  0.48656118  0.38674143  0.10288794  1.0
  C  C115  1  0.50107595  0.75078772  0.88675758  1.0
  C  C116  1  0.44479122  0.79731150  0.91161621  1.0
  C  C117  1  0.47761324  0.86848162  0.92496952  1.0
  C  C118  1  0.45194516  0.26562606  0.86158177  1.0
  C  C119  1  0.41928763  0.22650926  0.90334948  1.0
  C  C120  1  0.35839451  0.17845156  0.88568741  1.0
  C  C121  1  0.43152375  0.74214874  0.13532928  1.0
  C  C122  1  0.39752607  0.78234876  0.09475823  1.0
  C  C123  1  0.33338135  0.82574011  0.11361404  1.0
  C  C124  1  0.60276017  0.30632251  0.97794064  1.0
  C  C125  1  0.48028442  0.62682228  0.89336075  1.0
  C  C126  1  0.61709029  0.22997113  0.98789779  1.0
  C  C127  1  0.69405101  0.21886806  0.00602126  1.0
  C  C128  1  0.59366872  0.70884931  0.01239699  1.0
  C  C129  1  0.64842675  0.70583728  0.05276563  1.0
  C  C130  1  0.72468656  0.72107695  0.03414167  1.0
  C  C131  1  0.48364279  0.58042321  0.12580319  1.0
  N  N132  1  0.48489976  0.52081389  0.20196342  1.0
  N  N133  1  0.03448235  0.45698406  0.53336330  1.0
  N  N134  1  0.96280420  0.45833103  0.53253684  1.0
  N  N135  1  0.03835408  0.54049181  0.47025682  1.0
  N  N136  1  0.48381754  0.49242364  0.79436422  1.0
  N  N137  1  0.55367077  0.03409671  0.54884999  1.0
  N  N138  1  0.42954496  0.96666536  0.52245371  1.0
  N  N139  1  0.55129657  0.96502076  0.55036000  1.0
  N  N140  1  0.43193941  0.03587788  0.52093660  1.0
  N  N141  1  0.70089300  0.50394255  0.49764888  1.0
  N  N142  1  0.30018125  0.49625489  0.50206593  1.0
  N  N143  1  0.96671740  0.54156140  0.46927585  1.0
  Cl  Cl144  1  0.62077970  0.58151317  0.35743272  1.0
  Cl  Cl145  1  0.31105759  0.38329378  0.44751613  1.0
  Cl  Cl146  1  0.86072708  0.42404197  0.41760608  1.0
  Cl  Cl147  1  0.14238369  0.61335353  0.55878587  1.0
  Cl  Cl148  1  0.85728781  0.57972825  0.58106205  1.0
  Cl  Cl149  1  0.14137427  0.37971958  0.44749687  1.0
  Cl  Cl150  1  0.61764347  0.57872772  0.24665075  1.0
  Cl  Cl151  1  0.62220104  0.44372392  0.75207986  1.0
  Cl  Cl152  1  0.34595587  0.53312240  0.74591486  1.0
  Cl  Cl153  1  0.34924127  0.46864386  0.24833902  1.0
  Cl  Cl154  1  0.48874717  0.31967630  0.59997157  1.0
  Cl  Cl155  1  0.62907306  0.43376266  0.64152746  1.0
  Cl  Cl156  1  0.52265843  0.72041923  0.41536649  1.0
  Cl  Cl157  1  0.48920241  0.68431053  0.60517616  1.0
  Cl  Cl158  1  0.54045083  0.27058563  0.41182591  1.0
  Cl  Cl159  1  0.47593263  0.15906375  0.61623046  1.0
  Cl  Cl160  1  0.51227313  0.88381081  0.43171544  1.0
  Cl  Cl161  1  0.47374243  0.84718098  0.62109770  1.0
  Cl  Cl162  1  0.52722395  0.10804656  0.42845193  1.0
  Cl  Cl163  1  0.69150737  0.42700390  0.41891492  1.0
  Cl  Cl164  1  0.31168536  0.60788090  0.55811288  1.0
  Cl  Cl165  1  0.68873659  0.58280459  0.57568945  1.0
  O  O166  1  0.45894448  0.39391419  0.49369260  1.0
  O  O167  1  0.50217949  0.60975892  0.78990032  1.0
  O  O168  1  0.46627287  0.37488918  0.79432318  1.0
  O  O169  1  0.46025532  0.63721036  0.20246597  1.0
  O  O170  1  0.48229724  0.32811348  0.12864040  1.0
  O  O171  1  0.47257085  0.68559155  0.86801925  1.0
  O  O172  1  0.51347024  0.30897315  0.87518567  1.0
  O  O173  1  0.49768060  0.70632113  0.12067822  1.0
  O  O174  1  0.52629490  0.31474535  0.96821528  1.0
  O  O175  1  0.51925672  0.70059583  0.02834532  1.0
  O  O176  1  0.57505468  0.60813051  0.49894792  1.0
  O  O177  1  0.45218392  0.60110962  0.50219146  1.0
  O  O178  1  0.58160661  0.39271696  0.50001770  1.0
  O  O179  1  0.42201667  0.50670080  0.42647443  1.0
  O  O180  1  0.54745363  0.50003433  0.56671307  1.0
  O  O181  1  0.42562003  0.48791729  0.57001353  1.0
  O  O182  1  0.54453384  0.50121875  0.42858918  1.0
  O  O183  1  0.51256006  0.40494220  0.20560682  1.0
