# generated using pymatgen
data_Hf3H14(C13O8)2
_symmetry_space_group_name_H-M   'P 1'
_cell_length_a   16.65180075
_cell_length_b   17.37640638
_cell_length_c   17.39912105
_cell_angle_alpha   110.22183616
_cell_angle_beta   89.86375887
_cell_angle_gamma   89.93271561
_symmetry_Int_Tables_number   1
_chemical_formula_structural   Hf3H14(C13O8)2
_chemical_formula_sum   'Hf6 H28 C52 O32'
_cell_volume   4724.07065152
_cell_formula_units_Z   2
loop_
 _symmetry_equiv_pos_site_id
 _symmetry_equiv_pos_as_xyz
  1  'x, y, z'
loop_
 _atom_site_type_symbol
 _atom_site_label
 _atom_site_symmetry_multiplicity
 _atom_site_fract_x
 _atom_site_fract_y
 _atom_site_fract_z
 _atom_site_occupancy
  Hf  Hf0  1  0.89790990  0.10522745  0.11040232  1.0
  Hf  Hf1  1  0.11140280  0.09130451  0.09915377  1.0
  Hf  Hf2  1  0.88580592  0.92575514  0.93565094  1.0
  Hf  Hf3  1  0.09534158  0.91593630  0.92370849  1.0
  Hf  Hf4  1  0.99780579  0.09641221  0.92983564  1.0
  Hf  Hf5  1  0.99835201  0.92305329  0.10515636  1.0
  H  H6  1  0.99991352  0.09354471  0.22714474  1.0
  H  H7  1  0.17316291  0.06772690  0.94473940  1.0
  H  H8  1  0.99451701  0.79848192  0.94239395  1.0
  H  H9  1  0.82802638  0.08132217  0.95325345  1.0
  H  H10  1  0.26426511  0.12647942  0.07231463  1.0
  H  H11  1  0.24545430  0.85688073  0.92171514  1.0
  H  H12  1  0.09065357  0.80940707  0.77189024  1.0
  H  H13  1  0.97645054  0.80882825  0.81654891  1.0
  H  H14  1  0.73210641  0.90785485  0.96167389  1.0
  H  H15  1  0.75782872  0.02736827  0.03688066  1.0
  H  H16  1  0.88671787  0.25149711  0.22133159  1.0
  H  H17  1  0.15400898  0.19207553  0.24994228  1.0
  H  H18  1  0.89370550  0.82875854  0.77657956  1.0
  H  H19  1  0.74770204  0.06692411  0.13603094  1.0
  H  H20  1  0.13714578  0.24726383  0.19555340  1.0
  H  H21  1  0.24701679  0.89669142  0.85123193  1.0
  H  H22  1  0.62797942  0.99893989  0.39196026  1.0
  H  H23  1  0.63208983  0.00655847  0.64267611  1.0
  H  H24  1  0.85451878  0.99997741  0.51241908  1.0
  H  H25  1  0.14208566  0.00258105  0.51034932  1.0
  H  H26  1  0.36301727  0.00291723  0.64003961  1.0
  H  H27  1  0.37008891  0.00429101  0.39241034  1.0
  H  H28  1  0.85543025  0.51745147  0.02140416  1.0
  H  H29  1  0.63633986  0.38404831  0.01920909  1.0
  H  H30  1  0.62588297  0.63346505  0.02221562  1.0
  H  H31  1  0.14334565  0.51487997  0.01872154  1.0
  H  H32  1  0.36381946  0.38274986  0.01587585  1.0
  H  H33  1  0.37180829  0.63398356  0.02453894  1.0
  C  C34  1  0.87531171  0.24016668  0.01910770  1.0
  C  C35  1  0.13563631  0.00219985  0.23675028  1.0
  C  C36  1  0.12593366  0.23625740  0.01260767  1.0
  C  C37  1  0.86282520  0.99849802  0.23735983  1.0
  C  C38  1  0.85829072  0.79265600  0.02525462  1.0
  C  C39  1  0.12224069  0.00229131  0.78445602  1.0
  C  C40  1  0.13392428  0.78793697  0.02265932  1.0
  C  C41  1  0.86803404  0.00821478  0.79138219  1.0
  C  C42  1  0.74588118  0.99863707  0.44378421  1.0
  C  C43  1  0.66149657  0.00007648  0.44599782  1.0
  C  C44  1  0.62008508  0.00281700  0.51749739  1.0
  C  C45  1  0.66377086  0.00447683  0.58716978  1.0
  C  C46  1  0.74820816  0.00366973  0.58552677  1.0
  C  C47  1  0.78916989  0.00062789  0.51377448  1.0
  C  C48  1  0.25163716  0.00288422  0.44316358  1.0
  C  C49  1  0.20741205  0.00287398  0.51206386  1.0
  C  C50  1  0.24758530  0.00309807  0.58307703  1.0
  C  C51  1  0.33195899  0.00307724  0.58508777  1.0
  C  C52  1  0.37660216  0.00361323  0.51649570  1.0
  C  C53  1  0.33598496  0.00373941  0.44569319  1.0
  C  C54  1  0.74502220  0.58379807  0.02241079  1.0
  C  C55  1  0.79011879  0.51492129  0.02120748  1.0
  C  C56  1  0.75097411  0.44279288  0.01974205  1.0
  C  C57  1  0.66658878  0.43979055  0.01985575  1.0
  C  C58  1  0.62118112  0.50838547  0.02064489  1.0
  C  C59  1  0.66075818  0.58024002  0.02169552  1.0
  C  C60  1  0.25312858  0.58272056  0.02227023  1.0
  C  C61  1  0.20866650  0.51298724  0.01924576  1.0
  C  C62  1  0.24850463  0.44080065  0.01673791  1.0
  C  C63  1  0.33291424  0.43858682  0.01757121  1.0
  C  C64  1  0.37777507  0.50804637  0.02026030  1.0
  C  C65  1  0.33744790  0.58004138  0.02251364  1.0
  C  C66  1  0.53610260  0.50603080  0.02046296  1.0
  C  C67  1  0.46287174  0.50609915  0.02042919  1.0
  C  C68  1  0.46170690  0.00378530  0.51826715  1.0
  C  C69  1  0.53494574  0.00363463  0.51871110  1.0
  C  C70  1  0.16462915  0.00244050  0.71210121  1.0
  C  C71  1  0.20296874  0.00275307  0.65252851  1.0
  C  C72  1  0.21133885  0.00217111  0.37122369  1.0
  C  C73  1  0.17690365  0.00132097  0.30933025  1.0
  C  C74  1  0.82773044  0.00662583  0.71741429  1.0
  C  C75  1  0.79151656  0.00543190  0.65629391  1.0
  C  C76  1  0.78670655  0.99619213  0.37127961  1.0
  C  C77  1  0.82077462  0.99507234  0.30889691  1.0
  C  C78  1  0.17816092  0.71731976  0.02491650  1.0
  C  C79  1  0.21291537  0.65535577  0.02409423  1.0
  C  C80  1  0.16595842  0.30995968  0.01247315  1.0
  C  C81  1  0.20379049  0.37042215  0.01407527  1.0
  C  C82  1  0.78402377  0.65685669  0.02405422  1.0
  C  C83  1  0.81687199  0.71986039  0.02541416  1.0
  C  C84  1  0.83380160  0.31298552  0.01849656  1.0
  C  C85  1  0.79610053  0.37315619  0.01880929  1.0
  O  O86  1  0.85923293  0.21550805  0.07814164  1.0
  O  O87  1  0.92351975  0.20669073  0.95951516  1.0
  O  O88  1  0.15371577  0.06000457  0.21070021  1.0
  O  O89  1  0.08442820  0.94557352  0.20598048  1.0
  O  O90  1  0.14020954  0.21360471  0.07349134  1.0
  O  O91  1  0.08201042  0.19905735  0.95108912  1.0
  O  O92  1  0.83813144  0.04983485  0.20590498  1.0
  O  O93  1  0.92293061  0.94984156  0.21323010  1.0
  O  O94  1  0.90149783  0.19635899  0.21758545  1.0
  O  O95  1  0.76508626  0.08021495  0.08837813  1.0
  O  O96  1  0.11366285  0.20667551  0.21654399  1.0
  O  O97  1  0.23096210  0.09383691  0.09479017  1.0
  O  O98  1  0.00335378  0.12135910  0.05272616  1.0
  O  O99  1  0.00182175  0.06617103  0.16807868  1.0
  O  O100  1  0.83687188  0.82270800  0.97101764  1.0
  O  O101  1  0.91330721  0.81947037  0.07857724  1.0
  O  O102  1  0.13874465  0.94295355  0.80977721  1.0
  O  O103  1  0.07380339  0.06090129  0.81733267  1.0
  O  O104  1  0.15475625  0.81771041  0.96781162  1.0
  O  O105  1  0.07683605  0.81308771  0.07388320  1.0
  O  O106  1  0.85139738  0.95026035  0.81801240  1.0
  O  O107  1  0.91571458  0.06794290  0.82391206  1.0
  O  O108  1  0.91381655  0.81513973  0.82296418  1.0
  O  O109  1  0.76392637  0.95316935  0.95766120  1.0
  O  O110  1  0.06747270  0.81061445  0.82359984  1.0
  O  O111  1  0.23371059  0.90629700  0.90843914  1.0
  O  O112  1  0.99400205  0.85803158  0.96382509  1.0
  O  O113  1  0.99431332  0.97273827  0.90705053  1.0
  O  O114  1  0.91261173  0.97547090  0.05671819  1.0
  O  O115  1  0.12370500  0.05031509  0.96326749  1.0
  O  O116  1  0.87646395  0.06216924  0.97198506  1.0
  O  O117  1  0.08857698  0.96830277  0.05129294  1.0
