# generated using pymatgen
data_Al2H11C20S2N2ClO10
_symmetry_space_group_name_H-M   'P 1'
_cell_length_a   6.64218370
_cell_length_b   11.01471122
_cell_length_c   12.73133974
_cell_angle_alpha   90.15633677
_cell_angle_beta   104.68317509
_cell_angle_gamma   106.03227713
_symmetry_Int_Tables_number   1
_chemical_formula_structural   Al2H11C20S2N2ClO10
_chemical_formula_sum   'Al2 H11 C20 S2 N2 Cl1 O10'
_cell_volume   863.32957849
_cell_formula_units_Z   1
loop_
 _symmetry_equiv_pos_site_id
 _symmetry_equiv_pos_as_xyz
  1  'x, y, z'
loop_
 _atom_site_type_symbol
 _atom_site_label
 _atom_site_symmetry_multiplicity
 _atom_site_fract_x
 _atom_site_fract_y
 _atom_site_fract_z
 _atom_site_occupancy
  Al  Al0  1  0.00544812  0.49840879  0.50581341  1.0
  Al  Al1  1  0.50577107  0.49851107  0.50710073  1.0
  H  H2  1  0.35723682  0.65533424  0.55577896  1.0
  H  H3  1  0.64783434  0.34634590  0.43713343  1.0
  H  H4  1  0.75310299  0.41752987  0.15041780  1.0
  H  H5  1  0.53282464  0.76083489  0.35347257  1.0
  H  H6  1  0.30016759  0.87575648  0.23993597  1.0
  H  H7  1  0.78242368  0.23035338  0.36264803  1.0
  H  H8  1  0.42672297  0.11253222  0.24436170  1.0
  H  H9  1  0.48149138  0.21646097  0.60901022  1.0
  H  H10  1  0.53000041  0.07409833  0.62242395  1.0
  H  H11  1  0.21360895  0.78022552  0.63880679  1.0
  H  H12  1  0.36735165  0.92483309  0.69711027  1.0
  C  C13  1  0.86172262  0.72442104  0.49533394  1.0
  C  C14  1  0.84821402  0.50591995  0.70249167  1.0
  C  C15  1  0.14398048  0.27146490  0.51212065  1.0
  C  C16  1  0.16498125  0.49398821  0.31022538  1.0
  C  C17  1  0.12006278  0.55116578  0.89330253  1.0
  C  C18  1  0.89695499  0.45723274  0.12180067  1.0
  C  C19  1  0.91415735  0.50596527  0.82144866  1.0
  C  C20  1  0.10359375  0.49879101  0.19142237  1.0
  C  C21  1  0.90342855  0.47385222  0.01260333  1.0
  C  C22  1  0.11465778  0.53102851  0.00229741  1.0
  C  C23  1  0.93109803  0.86456441  0.49515244  1.0
  C  C24  1  0.79013111  0.92948058  0.43016504  1.0
  C  C25  1  0.13701081  0.92983868  0.55927916  1.0
  C  C26  1  0.58647574  0.86389546  0.35836286  1.0
  C  C27  1  0.45596172  0.92838715  0.29426477  1.0
  C  C28  1  0.07212379  0.13094920  0.50278871  1.0
  C  C29  1  0.21367355  0.06541535  0.55860373  1.0
  C  C30  1  0.86044736  0.06513676  0.43528249  1.0
  C  C31  1  0.72496521  0.12811690  0.36560339  1.0
  C  C32  1  0.52671054  0.06162309  0.29729424  1.0
  S  S33  1  0.71432827  0.44256258  0.88790259  1.0
  S  S34  1  0.30655248  0.55959153  0.12590063  1.0
  N  N35  1  0.42190936  0.12403159  0.62238857  1.0
  N  N36  1  0.27829300  0.87223808  0.62628223  1.0
  Cl  Cl37  1  0.35396924  0.62773798  0.85994737  1.0
  O  O38  1  0.99444786  0.66666667  0.47867941  1.0
  O  O39  1  0.64413828  0.48025640  0.65766579  1.0
  O  O40  1  0.33189226  0.32675695  0.49906298  1.0
  O  O41  1  0.01132278  0.46763114  0.35702793  1.0
  O  O42  1  0.01560392  0.32978196  0.53266469  1.0
  O  O43  1  0.36755361  0.51523901  0.35611593  1.0
  O  O44  1  0.68041235  0.67029276  0.51493008  1.0
  O  O45  1  0.99850297  0.53152191  0.65355063  1.0
  O  O46  1  0.30752110  0.56323802  0.55150053  1.0
  O  O47  1  0.70376187  0.43609100  0.46034721  1.0
