# generated using pymatgen
data_CuH14C13NO5
_symmetry_space_group_name_H-M   'P 1'
_cell_length_a   7.85910059
_cell_length_b   14.51821821
_cell_length_c   25.16885636
_cell_angle_alpha   75.72217525
_cell_angle_beta   90.04016046
_cell_angle_gamma   90.00523630
_symmetry_Int_Tables_number   1
_chemical_formula_structural   CuH14C13NO5
_chemical_formula_sum   'Cu8 H112 C104 N8 O40'
_cell_volume   2783.06390305
_cell_formula_units_Z   8
loop_
 _symmetry_equiv_pos_site_id
 _symmetry_equiv_pos_as_xyz
  1  'x, y, z'
loop_
 _atom_site_type_symbol
 _atom_site_label
 _atom_site_symmetry_multiplicity
 _atom_site_fract_x
 _atom_site_fract_y
 _atom_site_fract_z
 _atom_site_occupancy
  Cu  Cu0  1  0.09949877  0.21788599  0.50508390  1.0
  Cu  Cu1  1  0.59872457  0.28204031  0.99450104  1.0
  Cu  Cu2  1  0.90036227  0.78212589  0.49499786  1.0
  Cu  Cu3  1  0.40025403  0.71787218  0.00499661  1.0
  Cu  Cu4  1  0.94851601  0.23147674  0.59542770  1.0
  Cu  Cu5  1  0.44939925  0.26854678  0.90515983  1.0
  Cu  Cu6  1  0.05135521  0.76853515  0.40465525  1.0
  Cu  Cu7  1  0.55148528  0.73144387  0.09534984  1.0
  H  H8  1  0.61017979  0.90026332  0.13796854  1.0
  H  H9  1  0.11014228  0.59973656  0.36197454  1.0
  H  H10  1  0.39029074  0.09983392  0.86211366  1.0
  H  H11  1  0.88989171  0.40026833  0.63802401  1.0
  H  H12  1  0.69714395  0.95147385  0.22188201  1.0
  H  H13  1  0.19713447  0.54850860  0.27811292  1.0
  H  H14  1  0.30294746  0.04860246  0.77825840  1.0
  H  H15  1  0.80287025  0.45151119  0.72188030  1.0
  H  H16  1  0.80736659  0.82707216  0.30321511  1.0
  H  H17  1  0.30733661  0.67290800  0.19682069  1.0
  H  H18  1  0.19264845  0.17296417  0.69690524  1.0
  H  H19  1  0.69264139  0.32711321  0.80317232  1.0
  H  H20  1  0.83546610  0.66021533  0.29497946  1.0
  H  H21  1  0.33548528  0.83975219  0.20507349  1.0
  H  H22  1  0.16457189  0.33980279  0.70518207  1.0
  H  H23  1  0.66453853  0.16026976  0.79492220  1.0
  H  H24  1  0.64141410  0.56419277  0.19689811  1.0
  H  H25  1  0.14156657  0.93583844  0.30306523  1.0
  H  H26  1  0.35866703  0.43600165  0.80314141  1.0
  H  H27  1  0.85843689  0.06416290  0.69693463  1.0
  H  H28  1  0.83118613  0.60627946  0.16148873  1.0
  H  H29  1  0.33132281  0.89367258  0.33856076  1.0
  H  H30  1  0.16892299  0.39385023  0.83855220  1.0
  H  H31  1  0.66869336  0.10634224  0.66143476  1.0
  H  H32  1  0.02976265  0.39446594  0.30210561  1.0
  H  H33  1  0.52986628  0.10544433  0.19795961  1.0
  H  H34  1  0.97027262  0.60550912  0.69790123  1.0
  H  H35  1  0.47011299  0.89455269  0.80203332  1.0
  H  H36  1  0.90709860  0.27681724  0.38296088  1.0
  H  H37  1  0.40699329  0.22311500  0.11709872  1.0
  H  H38  1  0.09292267  0.72315996  0.61704524  1.0
  H  H39  1  0.59295293  0.77690994  0.88291798  1.0
  H  H40  1  0.60713894  0.28534058  0.40819599  1.0
  H  H41  1  0.10692619  0.21465162  0.09181677  1.0
  H  H42  1  0.39286705  0.71465434  0.59180241  1.0
  H  H43  1  0.89301620  0.78537400  0.90819507  1.0
  H  H44  1  0.54187614  0.53702102  0.27661925  1.0
  H  H45  1  0.04194942  0.96297680  0.22336276  1.0
  H  H46  1  0.45819094  0.46297535  0.72338212  1.0
  H  H47  1  0.95802475  0.03701307  0.77662366  1.0
  H  H48  1  0.18712344  0.39072960  0.40433069  1.0
  H  H49  1  0.68692168  0.10921500  0.09554245  1.0
  H  H50  1  0.81289655  0.60927524  0.59566111  1.0
  H  H51  1  0.31306133  0.89068201  0.90439261  1.0
  H  H52  1  0.38262086  0.34783811  0.43537164  1.0
  H  H53  1  0.88236860  0.15212018  0.06457709  1.0
  H  H54  1  0.61739659  0.65216321  0.56462505  1.0
  H  H55  1  0.11765263  0.84780485  0.93539564  1.0
  H  H56  1  0.35389850  0.30207400  0.30067284  1.0
  H  H57  1  0.85396349  0.19792863  0.19921115  1.0
  H  H58  1  0.64612150  0.69791596  0.69932747  1.0
  H  H59  1  0.14608182  0.80212732  0.80066282  1.0
  H  H60  1  0.28971344  0.14122375  0.28586545  1.0
  H  H61  1  0.78980944  0.35876369  0.21403959  1.0
  H  H62  1  0.71030274  0.85876054  0.71413846  1.0
  H  H63  1  0.21022442  0.64130157  0.78584177  1.0
  H  H64  1  0.17416798  0.01476702  0.36574221  1.0
  H  H65  1  0.67421769  0.48522569  0.13410447  1.0
  H  H66  1  0.82584312  0.98522439  0.63426305  1.0
  H  H67  1  0.32593572  0.51481291  0.86572991  1.0
  H  H68  1  0.12108365  0.05778581  0.45424959  1.0
  H  H69  1  0.62058628  0.44215569  0.04563089  1.0
  H  H70  1  0.87892745  0.94221272  0.54575544  1.0
  H  H71  1  0.37898191  0.55772274  0.95428973  1.0
  H  H72  1  0.21668087  0.91658124  0.61015049  1.0
  H  H73  1  0.71758928  0.58383902  0.88951172  1.0
  H  H74  1  0.78331874  0.08342559  0.38982116  1.0
  H  H75  1  0.28327659  0.41657652  0.11020312  1.0
  H  H76  1  0.38310586  0.98644327  0.62773522  1.0
  H  H77  1  0.88386030  0.51382549  0.87208559  1.0
  H  H78  1  0.61692685  0.01354377  0.37225320  1.0
  H  H79  1  0.11700181  0.48653710  0.12768974  1.0
  H  H80  1  0.20726357  0.95323589  0.67332625  1.0
  H  H81  1  0.70792304  0.54698338  0.82642209  1.0
  H  H82  1  0.79276658  0.04674608  0.32665137  1.0
  H  H83  1  0.29290597  0.45333575  0.17334442  1.0
  H  H84  1  0.53091194  0.37851746  0.56237833  1.0
  H  H85  1  0.03160924  0.12158750  0.93755644  1.0
  H  H86  1  0.46909659  0.62148376  0.43760406  1.0
  H  H87  1  0.96916521  0.87844319  0.06237012  1.0
  H  H88  1  0.42379802  0.38653597  0.62459073  1.0
  H  H89  1  0.92404719  0.11359961  0.87536243  1.0
  H  H90  1  0.57624868  0.61346812  0.37539522  1.0
  H  H91  1  0.07646265  0.88642780  0.12460233  1.0
  H  H92  1  0.52818290  0.28030957  0.61909599  1.0
  H  H93  1  0.02864930  0.21979317  0.88080669  1.0
  H  H94  1  0.47181418  0.71968816  0.38089604  1.0
  H  H95  1  0.97200550  0.78020590  0.11907397  1.0
  H  H96  1  0.68742441  0.45140633  0.45165107  1.0
  H  H97  1  0.18652305  0.04825937  0.04852576  1.0
  H  H98  1  0.31261084  0.54859633  0.54833429  1.0
  H  H99  1  0.81251363  0.95130346  0.95174035  1.0
  H  H100  1  0.77561103  0.51892079  0.49527166  1.0
  H  H101  1  0.27454807  0.98059353  0.00496776  1.0
  H  H102  1  0.22442293  0.48109031  0.50469977  1.0
  H  H103  1  0.72454079  0.01889826  0.99531220  1.0
  H  H104  1  0.88331579  0.51134738  0.43342930  1.0
  H  H105  1  0.38235527  0.98834016  0.06680245  1.0
  H  H106  1  0.11674362  0.48864598  0.56654907  1.0
  H  H107  1  0.61663305  0.01130153  0.93344711  1.0
  H  H108  1  0.48667891  0.15083138  0.51216065  1.0
  H  H109  1  0.98598725  0.34904966  0.98784817  1.0
  H  H110  1  0.51334869  0.84916696  0.48781779  1.0
  H  H111  1  0.01329231  0.65087984  0.01225297  1.0
  H  H112  1  0.59982007  0.10183703  0.46316947  1.0
  H  H113  1  0.09957038  0.39788048  0.03688453  1.0
  H  H114  1  0.40023298  0.89817409  0.53680474  1.0
  H  H115  1  0.89999421  0.60190396  0.96323004  1.0
  H  H116  1  0.57441564  0.03541956  0.53250068  1.0
  H  H117  1  0.07352265  0.46447910  0.96763579  1.0
  H  H118  1  0.42560178  0.96459227  0.46747263  1.0
  H  H119  1  0.92560431  0.53544105  0.03255290  1.0
  C  C120  1  0.66150887  0.84953570  0.17377527  1.0
  C  C121  1  0.16149547  0.65046969  0.32619778  1.0
  C  C122  1  0.33892096  0.15056874  0.82631900  1.0
  C  C123  1  0.83852707  0.34954303  0.67380123  1.0
  C  C124  1  0.70958560  0.87746582  0.22066198  1.0
  C  C125  1  0.20957990  0.62251956  0.27933129  1.0
  C  C126  1  0.29057959  0.12262595  0.77945197  1.0
  C  C127  1  0.79043373  0.37749454  0.72066195  1.0
  C  C128  1  0.77079315  0.80861883  0.26536026  1.0
  C  C129  1  0.27075152  0.69136513  0.23465661  1.0
  C  C130  1  0.22929950  0.19142670  0.73475242  1.0
  C  C131  1  0.72923793  0.30865891  0.76533361  1.0
  C  C132  1  0.78670319  0.71515169  0.26088068  1.0
  C  C133  1  0.28668865  0.78482801  0.23914787  1.0
  C  C134  1  0.21349890  0.28488682  0.73924693  1.0
  C  C135  1  0.71330844  0.21519109  0.76084783  1.0
  C  C136  1  0.74075718  0.69358055  0.21186149  1.0
  C  C137  1  0.24075390  0.80640199  0.28814899  1.0
  C  C138  1  0.25959250  0.30649199  0.78824891  1.0
  C  C139  1  0.75925720  0.19360647  0.71185262  1.0
  C  C140  1  0.76572449  0.59680455  0.20101383  1.0
  C  C141  1  0.26584195  0.90316970  0.29900375  1.0
  C  C142  1  0.23443554  0.40330027  0.79903268  1.0
  C  C143  1  0.73416278  0.09684016  0.70099329  1.0
  C  C144  1  0.79423742  0.47276191  0.28406210  1.0
  C  C145  1  0.29430827  0.02719350  0.21597492  1.0
  C  C146  1  0.20581311  0.52722309  0.71594092  1.0
  C  C147  1  0.70563283  0.97281988  0.78401763  1.0
  C  C148  1  0.89785961  0.39942648  0.31436648  1.0
  C  C149  1  0.39789177  0.10052255  0.18569107  1.0
  C  C150  1  0.10215657  0.60054712  0.68563421  1.0
  C  C151  1  0.60206079  0.89949871  0.81430828  1.0
  C  C152  1  0.82856998  0.33373954  0.35877554  1.0
  C  C153  1  0.32849375  0.16621358  0.14127689  1.0
  C  C154  1  0.17144111  0.66623334  0.64122406  1.0
  C  C155  1  0.67143974  0.83382061  0.85874046  1.0
  C  C156  1  0.65790841  0.33857451  0.37364325  1.0
  C  C157  1  0.15778160  0.16142378  0.12637663  1.0
  C  C158  1  0.34210904  0.66141971  0.62635525  1.0
  C  C159  1  0.84215952  0.83861107  0.87363348  1.0
  C  C160  1  0.55685622  0.41204965  0.34308177  1.0
  C  C161  1  0.05678773  0.08793920  0.15691288  1.0
  C  C162  1  0.44317522  0.58793601  0.65691399  1.0
  C  C163  1  0.94315847  0.91207139  0.84308564  1.0
  C  C164  1  0.62428680  0.47993279  0.29845223  1.0
  C  C165  1  0.12432426  0.02005704  0.20154639  1.0
  C  C166  1  0.37575355  0.52005356  0.70154065  1.0
  C  C167  1  0.87561811  0.97995563  0.79844546  1.0
  C  C168  1  0.30823984  0.35802897  0.39722007  1.0
  C  C169  1  0.80803792  0.14190724  0.10271191  1.0
  C  C170  1  0.69177888  0.64196808  0.60277603  1.0
  C  C171  1  0.19190696  0.85802127  0.89725078  1.0
  C  C172  1  0.27300947  0.26292855  0.38515788  1.0
  C  C173  1  0.77274873  0.23703052  0.11474357  1.0
  C  C174  1  0.72701053  0.73706425  0.61484241  1.0
  C  C175  1  0.22703451  0.76292046  0.88517572  1.0
  C  C176  1  0.30246538  0.24581616  0.33366258  1.0
  C  C177  1  0.80240137  0.25417843  0.16623588  1.0
  C  C178  1  0.69754698  0.75417521  0.66633673  1.0
  C  C179  1  0.19753962  0.74585135  0.83365894  1.0
  C  C180  1  0.26687994  0.15613072  0.32568536  1.0
  C  C181  1  0.76688071  0.34385425  0.17421461  1.0
  C  C182  1  0.73312352  0.84385356  0.67431735  1.0
  C  C183  1  0.23308191  0.65618119  0.82567582  1.0
  C  C184  1  0.20258977  0.08620646  0.36941533  1.0
  C  C185  1  0.70246019  0.41376020  0.13046597  1.0
  C  C186  1  0.79741878  0.91378425  0.63059043  1.0
  C  C187  1  0.29743116  0.58622395  0.86941438  1.0
  C  C188  1  0.17411468  0.10939289  0.41912910  1.0
  C  C189  1  0.67376206  0.39055881  0.08075165  1.0
  C  C190  1  0.82589641  0.89060708  0.58087731  1.0
  C  C191  1  0.32593082  0.60934939  0.91915474  1.0
  C  C192  1  0.15585923  0.06444648  0.60021491  1.0
  C  C193  1  0.65631254  0.43610728  0.89956290  1.0
  C  C194  1  0.84415443  0.93556635  0.39980037  1.0
  C  C195  1  0.34419836  0.56442934  0.10017097  1.0
  C  C196  1  0.24500775  0.97388741  0.63018999  1.0
  C  C197  1  0.74576134  0.52634872  0.86958926  1.0
  C  C198  1  0.75501349  0.02611379  0.36979002  1.0
  C  C199  1  0.25507660  0.47392927  0.13019511  1.0
  C  C200  1  0.29154757  0.30286256  0.57740270  1.0
  C  C201  1  0.79232973  0.19708875  0.92253771  1.0
  C  C202  1  0.70840119  0.69715172  0.42261594  1.0
  C  C203  1  0.20848034  0.80278187  0.07738934  1.0
  C  C204  1  0.45233904  0.34123528  0.59686162  1.0
  C  C205  1  0.95278502  0.15893598  0.90310501  1.0
  C  C206  1  0.54766441  0.65876456  0.40312574  1.0
  C  C207  1  0.04778972  0.84114195  0.09686120  1.0
  C  C208  1  0.89482923  0.38379116  0.49955519  1.0
  C  C209  1  0.39417721  0.11556503  0.00065360  1.0
  C  C210  1  0.10513479  0.61620670  0.50045590  1.0
  C  C211  1  0.60506297  0.88379175  0.99955012  1.0
  C  C212  1  0.80653068  0.47303725  0.46803504  1.0
  C  C213  1  0.30557254  0.02666233  0.03212615  1.0
  C  C214  1  0.19351474  0.52696679  0.53194377  1.0
  C  C215  1  0.69347299  0.97300537  0.96807874  1.0
  C  C216  1  0.75695765  0.14698144  0.52244584  1.0
  C  C217  1  0.25619028  0.35311090  0.97757569  1.0
  C  C218  1  0.24304836  0.85301782  0.47756227  1.0
  C  C219  1  0.74300014  0.64699526  0.02245503  1.0
  C  C220  1  0.59416765  0.10658438  0.50579453  1.0
  C  C221  1  0.09364657  0.39320291  0.99422375  1.0
  C  C222  1  0.40587268  0.89342676  0.49418285  1.0
  C  C223  1  0.90579710  0.60662329  0.00585816  1.0
  N  N224  1  0.67512124  0.75949864  0.16930895  1.0
  N  N225  1  0.17506688  0.74050471  0.33067216  1.0
  N  N226  1  0.32544092  0.24062288  0.83078724  1.0
  N  N227  1  0.82496584  0.25950021  0.66933195  1.0
  N  N228  1  0.20832439  0.19573895  0.42712961  1.0
  N  N229  1  0.70783244  0.30418697  0.07276318  1.0
  N  N230  1  0.79169051  0.80426525  0.57287222  1.0
  N  N231  1  0.29169377  0.69568651  0.92716093  1.0
  O  O232  1  0.87052301  0.53374144  0.24022767  1.0
  O  O233  1  0.37064762  0.96619948  0.25982930  1.0
  O  O234  1  0.12955807  0.46622797  0.75978317  1.0
  O  O235  1  0.62930874  0.03381529  0.74015709  1.0
  O  O236  1  0.38753719  0.42461511  0.35293731  1.0
  O  O237  1  0.88742798  0.07536932  0.14702264  1.0
  O  O238  1  0.61249298  0.57537763  0.64705465  1.0
  O  O239  1  0.11251566  0.92462696  0.85296602  1.0
  O  O240  1  0.07630543  0.11052723  0.62964110  1.0
  O  O241  1  0.57471206  0.39017035  0.87039939  1.0
  O  O242  1  0.92375914  0.88946437  0.37039116  1.0
  O  O243  1  0.42390961  0.61051469  0.12959493  1.0
  O  O244  1  0.16990411  0.08764554  0.54831271  1.0
  O  O245  1  0.67088033  0.41224542  0.95150399  1.0
  O  O246  1  0.83006882  0.91240354  0.45169733  1.0
  O  O247  1  0.33000845  0.58758357  0.04826975  1.0
  O  O248  1  0.15835079  0.30279428  0.60626794  1.0
  O  O249  1  0.65885466  0.19809165  0.89351569  1.0
  O  O250  1  0.84163489  0.69722722  0.39376714  1.0
  O  O251  1  0.34172376  0.80265528  0.10628038  1.0
  O  O252  1  0.30357723  0.27152412  0.53443225  1.0
  O  O253  1  0.80278905  0.22755944  0.96592602  1.0
  O  O254  1  0.69631046  0.72849086  0.46558549  1.0
  O  O255  1  0.19635070  0.77152908  0.03437286  1.0
  O  O256  1  0.84582726  0.35032216  0.54867451  1.0
  O  O257  1  0.34738431  0.14888399  0.95120558  1.0
  O  O258  1  0.15412276  0.64970342  0.45133178  1.0
  O  O259  1  0.65408096  0.85034468  0.04869308  1.0
  O  O260  1  0.00740224  0.34856470  0.47400220  1.0
  O  O261  1  0.50608670  0.15161792  0.02618587  1.0
  O  O262  1  0.99256433  0.65140975  0.52601901  1.0
  O  O263  1  0.49249438  0.84855169  0.97396236  1.0
  O  O264  1  0.76173626  0.15730944  0.57131839  1.0
  O  O265  1  0.26128694  0.34184384  0.92884741  1.0
  O  O266  1  0.23823667  0.84266211  0.42869491  1.0
  O  O267  1  0.73832473  0.65734969  0.07131080  1.0
  O  O268  1  0.87471548  0.16747312  0.48675385  1.0
  O  O269  1  0.37550871  0.33357282  0.01291616  1.0
  O  O270  1  0.12531599  0.83253831  0.51326481  1.0
  O  O271  1  0.62511538  0.66745913  0.98673783  1.0
