# generated using pymatgen
data_ZnH10C15NO5
_symmetry_space_group_name_H-M   'P 1'
_cell_length_a   10.87967792
_cell_length_b   14.78635486
_cell_length_c   16.23973829
_cell_angle_alpha   90.00111946
_cell_angle_beta   90.02141790
_cell_angle_gamma   89.95284918
_symmetry_Int_Tables_number   1
_chemical_formula_structural   ZnH10C15NO5
_chemical_formula_sum   'Zn2 H20 C30 N2 O10'
_cell_volume   2612.49827351
_cell_formula_units_Z   2
loop_
 _symmetry_equiv_pos_site_id
 _symmetry_equiv_pos_as_xyz
  1  'x, y, z'
loop_
 _atom_site_type_symbol
 _atom_site_label
 _atom_site_symmetry_multiplicity
 _atom_site_fract_x
 _atom_site_fract_y
 _atom_site_fract_z
 _atom_site_occupancy
  Zn  Zn0  1  0.50022421  0.40659610  0.50002354  1.0
  Zn  Zn1  1  0.50007007  0.59322566  0.50001500  1.0
  H  H2  1  0.10842379  0.38330103  0.42200596  1.0
  H  H3  1  0.10792049  0.63475903  0.55422291  1.0
  H  H4  1  0.10733544  0.48651336  0.36743122  1.0
  H  H5  1  0.10781788  0.63481314  0.44595453  1.0
  H  H6  1  0.89316204  0.48656951  0.36745939  1.0
  H  H7  1  0.89266199  0.63471670  0.44590625  1.0
  H  H8  1  0.89235877  0.38337323  0.42197979  1.0
  H  H9  1  0.89275272  0.63463960  0.55433720  1.0
  H  H10  1  0.10855458  0.38321844  0.57794199  1.0
  H  H11  1  0.10751589  0.48637669  0.63260239  1.0
  H  H12  1  0.89249417  0.38327238  0.57796138  1.0
  H  H13  1  0.89334710  0.48639564  0.63260346  1.0
  H  H14  1  0.49505638  0.35416739  0.07687121  1.0
  H  H15  1  0.50531377  0.64545624  0.07686980  1.0
  H  H16  1  0.49498065  0.35416803  0.92318721  1.0
  H  H17  1  0.50524263  0.64544673  0.92317780  1.0
  H  H18  1  0.30802870  0.91493726  0.49344077  1.0
  H  H19  1  0.30782737  0.08479754  0.49343298  1.0
  H  H20  1  0.72065082  0.15527568  0.50753776  1.0
  H  H21  1  0.72136172  0.84445624  0.50743252  1.0
  C  C22  1  0.50035738  0.50084510  0.33828208  1.0
  C  C23  1  0.92922355  0.45246834  0.57726777  1.0
  C  C24  1  0.49729569  0.41757159  0.95733865  1.0
  C  C25  1  0.50305732  0.58204740  0.95734028  1.0
  C  C26  1  0.50018046  0.49980555  0.91315772  1.0
  C  C27  1  0.50310351  0.58204928  0.04271714  1.0
  C  C28  1  0.49733085  0.41757212  0.04271858  1.0
  C  C29  1  0.50027205  0.49980719  0.08690300  1.0
  C  C30  1  0.50020444  0.49980240  0.82598759  1.0
  C  C31  1  0.50033631  0.49981031  0.17407129  1.0
  C  C32  1  0.50030769  0.49989310  0.24914270  1.0
  C  C33  1  0.50021824  0.49990154  0.75091865  1.0
  C  C34  1  0.39305367  0.04640176  0.49633986  1.0
  C  C35  1  0.39316810  0.95334070  0.49634389  1.0
  C  C36  1  0.26105868  0.49921646  0.50000925  1.0
  C  C37  1  0.50624968  0.09313993  0.50016772  1.0
  C  C38  1  0.50646334  0.90658250  0.50015323  1.0
  C  C39  1  0.62013782  0.04778692  0.50404362  1.0
  C  C40  1  0.62027700  0.95189757  0.50401930  1.0
  C  C41  1  0.50591195  0.18879376  0.50019116  1.0
  C  C42  1  0.50616410  0.81093628  0.50014759  1.0
  C  C43  1  0.50036681  0.50084177  0.66177991  1.0
  C  C44  1  0.73987992  0.49917205  0.50006073  1.0
  C  C45  1  0.07163865  0.45250500  0.42274242  1.0
  C  C46  1  0.07145622  0.59916491  0.50008030  1.0
  C  C47  1  0.92910708  0.45256109  0.42275111  1.0
  C  C48  1  0.92922893  0.59914517  0.50009331  1.0
  C  C49  1  0.07175144  0.45242036  0.57725848  1.0
  C  C50  1  0.12066142  0.50168091  0.50002260  1.0
  C  C51  1  0.88013065  0.50169332  0.50004248  1.0
  N  N52  1  0.50657751  0.73236913  0.50020803  1.0
  N  N53  1  0.50652894  0.26736673  0.50023488  1.0
  O  O54  1  0.50040360  0.42391041  0.37382644  1.0
  O  O55  1  0.50043646  0.57835888  0.37242050  1.0
  O  O56  1  0.31266311  0.42181115  0.50000485  1.0
  O  O57  1  0.31680771  0.57499386  0.49998904  1.0
  O  O58  1  0.50045689  0.42390482  0.62624247  1.0
  O  O59  1  0.50047151  0.57834453  0.62762721  1.0
  O  O60  1  0.68842430  0.42178053  0.50007266  1.0
  O  O61  1  0.68383709  0.57486953  0.50005491  1.0
  O  O62  1  0.73022018  0.08943203  0.50780100  1.0
  O  O63  1  0.73049441  0.91032469  0.50774161  1.0
