# generated using pymatgen
data_Zn4H21C48N4Cl5O24
_symmetry_space_group_name_H-M   'P 1'
_cell_length_a   9.68566555
_cell_length_b   10.97290189
_cell_length_c   21.92962014
_cell_angle_alpha   89.85022428
_cell_angle_beta   90.60082998
_cell_angle_gamma   89.93941683
_symmetry_Int_Tables_number   1
_chemical_formula_structural   Zn4H21C48N4Cl5O24
_chemical_formula_sum   'Zn4 H21 C48 N4 Cl5 O24'
_cell_volume   2330.53943003
_cell_formula_units_Z   1
loop_
 _symmetry_equiv_pos_site_id
 _symmetry_equiv_pos_as_xyz
  1  'x, y, z'
loop_
 _atom_site_type_symbol
 _atom_site_label
 _atom_site_symmetry_multiplicity
 _atom_site_fract_x
 _atom_site_fract_y
 _atom_site_fract_z
 _atom_site_occupancy
  Zn  Zn0  1  0.64841596  0.49255004  0.49906768  1.0
  Zn  Zn1  1  0.36278629  0.48731799  0.50738325  1.0
  Zn  Zn2  1  0.35624358  0.50249041  0.99845730  1.0
  Zn  Zn3  1  0.64405846  0.49590767  0.00692750  1.0
  H  H4  1  0.13178707  0.33680154  0.44597928  1.0
  H  H5  1  0.14748262  0.64558237  0.55569326  1.0
  H  H6  1  0.86890852  0.34927341  0.44416482  1.0
  H  H7  1  0.72440099  0.09363577  0.50670109  1.0
  H  H8  1  0.28573131  0.11390208  0.47690869  1.0
  H  H9  1  0.70977596  0.86585663  0.50190628  1.0
  H  H10  1  0.65278374  0.63998776  0.13501542  1.0
  H  H11  1  0.64030576  0.68174424  0.36057047  1.0
  H  H12  1  0.30366090  0.54285636  0.80734142  1.0
  H  H13  1  0.74389402  0.49318501  0.81471780  1.0
  H  H14  1  0.31154588  0.53013096  0.69337841  1.0
  H  H15  1  0.88600185  0.39208917  0.08626349  1.0
  H  H16  1  0.84879714  0.61356429  0.93257027  1.0
  H  H17  1  0.14676957  0.40125912  0.07877917  1.0
  H  H18  1  0.30506598  0.11252189  0.04503255  1.0
  H  H19  1  0.70118628  0.11767449  0.95817309  1.0
  H  H20  1  0.31829476  0.88512708  0.05185366  1.0
  H  H21  1  0.45122558  0.23034253  0.34177929  1.0
  H  H22  1  0.45273384  0.21873844  0.17596372  1.0
  H  H23  1  0.73847847  0.77242392  0.09702916  1.0
  H  H24  1  0.93353450  0.76402130  0.33305889  1.0
  C  C25  1  0.50882606  0.25339786  0.49867264  1.0
  C  C26  1  0.49505200  0.49057485  0.38451081  1.0
  C  C27  1  0.49186498  0.72510591  0.49537030  1.0
  C  C28  1  0.51945866  0.49438189  0.62134572  1.0
  C  C29  1  0.49675361  0.26460531  0.99652700  1.0
  C  C30  1  0.48425171  0.47665855  0.11994861  1.0
  C  C31  1  0.51562427  0.73716357  0.01416330  1.0
  C  C32  1  0.51702349  0.52037186  0.88612339  1.0
  C  C33  1  0.94046841  0.58513367  0.53022171  1.0
  C  C34  1  0.07565132  0.40672129  0.47067392  1.0
  C  C35  1  0.08486877  0.57815076  0.53178794  1.0
  C  C36  1  0.93237398  0.41432202  0.46931287  1.0
  C  C37  1  0.49014051  0.86128486  0.49078783  1.0
  C  C38  1  0.50509617  0.11728265  0.49397045  1.0
  C  C39  1  0.37032606  0.93256135  0.48240712  1.0
  C  C40  1  0.62572100  0.04787914  0.49995348  1.0
  C  C41  1  0.37834137  0.05924410  0.48379795  1.0
  C  C42  1  0.61724025  0.92175893  0.49771453  1.0
  C  C43  1  0.48155725  0.48114122  0.18826728  1.0
  C  C44  1  0.56693091  0.56897136  0.21784212  1.0
  C  C45  1  0.39219724  0.40870487  0.22152906  1.0
  C  C46  1  0.64925590  0.65123617  0.18422362  1.0
  C  C47  1  0.72452119  0.74223724  0.21217811  1.0
  C  C48  1  0.48403941  0.49367443  0.31619558  1.0
  C  C49  1  0.39389926  0.41474828  0.28636708  1.0
  C  C50  1  0.56678037  0.57712936  0.28270823  1.0
  C  C51  1  0.64389258  0.67190800  0.31108428  1.0
  C  C52  1  0.71830939  0.75471785  0.27698797  1.0
  C  C53  1  0.52977197  0.50327248  0.68963857  1.0
  C  C54  1  0.52339030  0.51951261  0.81800024  1.0
  C  C55  1  0.65230178  0.49339439  0.72469261  1.0
  C  C56  1  0.40101071  0.53024821  0.78380164  1.0
  C  C57  1  0.64873050  0.50255973  0.78824036  1.0
  C  C58  1  0.40553250  0.52282991  0.72081429  1.0
  C  C59  1  0.06018203  0.57428190  0.96210492  1.0
  C  C60  1  0.93699514  0.44307017  0.05029152  1.0
  C  C61  1  0.91618181  0.56739535  0.96530454  1.0
  C  C62  1  0.07999999  0.44814762  0.04603616  1.0
  C  C63  1  0.51757043  0.87338514  0.01015524  1.0
  C  C64  1  0.50227458  0.12843450  0.00100929  1.0
  C  C65  1  0.62551112  0.94009091  0.98363044  1.0
  C  C66  1  0.39393021  0.06336790  0.02758320  1.0
  C  C67  1  0.61787732  0.06655162  0.97915260  1.0
  C  C68  1  0.40215760  0.93725299  0.03172892  1.0
  C  C69  1  0.29623662  0.33661155  0.32284903  1.0
  C  C70  1  0.29520152  0.32410550  0.18799984  1.0
  C  C71  1  0.82037959  0.82236011  0.17691821  1.0
  C  C72  1  0.77803780  0.86334608  0.31018858  1.0
  N  N73  1  0.86491813  0.50284142  0.49951768  1.0
  N  N74  1  0.14980935  0.48869619  0.50264766  1.0
  N  N75  1  0.14109891  0.51287306  0.00145320  1.0
  N  N76  1  0.85699853  0.50145991  0.00912079  1.0
  Cl  Cl77  1  0.86332701  0.70095785  0.56830488  1.0
  Cl  Cl78  1  0.20893902  0.87023206  0.46735354  1.0
  Cl  Cl79  1  0.81264858  0.46390683  0.69341599  1.0
  Cl  Cl80  1  0.13200059  0.66335596  0.90729304  1.0
  Cl  Cl81  1  0.76874598  0.86966411  0.95233128  1.0
  O  O82  1  0.62566316  0.30494305  0.50625029  1.0
  O  O83  1  0.39251987  0.30758463  0.49489596  1.0
  O  O84  1  0.38530885  0.51114769  0.41365023  1.0
  O  O85  1  0.61403311  0.46573313  0.40627574  1.0
  O  O86  1  0.38658558  0.67192797  0.51713520  1.0
  O  O87  1  0.60260654  0.67211089  0.47883388  1.0
  O  O88  1  0.62753741  0.51430458  0.59047004  1.0
  O  O89  1  0.40049895  0.46970547  0.59936473  1.0
  O  O90  1  0.38094429  0.31611588  0.00566765  1.0
  O  O91  1  0.60987936  0.31884180  0.98449675  1.0
  O  O92  1  0.59915277  0.44973069  0.09569202  1.0
  O  O93  1  0.37286165  0.50469314  0.09254372  1.0
  O  O94  1  0.62402957  0.68132635  0.03358895  1.0
  O  O95  1  0.40373358  0.68643758  0.99805677  1.0
  O  O96  1  0.40000620  0.49525208  0.90882861  1.0
  O  O97  1  0.62683342  0.54431082  0.91650704  1.0
  O  O98  1  0.35241000  0.23621233  0.35009237  1.0
  O  O99  1  0.17417327  0.35875969  0.32812864  1.0
  O  O100  1  0.35447995  0.22121487  0.16523220  1.0
  O  O101  1  0.17304910  0.34359899  0.17976350  1.0
  O  O102  1  0.81266452  0.82282642  0.11515552  1.0
  O  O103  1  0.90780281  0.88409162  0.20288062  1.0
  O  O104  1  0.89417902  0.84282732  0.34420446  1.0
  O  O105  1  0.71856360  0.96078458  0.31211963  1.0
