# generated using pymatgen
data_Zn3H34C52(N3O2)4
_symmetry_space_group_name_H-M   'P 1'
_cell_length_a   20.72483417
_cell_length_b   20.96581080
_cell_length_c   20.96592280
_cell_angle_alpha   120.01207916
_cell_angle_beta   90.00384650
_cell_angle_gamma   89.99615573
_symmetry_Int_Tables_number   1
_chemical_formula_structural   Zn3H34C52(N3O2)4
_chemical_formula_sum   'Zn9 H102 C156 N36 O24'
_cell_volume   7888.50063893
_cell_formula_units_Z   3
loop_
 _symmetry_equiv_pos_site_id
 _symmetry_equiv_pos_as_xyz
  1  'x, y, z'
loop_
 _atom_site_type_symbol
 _atom_site_label
 _atom_site_symmetry_multiplicity
 _atom_site_fract_x
 _atom_site_fract_y
 _atom_site_fract_z
 _atom_site_occupancy
  Zn  Zn0  1  0.16671453  0.99997875  0.75884283  1.0
  Zn  Zn1  1  0.83328710  0.75884300  0.99997889  1.0
  Zn  Zn2  1  0.50000015  0.24113704  0.24113671  1.0
  Zn  Zn3  1  0.39847755  0.16305132  0.93688707  1.0
  Zn  Zn4  1  0.06508722  0.77392330  0.83702526  1.0
  Zn  Zn5  1  0.73178253  0.06312715  0.22615575  1.0
  Zn  Zn6  1  0.93491489  0.83702794  0.77392735  1.0
  Zn  Zn7  1  0.26821713  0.22615510  0.06312840  1.0
  Zn  Zn8  1  0.60152310  0.93688765  0.16305319  1.0
  H  H9  1  0.31363503  0.05729180  0.79273302  1.0
  H  H10  1  0.98023236  0.73550327  0.94276546  1.0
  H  H11  1  0.64690300  0.20726330  0.26453324  1.0
  H  H12  1  0.01976975  0.94276629  0.73550459  1.0
  H  H13  1  0.35309715  0.26453343  0.20726421  1.0
  H  H14  1  0.68636609  0.79273093  0.05729167  1.0
  H  H15  1  0.48240409  0.92430994  0.46107996  1.0
  H  H16  1  0.14911560  0.53666705  0.07557989  1.0
  H  H17  1  0.81581098  0.53884345  0.46343619  1.0
  H  H18  1  0.85088503  0.07557946  0.53666725  1.0
  H  H19  1  0.18418918  0.46343648  0.53884018  1.0
  H  H20  1  0.51759511  0.46107994  0.92431411  1.0
  H  H21  1  0.13880165  0.15498028  0.00006903  1.0
  H  H22  1  0.80543035  0.84513329  0.84505430  1.0
  H  H23  1  0.47210445  0.99989958  0.15489438  1.0
  H  H24  1  0.19457031  0.84505285  0.84513399  1.0
  H  H25  1  0.52789620  0.15489668  0.99990194  1.0
  H  H26  1  0.86119897  0.00007085  0.15498291  1.0
  H  H27  1  0.10759459  0.10844609  0.90940022  1.0
  H  H28  1  0.77422193  0.80101571  0.89157140  1.0
  H  H29  1  0.44090936  0.09056224  0.19900290  1.0
  H  H30  1  0.22577873  0.89157074  0.80101696  1.0
  H  H31  1  0.55909127  0.19900565  0.09056440  1.0
  H  H32  1  0.89240605  0.90940117  0.10844544  1.0
  H  H33  1  0.52152133  0.00990948  0.30292769  1.0
  H  H34  1  0.18825035  0.29292130  0.99000782  1.0
  H  H35  1  0.85499668  0.69725175  0.70713196  1.0
  H  H36  1  0.81175031  0.99000853  0.29292334  1.0
  H  H37  1  0.14500446  0.70713338  0.69725054  1.0
  H  H38  1  0.47847930  0.30292500  0.00990870  1.0
  H  H39  1  0.68922085  0.91644389  0.47172636  1.0
  H  H40  1  0.35593089  0.55516160  0.08342331  1.0
  H  H41  1  0.02261594  0.52829781  0.44473968  1.0
  H  H42  1  0.64406975  0.08342250  0.55516173  1.0
  H  H43  1  0.97738471  0.44473830  0.52829636  1.0
  H  H44  1  0.31077836  0.47172688  0.91644730  1.0
  H  H45  1  0.67967315  0.87065308  0.23467016  1.0
  H  H46  1  0.34624910  0.36406762  0.12947865  1.0
  H  H47  1  0.01309827  0.76536847  0.63596630  1.0
  H  H48  1  0.65375153  0.12948036  0.36407141  1.0
  H  H49  1  0.98690383  0.63596572  0.76536557  1.0
  H  H50  1  0.32032798  0.23466630  0.87064973  1.0
  H  H51  1  0.51015215  0.00291370  0.41785925  1.0
  H  H52  1  0.17677857  0.41491015  0.99714261  1.0
  H  H53  1  0.84352373  0.58228825  0.58522070  1.0
  H  H54  1  0.82322257  0.99714226  0.41491104  1.0
  H  H55  1  0.15647692  0.58522118  0.58228653  1.0
  H  H56  1  0.48984848  0.41785980  0.00291663  1.0
  H  H57  1  0.85705846  0.90427723  0.59696643  1.0
  H  H58  1  0.52374415  0.69277954  0.09583061  1.0
  H  H59  1  0.19041083  0.40298930  0.30726817  1.0
  H  H60  1  0.47625600  0.09583046  0.69277901  1.0
  H  H61  1  0.80958980  0.30726955  0.40298880  1.0
  H  H62  1  0.14294268  0.59696817  0.90427625  1.0
  H  H63  1  0.63324444  0.89768507  0.67807244  1.0
  H  H64  1  0.29985397  0.78027234  0.10240787  1.0
  H  H65  1  0.96656301  0.32216262  0.21951233  1.0
  H  H66  1  0.70014522  0.10240733  0.78027244  1.0
  H  H67  1  0.03343521  0.21951097  0.32216072  1.0
  H  H68  1  0.36675670  0.67807241  0.89768788  1.0
  H  H69  1  0.30218044  0.96475944  0.59349497  1.0
  H  H70  1  0.96887449  0.62847562  0.03513502  1.0
  H  H71  1  0.63551753  0.40651196  0.37136881  1.0
  H  H72  1  0.03112421  0.03513417  0.62847413  1.0
  H  H73  1  0.36448310  0.37136928  0.40651131  1.0
  H  H74  1  0.69782167  0.59349479  0.96476202  1.0
  H  H75  1  0.76471297  0.91237800  0.52676464  1.0
  H  H76  1  0.43146546  0.61443881  0.08782370  1.0
  H  H77  1  0.09809867  0.47327410  0.38560347  1.0
  H  H78  1  0.56853614  0.08782484  0.61443928  1.0
  H  H79  1  0.90190294  0.38560220  0.47327230  1.0
  H  H80  1  0.23528624  0.52676708  0.91238048  1.0
  H  H81  1  0.67521995  0.85725024  0.34647870  1.0
  H  H82  1  0.34187954  0.48922920  0.14273596  1.0
  H  H83  1  0.00855061  0.65347891  0.51076576  1.0
  H  H84  1  0.65812013  0.14273421  0.48923114  1.0
  H  H85  1  0.99145004  0.51076341  0.65347603  1.0
  H  H86  1  0.32478119  0.34647798  0.85725093  1.0
  H  H87  1  0.40490832  0.96305443  0.53241012  1.0
  H  H88  1  0.07165298  0.56918055  0.03682185  1.0
  H  H89  1  0.73823869  0.46760320  0.43080494  1.0
  H  H90  1  0.92834669  0.03682133  0.56917972  1.0
  H  H91  1  0.26176147  0.43080661  0.46760331  1.0
  H  H92  1  0.59509330  0.53241034  0.96305798  1.0
  H  H93  1  0.39649904  0.87047914  0.70888461  1.0
  H  H94  1  0.06308239  0.83823152  0.12929299  1.0
  H  H95  1  0.72979687  0.29116731  0.16164724  1.0
  H  H96  1  0.93691922  0.12929217  0.83823011  1.0
  H  H97  1  0.27020183  0.16164600  0.29116731  1.0
  H  H98  1  0.60350017  0.70888474  0.87048103  1.0
  H  H99  1  0.50138858  0.86895891  0.64807687  1.0
  H  H100  1  0.16797938  0.77904272  0.13090787  1.0
  H  H101  1  0.83466618  0.35198436  0.22095395  1.0
  H  H102  1  0.83202126  0.13090561  0.77904127  1.0
  H  H103  1  0.16533205  0.22095470  0.35198383  1.0
  H  H104  1  0.49860967  0.64807797  0.86896205  1.0
  H  H105  1  0.72732171  0.88770997  0.74747540  1.0
  H  H106  1  0.39386057  0.85972131  0.11232671  1.0
  H  H107  1  0.06061525  0.25261471  0.14010356  1.0
  H  H108  1  0.60613959  0.11232502  0.85972109  1.0
  H  H109  1  0.93938152  0.14010363  0.25261191  1.0
  H  H110  1  0.27268136  0.74747515  0.88770865  1.0
  C  C111  1  0.28443131  0.08157135  0.84223875  1.0
  C  C112  1  0.95104782  0.76076242  0.91851029  1.0
  C  C113  1  0.61771082  0.15774483  0.23928679  1.0
  C  C114  1  0.04895478  0.91851316  0.76076617  1.0
  C  C115  1  0.38229077  0.23928791  0.15774680  1.0
  C  C116  1  0.71556933  0.84223834  0.08157369  1.0
  C  C117  1  0.20495956  0.11329335  0.91829538  1.0
  C  C118  1  0.87159032  0.80512233  0.88680703  1.0
  C  C119  1  0.53825022  0.08167045  0.19491549  1.0
  C  C120  1  0.12841227  0.88680773  0.80512306  1.0
  C  C121  1  0.46175088  0.19491724  0.08167208  1.0
  C  C122  1  0.79504060  0.91829355  0.11329513  1.0
  C  C123  1  0.34303945  0.91708662  0.65431694  1.0
  C  C124  1  0.00964642  0.73701270  0.08269509  1.0
  C  C125  1  0.67634568  0.34569369  0.26286213  1.0
  C  C126  1  0.99035471  0.08269528  0.73701124  1.0
  C  C127  1  0.32365255  0.26286016  0.34569210  1.0
  C  C128  1  0.65696314  0.65431899  0.91708944  1.0
  C  C129  1  0.28175282  0.92290300  0.69532493  1.0
  C  C130  1  0.94832226  0.77223340  0.07694527  1.0
  C  C131  1  0.61501752  0.30469997  0.22769144  1.0
  C  C132  1  0.05167934  0.07695041  0.77223166  1.0
  C  C133  1  0.38498070  0.22768828  0.30469920  1.0
  C  C134  1  0.71825025  0.69532758  0.92290554  1.0
  C  C135  1  0.52626746  0.92173490  0.48825850  1.0
  C  C136  1  0.19296159  0.56643387  0.07815560  1.0
  C  C137  1  0.85966070  0.51169761  0.43363088  1.0
  C  C138  1  0.80703856  0.07815865  0.56643538  1.0
  C  C139  1  0.14034043  0.43362943  0.51169343  1.0
  C  C140  1  0.47373223  0.48826008  0.92174213  1.0
  C  C141  1  0.46050738  0.91471457  0.58551860  1.0
  C  C142  1  0.12719517  0.67068503  0.08512893  1.0
  C  C143  1  0.79384618  0.41448566  0.32931433  1.0
  C  C144  1  0.87280596  0.08513110  0.67068572  1.0
  C  C145  1  0.20615301  0.32931627  0.41448513  1.0
  C  C146  1  0.53949328  0.58552094  0.91472043  1.0
  C  C147  1  0.55465077  0.97687721  0.31509555  1.0
  C  C148  1  0.22131992  0.33816516  0.02310580  1.0
  C  C149  1  0.88810477  0.68503392  0.66189897  1.0
  C  C150  1  0.77868071  0.02310553  0.33816758  1.0
  C  C151  1  0.11189781  0.66190002  0.68503294  1.0
  C  C152  1  0.44535036  0.31509198  0.97687509  1.0
  C  C153  1  0.64173222  0.91487900  0.49296060  1.0
  C  C154  1  0.30843257  0.57797453  0.08504934  1.0
  C  C155  1  0.97512001  0.50708295  0.42194357  1.0
  C  C156  1  0.69156711  0.08505059  0.57797535  1.0
  C  C157  1  0.02488064  0.42194005  0.50707937  1.0
  C  C158  1  0.35826699  0.49296256  0.91488565  1.0
  C  C159  1  0.63504551  0.90856272  0.55623376  1.0
  C  C160  1  0.30172735  0.64763026  0.09150858  1.0
  C  C161  1  0.96840224  0.44386128  0.35229943  1.0
  C  C162  1  0.69827232  0.09151046  0.64763121  1.0
  C  C163  1  0.03159936  0.35229592  0.44385852  1.0
  C  C164  1  0.36495467  0.55623529  0.90856785  1.0
  C  C165  1  0.64344366  0.89959610  0.27739836  1.0
  C  C166  1  0.31006835  0.37781982  0.10048737  1.0
  C  C167  1  0.97687391  0.72266275  0.62222655  1.0
  C  C168  1  0.68993324  0.10048712  0.37782061  1.0
  C  C169  1  0.02312674  0.62222724  0.72266116  1.0
  C  C170  1  0.35655892  0.27739516  0.89959345  1.0
  C  C171  1  0.54839200  0.97231832  0.37866966  1.0
  C  C172  1  0.21502049  0.40631528  0.02773516  1.0
  C  C173  1  0.88178273  0.62144627  0.59377771  1.0
  C  C174  1  0.78498110  0.02773599  0.40631791  1.0
  C  C175  1  0.11821695  0.59378002  0.62144435  1.0
  C  C176  1  0.45160914  0.37866733  0.97231928  1.0
  C  C177  1  0.80770189  0.90204247  0.61364116  1.0
  C  C178  1  0.47436756  0.71166124  0.09809061  1.0
  C  C179  1  0.14103859  0.38637117  0.28835165  1.0
  C  C180  1  0.52563308  0.09808926  0.71166072  1.0
  C  C181  1  0.85895964  0.28835241  0.38636874  1.0
  C  C182  1  0.19229780  0.61364382  0.90204378  1.0
  C  C183  1  0.68248234  0.89817783  0.66023865  1.0
  C  C184  1  0.34911577  0.76202272  0.10196497  1.0
  C  C185  1  0.01581670  0.33993464  0.23782191  1.0
  C  C186  1  0.65088487  0.10196369  0.76202271  1.0
  C  C187  1  0.98418104  0.23781885  0.33993031  1.0
  C  C188  1  0.31751929  0.66023895  0.89818029  1.0
  C  C189  1  0.52300516  0.91462226  0.55135483  1.0
  C  C190  1  0.18969912  0.63667139  0.08531778  1.0
  C  C191  1  0.85637164  0.44866989  0.36334187  1.0
  C  C192  1  0.81030104  0.08532085  0.63667233  1.0
  C  C193  1  0.14362900  0.36334144  0.44866796  1.0
  C  C194  1  0.47699550  0.55135899  0.91463111  1.0
  C  C195  1  0.58658924  0.92178330  0.45844755  1.0
  C  C196  1  0.25328010  0.53656697  0.07810202  1.0
  C  C197  1  0.91998687  0.54154002  0.46344270  1.0
  C  C198  1  0.74671957  0.07810334  0.53656832  1.0
  C  C199  1  0.08001329  0.46344328  0.54153836  1.0
  C  C200  1  0.41340997  0.45844982  0.92178998  1.0
  C  C201  1  0.34588419  0.94277471  0.60418780  1.0
  C  C202  1  0.01257118  0.66120135  0.05704624  1.0
  C  C203  1  0.67923342  0.39582253  0.33870145  1.0
  C  C204  1  0.98742994  0.05704638  0.66119973  1.0
  C  C205  1  0.32076818  0.33870063  0.39582110  1.0
  C  C206  1  0.65411647  0.60418904  0.94277726  1.0
  C  C207  1  0.85545195  0.88452849  0.71282415  1.0
  C  C208  1  0.52202682  0.82833897  0.11539905  1.0
  C  C209  1  0.18874453  0.28707777  0.17164194  1.0
  C  C210  1  0.47797238  0.11539663  0.82833385  1.0
  C  C211  1  0.81125659  0.17164386  0.28707663  1.0
  C  C212  1  0.14455209  0.71282434  0.88452295  1.0
  C  C213  1  0.59194650  0.92905072  0.39215674  1.0
  C  C214  1  0.25860543  0.46304835  0.07092846  1.0
  C  C215  1  0.92532902  0.60786375  0.53700547  1.0
  C  C216  1  0.74139376  0.07092845  0.46304974  1.0
  C  C217  1  0.07467211  0.53700658  0.60786174  1.0
  C  C218  1  0.40805367  0.39215575  0.92905259  1.0
  C  C219  1  0.79804483  0.89449782  0.67572825  1.0
  C  C220  1  0.46466357  0.78126468  0.10557148  1.0
  C  C221  1  0.13136008  0.32428057  0.21869050  1.0
  C  C222  1  0.53533900  0.10556880  0.78126225  1.0
  C  C223  1  0.86863958  0.21869263  0.32428037  1.0
  C  C224  1  0.20195776  0.67572899  0.89449600  1.0
  C  C225  1  0.69178332  0.90395967  0.59686028  1.0
  C  C226  1  0.35846950  0.69288025  0.09619269  1.0
  C  C227  1  0.02514049  0.40325892  0.30701999  1.0
  C  C228  1  0.64152969  0.09619201  0.69287965  1.0
  C  C229  1  0.97485966  0.30701958  0.40325625  1.0
  C  C230  1  0.30821878  0.59686050  0.90396320  1.0
  C  C231  1  0.75535501  0.90634458  0.57462684  1.0
  C  C232  1  0.42205435  0.66830912  0.09380836  1.0
  C  C233  1  0.08870538  0.42543329  0.33168109  1.0
  C  C234  1  0.57794580  0.09380747  0.66830913  1.0
  C  C235  1  0.91129477  0.33168128  0.42543190  1.0
  C  C236  1  0.24464468  0.57462985  0.90634780  1.0
  C  C237  1  0.64068169  0.89263619  0.33977484  1.0
  C  C238  1  0.30734535  0.44712139  0.10737461  1.0
  C  C239  1  0.97405097  0.66024555  0.55290755  1.0
  C  C240  1  0.69265480  0.10737376  0.44712118  1.0
  C  C241  1  0.02595016  0.55290644  0.66024110  1.0
  C  C242  1  0.35931992  0.33977415  0.89263655  1.0
  C  C243  1  0.40382034  0.94133093  0.57003092  1.0
  C  C244  1  0.07054385  0.62852760  0.05848819  1.0
  C  C245  1  0.73717015  0.42997895  0.37144942  1.0
  C  C246  1  0.92945630  0.05848884  0.62852611  1.0
  C  C247  1  0.26283097  0.37145027  0.42997634  1.0
  C  C248  1  0.59617888  0.57003359  0.94133642  1.0
  C  C249  1  0.39926474  0.88986483  0.66946855  1.0
  C  C250  1  0.06586638  0.77942006  0.10988994  1.0
  C  C251  1  0.73256426  0.33055576  0.22047812  1.0
  C  C252  1  0.93413330  0.10988697  0.77941878  1.0
  C  C253  1  0.26743493  0.22047751  0.33055447  1.0
  C  C254  1  0.60073495  0.66946954  0.88986866  1.0
  C  C255  1  0.45729160  0.88901963  0.63583335  1.0
  C  C256  1  0.12390320  0.74669329  0.11081195  1.0
  C  C257  1  0.79058544  0.36420481  0.25328165  1.0
  C  C258  1  0.87609792  0.11081100  0.74669276  1.0
  C  C259  1  0.20941326  0.25328114  0.36420630  1.0
  C  C260  1  0.54270713  0.63583414  0.88902327  1.0
  C  C261  1  0.73485046  0.89312475  0.69895876  1.0
  C  C262  1  0.40144587  0.80583232  0.10699414  1.0
  C  C263  1  0.06816821  0.30113014  0.19404526  1.0
  C  C264  1  0.59855429  0.10699206  0.80583045  1.0
  C  C265  1  0.93183097  0.19404502  0.30112761  1.0
  C  C266  1  0.26515309  0.69896011  0.89312385  1.0
  N  N267  1  0.57656204  0.90780746  0.58360799  1.0
  N  N268  1  0.24325792  0.67577374  0.09225157  1.0
  N  N269  1  0.90991393  0.41648833  0.32419155  1.0
  N  N270  1  0.75674320  0.09225427  0.67577327  1.0
  N  N271  1  0.09008719  0.32418952  0.41648733  1.0
  N  N272  1  0.42343766  0.58361056  0.90781299  1.0
  N  N273  1  0.22032655  0.07111538  0.84526479  1.0
  N  N274  1  0.88694587  0.77426068  0.92896608  1.0
  N  N275  1  0.55361635  0.15469833  0.22575994  1.0
  N  N276  1  0.11305720  0.92896896  0.77426364  1.0
  N  N277  1  0.44638573  0.22576244  0.15470071  1.0
  N  N278  1  0.77967409  0.84526465  0.07111609  1.0
  N  N279  1  0.30874778  0.12646211  0.90813844  1.0
  N  N280  1  0.97537581  0.78177234  0.87364049  1.0
  N  N281  1  0.64203968  0.09185910  0.21829928  1.0
  N  N282  1  0.02462678  0.87364350  0.78177690  1.0
  N  N283  1  0.35796191  0.21830284  0.09186163  1.0
  N  N284  1  0.69125045  0.90813709  0.12646359  1.0
  N  N285  1  0.25796427  0.14766818  0.95793193  1.0
  N  N286  1  0.92459398  0.81037124  0.85243882  1.0
  N  N287  1  0.59125785  0.04205771  0.18970355  1.0
  N  N288  1  0.07540813  0.85244061  0.81037432  1.0
  N  N289  1  0.40874326  0.18970758  0.04205952  1.0
  N  N290  1  0.74203541  0.95793234  0.14767164  1.0
  N  N291  1  0.14523632  0.11816459  0.94559649  1.0
  N  N292  1  0.81185623  0.82754043  0.88191255  1.0
  N  N293  1  0.47853121  0.05435471  0.17247184  1.0
  N  N294  1  0.18814540  0.88191157  0.82754014  1.0
  N  N295  1  0.52147038  0.17247475  0.05435615  1.0
  N  N296  1  0.85476384  0.94559755  0.11816712  1.0
  N  N297  1  0.60130591  0.94104481  0.26510409  1.0
  N  N298  1  0.26795842  0.32403730  0.05897380  1.0
  N  N299  1  0.93476931  0.73499296  0.67602167  1.0
  N  N300  1  0.73204269  0.05897496  0.32403950  1.0
  N  N301  1  0.06523183  0.67602307  0.73499253  1.0
  N  N302  1  0.39869426  0.26510131  0.94104267  1.0
  O  O303  1  0.23428360  0.95560612  0.68285211  1.0
  O  O304  1  0.90086561  0.72706019  0.04418790  1.0
  O  O305  1  0.56763056  0.31708761  0.27292948  1.0
  O  O306  1  0.09913262  0.04418665  0.72705830  1.0
  O  O307  1  0.43236960  0.27292500  0.31708636  1.0
  O  O308  1  0.76571803  0.68285434  0.95560620  1.0
  O  O309  1  0.84556175  0.87041354  0.76606209  1.0
  O  O310  1  0.51209732  0.89576246  0.12974462  1.0
  O  O311  1  0.17885108  0.23384113  0.10426984  1.0
  O  O312  1  0.48790333  0.12974099  0.89575954  1.0
  O  O313  1  0.82115147  0.10427016  0.23383910  1.0
  O  O314  1  0.15444180  0.76606247  0.87040710  1.0
  O  O315  1  0.91146027  0.88617292  0.69060311  1.0
  O  O316  1  0.57806710  0.80441501  0.11346519  1.0
  O  O317  1  0.24476144  0.30922898  0.19553233  1.0
  O  O318  1  0.42193306  0.11345714  0.80440961  1.0
  O  O319  1  0.75524064  0.19553478  0.30922702  1.0
  O  O320  1  0.08854328  0.69060167  0.88616196  1.0
  O  O321  1  0.28099372  0.89962078  0.74005508  1.0
  O  O322  1  0.94759264  0.84026279  0.10031240  1.0
  O  O323  1  0.61417474  0.26006507  0.15965636  1.0
  O  O324  1  0.05240849  0.10032257  0.84026191  1.0
  O  O325  1  0.38582348  0.15965165  0.26006408  1.0
  O  O326  1  0.71900790  0.74006081  0.89962613  1.0
