# generated using pymatgen
data_NiHC4O3
_symmetry_space_group_name_H-M   'P 1'
_cell_length_a   6.80031589
_cell_length_b   15.29359714
_cell_length_c   15.29616137
_cell_angle_alpha   117.83977507
_cell_angle_beta   98.52398697
_cell_angle_gamma   98.51934129
_symmetry_Int_Tables_number   1
_chemical_formula_structural   NiHC4O3
_chemical_formula_sum   'Ni6 H6 C24 O18'
_cell_volume   1347.49611102
_cell_formula_units_Z   6
loop_
 _symmetry_equiv_pos_site_id
 _symmetry_equiv_pos_as_xyz
  1  'x, y, z'
loop_
 _atom_site_type_symbol
 _atom_site_label
 _atom_site_symmetry_multiplicity
 _atom_site_fract_x
 _atom_site_fract_y
 _atom_site_fract_z
 _atom_site_occupancy
  Ni  Ni0  1  0.13208943  0.30445529  0.72117966  1.0
  Ni  Ni1  1  0.82787061  0.41681921  0.69566987  1.0
  Ni  Ni2  1  0.41111435  0.27894660  0.58343359  1.0
  Ni  Ni3  1  0.82766944  0.69550870  0.41657455  1.0
  Ni  Ni4  1  0.13218166  0.72114442  0.30432758  1.0
  Ni  Ni5  1  0.41090899  0.58327239  0.27881818  1.0
  H  H6  1  0.25409321  0.52918671  0.00000008  1.0
  H  H7  1  0.72480247  0.47081520  0.47077508  1.0
  H  H8  1  0.25401137  0.00003772  0.52922666  1.0
  H  H9  1  0.52672866  0.43597830  0.00000083  1.0
  H  H10  1  0.09080765  0.56420243  0.56428758  1.0
  H  H11  1  0.52649601  0.99990007  0.43571476  1.0
  C  C12  1  0.94794605  0.45087861  0.90542080  1.0
  C  C13  1  0.49706509  0.45456002  0.54916835  1.0
  C  C14  1  0.04228545  0.09456907  0.54548323  1.0
  C  C15  1  0.49681636  0.54908436  0.45451542  1.0
  C  C16  1  0.94788337  0.90539021  0.45083261  1.0
  C  C17  1  0.04254375  0.54545222  0.09456931  1.0
  C  C18  1  0.09418194  0.50738892  0.99999693  1.0
  C  C19  1  0.58663956  0.49257089  0.49256491  1.0
  C  C20  1  0.09406170  0.00001074  0.50743379  1.0
  C  C21  1  0.73601881  0.42353374  0.90615054  1.0
  C  C22  1  0.31250466  0.48271358  0.57660493  1.0
  C  C23  1  0.82954569  0.09381328  0.51737530  1.0
  C  C24  1  0.31214833  0.57644011  0.48261764  1.0
  C  C25  1  0.73584359  0.90609638  0.42339718  1.0
  C  C26  1  0.82984098  0.51738133  0.09384715  1.0
  C  C27  1  0.56106943  0.37115580  0.81642643  1.0
  C  C28  1  0.18995700  0.44535534  0.62899788  1.0
  C  C29  1  0.74436477  0.18360301  0.55483021  1.0
  C  C30  1  0.18953781  0.62877294  0.44516457  1.0
  C  C31  1  0.56095555  0.81635188  0.37101007  1.0
  C  C32  1  0.74464377  0.55472863  0.18357866  1.0
  C  C33  1  0.68712694  0.45624298  0.00000312  1.0
  C  C34  1  0.23080186  0.54386137  0.54390537  1.0
  C  C35  1  0.68687596  0.99995150  0.45609773  1.0
  O  O36  1  0.01206650  0.42972270  0.82096241  1.0
  O  O37  1  0.58242299  0.39133264  0.57042909  1.0
  O  O38  1  0.19072417  0.17905489  0.60880725  1.0
  O  O39  1  0.58193102  0.57024393  0.39118389  1.0
  O  O40  1  0.01198204  0.82089670  0.42957295  1.0
  O  O41  1  0.19110892  0.60875604  0.17903592  1.0
  O  O42  1  0.58809355  0.36230310  0.73064403  1.0
  O  O43  1  0.22558596  0.36827844  0.63766262  1.0
  O  O44  1  0.85713866  0.26938137  0.63175519  1.0
  O  O45  1  0.22536682  0.63761449  0.36824394  1.0
  O  O46  1  0.58791697  0.73060419  0.36233698  1.0
  O  O47  1  0.85743151  0.63163859  0.26934925  1.0
  O  O48  1  0.38395761  0.33922258  0.82410173  1.0
  O  O49  1  0.04496128  0.48507208  0.66105569  1.0
  O  O50  1  0.55954411  0.17590361  0.51522117  1.0
  O  O51  1  0.04434871  0.66068036  0.48477961  1.0
  O  O52  1  0.38389899  0.82400892  0.33896037  1.0
  O  O53  1  0.55987761  0.51511772  0.17589615  1.0
