# generated using pymatgen
data_NiH32C44(NO)6
_symmetry_space_group_name_H-M   'P 1'
_cell_length_a   12.87624027
_cell_length_b   17.04024691
_cell_length_c   17.04027370
_cell_angle_alpha   69.63891147
_cell_angle_beta   73.41791721
_cell_angle_gamma   73.41665239
_symmetry_Int_Tables_number   1
_chemical_formula_structural   NiH32C44(NO)6
_chemical_formula_sum   'Ni2 H64 C88 N12 O12'
_cell_volume   3286.63510382
_cell_formula_units_Z   2
loop_
 _symmetry_equiv_pos_site_id
 _symmetry_equiv_pos_as_xyz
  1  'x, y, z'
loop_
 _atom_site_type_symbol
 _atom_site_label
 _atom_site_symmetry_multiplicity
 _atom_site_fract_x
 _atom_site_fract_y
 _atom_site_fract_z
 _atom_site_occupancy
  Ni  Ni0  1  0.75000213  0.24301167  0.75698599  1.0
  Ni  Ni1  1  0.25000382  0.75699140  0.24300826  1.0
  H  H2  1  0.70060709  0.22010860  0.93849637  1.0
  H  H3  1  0.20060684  0.93850518  0.22010640  1.0
  H  H4  1  0.29938329  0.77989849  0.06149905  1.0
  H  H5  1  0.79940158  0.06149713  0.77989173  1.0
  H  H6  1  0.69539237  0.09538585  0.06919219  1.0
  H  H7  1  0.19541619  0.06920259  0.09538436  1.0
  H  H8  1  0.30460423  0.90462490  0.93080493  1.0
  H  H9  1  0.80460404  0.93080325  0.90461735  1.0
  H  H10  1  0.58537460  0.97344906  0.14062309  1.0
  H  H11  1  0.08539242  0.14063126  0.97345207  1.0
  H  H12  1  0.41463515  0.02656089  0.85937231  1.0
  H  H13  1  0.91462411  0.85937580  0.02655409  1.0
  H  H14  1  0.58304998  0.84733749  0.26457482  1.0
  H  H15  1  0.08304824  0.26458060  0.84733791  1.0
  H  H16  1  0.41694937  0.15266952  0.73541768  1.0
  H  H17  1  0.91695239  0.73542297  0.15266603  1.0
  H  H18  1  0.57555819  0.70732050  0.31513117  1.0
  H  H19  1  0.07554765  0.31515089  0.70731665  1.0
  H  H20  1  0.42443772  0.29267763  0.68486489  1.0
  H  H21  1  0.92444619  0.68485874  0.29267609  1.0
  H  H22  1  0.57620875  0.57919940  0.44049035  1.0
  H  H23  1  0.07621100  0.44050167  0.57918761  1.0
  H  H24  1  0.42379672  0.42079605  0.55950529  1.0
  H  H25  1  0.92379319  0.55950283  0.42080066  1.0
  H  H26  1  0.85826231  0.38415125  0.69604367  1.0
  H  H27  1  0.35828157  0.69603845  0.38414078  1.0
  H  H28  1  0.14173118  0.61586767  0.30395847  1.0
  H  H29  1  0.64173521  0.30396001  0.61585402  1.0
  H  H30  1  0.86358299  0.51421410  0.56886864  1.0
  H  H31  1  0.36360413  0.56886213  0.51420146  1.0
  H  H32  1  0.13640825  0.48580180  0.43112846  1.0
  H  H33  1  0.63640520  0.43113707  0.48579397  1.0
  H  H34  1  0.65818383  0.40284146  0.79909400  1.0
  H  H35  1  0.15820189  0.79910358  0.40283202  1.0
  H  H36  1  0.34180431  0.59716187  0.20090131  1.0
  H  H37  1  0.84180910  0.20089562  0.59716191  1.0
  H  H38  1  0.47122229  0.47722733  0.85672356  1.0
  H  H39  1  0.97124019  0.85672834  0.47722428  1.0
  H  H40  1  0.52876844  0.52277138  0.14327803  1.0
  H  H41  1  0.02876901  0.14326759  0.52277576  1.0
  H  H42  1  0.35194132  0.25245610  0.88942072  1.0
  H  H43  1  0.85193868  0.88942962  0.25246001  1.0
  H  H44  1  0.64805617  0.74753879  0.11057725  1.0
  H  H45  1  0.14805881  0.11056771  0.74754245  1.0
  H  H46  1  0.54125157  0.19088004  0.82272955  1.0
  H  H47  1  0.04124975  0.82274471  0.19087956  1.0
  H  H48  1  0.45874704  0.80911674  0.17726818  1.0
  H  H49  1  0.95875121  0.17726470  0.80911773  1.0
  H  H50  1  0.32412757  0.49473995  0.96397388  1.0
  H  H51  1  0.82413348  0.96398576  0.49473573  1.0
  H  H52  1  0.67586218  0.50527122  0.03600977  1.0
  H  H53  1  0.17587017  0.03603016  0.50525188  1.0
  H  H54  1  0.13552095  0.55703646  0.02058217  1.0
  H  H55  1  0.63552810  0.02058474  0.55704000  1.0
  H  H56  1  0.86446690  0.44296892  0.97940666  1.0
  H  H57  1  0.36447693  0.97941433  0.44296395  1.0
  H  H58  1  0.01455396  0.40036321  0.92732846  1.0
  H  H59  1  0.51456140  0.92727895  0.40040899  1.0
  H  H60  1  0.98543856  0.59960958  0.07269878  1.0
  H  H61  1  0.48544055  0.07267048  0.59963629  1.0
  H  H62  1  0.20313889  0.34286881  0.86639274  1.0
  H  H63  1  0.70315010  0.86636408  0.34289865  1.0
  H  H64  1  0.79684951  0.65711185  0.13362512  1.0
  H  H65  1  0.29685468  0.13360787  0.65712880  1.0
  C  C66  1  0.72101383  0.15489155  0.93396857  1.0
  C  C67  1  0.22101849  0.93397708  0.15488877  1.0
  C  C68  1  0.27897883  0.84511615  0.06602621  1.0
  C  C69  1  0.77898684  0.06602463  0.84511016  1.0
  C  C70  1  0.71885176  0.08482964  0.00640567  1.0
  C  C71  1  0.21886419  0.00641438  0.08482961  1.0
  C  C72  1  0.28114825  0.91518044  0.99359101  1.0
  C  C73  1  0.78114748  0.99359032  0.91517239  1.0
  C  C74  1  0.74999684  0.00157646  0.99842420  1.0
  C  C75  1  0.25001015  0.99843086  0.00157729  1.0
  C  C76  1  0.74999814  0.92594460  0.07405654  1.0
  C  C77  1  0.25001321  0.07406138  0.92594510  1.0
  C  C78  1  0.65801364  0.92115078  0.14273099  1.0
  C  C79  1  0.15803092  0.14273722  0.92115465  1.0
  C  C80  1  0.34198586  0.07885241  0.85726273  1.0
  C  C81  1  0.84197847  0.85727005  0.07884755  1.0
  C  C82  1  0.65696570  0.84887233  0.21336699  1.0
  C  C83  1  0.15695828  0.21336906  0.84887428  1.0
  C  C84  1  0.34303579  0.15113201  0.78663008  1.0
  C  C85  1  0.84303724  0.78663029  0.15112381  1.0
  C  C86  1  0.75000056  0.78098075  0.21901786  1.0
  C  C87  1  0.24999382  0.21902307  0.78097960  1.0
  C  C88  1  0.75000185  0.70529360  0.29470314  1.0
  C  C89  1  0.24999204  0.29471214  0.70529379  1.0
  C  C90  1  0.65226210  0.67449660  0.33777922  1.0
  C  C91  1  0.15225738  0.33779046  0.67449122  1.0
  C  C92  1  0.34773753  0.32550031  0.66221181  1.0
  C  C93  1  0.84774184  0.66221086  0.32550139  1.0
  C  C94  1  0.65282047  0.60225262  0.40825367  1.0
  C  C95  1  0.15282055  0.40826393  0.60224101  1.0
  C  C96  1  0.34717760  0.39774997  0.59173934  1.0
  C  C97  1  0.84717778  0.59174127  0.39774877  1.0
  C  C98  1  0.74999829  0.56001355  0.43998819  1.0
  C  C99  1  0.25000147  0.43999150  0.56000723  1.0
  C  C100  1  0.81229064  0.39724858  0.64649999  1.0
  C  C101  1  0.31230014  0.64649946  0.39724299  1.0
  C  C102  1  0.18771188  0.60276394  0.35349892  1.0
  C  C103  1  0.68770657  0.35350599  0.60275739  1.0
  C  C104  1  0.81415052  0.46897901  0.57573020  1.0
  C  C105  1  0.31417048  0.57572448  0.46896653  1.0
  C  C106  1  0.18584559  0.53103683  0.42426595  1.0
  C  C107  1  0.68584051  0.42427472  0.53102740  1.0
  C  C108  1  0.75000024  0.48455377  0.51544530  1.0
  C  C109  1  0.25000646  0.51544682  0.48454608  1.0
  C  C110  1  0.58705753  0.37324049  0.81755186  1.0
  C  C111  1  0.08706256  0.81756251  0.37323495  1.0
  C  C112  1  0.41293996  0.62676076  0.18244464  1.0
  C  C113  1  0.91293895  0.18244261  0.62675598  1.0
  C  C114  1  0.48240913  0.41326988  0.85158081  1.0
  C  C115  1  0.98242352  0.85158717  0.41326675  1.0
  C  C116  1  0.51757815  0.58673025  0.14841688  1.0
  C  C117  1  0.01758764  0.14841064  0.58673230  1.0
  C  C118  1  0.39251941  0.37230234  0.87755291  1.0
  C  C119  1  0.89252526  0.87755536  0.37230399  1.0
  C  C120  1  0.60747312  0.62769573  0.12244794  1.0
  C  C121  1  0.10747779  0.12244256  0.62769602  1.0
  C  C122  1  0.41619523  0.28953951  0.86850104  1.0
  C  C123  1  0.91619663  0.86850463  0.28954211  1.0
  C  C124  1  0.58380133  0.71045531  0.13150065  1.0
  C  C125  1  0.08380429  0.13149520  0.71045887  1.0
  C  C126  1  0.52201888  0.25347669  0.83299702  1.0
  C  C127  1  0.02202505  0.83301263  0.25347149  1.0
  C  C128  1  0.47797340  0.74652665  0.16699513  1.0
  C  C129  1  0.97797734  0.16699495  0.74652200  1.0
  C  C130  1  0.27935572  0.41227041  0.91165749  1.0
  C  C131  1  0.77936479  0.91165316  0.41227830  1.0
  C  C132  1  0.72063332  0.58772585  0.08834169  1.0
  C  C133  1  0.22064227  0.08834074  0.58772868  1.0
  C  C134  1  0.25671066  0.47426146  0.95466164  1.0
  C  C135  1  0.75671806  0.95465891  0.47427008  1.0
  C  C136  1  0.74328043  0.52573676  0.04533357  1.0
  C  C137  1  0.24328467  0.04533636  0.52573555  1.0
  C  C138  1  0.14838887  0.50876500  0.98848129  1.0
  C  C139  1  0.64840013  0.98847717  0.50876882  1.0
  C  C140  1  0.85159666  0.49123581  0.01151535  1.0
  C  C141  1  0.35160934  0.01151743  0.49123335  1.0
  C  C142  1  0.05768389  0.48272794  0.98111855  1.0
  C  C143  1  0.55769378  0.98109700  0.48274849  1.0
  C  C144  1  0.94230344  0.51726117  0.01889033  1.0
  C  C145  1  0.44231321  0.01887307  0.51727620  1.0
  C  C146  1  0.08090431  0.42239495  0.93592469  1.0
  C  C147  1  0.58091043  0.93588857  0.42242912  1.0
  C  C148  1  0.91908497  0.57758499  0.06409618  1.0
  C  C149  1  0.41909079  0.06407122  0.57760649  1.0
  C  C150  1  0.18892279  0.38829041  0.90205998  1.0
  C  C151  1  0.68893113  0.90203981  0.38831148  1.0
  C  C152  1  0.81106675  0.61169608  0.09795108  1.0
  C  C153  1  0.31107620  0.09793930  0.61170553  1.0
  N  N154  1  0.65924241  0.10037335  0.67728568  1.0
  N  N155  1  0.15924287  0.67729331  0.10036208  1.0
  N  N156  1  0.34075135  0.89963229  0.32271541  1.0
  N  N157  1  0.84075662  0.32271306  0.89963120  1.0
  N  N158  1  0.75000410  0.14577530  0.85422008  1.0
  N  N159  1  0.24999758  0.85422842  0.14577656  1.0
  N  N160  1  0.75000249  0.34026609  0.65973562  1.0
  N  N161  1  0.25000660  0.65974323  0.34026010  1.0
  N  N162  1  0.60685844  0.29482308  0.80703645  1.0
  N  N163  1  0.10686391  0.80704068  0.29482512  1.0
  N  N164  1  0.39313745  0.70517186  0.19296065  1.0
  N  N165  1  0.89314082  0.19296044  0.70517236  1.0
  O  O166  1  0.58259462  0.06191162  0.69056396  1.0
  O  O167  1  0.08258831  0.69054589  0.06191501  1.0
  O  O168  1  0.41740202  0.93808267  0.30946139  1.0
  O  O169  1  0.91740244  0.30944573  0.93809239  1.0
  O  O170  1  0.75974366  0.06531937  0.65695054  1.0
  O  O171  1  0.25974410  0.65698521  0.06529339  1.0
  O  O172  1  0.24025003  0.93469953  0.34302455  1.0
  O  O173  1  0.74025377  0.34303540  0.93468678  1.0
  O  O174  1  0.63443118  0.17618674  0.68556619  1.0
  O  O175  1  0.13444149  0.68557178  0.17617514  1.0
  O  O176  1  0.36555765  0.82381967  0.31443269  1.0
  O  O177  1  0.86556915  0.31443186  0.82381860  1.0
