# generated using pymatgen
data_AlH33(C8O)6
_symmetry_space_group_name_H-M   'P 1'
_cell_length_a   3.99236959
_cell_length_b   23.49809800
_cell_length_c   23.56440056
_cell_angle_alpha   60.10107766
_cell_angle_beta   87.90858180
_cell_angle_gamma   87.98967460
_symmetry_Int_Tables_number   1
_chemical_formula_structural   AlH33(C8O)6
_chemical_formula_sum   'Al1 H33 C48 O6'
_cell_volume   1914.78487452
_cell_formula_units_Z   1
loop_
 _symmetry_equiv_pos_site_id
 _symmetry_equiv_pos_as_xyz
  1  'x, y, z'
loop_
 _atom_site_type_symbol
 _atom_site_label
 _atom_site_symmetry_multiplicity
 _atom_site_fract_x
 _atom_site_fract_y
 _atom_site_fract_z
 _atom_site_occupancy
  Al  Al0  1  0.00302964  0.50073619  0.49985710  1.0
  H  H1  1  0.49388585  0.32235107  0.67887598  1.0
  H  H2  1  0.49449306  0.20184226  0.74245804  1.0
  H  H3  1  0.17594818  0.98346558  0.83484006  1.0
  H  H4  1  0.56035771  0.68509422  0.31522837  1.0
  H  H5  1  0.50234710  0.74309913  0.19527246  1.0
  H  H6  1  0.75454120  0.77043921  0.10670570  1.0
  H  H7  1  0.76639676  0.83351446  0.98721732  1.0
  H  H8  1  0.49762247  0.89543166  0.89382550  1.0
  H  H9  1  0.46759095  0.50010629  0.32204266  1.0
  H  H10  1  0.47295743  0.55649458  0.20206457  1.0
  H  H11  1  0.18826649  0.68448318  0.98368477  1.0
  H  H12  1  0.48578928  0.50029169  0.68420347  1.0
  H  H13  1  0.42734879  0.56299279  0.74278453  1.0
  H  H14  1  0.72365412  0.62137962  0.76797506  1.0
  H  H15  1  0.75121311  0.67781305  0.83138626  1.0
  H  H16  1  0.47325063  0.71173579  0.89542763  1.0
  H  H17  1  0.44233667  0.68051575  0.49998059  1.0
  H  H18  1  0.44071972  0.74356715  0.55761765  1.0
  H  H19  1  0.14285492  0.83540672  0.68857235  1.0
  H  H20  1  0.53203470  0.31526043  0.49989839  1.0
  H  H21  1  0.48302564  0.19453070  0.56337910  1.0
  H  H22  1  0.78106128  0.10644776  0.62326581  1.0
  H  H23  1  0.79154894  0.98603138  0.68015580  1.0
  H  H24  1  0.47416266  0.89362477  0.71250742  1.0
  H  H25  1  0.86511525  0.82377426  0.61174685  1.0
  H  H26  1  0.94518673  0.75908453  0.59429128  1.0
  H  H27  1  0.22322290  0.82565706  0.56411111  1.0
  H  H28  1  0.90378668  0.07667900  0.82096483  1.0
  H  H29  1  0.99993507  0.15726449  0.75718879  1.0
  H  H30  1  0.26473470  0.11604510  0.82536934  1.0
  H  H31  1  0.93436731  0.60595929  0.07393334  1.0
  H  H32  1  0.99951514  0.59005386  0.15481857  1.0
  H  H33  1  0.29416269  0.56073921  0.11679430  1.0
  C  C34  1  0.51314131  0.39982727  0.54853881  1.0
  C  C35  1  0.48152814  0.54972020  0.55178601  1.0
  C  C36  1  0.51377472  0.55257868  0.39937021  1.0
  C  C37  1  0.49600127  0.29397288  0.65373890  1.0
  C  C38  1  0.49039603  0.22583581  0.68939046  1.0
  C  C39  1  0.30670535  0.07901324  0.75749618  1.0
  C  C40  1  0.31759270  0.01047392  0.78885284  1.0
  C  C41  1  0.53355659  0.65722751  0.29002664  1.0
  C  C42  1  0.50572490  0.68956278  0.22224606  1.0
  C  C43  1  0.62138178  0.75175752  0.07998187  1.0
  C  C44  1  0.62905165  0.78778523  0.01206263  1.0
  C  C45  1  0.51288676  0.32671049  0.58531754  1.0
  C  C46  1  0.48309889  0.18790473  0.65836882  1.0
  C  C47  1  0.47330182  0.11524713  0.69583853  1.0
  C  C48  1  0.48605278  0.97521595  0.76267636  1.0
  C  C49  1  0.48822623  0.90271381  0.79898002  1.0
  C  C50  1  0.49187974  0.86813790  0.86763673  1.0
  C  C51  1  0.48133887  0.55346976  0.29377258  1.0
  C  C52  1  0.47628732  0.58587318  0.22584094  1.0
  C  C53  1  0.31055532  0.66575563  0.07894673  1.0
  C  C54  1  0.32186918  0.70293383  0.01062024  1.0
  C  C55  1  0.46914178  0.55378992  0.65672242  1.0
  C  C56  1  0.44051851  0.58942197  0.68938397  1.0
  C  C57  1  0.58735389  0.66789683  0.75103471  1.0
  C  C58  1  0.60333096  0.69967199  0.78714707  1.0
  C  C59  1  0.51276359  0.58874492  0.32658161  1.0
  C  C60  1  0.47886076  0.65492623  0.18801702  1.0
  C  C61  1  0.46595998  0.69025979  0.11552893  1.0
  C  C62  1  0.48033502  0.76347217  0.97553450  1.0
  C  C63  1  0.48577403  0.79938874  0.90321282  1.0
  C  C64  1  0.47758079  0.76523946  0.86855476  1.0
  C  C65  1  0.44371018  0.65498104  0.55333113  1.0
  C  C66  1  0.43582084  0.69031118  0.58626842  1.0
  C  C67  1  0.25961256  0.75776016  0.66822243  1.0
  C  C68  1  0.27865880  0.78879265  0.70545113  1.0
  C  C69  1  0.51943113  0.29003184  0.55327476  1.0
  C  C70  1  0.49561201  0.22195517  0.58935003  1.0
  C  C71  1  0.64018933  0.07956458  0.66931204  1.0
  C  C72  1  0.64717188  0.01141283  0.70135435  1.0
  C  C73  1  0.46487921  0.58640656  0.58822739  1.0
  C  C74  1  0.42735220  0.65864665  0.65514638  1.0
  C  C75  1  0.41991302  0.69552048  0.69104983  1.0
  C  C76  1  0.45100933  0.76182460  0.76431297  1.0
  C  C77  1  0.47094582  0.79832328  0.80003829  1.0
  C  C78  1  0.47859277  0.86714720  0.76587781  1.0
  C  C79  1  0.06250224  0.79306923  0.60628328  1.0
  C  C80  1  0.10813828  0.10928516  0.79168709  1.0
  C  C81  1  0.12458819  0.60221517  0.10813703  1.0
  O  O82  1  0.74109006  0.56506931  0.42808303  1.0
  O  O83  1  0.75201318  0.42853589  0.50748412  1.0
  O  O84  1  0.72211889  0.50826780  0.56395644  1.0
  O  O85  1  0.28423063  0.51037009  0.42829323  1.0
  O  O86  1  0.25398963  0.56305123  0.51002808  1.0
  O  O87  1  0.27161177  0.42872168  0.56174725  1.0
