# generated using pymatgen
data_AlH7C13SNClO8
_symmetry_space_group_name_H-M   'P 1'
_cell_length_a   6.66502022
_cell_length_b   11.13544850
_cell_length_c   17.01819341
_cell_angle_alpha   86.15580636
_cell_angle_beta   81.59006725
_cell_angle_gamma   73.48239721
_symmetry_Int_Tables_number   1
_chemical_formula_structural   AlH7C13SNClO8
_chemical_formula_sum   'Al2 H14 C26 S2 N2 Cl2 O16'
_cell_volume   1197.47990822
_cell_formula_units_Z   2
loop_
 _symmetry_equiv_pos_site_id
 _symmetry_equiv_pos_as_xyz
  1  'x, y, z'
loop_
 _atom_site_type_symbol
 _atom_site_label
 _atom_site_symmetry_multiplicity
 _atom_site_fract_x
 _atom_site_fract_y
 _atom_site_fract_z
 _atom_site_occupancy
  Al  Al0  1  0.99294808  0.48965869  0.50912152  1.0
  Al  Al1  1  0.49430049  0.49365506  0.50464620  1.0
  H  H2  1  0.17737177  0.57014385  0.59522707  1.0
  H  H3  1  0.82022338  0.39138867  0.42571415  1.0
  H  H4  1  0.63943398  0.41379526  0.26633624  1.0
  H  H5  1  0.69682631  0.39715104  0.11805184  1.0
  H  H6  1  0.02544268  0.54242042  0.11618034  1.0
  H  H7  1  0.81032465  0.58484414  0.90394072  1.0
  H  H8  1  0.34363160  0.38949906  0.89264419  1.0
  H  H9  1  0.41339829  0.40035186  0.74362984  1.0
  H  H10  1  0.41454844  0.77722493  0.36966403  1.0
  H  H11  1  0.14941196  0.23602091  0.40489403  1.0
  H  H12  1  0.67050326  0.09921204  0.57988837  1.0
  H  H13  1  0.79390846  0.86603148  0.56783787  1.0
  H  H14  1  0.93555771  0.77683338  0.27996387  1.0
  H  H15  1  0.14668246  0.28591649  0.20921394  1.0
  C  C16  1  0.64333340  0.71949135  0.49147135  1.0
  C  C17  1  0.68891152  0.49281783  0.65111343  1.0
  C  C18  1  0.35652943  0.26295963  0.51358308  1.0
  C  C19  1  0.28812720  0.49359808  0.36305785  1.0
  C  C20  1  0.30547463  0.48742643  0.27484765  1.0
  C  C21  1  0.50719387  0.44140112  0.23226569  1.0
  C  C22  1  0.53916560  0.43245624  0.15033704  1.0
  C  C23  1  0.36411095  0.46991705  0.10856154  1.0
  C  C24  1  0.15965757  0.51219892  0.14952592  1.0
  C  C25  1  0.13118233  0.52385271  0.23170159  1.0
  C  C26  1  0.72545463  0.54368199  0.86811472  1.0
  C  C27  1  0.57433018  0.48652248  0.90639768  1.0
  C  C28  1  0.45973456  0.43422758  0.86199190  1.0
  C  C29  1  0.49928629  0.44022566  0.77981026  1.0
  C  C30  1  0.65134136  0.49648083  0.73975232  1.0
  C  C31  1  0.76207111  0.55020048  0.78543902  1.0
  C  C32  1  0.58042189  0.85999003  0.48708273  1.0
  C  C33  1  0.42725035  0.93146907  0.43903492  1.0
  C  C34  1  0.66941986  0.92165678  0.53464105  1.0
  C  C35  1  0.35665913  0.87767791  0.37863173  1.0
  C  C36  1  0.22188956  0.94997236  0.32848152  1.0
  C  C37  1  0.43572102  0.12384609  0.50239985  1.0
  C  C38  1  0.59886972  0.05269654  0.54195552  1.0
  C  C39  1  0.35367743  0.06450482  0.44772927  1.0
  C  C40  1  0.20957752  0.13568615  0.39748380  1.0
  C  C41  1  0.14432680  0.08176838  0.33907921  1.0
  S  S42  1  0.17607052  0.87155897  0.24748127  1.0
  S  S43  1  0.95593094  0.18972252  0.28557580  1.0
  N  N44  1  0.37872241  0.47141237  0.02475254  1.0
  N  N45  1  0.55170996  0.48647398  0.99025862  1.0
  Cl  Cl46  1  0.87529583  0.59666184  0.27442672  1.0
  Cl  Cl47  1  0.93921260  0.63233514  0.74407027  1.0
  O  O48  1  0.83479756  0.66493826  0.49945203  1.0
  O  O49  1  0.53146380  0.49583943  0.61596020  1.0
  O  O50  1  0.49812744  0.31870045  0.51479630  1.0
  O  O51  1  0.11220904  0.48928932  0.40167978  1.0
  O  O52  1  0.15812835  0.31354539  0.51944880  1.0
  O  O53  1  0.44859793  0.49840164  0.39377311  1.0
  O  O54  1  0.49659226  0.66712136  0.49086323  1.0
  O  O55  1  0.87533154  0.48504466  0.61762401  1.0
  O  O56  1  0.20686813  0.54493757  0.54023610  1.0
  O  O57  1  0.78112874  0.43772010  0.47499413  1.0
  O  O58  1  0.93842868  0.86565377  0.27332630  1.0
  O  O59  1  0.18071520  0.95121174  0.17799572  1.0
  O  O60  1  0.31361610  0.74536018  0.24773560  1.0
  O  O61  1  0.08626962  0.21680602  0.20254929  1.0
  O  O62  1  0.80052601  0.13388050  0.26742409  1.0
  O  O63  1  0.89202190  0.30565852  0.32837886  1.0
