# generated using pymatgen
data_Zn4H13C45N3O13F2
_symmetry_space_group_name_H-M   'P 1'
_cell_length_a   25.61489254
_cell_length_b   25.61708228
_cell_length_c   25.62382841
_cell_angle_alpha   60.06200895
_cell_angle_beta   60.04932929
_cell_angle_gamma   60.08134103
_symmetry_Int_Tables_number   1
_chemical_formula_structural   Zn4H13C45N3O13F2
_chemical_formula_sum   'Zn8 H26 C90 N6 O26 F4'
_cell_volume   11906.46512845
_cell_formula_units_Z   2
loop_
 _symmetry_equiv_pos_site_id
 _symmetry_equiv_pos_as_xyz
  1  'x, y, z'
loop_
 _atom_site_type_symbol
 _atom_site_label
 _atom_site_symmetry_multiplicity
 _atom_site_fract_x
 _atom_site_fract_y
 _atom_site_fract_z
 _atom_site_occupancy
  Zn  Zn0  1  0.28161687  0.28214430  0.15580431  1.0
  Zn  Zn1  1  0.71838326  0.71785533  0.84419548  1.0
  Zn  Zn2  1  0.15575046  0.28198551  0.28160054  1.0
  Zn  Zn3  1  0.84424967  0.71801501  0.71839842  1.0
  Zn  Zn4  1  0.28126046  0.28183901  0.28124024  1.0
  Zn  Zn5  1  0.71874015  0.71816089  0.71875956  1.0
  Zn  Zn6  1  0.28127927  0.15611920  0.28170743  1.0
  Zn  Zn7  1  0.71872134  0.84388071  0.71829120  1.0
  H  H8  1  0.98213210  0.06305136  0.39698689  1.0
  H  H9  1  0.93224842  0.47883841  0.47595526  1.0
  H  H10  1  0.06315081  0.39697439  0.98215144  1.0
  H  H11  1  0.93684932  0.60302658  0.01784807  1.0
  H  H12  1  0.06757079  0.51780196  0.88746386  1.0
  H  H13  1  0.93242886  0.48219961  0.11253598  1.0
  H  H14  1  0.52333399  0.06831843  0.88720334  1.0
  H  H15  1  0.47666805  0.93168011  0.11279721  1.0
  H  H16  1  0.55485123  0.39946832  0.06817336  1.0
  H  H17  1  0.44514890  0.60053174  0.93182621  1.0
  H  H18  1  0.60104721  0.44475810  0.93257011  1.0
  H  H19  1  0.01786755  0.93694976  0.60301239  1.0
  H  H20  1  0.39895244  0.55524213  0.06742923  1.0
  H  H21  1  0.52223822  0.52320728  0.06756341  1.0
  H  H22  1  0.47776095  0.47679355  0.93243587  1.0
  H  H23  1  0.40010096  0.06923249  0.55492494  1.0
  H  H24  1  0.59989918  0.93076622  0.44507530  1.0
  H  H25  1  0.52485184  0.06848461  0.51974988  1.0
  H  H26  1  0.47514830  0.93151410  0.48024997  1.0
  H  H27  1  0.88744536  0.06744891  0.51782813  1.0
  H  H28  1  0.11255429  0.93255177  0.48217176  1.0
  H  H29  1  0.06916599  0.55427050  0.39991792  1.0
  H  H30  1  0.93083559  0.44572953  0.60008211  1.0
  H  H31  1  0.93355325  0.60157277  0.44425476  1.0
  H  H32  1  0.06644831  0.39842727  0.55574528  1.0
  H  H33  1  0.06775314  0.52116209  0.52404455  1.0
  C  C34  1  0.15026726  0.15056922  0.34934273  1.0
  C  C35  1  0.44425435  0.53117290  0.03711344  1.0
  C  C36  1  0.53095453  0.44453952  0.03752803  1.0
  C  C37  1  0.46904512  0.55546071  0.96247131  1.0
  C  C38  1  0.38952889  0.38939368  0.11080465  1.0
  C  C39  1  0.61047077  0.61060563  0.88919514  1.0
  C  C40  1  0.48801529  0.48747850  0.96198647  1.0
  C  C41  1  0.51198436  0.51252173  0.03801326  1.0
  C  C42  1  0.46210309  0.46205927  0.03755644  1.0
  C  C43  1  0.53789656  0.53794095  0.96244290  1.0
  C  C44  1  0.42314407  0.42306865  0.07701863  1.0
  C  C45  1  0.84973286  0.84943131  0.65065701  1.0
  C  C46  1  0.57685606  0.57693142  0.92298055  1.0
  C  C47  1  0.46937634  0.96425234  0.55517882  1.0
  C  C48  1  0.53062331  0.03574698  0.44482136  1.0
  C  C49  1  0.34996407  0.34981809  0.15019694  1.0
  C  C50  1  0.65003606  0.65018153  0.84980324  1.0
  C  C51  1  0.44477471  0.03862029  0.53065265  1.0
  C  C52  1  0.55522494  0.96137859  0.46934736  1.0
  C  C53  1  0.38887983  0.11066603  0.38969691  1.0
  C  C54  1  0.61112126  0.88933371  0.61030156  1.0
  C  C55  1  0.48662033  0.96164727  0.48886785  1.0
  C  C56  1  0.48712019  0.96188865  0.06269818  1.0
  C  C57  1  0.51337932  0.03835206  0.51113233  1.0
  C  C58  1  0.46087938  0.03738231  0.46270151  1.0
  C  C59  1  0.53912028  0.96261700  0.53729867  1.0
  C  C60  1  0.42187881  0.07667385  0.42385660  1.0
  C  C61  1  0.57812084  0.92332502  0.57614342  1.0
  C  C62  1  0.01523124  0.95995000  0.47006364  1.0
  C  C63  1  0.98476842  0.04005112  0.52993564  1.0
  C  C64  1  0.98955233  0.03510294  0.44314936  1.0
  C  C65  1  0.01044732  0.96489774  0.55685014  1.0
  C  C66  1  0.11034365  0.11080724  0.38922546  1.0
  C  C67  1  0.51288233  0.03810972  0.93730260  1.0
  C  C68  1  0.88965648  0.88919373  0.61077444  1.0
  C  C69  1  0.06233929  0.96234658  0.49061265  1.0
  C  C70  1  0.93766037  0.03765409  0.50938685  1.0
  C  C71  1  0.03845218  0.03753157  0.46161468  1.0
  C  C72  1  0.96154795  0.96246940  0.53838483  1.0
  C  C73  1  0.15046301  0.34945477  0.15028253  1.0
  C  C74  1  0.84953808  0.65054407  0.84971600  1.0
  C  C75  1  0.07703834  0.07694426  0.42254825  1.0
  C  C76  1  0.92296180  0.92305625  0.57745109  1.0
  C  C77  1  0.96342858  0.55602988  0.46855168  1.0
  C  C78  1  0.46210639  0.03730388  0.03920655  1.0
  C  C79  1  0.03657298  0.44397016  0.53144797  1.0
  C  C80  1  0.03807865  0.53061880  0.44477620  1.0
  C  C81  1  0.96192291  0.46938124  0.55522384  1.0
  C  C82  1  0.11062652  0.38943709  0.38950810  1.0
  C  C83  1  0.88937360  0.61056253  0.61049209  1.0
  C  C84  1  0.96189760  0.48861671  0.48699298  1.0
  C  C85  1  0.03810396  0.51138334  0.51300706  1.0
  C  C86  1  0.03748947  0.46209039  0.46207293  1.0
  C  C87  1  0.96251209  0.53790965  0.53792711  1.0
  C  C88  1  0.07688809  0.42308744  0.42312276  1.0
  C  C89  1  0.53789470  0.96269497  0.96079471  1.0
  C  C90  1  0.92311300  0.57691231  0.57687727  1.0
  C  C91  1  0.95998735  0.46999410  0.01523058  1.0
  C  C92  1  0.04001230  0.53000703  0.98476909  1.0
  C  C93  1  0.03516312  0.44314667  0.98956396  1.0
  C  C94  1  0.96483654  0.55685445  0.01043610  1.0
  C  C95  1  0.11067627  0.38934544  0.11040635  1.0
  C  C96  1  0.88932386  0.61065373  0.88959328  1.0
  C  C97  1  0.34949578  0.15027813  0.34974037  1.0
  C  C98  1  0.65050388  0.84972164  0.65025919  1.0
  C  C99  1  0.96228563  0.49062478  0.06233103  1.0
  C  C100  1  0.42326067  0.07642929  0.07792243  1.0
  C  C101  1  0.03771402  0.50937680  0.93766880  1.0
  C  C102  1  0.03750152  0.46168266  0.03846961  1.0
  C  C103  1  0.96249814  0.53831847  0.96153005  1.0
  C  C104  1  0.07687106  0.42265943  0.07707195  1.0
  C  C105  1  0.92312907  0.57734064  0.92292801  1.0
  C  C106  1  0.15007670  0.34984836  0.34991111  1.0
  C  C107  1  0.84992343  0.65015170  0.65008846  1.0
  C  C108  1  0.34927956  0.15064841  0.15057528  1.0
  C  C109  1  0.65072057  0.84935165  0.84942429  1.0
  C  C110  1  0.55442714  0.96223008  0.01290896  1.0
  C  C111  1  0.57674090  0.92356940  0.92207828  1.0
  C  C112  1  0.44557538  0.03776830  0.98709143  1.0
  C  C113  1  0.53186478  0.03763399  0.98739711  1.0
  C  C114  1  0.46813821  0.96236512  0.01260307  1.0
  C  C115  1  0.38952799  0.11065629  0.11078183  1.0
  C  C116  1  0.61047310  0.88934255  0.88921826  1.0
  C  C117  1  0.56485283  0.07570743  0.97529835  1.0
  C  C118  1  0.43514921  0.92429201  0.02470136  1.0
  C  C119  1  0.03043455  0.91806209  0.43963675  1.0
  C  C120  1  0.96956606  0.08193872  0.56036221  1.0
  C  C121  1  0.91817925  0.43942325  0.03047464  1.0
  C  C122  1  0.55574530  0.46882779  0.96288567  1.0
  C  C123  1  0.08182088  0.56057727  0.96952510  1.0
  N  N124  1  0.59221448  0.10651053  0.96586995  1.0
  N  N125  1  0.40778661  0.89349012  0.03412963  1.0
  N  N126  1  0.04276677  0.88356295  0.41484539  1.0
  N  N127  1  0.95723385  0.11644100  0.58515004  1.0
  N  N128  1  0.88376623  0.41448871  0.04285725  1.0
  N  N129  1  0.11623391  0.58551180  0.95714287  1.0
  O  O130  1  0.24982813  0.24993062  0.24986412  1.0
  O  O131  1  0.66592608  0.66603558  0.78942016  1.0
  O  O132  1  0.21039263  0.12113971  0.33399883  1.0
  O  O133  1  0.78960751  0.87886081  0.66600090  1.0
  O  O134  1  0.33437327  0.33418879  0.12093979  1.0
  O  O135  1  0.66562686  0.66581128  0.87905939  1.0
  O  O136  1  0.12113377  0.33406431  0.21039119  1.0
  O  O137  1  0.87886778  0.66593438  0.78960758  1.0
  O  O138  1  0.33375551  0.21047436  0.33407879  1.0
  O  O139  1  0.66624461  0.78952526  0.66592101  1.0
  O  O140  1  0.12081342  0.33447638  0.33407362  1.0
  O  O141  1  0.75017248  0.75006929  0.75013490  1.0
  O  O142  1  0.87918670  0.66552414  0.66592573  1.0
  O  O143  1  0.33388240  0.12119161  0.21062320  1.0
  O  O144  1  0.66611725  0.87880816  0.78937637  1.0
  O  O145  1  0.21044003  0.33380124  0.33430241  1.0
  O  O146  1  0.78956010  0.66619838  0.66569738  1.0
  O  O147  1  0.33365338  0.21062016  0.12133190  1.0
  O  O148  1  0.66634722  0.78937975  0.87866712  1.0
  O  O149  1  0.21056514  0.33381354  0.12112117  1.0
  O  O150  1  0.78943642  0.66618606  0.87887597  1.0
  O  O151  1  0.33421484  0.12083812  0.33407272  1.0
  O  O152  1  0.66578529  0.87916194  0.66592646  1.0
  O  O153  1  0.12124482  0.21065021  0.33366300  1.0
  O  O154  1  0.87875532  0.78935030  0.66633673  1.0
  O  O155  1  0.33407452  0.33396388  0.21057948  1.0
  F  F156  1  0.60971378  0.92419387  0.02556732  1.0
  F  F157  1  0.39028826  0.07580421  0.97443307  1.0
  F  F158  1  0.43840129  0.92750527  0.61198768  1.0
  F  F159  1  0.56159932  0.07249373  0.38801218  1.0
