# generated using pymatgen
data_Zn4H14(C8O5)3
_symmetry_space_group_name_H-M   'P 1'
_cell_length_a   18.50190671
_cell_length_b   18.54097556
_cell_length_c   18.54496556
_cell_angle_alpha   60.58024311
_cell_angle_beta   60.12055184
_cell_angle_gamma   60.18283303
_symmetry_Int_Tables_number   1
_chemical_formula_structural   Zn4H14(C8O5)3
_chemical_formula_sum   'Zn8 H28 C48 O30'
_cell_volume   4528.23477572
_cell_formula_units_Z   2
loop_
 _symmetry_equiv_pos_site_id
 _symmetry_equiv_pos_as_xyz
  1  'x, y, z'
loop_
 _atom_site_type_symbol
 _atom_site_label
 _atom_site_symmetry_multiplicity
 _atom_site_fract_x
 _atom_site_fract_y
 _atom_site_fract_z
 _atom_site_occupancy
  Zn  Zn0  1  0.45704940  0.45575653  0.13362027  1.0
  Zn  Zn1  1  0.45277103  0.45640381  0.96323460  1.0
  Zn  Zn2  1  0.63042660  0.45283496  0.95916629  1.0
  Zn  Zn3  1  0.46027070  0.62637268  0.96132782  1.0
  Zn  Zn4  1  0.04624177  0.04102037  0.37188432  1.0
  Zn  Zn5  1  0.87548570  0.03604590  0.54283191  1.0
  Zn  Zn6  1  0.04270837  0.04045152  0.54740977  1.0
  Zn  Zn7  1  0.05135998  0.86638476  0.54023489  1.0
  H  H8  1  0.06861642  0.79633331  0.10225152  1.0
  H  H9  1  0.30380236  0.59538046  0.79308081  1.0
  H  H10  1  0.45473258  0.58546391  0.22814455  1.0
  H  H11  1  0.30924833  0.76546623  0.77904047  1.0
  H  H12  1  0.89625019  0.19283815  0.71288801  1.0
  H  H13  1  0.72946745  0.23494970  0.68028036  1.0
  H  H14  1  0.80299025  0.30565853  0.78764159  1.0
  H  H15  1  0.64549643  0.26658343  0.81579232  1.0
  H  H16  1  0.18879636  0.21543752  0.41050033  1.0
  H  H17  1  0.24551719  0.17143669  0.24567218  1.0
  H  H18  1  0.30691388  0.28507273  0.31832602  1.0
  H  H19  1  0.81638335  0.29235522  0.09682977  1.0
  H  H20  1  0.26545222  0.31142438  0.16355601  1.0
  H  H21  1  0.51255130  0.58809951  0.32086360  1.0
  H  H22  1  0.43242587  0.70982656  0.38570019  1.0
  H  H23  1  0.02694090  0.89866802  0.28874204  1.0
  H  H24  1  0.97019734  0.89013902  0.19988834  1.0
  H  H25  1  0.22244023  0.70822149  0.09824767  1.0
  H  H26  1  0.90312519  0.23058127  0.19629816  1.0
  H  H27  1  0.61678200  0.16922983  0.43478272  1.0
  H  H28  1  0.24421186  0.97136166  0.32191481  1.0
  H  H29  1  0.65646355  0.31065050  0.26603540  1.0
  H  H30  1  0.91281412  0.68098955  0.69309907  1.0
  H  H31  1  0.74173065  0.84018574  0.71564711  1.0
  H  H32  1  0.81780040  0.58877460  0.78285205  1.0
  H  H33  1  0.66082223  0.75708724  0.81055204  1.0
  H  H34  1  0.21794952  0.68862222  0.69217296  1.0
  H  H35  1  0.20681307  0.84765792  0.71580865  1.0
  C  C36  1  0.37257838  0.63669208  0.85837696  1.0
  C  C37  1  0.03863682  0.85200772  0.19757603  1.0
  C  C38  1  0.09432398  0.79862235  0.14248732  1.0
  C  C39  1  0.63969178  0.36835056  0.13861982  1.0
  C  C40  1  0.18004112  0.74940798  0.14035311  1.0
  C  C41  1  0.83663708  0.22720317  0.22369853  1.0
  C  C42  1  0.81358429  0.17255002  0.30697807  1.0
  C  C43  1  0.78249869  0.27966040  0.16768565  1.0
  C  C44  1  0.69367089  0.31653107  0.19688172  1.0
  C  C45  1  0.84155357  0.71386236  0.71818054  1.0
  C  C46  1  0.81191182  0.80236494  0.69441559  1.0
  C  C47  1  0.32445848  0.76652035  0.34034242  1.0
  C  C48  1  0.78586594  0.65906379  0.77388253  1.0
  C  C49  1  0.69778294  0.68809323  0.81555855  1.0
  C  C50  1  0.23253180  0.72132911  0.71640944  1.0
  C  C51  1  0.35514951  0.36790177  0.14441100  1.0
  C  C52  1  0.19633467  0.80965797  0.69406557  1.0
  C  C53  1  0.28777580  0.66641928  0.77142463  1.0
  C  C54  1  0.32059813  0.69582466  0.79861544  1.0
  C  C55  1  0.82570696  0.22245291  0.72162292  1.0
  C  C56  1  0.79782369  0.20535759  0.67864763  1.0
  C  C57  1  0.77051372  0.27759049  0.77718846  1.0
  C  C58  1  0.28240084  0.76037347  0.29646962  1.0
  C  C59  1  0.68262836  0.29472490  0.81958935  1.0
  C  C60  1  0.22243539  0.22025533  0.34106727  1.0
  C  C61  1  0.21058413  0.17347140  0.31283766  1.0
  C  C62  1  0.27840413  0.27457660  0.28632720  1.0
  C  C63  1  0.64335348  0.63033128  0.86981664  1.0
  C  C64  1  0.29555552  0.31509944  0.19890011  1.0
  C  C65  1  0.87034617  0.85618592  0.63794008  1.0
  C  C66  1  0.15021926  0.12189674  0.37045270  1.0
  C  C67  1  0.87255058  0.12555550  0.36055042  1.0
  C  C68  1  0.13962734  0.86226113  0.63870515  1.0
  C  C69  1  0.33367837  0.69609507  0.25100644  1.0
  C  C70  1  0.85833196  0.14419545  0.62727401  1.0
  C  C71  1  0.13413206  0.86623478  0.35652422  1.0
  C  C72  1  0.63051127  0.35291005  0.87417125  1.0
  C  C73  1  0.35761433  0.63580504  0.14259790  1.0
  C  C74  1  0.41734573  0.63504089  0.26076337  1.0
  C  C75  1  0.44968444  0.63647355  0.31230325  1.0
  C  C76  1  0.40373027  0.70389656  0.35061082  1.0
  C  C77  1  0.73171709  0.14782288  0.35102925  1.0
  C  C78  1  0.29346982  0.84428725  0.36676632  1.0
  C  C79  1  0.19468982  0.81177987  0.29655398  1.0
  C  C80  1  0.15960637  0.80774468  0.24647327  1.0
  C  C81  1  0.21515231  0.75103807  0.19274528  1.0
  C  C82  1  0.30022883  0.69553534  0.19758585  1.0
  C  C83  1  0.07020845  0.85643238  0.24791774  1.0
  O  O84  1  0.50055621  0.49729003  0.00472673  1.0
  O  O85  1  0.11713016  0.94573606  0.61730507  1.0
  O  O86  1  0.82232881  0.12819360  0.59532806  1.0
  O  O87  1  0.39274309  0.67527084  0.88377222  1.0
  O  O88  1  0.12818451  0.82562271  0.43722649  1.0
  O  O89  1  0.94001111  0.11177075  0.61960227  1.0
  O  O90  1  0.09204850  0.94685700  0.32401544  1.0
  O  O91  1  0.94981372  0.13150865  0.32432256  1.0
  O  O92  1  0.11688223  0.82195750  0.61829149  1.0
  O  O93  1  0.83005982  0.93886969  0.62533732  1.0
  O  O94  1  0.10715924  0.12170214  0.44948696  1.0
  O  O95  1  0.39050003  0.37685062  0.18243279  1.0
  O  O96  1  0.55614773  0.39621311  0.17814293  1.0
  O  O97  1  0.36627366  0.39996950  0.06222307  1.0
  O  O98  1  0.68190640  0.54751675  0.88415929  1.0
  O  O99  1  0.54672787  0.36979102  0.90406337  1.0
  O  O100  1  0.38383585  0.67387566  0.05989539  1.0
  O  O101  1  0.67211419  0.38154296  0.88668663  1.0
  O  O102  1  0.37542465  0.55334399  0.18246587  1.0
  O  O103  1  0.72663438  0.09181564  0.33898840  1.0
  O  O104  1  0.66482146  0.19327186  0.40656366  1.0
  O  O105  1  0.29397614  0.84202606  0.43352177  1.0
  O  O106  1  0.56000407  0.67023121  0.89794315  1.0
  O  O107  1  0.26996448  0.92007024  0.30244544  1.0
  O  O108  1  0.39251042  0.55379814  0.88036506  1.0
  O  O109  1  0.67897276  0.38062217  0.05624830  1.0
  O  O110  1  0.00497920  0.99581169  0.50036375  1.0
  O  O111  1  0.95346891  0.81818517  0.60694844  1.0
  O  O112  1  0.14580284  0.08024552  0.33435993  1.0
  O  O113  1  0.83883722  0.08243660  0.44023210  1.0
