# generated using pymatgen
data_AlH5C9ClO6
_symmetry_space_group_name_H-M   'P 1'
_cell_length_a   6.68664682
_cell_length_b   8.91753175
_cell_length_c   15.31413796
_cell_angle_alpha   94.79912984
_cell_angle_beta   102.30356268
_cell_angle_gamma   105.84687309
_symmetry_Int_Tables_number   1
_chemical_formula_structural   AlH5C9ClO6
_chemical_formula_sum   'Al2 H10 C18 Cl2 O12'
_cell_volume   848.44580116
_cell_formula_units_Z   2
loop_
 _symmetry_equiv_pos_site_id
 _symmetry_equiv_pos_as_xyz
  1  'x, y, z'
loop_
 _atom_site_type_symbol
 _atom_site_label
 _atom_site_symmetry_multiplicity
 _atom_site_fract_x
 _atom_site_fract_y
 _atom_site_fract_z
 _atom_site_occupancy
  Al  Al0  1  0.99996543  0.49996619  0.49999492  1.0
  Al  Al1  1  0.49999219  0.50000970  0.50000453  1.0
  H  H2  1  0.14939531  0.32138869  0.42545057  1.0
  H  H3  1  0.85057188  0.67862585  0.57454117  1.0
  H  H4  1  0.76756196  0.44956956  0.93239665  1.0
  H  H5  1  0.23259996  0.55062782  0.06760905  1.0
  H  H6  1  0.91797844  0.47543532  0.22621030  1.0
  H  H7  1  0.83869596  0.46514466  0.06236253  1.0
  H  H8  1  0.08199380  0.52446766  0.77381517  1.0
  H  H9  1  0.16131063  0.53474034  0.93766633  1.0
  H  H10  1  0.66271205  0.44105693  0.69867811  1.0
  H  H11  1  0.33733386  0.55903303  0.30132482  1.0
  C  C12  1  0.67043155  0.51094066  0.33840333  1.0
  C  C13  1  0.64794292  0.21758850  0.48757626  1.0
  C  C14  1  0.32954694  0.48904412  0.66159252  1.0
  C  C15  1  0.35198257  0.78239103  0.51240819  1.0
  C  C16  1  0.42274985  0.95897279  0.51874487  1.0
  C  C17  1  0.57723815  0.04101525  0.48123795  1.0
  C  C18  1  0.37765662  0.48543569  0.75923828  1.0
  C  C19  1  0.62234663  0.51454443  0.24077619  1.0
  C  C20  1  0.57185133  0.46249911  0.80626063  1.0
  C  C21  1  0.61628151  0.46788245  0.90020770  1.0
  C  C22  1  0.42822883  0.53757263  0.19373339  1.0
  C  C23  1  0.38383853  0.53221294  0.09978628  1.0
  C  C24  1  0.76700941  0.49006980  0.19054544  1.0
  C  C25  1  0.72139217  0.48510613  0.09781864  1.0
  C  C26  1  0.23295717  0.50987067  0.80945140  1.0
  C  C27  1  0.27862343  0.51487353  0.90218071  1.0
  C  C28  1  0.47371436  0.49560881  0.95007080  1.0
  C  C29  1  0.52634882  0.50439801  0.04993813  1.0
  Cl  Cl30  1  0.28885756  0.04982691  0.57956919  1.0
  Cl  Cl31  1  0.71110827  0.95018747  0.42042123  1.0
  O  O32  1  0.84431567  0.48663881  0.37744921  1.0
  O  O33  1  0.50256908  0.28549635  0.47724006  1.0
  O  O34  1  0.47307163  0.47039395  0.61982308  1.0
  O  O35  1  0.15212949  0.71666878  0.49877821  1.0
  O  O36  1  0.15561406  0.51328945  0.62254545  1.0
  O  O37  1  0.49731692  0.71447121  0.52275482  1.0
  O  O38  1  0.52695329  0.52961976  0.38017756  1.0
  O  O39  1  0.84778079  0.28328630  0.50122815  1.0
  O  O40  1  0.20298006  0.43029521  0.45479698  1.0
  O  O41  1  0.79700171  0.56970419  0.54521427  1.0
  O  O42  1  0.71945067  0.43602924  0.76397347  1.0
  O  O43  1  0.28062044  0.56410928  0.23600354  1.0
