# generated using pymatgen
data_ZnH16C27NO4
_symmetry_space_group_name_H-M   'P 1'
_cell_length_a   15.44346151
_cell_length_b   15.44377280
_cell_length_c   17.68756015
_cell_angle_alpha   115.88197376
_cell_angle_beta   115.88130408
_cell_angle_gamma   90.01563183
_symmetry_Int_Tables_number   1
_chemical_formula_structural   ZnH16C27NO4
_chemical_formula_sum   'Zn4 H64 C108 N4 O16'
_cell_volume   3318.51593260
_cell_formula_units_Z   4
loop_
 _symmetry_equiv_pos_site_id
 _symmetry_equiv_pos_as_xyz
  1  'x, y, z'
loop_
 _atom_site_type_symbol
 _atom_site_label
 _atom_site_symmetry_multiplicity
 _atom_site_fract_x
 _atom_site_fract_y
 _atom_site_fract_z
 _atom_site_occupancy
  Zn  Zn0  1  0.94990403  0.94988149  0.89977534  1.0
  Zn  Zn1  1  0.54991089  0.54996391  0.09986285  1.0
  Zn  Zn2  1  0.05000488  0.04998811  0.09999490  1.0
  Zn  Zn3  1  0.45009522  0.45009163  0.90021211  1.0
  H  H4  1  0.10695416  0.98862902  0.82247586  1.0
  H  H5  1  0.13293786  0.93487406  0.68140361  1.0
  H  H6  1  0.99105355  0.80881224  0.74784503  1.0
  H  H7  1  0.90722380  0.71784811  0.56725455  1.0
  H  H8  1  0.71539239  0.83353018  0.82228813  1.0
  H  H9  1  0.54825976  0.74628125  0.68130217  1.0
  H  H10  1  0.75684560  0.93903756  0.74787048  1.0
  H  H11  1  0.66001990  0.84930041  0.56728778  1.0
  H  H12  1  0.90342050  0.17496801  0.87303611  1.0
  H  H13  1  0.87225746  0.25762846  0.77404077  1.0
  H  H14  1  0.96959205  0.69807820  0.87278195  1.0
  H  H15  1  0.90168855  0.51644435  0.77351112  1.0
  H  H16  1  0.39127259  0.66379975  0.17622504  1.0
  H  H17  1  0.36714590  0.75206838  0.31802725  1.0
  H  H18  1  0.78483051  0.51226808  0.17635844  1.0
  H  H19  1  0.95067497  0.56573018  0.31825887  1.0
  H  H20  1  0.59673934  0.80262187  0.12720541  1.0
  H  H21  1  0.62820264  0.98466256  0.22625134  1.0
  H  H22  1  0.58034799  0.75206406  0.25178692  1.0
  H  H23  1  0.66875319  0.84792357  0.43219878  1.0
  H  H24  1  0.53049663  0.32453280  0.12702482  1.0
  H  H25  1  0.59820547  0.24169563  0.22621891  1.0
  H  H26  1  0.67117311  0.49980474  0.25163825  1.0
  H  H27  1  0.76327753  0.58416541  0.43200145  1.0
  H  H28  1  0.82434198  0.03027571  0.12612578  1.0
  H  H29  1  0.74199484  0.09853992  0.22569454  1.0
  H  H30  1  0.99858549  0.16740621  0.25207979  1.0
  H  H31  1  0.08305290  0.26004792  0.43210525  1.0
  H  H32  1  0.30198322  0.09613010  0.12642163  1.0
  H  H33  1  0.48389301  0.12738179  0.22584603  1.0
  H  H34  1  0.25348560  0.08457915  0.25210443  1.0
  H  H35  1  0.34903238  0.17200023  0.43216238  1.0
  H  H36  1  0.16476029  0.89164400  0.17705506  1.0
  H  H37  1  0.25314100  0.86694291  0.31846908  1.0
  H  H38  1  0.01216631  0.28524159  0.17714337  1.0
  H  H39  1  0.06512836  0.45127349  0.31871895  1.0
  H  H40  1  0.67598135  0.40382633  0.87366010  1.0
  H  H41  1  0.75866726  0.37231920  0.77436810  1.0
  H  H42  1  0.50117824  0.41705731  0.74830394  1.0
  H  H43  1  0.41670447  0.32968532  0.56821828  1.0
  H  H44  1  0.19758100  0.46978246  0.87338520  1.0
  H  H45  1  0.01560173  0.40204365  0.77386348  1.0
  H  H46  1  0.24710586  0.33125339  0.74818372  1.0
  H  H47  1  0.15158116  0.23860443  0.56810276  1.0
  H  H48  1  0.33648450  0.21513951  0.82398548  1.0
  H  H49  1  0.24843887  0.04903183  0.68227384  1.0
  H  H50  1  0.48737679  0.60885341  0.82408740  1.0
  H  H51  1  0.43359952  0.63318711  0.68235478  1.0
  H  H52  1  0.05790295  0.26054170  0.04652605  1.0
  H  H53  1  0.03897916  0.43106306  0.08485625  1.0
  H  H54  1  0.98854674  0.78599195  0.04642231  1.0
  H  H55  1  0.04591780  0.65389355  0.08480449  1.0
  H  H56  1  0.73907572  0.01118361  0.95312455  1.0
  H  H57  1  0.56837787  0.95346741  0.91379556  1.0
  H  H58  1  0.21455183  0.94243341  0.95392982  1.0
  H  H59  1  0.34666541  0.96148254  0.91564988  1.0
  H  H60  1  0.44226638  0.71438038  0.95367856  1.0
  H  H61  1  0.46143485  0.84671324  0.91566996  1.0
  H  H62  1  0.51110092  0.23891038  0.95285589  1.0
  H  H63  1  0.45358776  0.06824100  0.91379970  1.0
  H  H64  1  0.76090572  0.55824238  0.04690098  1.0
  H  H65  1  0.93135019  0.53921280  0.08501526  1.0
  H  H66  1  0.28605684  0.48859649  0.04682727  1.0
  H  H67  1  0.15382338  0.54585328  0.08503381  1.0
  C  C68  1  0.20459923  0.13302913  0.90217854  1.0
  C  C69  1  0.15608169  0.03880456  0.82245016  1.0
  C  C70  1  0.17102147  0.00883217  0.74302012  1.0
  C  C71  1  0.91810802  0.81580892  0.70417282  1.0
  C  C72  1  0.87053283  0.76478166  0.60439967  1.0
  C  C73  1  0.69748222  0.76897936  0.90208333  1.0
  C  C74  1  0.66622850  0.78338906  0.82231771  1.0
  C  C75  1  0.57180321  0.73397586  0.74294161  1.0
  C  C76  1  0.78612637  0.88834521  0.70420622  1.0
  C  C77  1  0.73388925  0.83955817  0.60443861  1.0
  C  C78  1  0.80679358  0.24218341  0.92873797  1.0
  C  C79  1  0.85279140  0.22395823  0.87255569  1.0
  C  C80  1  0.83478599  0.27061625  0.81658431  1.0
  C  C81  1  0.12192034  0.68654430  0.92859553  1.0
  C  C82  1  0.01972894  0.64859743  0.87232277  1.0
  C  C83  1  0.98171445  0.54597599  0.81615846  1.0
  C  C84  1  0.29558200  0.73079416  0.09778885  1.0
  C  C85  1  0.34371331  0.71551048  0.17706671  1.0
  C  C86  1  0.32952101  0.76529697  0.25692660  1.0
  C  C87  1  0.80211222  0.36686769  0.09788063  1.0
  C  C88  1  0.83322652  0.46138932  0.17720140  1.0
  C  C89  1  0.92724887  0.49144034  0.25711435  1.0
  C  C90  1  0.69339889  0.81381062  0.07160238  1.0
  C  C91  1  0.64743629  0.85213016  0.12777774  1.0
  C  C92  1  0.66557258  0.95478551  0.18363907  1.0
  C  C93  1  0.62187315  0.71847502  0.29526220  1.0
  C  C94  1  0.67031768  0.77059173  0.39501558  1.0
  C  C95  1  0.37825886  0.25780285  0.07159984  1.0
  C  C96  1  0.48041093  0.27569052  0.12773619  1.0
  C  C97  1  0.51821421  0.22897075  0.18366444  1.0
  C  C98  1  0.67313425  0.57687007  0.29516378  1.0
  C  C99  1  0.72450828  0.62439391  0.39490999  1.0
  C  C100  1  0.75772456  0.87821232  0.07131062  1.0
  C  C101  1  0.77566667  0.98039401  0.12720574  1.0
  C  C102  1  0.72926327  0.01849721  0.18338107  1.0
  C  C103  1  0.07606713  0.17051179  0.29550231  1.0
  C  C104  1  0.12341219  0.22117939  0.39525400  1.0
  C  C105  1  0.31366354  0.19322228  0.07143967  1.0
  C  C106  1  0.35170825  0.14701052  0.12739175  1.0
  C  C107  1  0.45429386  0.16505634  0.18348351  1.0
  C  C108  1  0.21941191  0.12487664  0.29551224  1.0
  C  C109  1  0.27180541  0.17397061  0.39526045  1.0
  C  C110  1  0.23107057  0.79558204  0.09795238  1.0
  C  C111  1  0.21617533  0.84376955  0.17748056  1.0
  C  C112  1  0.26598427  0.82923433  0.25714381  1.0
  C  C113  1  0.86679409  0.30225768  0.09802787  1.0
  C  C114  1  0.96118777  0.33355519  0.17759100  1.0
  C  C115  1  0.99100085  0.42771420  0.25733362  1.0
  C  C116  1  0.74236065  0.30673252  0.92874243  1.0
  C  C117  1  0.72457752  0.35283549  0.87272413  1.0
  C  C118  1  0.77120986  0.33466629  0.81672120  1.0
  C  C119  1  0.42390215  0.37608556  0.70484533  1.0
  C  C120  1  0.37659242  0.32701895  0.60509687  1.0
  C  C121  1  0.18633602  0.62197141  0.92856894  1.0
  C  C122  1  0.14805883  0.51985151  0.87246171  1.0
  C  C123  1  0.04541038  0.48205002  0.81630038  1.0
  C  C124  1  0.28093256  0.32884488  0.70475648  1.0
  C  C125  1  0.22856666  0.27821420  0.60501314  1.0
  C  C126  1  0.26948692  0.19769588  0.90241070  1.0
  C  C127  1  0.28493260  0.16659523  0.82322665  1.0
  C  C128  1  0.23529089  0.07245328  0.74340970  1.0
  C  C129  1  0.63284737  0.70461026  0.90239819  1.0
  C  C130  1  0.53817440  0.65652640  0.82323756  1.0
  C  C131  1  0.50792885  0.67083851  0.74342741  1.0
  C  C132  1  0.77630700  0.77628790  0.55262041  1.0
  C  C133  1  0.72328306  0.72332333  0.44668042  1.0
  C  C134  1  0.22360193  0.22359455  0.44719398  1.0
  C  C135  1  0.27664531  0.27666934  0.55316821  1.0
  C  C136  1  0.20383841  0.17409961  0.99875601  1.0
  C  C137  1  0.18107860  0.27679680  0.02214339  1.0
  C  C138  1  0.13027865  0.11286145  0.00362073  1.0
  C  C139  1  0.10698361  0.30927442  0.04463289  1.0
  C  C140  1  0.09682558  0.40612329  0.06691734  1.0
  C  C141  1  0.79482124  0.82455910  0.99861618  1.0
  C  C142  1  0.84101819  0.74532415  0.02209262  1.0
  C  C143  1  0.87320741  0.89066518  0.00344848  1.0
  C  C144  1  0.93761597  0.73538235  0.04458426  1.0
  C  C145  1  0.97012512  0.66086443  0.06690696  1.0
  C  C146  1  0.82570570  0.20508749  0.00140960  1.0
  C  C147  1  0.72289940  0.15884823  0.97769755  1.0
  C  C148  1  0.88661566  0.12664989  0.99666931  1.0
  C  C149  1  0.69028604  0.06208629  0.95475694  1.0
  C  C150  1  0.59328410  0.02936745  0.93197355  1.0
  C  C151  1  0.17569374  0.79629731  0.00141404  1.0
  C  C152  1  0.25500050  0.81903136  0.97802781  1.0
  C  C153  1  0.11013033  0.87007622  0.99671289  1.0
  C  C154  1  0.26497944  0.89316593  0.95556725  1.0
  C  C155  1  0.33958641  0.90344104  0.93334541  1.0
  C  C156  1  0.29618394  0.67548262  0.00122944  1.0
  C  C157  1  0.31903844  0.75488563  0.97798030  1.0
  C  C158  1  0.36998578  0.60981800  0.99661468  1.0
  C  C159  1  0.39316297  0.76494660  0.95554518  1.0
  C  C160  1  0.40342112  0.83959696  0.93337284  1.0
  C  C161  1  0.70501360  0.32570779  0.00124435  1.0
  C  C162  1  0.65880833  0.22292167  0.97764890  1.0
  C  C163  1  0.62660330  0.38678340  0.99656353  1.0
  C  C164  1  0.56209300  0.19022782  0.95473844  1.0
  C  C165  1  0.52947177  0.09322897  0.93201310  1.0
  C  C166  1  0.67427974  0.70396986  0.99897685  1.0
  C  C167  1  0.77700735  0.68124619  0.02222990  1.0
  C  C168  1  0.61324716  0.63010792  0.00358859  1.0
  C  C169  1  0.80955503  0.60723514  0.04483798  1.0
  C  C170  1  0.90636994  0.59701877  0.06700917  1.0
  C  C171  1  0.32465806  0.29494952  0.99893542  1.0
  C  C172  1  0.24523905  0.34095238  0.02223228  1.0
  C  C173  1  0.39026016  0.37338696  0.00348021  1.0
  C  C174  1  0.23534856  0.43758273  0.04482035  1.0
  C  C175  1  0.16076363  0.47003636  0.06705578  1.0
  N  N176  1  0.87646712  0.87642680  0.75286770  1.0
  N  N177  1  0.62318750  0.62337825  0.24659708  1.0
  N  N178  1  0.12338340  0.12333937  0.24678522  1.0
  N  N179  1  0.37674499  0.37678210  0.75347722  1.0
  O  O180  1  0.05627998  0.05050242  0.92446953  1.0
  O  O181  1  0.86808672  0.87386963  0.92431482  1.0
  O  O182  1  0.86720524  0.05850274  0.91406444  1.0
  O  O183  1  0.04699278  0.85567247  0.91411338  1.0
  O  O184  1  0.44454340  0.62751178  0.07588882  1.0
  O  O185  1  0.63124219  0.44835425  0.07579504  1.0
  O  O186  1  0.63189721  0.64485781  0.08600918  1.0
  O  O187  1  0.45407495  0.44106502  0.08588906  1.0
  O  O188  1  0.94138699  0.95378070  0.08604011  1.0
  O  O189  1  0.14471334  0.13237421  0.08621840  1.0
  O  O190  1  0.12720945  0.94429713  0.07581339  1.0
  O  O191  1  0.94863893  0.13149794  0.07575107  1.0
  O  O192  1  0.55883054  0.36788186  0.91410602  1.0
  O  O193  1  0.35540441  0.54632147  0.91418550  1.0
  O  O194  1  0.37236878  0.36889744  0.92423635  1.0
  O  O195  1  0.55188970  0.55534481  0.92435496  1.0
