# generated using pymatgen
data_AlH10C16O9
_symmetry_space_group_name_H-M   'P 1'
_cell_length_a   6.57992773
_cell_length_b   11.07561798
_cell_length_c   15.09288874
_cell_angle_alpha   87.99846161
_cell_angle_beta   78.84245267
_cell_angle_gamma   73.40964102
_symmetry_Int_Tables_number   1
_chemical_formula_structural   AlH10C16O9
_chemical_formula_sum   'Al2 H20 C32 O18'
_cell_volume   1033.96588825
_cell_formula_units_Z   2
loop_
 _symmetry_equiv_pos_site_id
 _symmetry_equiv_pos_as_xyz
  1  'x, y, z'
loop_
 _atom_site_type_symbol
 _atom_site_label
 _atom_site_symmetry_multiplicity
 _atom_site_fract_x
 _atom_site_fract_y
 _atom_site_fract_z
 _atom_site_occupancy
  Al  Al0  1  0.00877474  0.50318782  0.50319027  1.0
  Al  Al1  1  0.50626554  0.50437348  0.50172893  1.0
  H  H2  1  0.35659903  0.35878153  0.44006167  1.0
  H  H3  1  0.67809703  0.65953034  0.52135883  1.0
  H  H4  1  0.72132046  0.46088906  0.04596718  1.0
  H  H5  1  0.36535523  0.47561832  0.95363877  1.0
  H  H6  1  0.81059976  0.61808851  0.76441998  1.0
  H  H7  1  0.70074286  0.63984706  0.93101063  1.0
  H  H8  1  0.11466558  0.60696547  0.24861609  1.0
  H  H9  1  0.20666241  0.63585562  0.08239973  1.0
  H  H10  1  0.53288454  0.23454827  0.61885913  1.0
  H  H11  1  0.79262599  0.76592805  0.61649431  1.0
  H  H12  1  0.44165319  0.46846277  0.26268764  1.0
  H  H13  1  0.65128459  0.32878782  0.25992274  1.0
  H  H14  1  0.53529371  0.37256266  0.16244846  1.0
  H  H15  1  0.61182838  0.49856622  0.73227808  1.0
  H  H16  1  0.58099556  0.34767193  0.74257450  1.0
  H  H17  1  0.63798753  0.41699681  0.83552502  1.0
  H  H18  1  0.20075760  0.81021807  0.32469594  1.0
  H  H19  1  0.10088443  0.14008982  0.30751922  1.0
  H  H20  1  0.34173605  0.24704538  0.77039823  1.0
  H  H21  1  0.38036589  0.76393127  0.62803417  1.0
  C  C22  1  0.86647245  0.27996719  0.51609651  1.0
  C  C23  1  0.81848774  0.50925745  0.34001053  1.0
  C  C24  1  0.13697937  0.73331192  0.49475556  1.0
  C  C25  1  0.19378553  0.51654247  0.66512172  1.0
  C  C26  1  0.86444925  0.52145141  0.24037143  1.0
  C  C27  1  0.14683288  0.53177693  0.76467270  1.0
  C  C28  1  0.74922414  0.47902417  0.18404401  1.0
  C  C29  1  0.80279182  0.49667718  0.09124070  1.0
  C  C30  1  0.30962094  0.49382878  0.81769269  1.0
  C  C31  1  0.24360031  0.50803185  0.91147858  1.0
  C  C32  1  0.93101896  0.58607792  0.80681345  1.0
  C  C33  1  0.86959492  0.59762288  0.89997091  1.0
  C  C34  1  0.02805498  0.57664186  0.20304038  1.0
  C  C35  1  0.07990838  0.59205694  0.11048882  1.0
  C  C36  1  0.96682239  0.55148045  0.05319008  1.0
  C  C37  1  0.02650403  0.55545021  0.95390856  1.0
  C  C38  1  0.93292670  0.13854729  0.51365760  1.0
  C  C39  1  0.79512384  0.07091422  0.56396905  1.0
  C  C40  1  0.12639104  0.07524634  0.45782848  1.0
  C  C41  1  0.59209014  0.13217526  0.61888333  1.0
  C  C42  1  0.46360076  0.06419029  0.66740065  1.0
  C  C43  1  0.06113445  0.87412896  0.50120540  1.0
  C  C44  1  0.18774147  0.94187307  0.44943321  1.0
  C  C45  1  0.86381649  0.93610969  0.55985723  1.0
  C  C46  1  0.73333188  0.86820017  0.61414482  1.0
  C  C47  1  0.53620254  0.92982093  0.66590527  1.0
  C  C48  1  0.58542322  0.40904067  0.21872788  1.0
  C  C49  1  0.54654662  0.43660621  0.78063972  1.0
  C  C50  1  0.38734463  0.87551224  0.38240421  1.0
  C  C51  1  0.26566848  0.14627808  0.39937010  1.0
  C  C52  1  0.23686620  0.12845456  0.71425457  1.0
  C  C53  1  0.41028210  0.85775820  0.72986204  1.0
  O  O54  1  0.00030261  0.33463334  0.53298552  1.0
  O  O55  1  0.62164966  0.52618953  0.37871800  1.0
  O  O56  1  0.32586404  0.68142846  0.51067303  1.0
  O  O57  1  0.03396204  0.53770857  0.62399598  1.0
  O  O58  1  0.01009363  0.67659242  0.47446132  1.0
  O  O59  1  0.39154146  0.48471038  0.62472664  1.0
  O  O60  1  0.68227805  0.33413789  0.49808666  1.0
  O  O61  1  0.97904649  0.48292593  0.38045814  1.0
  O  O62  1  0.30173060  0.44539691  0.46412063  1.0
  O  O63  1  0.70971709  0.57137446  0.53795379  1.0
  O  O64  1  0.35385659  0.80594487  0.31688311  1.0
  O  O65  1  0.56691211  0.88423386  0.38325115  1.0
  O  O66  1  0.22345693  0.16967125  0.31472587  1.0
  O  O67  1  0.40769378  0.18071514  0.42226579  1.0
  O  O68  1  0.20426037  0.23297359  0.76518230  1.0
  O  O69  1  0.08473714  0.09105045  0.70513826  1.0
  O  O70  1  0.34781001  0.76682113  0.69431409  1.0
  O  O71  1  0.37343562  0.87655041  0.81111555  1.0
