# generated using pymatgen
data_Zn4H12C18O13
_symmetry_space_group_name_H-M   'P 1'
_cell_length_a   15.30780110
_cell_length_b   17.03524900
_cell_length_c   19.59742084
_cell_angle_alpha   72.23838715
_cell_angle_beta   69.61912913
_cell_angle_gamma   66.86433826
_symmetry_Int_Tables_number   1
_chemical_formula_structural   Zn4H12C18O13
_chemical_formula_sum   'Zn8 H24 C36 O26'
_cell_volume   4320.57000236
_cell_formula_units_Z   2
loop_
 _symmetry_equiv_pos_site_id
 _symmetry_equiv_pos_as_xyz
  1  'x, y, z'
loop_
 _atom_site_type_symbol
 _atom_site_label
 _atom_site_symmetry_multiplicity
 _atom_site_fract_x
 _atom_site_fract_y
 _atom_site_fract_z
 _atom_site_occupancy
  Zn  Zn0  1  0.94002865  0.99674732  0.10805268  1.0
  Zn  Zn1  1  0.93980877  0.14397109  0.95666834  1.0
  Zn  Zn2  1  0.90835511  0.96554602  0.96701964  1.0
  Zn  Zn3  1  0.11741029  0.96237342  0.96137977  1.0
  Zn  Zn4  1  0.50915541  0.54703694  0.39046893  1.0
  Zn  Zn5  1  0.51283721  0.39572458  0.53948191  1.0
  Zn  Zn6  1  0.33472282  0.57687616  0.53936622  1.0
  Zn  Zn7  1  0.54471378  0.57300873  0.53203327  1.0
  H  H8  1  0.77219369  0.32215967  0.11751092  1.0
  H  H9  1  0.77175905  0.17236583  0.25458802  1.0
  H  H10  1  0.67672270  0.37514960  0.23823599  1.0
  H  H11  1  0.67752446  0.22390524  0.37422134  1.0
  H  H12  1  0.69316898  0.84794609  0.13474229  1.0
  H  H13  1  0.80317073  0.80681266  0.25343449  1.0
  H  H14  1  0.64484266  0.73804015  0.24625651  1.0
  H  H15  1  0.75545207  0.69618649  0.36471223  1.0
  H  H16  1  0.26990261  0.76709213  0.12708800  1.0
  H  H17  1  0.12403651  0.85165536  0.25981065  1.0
  H  H18  1  0.32175948  0.69563179  0.24415404  1.0
  H  H19  1  0.17745296  0.77842560  0.37815293  1.0
  H  H20  1  0.80474367  0.11589672  0.76518726  1.0
  H  H21  1  0.74982097  0.29223418  0.80866272  1.0
  H  H22  1  0.70912115  0.24151087  0.68423860  1.0
  H  H23  1  0.65493659  0.41669019  0.72948466  1.0
  H  H24  1  0.29627986  0.12746659  0.80998638  1.0
  H  H25  1  0.11441130  0.28747023  0.78725780  1.0
  H  H26  1  0.33995220  0.24942867  0.70931223  1.0
  H  H27  1  0.15769759  0.40930877  0.68720476  1.0
  H  H28  1  0.08017679  0.75534224  0.84047713  1.0
  H  H29  1  0.25116757  0.83204294  0.77876574  1.0
  H  H30  1  0.20441486  0.69882930  0.72760568  1.0
  H  H31  1  0.37446849  0.77670900  0.66579943  1.0
  C  C32  1  0.84760221  0.18593026  0.10702892  1.0
  C  C33  1  0.78807072  0.25598111  0.15009369  1.0
  C  C34  1  0.75383798  0.24007707  0.22487684  1.0
  C  C35  1  0.69486552  0.30731543  0.26763706  1.0
  C  C36  1  0.66111168  0.29048348  0.34243878  1.0
  C  C37  1  0.60174136  0.35924694  0.38686024  1.0
  C  C38  1  0.80419457  0.90719611  0.11762950  1.0
  C  C39  1  0.74266319  0.85123838  0.16181739  1.0
  C  C40  1  0.75127226  0.80210728  0.22929348  1.0
  C  C41  1  0.69672790  0.74272503  0.27042017  1.0
  C  C42  1  0.70577730  0.69312611  0.33767705  1.0
  C  C43  1  0.64496566  0.63645273  0.38153599  1.0
  C  C44  1  0.13889937  0.87804327  0.11319911  1.0
  C  C45  1  0.20501725  0.81144012  0.15780445  1.0
  C  C46  1  0.18961840  0.80556330  0.23115524  1.0
  C  C47  1  0.25634073  0.74155477  0.27312898  1.0
  C  C48  1  0.24182805  0.73463734  0.34651546  1.0
  C  C49  1  0.30905485  0.66685037  0.38971007  1.0
  C  C50  1  0.84402731  0.12439254  0.85897168  1.0
  C  C51  1  0.80034599  0.16244240  0.79509265  1.0
  C  C52  1  0.75328512  0.24837123  0.77635117  1.0
  C  C53  1  0.70594758  0.28504829  0.71673379  1.0
  C  C54  1  0.65862563  0.37109652  0.69892483  1.0
  C  C55  1  0.61312491  0.41088130  0.63603468  1.0
  C  C56  1  0.14777200  0.12851392  0.87553306  1.0
  C  C57  1  0.21937621  0.16852678  0.81837078  1.0
  C  C58  1  0.19260152  0.24930267  0.77694656  1.0
  C  C59  1  0.26174136  0.28752827  0.71969866  1.0
  C  C60  1  0.23469426  0.36846053  0.67858147  1.0
  C  C61  1  0.30590611  0.40920601  0.62179064  1.0
  C  C62  1  0.08678265  0.85222914  0.88888248  1.0
  C  C63  1  0.12555729  0.79364771  0.83562902  1.0
  C  C64  1  0.20954969  0.79137330  0.78108992  1.0
  C  C65  1  0.24595542  0.73949692  0.72541619  1.0
  C  C66  1  0.32940677  0.73818447  0.67046919  1.0
  C  C67  1  0.36741533  0.68158161  0.61571792  1.0
  O  O68  1  0.97586992  0.01918902  0.99943177  1.0
  O  O69  1  0.87061582  0.21136142  0.03638815  1.0
  O  O70  1  0.87060906  0.10741284  0.14302125  1.0
  O  O71  1  0.57972666  0.33197974  0.45728963  1.0
  O  O72  1  0.57796381  0.43837164  0.35224378  1.0
  O  O73  1  0.80262735  0.93489370  0.04926872  1.0
  O  O74  1  0.85431403  0.92240830  0.14947364  1.0
  O  O75  1  0.64792241  0.60733002  0.44954845  1.0
  O  O76  1  0.59417140  0.62198725  0.34978634  1.0
  O  O77  1  0.17196743  0.88105968  0.04304493  1.0
  O  O78  1  0.05654054  0.92642259  0.14671839  1.0
  O  O79  1  0.27781792  0.66213838  0.46012927  1.0
  O  O80  1  0.39063041  0.61905387  0.35475793  1.0
  O  O81  1  0.86702720  0.04137235  0.87830517  1.0
  O  O82  1  0.85446424  0.17513539  0.88987175  1.0
  O  O83  1  0.58985998  0.49399053  0.61831114  1.0
  O  O84  1  0.60130892  0.36155806  0.60449885  1.0
  O  O85  1  0.18447744  0.04885436  0.90519360  1.0
  O  O86  1  0.05705487  0.17504809  0.89029890  1.0
  O  O87  1  0.26868801  0.48905121  0.59283365  1.0
  O  O88  1  0.39680819  0.36316597  0.60666819  1.0
  O  O89  1  0.99984291  0.85807793  0.93098112  1.0
  O  O90  1  0.14108736  0.89360840  0.88828733  1.0
  O  O91  1  0.45333242  0.67775479  0.57244356  1.0
  O  O92  1  0.31341333  0.64009488  0.61595323  1.0
  O  O93  1  0.47597842  0.52110108  0.49907191  1.0
