# generated using pymatgen
data_ZnH17C20N3O4
_symmetry_space_group_name_H-M   'P 1'
_cell_length_a   10.96546895
_cell_length_b   13.92529261
_cell_length_c   15.32927516
_cell_angle_alpha   90.14116586
_cell_angle_beta   90.14364502
_cell_angle_gamma   89.54625133
_symmetry_Int_Tables_number   1
_chemical_formula_structural   ZnH17C20N3O4
_chemical_formula_sum   'Zn2 H34 C40 N6 O8'
_cell_volume   2340.65215634
_cell_formula_units_Z   2
loop_
 _symmetry_equiv_pos_site_id
 _symmetry_equiv_pos_as_xyz
  1  'x, y, z'
loop_
 _atom_site_type_symbol
 _atom_site_label
 _atom_site_symmetry_multiplicity
 _atom_site_fract_x
 _atom_site_fract_y
 _atom_site_fract_z
 _atom_site_occupancy
  Zn  Zn0  1  0.50529784  0.40000324  0.50008219  1.0
  Zn  Zn1  1  0.51051479  0.59964490  0.50187418  1.0
  H  H2  1  0.60689288  0.24807107  0.38882279  1.0
  H  H3  1  0.39195387  0.25059900  0.60995040  1.0
  H  H4  1  0.77137656  0.43699201  0.64450315  1.0
  H  H5  1  0.22121779  0.47537119  0.67091787  1.0
  H  H6  1  0.87290055  0.41104394  0.78544198  1.0
  H  H7  1  0.09930648  0.43008837  0.79986982  1.0
  H  H8  1  0.37875321  0.37207937  0.93434843  1.0
  H  H9  1  0.50159216  0.35677162  0.05599335  1.0
  H  H10  1  0.40725730  0.36888032  0.77311494  1.0
  H  H11  1  0.50908182  0.35435779  0.21856569  1.0
  H  H12  1  0.57340680  0.64608344  0.78316248  1.0
  H  H13  1  0.42852499  0.65575633  0.22575364  1.0
  H  H14  1  0.55089411  0.64920384  0.94478015  1.0
  H  H15  1  0.41726576  0.65950614  0.06358403  1.0
  H  H16  1  0.58517850  0.93438107  0.62929468  1.0
  H  H17  1  0.42192656  0.93063511  0.37279850  1.0
  H  H18  1  0.58893979  0.75324570  0.62376121  1.0
  H  H19  1  0.43202831  0.74972526  0.37866801  1.0
  H  H20  1  0.96916178  0.57670593  0.30254867  1.0
  H  H21  1  0.77384518  0.54052966  0.23899390  1.0
  H  H22  1  0.73288954  0.47713852  0.33391339  1.0
  H  H23  1  0.84757552  0.42900870  0.26422802  1.0
  H  H24  1  0.23036330  0.57695646  0.36952143  1.0
  H  H25  1  0.20944033  0.49819811  0.23137619  1.0
  H  H26  1  0.07392242  0.44330850  0.26993058  1.0
  H  H27  1  0.21728161  0.41044145  0.31658020  1.0
  H  H28  1  0.65406523  0.11002309  0.32284025  1.0
  H  H29  1  0.76773049  0.97009461  0.32202026  1.0
  H  H30  1  0.69672441  0.92802528  0.41770976  1.0
  H  H31  1  0.80103018  0.02542392  0.42474423  1.0
  H  H32  1  0.34183393  0.11345263  0.67545224  1.0
  H  H33  1  0.23761032  0.96990213  0.67878942  1.0
  H  H34  1  0.31130411  0.92778689  0.58369375  1.0
  H  H35  1  0.20056072  0.02187689  0.57539576  1.0
  C  C36  1  0.51116718  0.50337751  0.67177699  1.0
  C  C37  1  0.48182757  0.50292598  0.32937391  1.0
  C  C38  1  0.49346824  0.50668000  0.76859903  1.0
  C  C39  1  0.47130076  0.50500911  0.23193658  1.0
  C  C40  1  0.53097346  0.58649131  0.81720876  1.0
  C  C41  1  0.44467647  0.59068761  0.18773949  1.0
  C  C42  1  0.51709910  0.58814215  0.90740541  1.0
  C  C43  1  0.43916777  0.59245644  0.09703369  1.0
  C  C44  1  0.46484440  0.51015966  0.95156076  1.0
  C  C45  1  0.46038079  0.50855377  0.04779559  1.0
  C  C46  1  0.55085267  0.89611207  0.57238738  1.0
  C  C47  1  0.45910571  0.89402292  0.42975616  1.0
  C  C48  1  0.55324596  0.79634336  0.56998997  1.0
  C  C49  1  0.46449140  0.79442231  0.43227194  1.0
  C  C50  1  0.50310595  0.94685736  0.50098179  1.0
  C  C51  1  0.56339785  0.10431952  0.43478554  1.0
  C  C52  1  0.43576665  0.10563495  0.56473184  1.0
  C  C53  1  0.55950379  0.20505294  0.43739962  1.0
  C  C54  1  0.43916703  0.20647790  0.56146887  1.0
  C  C55  1  0.50037843  0.05307247  0.50020765  1.0
  C  C56  1  0.74307591  0.49316057  0.48872353  1.0
  C  C57  1  0.27167136  0.50511663  0.51075445  1.0
  C  C58  1  0.86961290  0.44619669  0.64963378  1.0
  C  C59  1  0.12270327  0.46670902  0.66505427  1.0
  C  C60  1  0.92708861  0.43105594  0.72879664  1.0
  C  C61  1  0.05465639  0.44137921  0.73698299  1.0
  C  C62  1  0.06621392  0.48302286  0.58300321  1.0
  C  C63  1  0.93662014  0.47275960  0.57415827  1.0
  C  C64  1  0.87974942  0.49349591  0.49212752  1.0
  C  C65  1  0.13483669  0.50718329  0.50770117  1.0
  C  C66  1  0.94866971  0.52194889  0.42031947  1.0
  C  C67  1  0.07935435  0.52570291  0.42859251  1.0
  C  C68  1  0.42353696  0.43177052  0.90179154  1.0
  C  C69  1  0.48360581  0.42236574  0.09294926  1.0
  C  C70  1  0.43826534  0.42981745  0.81173413  1.0
  C  C71  1  0.48917038  0.42064985  0.18353513  1.0
  C  C72  1  0.80991882  0.49632285  0.29250685  1.0
  C  C73  1  0.16344362  0.47081072  0.28961617  1.0
  C  C74  1  0.72860178  0.99265675  0.38465192  1.0
  C  C75  1  0.27519702  0.99218282  0.61583805  1.0
  N  N76  1  0.51081487  0.74655968  0.50111020  1.0
  N  N77  1  0.49955125  0.25349127  0.49945417  1.0
  N  N78  1  0.90081649  0.55057831  0.34048071  1.0
  N  N79  1  0.14722773  0.54987069  0.35278735  1.0
  N  N80  1  0.62761184  0.05971385  0.36680582  1.0
  N  N81  1  0.37148352  0.06252723  0.63259774  1.0
  O  O82  1  0.49109058  0.42337596  0.63393540  1.0
  O  O83  1  0.51182834  0.42342251  0.36438356  1.0
  O  O84  1  0.54432374  0.58044506  0.63422119  1.0
  O  O85  1  0.46052108  0.58135470  0.37030877  1.0
  O  O86  1  0.68998805  0.41337071  0.50216024  1.0
  O  O87  1  0.32145168  0.42463295  0.49292546  1.0
  O  O88  1  0.68924899  0.57314783  0.47493592  1.0
  O  O89  1  0.32679479  0.58287479  0.52836370  1.0
