# generated using pymatgen
data_ZnH5C12I2NO4
_symmetry_space_group_name_H-M   'P 1'
_cell_length_a   9.61821110
_cell_length_b   10.91821837
_cell_length_c   11.00194251
_cell_angle_alpha   87.41600505
_cell_angle_beta   88.62177307
_cell_angle_gamma   85.52675929
_symmetry_Int_Tables_number   1
_chemical_formula_structural   ZnH5C12I2NO4
_chemical_formula_sum   'Zn2 H10 C24 I4 N2 O8'
_cell_volume   1150.41982146
_cell_formula_units_Z   2
loop_
 _symmetry_equiv_pos_site_id
 _symmetry_equiv_pos_as_xyz
  1  'x, y, z'
loop_
 _atom_site_type_symbol
 _atom_site_label
 _atom_site_symmetry_multiplicity
 _atom_site_fract_x
 _atom_site_fract_y
 _atom_site_fract_z
 _atom_site_occupancy
  Zn  Zn0  1  0.36077756  0.50362942  0.50684129  1.0
  Zn  Zn1  1  0.64715561  0.49691803  0.50444876  1.0
  H  H2  1  0.29649592  0.25210639  0.65431029  1.0
  H  H3  1  0.24157107  0.80430497  0.64282363  1.0
  H  H4  1  0.08017377  0.16768415  0.73504101  1.0
  H  H5  1  0.05095338  0.94315015  0.72420297  1.0
  H  H6  1  0.36065646  0.64398740  0.11254419  1.0
  H  H7  1  0.35840741  0.63653003  0.88541292  1.0
  H  H8  1  0.87144917  0.54734908  0.31979090  1.0
  H  H9  1  0.87009125  0.43085868  0.68440493  1.0
  H  H10  1  0.13781025  0.55334279  0.32236160  1.0
  H  H11  1  0.13564781  0.44008351  0.68757422  1.0
  C  C12  1  0.50151460  0.48080442  0.74385184  1.0
  C  C13  1  0.50378778  0.50076448  0.27016587  1.0
  C  C14  1  0.42138353  0.57134796  0.06562484  1.0
  C  C15  1  0.42002899  0.56712568  0.93976602  1.0
  C  C16  1  0.93196092  0.52337727  0.40115513  1.0
  C  C17  1  0.93118425  0.45836696  0.60427746  1.0
  C  C18  1  0.07630608  0.52720033  0.40260200  1.0
  C  C19  1  0.07528343  0.46316881  0.60593484  1.0
  C  C20  1  0.51851897  0.26243749  0.52285941  1.0
  C  C21  1  0.49135647  0.73396442  0.53739297  1.0
  C  C22  1  0.28314755  0.15468162  0.64937067  1.0
  C  C23  1  0.25265854  0.90233472  0.64342198  1.0
  C  C24  1  0.16272423  0.10740000  0.69446478  1.0
  C  C25  1  0.14686273  0.98051307  0.68963889  1.0
  C  C26  1  0.38143595  0.94674778  0.60133492  1.0
  C  C27  1  0.39429174  0.07720453  0.60055752  1.0
  C  C28  1  0.52051917  0.12628976  0.55452526  1.0
  C  C29  1  0.50168267  0.86623213  0.56990419  1.0
  C  C30  1  0.63985925  0.04620997  0.54399489  1.0
  C  C31  1  0.63123908  0.91704951  0.56290963  1.0
  C  C32  1  0.57881437  0.38317023  0.94952934  1.0
  C  C33  1  0.57986511  0.38662287  0.07729003  1.0
  C  C34  1  0.50246913  0.48354112  0.13537319  1.0
  C  C35  1  0.50039678  0.47443934  0.88081332  1.0
  I  I36  1  0.83616543  0.10718634  0.48665923  1.0
  I  I37  1  0.81630898  0.80677733  0.60497059  1.0
  I  I38  1  0.68883703  0.24067579  0.85496209  1.0
  I  I39  1  0.68713491  0.24437356  0.18231138  1.0
  N  N40  1  0.14635598  0.49827200  0.50532893  1.0
  N  N41  1  0.86106829  0.48978362  0.50207480  1.0
  O  O42  1  0.38936351  0.45866934  0.69252448  1.0
  O  O43  1  0.38733402  0.53293818  0.32205229  1.0
  O  O44  1  0.61233950  0.51353735  0.69143286  1.0
  O  O45  1  0.62083676  0.48492104  0.32168873  1.0
  O  O46  1  0.40700475  0.31600425  0.47962282  1.0
  O  O47  1  0.37767561  0.68250412  0.55681386  1.0
  O  O48  1  0.62811800  0.31535255  0.54284972  1.0
  O  O49  1  0.59767012  0.68186936  0.48452340  1.0
