# generated using pymatgen
data_ZnH20C22(NO)4
_symmetry_space_group_name_H-M   'P 1'
_cell_length_a   10.29141470
_cell_length_b   16.29676350
_cell_length_c   20.06769254
_cell_angle_alpha   89.99950522
_cell_angle_beta   89.99948138
_cell_angle_gamma   92.41903691
_symmetry_Int_Tables_number   1
_chemical_formula_structural   ZnH20C22(NO)4
_chemical_formula_sum   'Zn4 H80 C88 N16 O16'
_cell_volume   3362.68890716
_cell_formula_units_Z   4
loop_
 _symmetry_equiv_pos_site_id
 _symmetry_equiv_pos_as_xyz
  1  'x, y, z'
loop_
 _atom_site_type_symbol
 _atom_site_label
 _atom_site_symmetry_multiplicity
 _atom_site_fract_x
 _atom_site_fract_y
 _atom_site_fract_z
 _atom_site_occupancy
  Zn  Zn0  1  0.35836184  0.95898004  0.77246083  1.0
  Zn  Zn1  1  0.14165170  0.54101779  0.27245812  1.0
  Zn  Zn2  1  0.64163961  0.04101775  0.22753922  1.0
  Zn  Zn3  1  0.85835587  0.45898493  0.72754293  1.0
  H  H4  1  0.26399450  0.89115284  0.90188125  1.0
  H  H5  1  0.23601386  0.60884538  0.40187463  1.0
  H  H6  1  0.73600465  0.10883881  0.09811781  1.0
  H  H7  1  0.76398114  0.39115853  0.59812343  1.0
  H  H8  1  0.35829359  0.84436376  0.00616336  1.0
  H  H9  1  0.14171713  0.65563826  0.50615773  1.0
  H  H10  1  0.64170361  0.15562787  0.99383719  1.0
  H  H11  1  0.85828166  0.34436382  0.49384133  1.0
  H  H12  1  0.72365231  0.96463484  0.94310788  1.0
  H  H13  1  0.77635287  0.53537109  0.44310806  1.0
  H  H14  1  0.27634065  0.03536722  0.05689317  1.0
  H  H15  1  0.22364376  0.46462730  0.55689149  1.0
  H  H16  1  0.60895676  0.00811782  0.84183724  1.0
  H  H17  1  0.89105023  0.49188362  0.34183721  1.0
  H  H18  1  0.39103605  0.99188178  0.15816630  1.0
  H  H19  1  0.10894668  0.50811968  0.65816234  1.0
  H  H20  1  0.77106755  0.95745295  0.04975446  1.0
  H  H21  1  0.72893864  0.54255123  0.54975071  1.0
  H  H22  1  0.22892987  0.04254237  0.95024509  1.0
  H  H23  1  0.27106018  0.45745146  0.45025084  1.0
  H  H24  1  0.81244297  0.86352671  0.01074672  1.0
  H  H25  1  0.68756793  0.63647977  0.51074599  1.0
  H  H26  1  0.18754865  0.13646921  0.98925283  1.0
  H  H27  1  0.31243773  0.36352356  0.48925605  1.0
  H  H28  1  0.46285579  0.78721179  0.06799554  1.0
  H  H29  1  0.03715750  0.71278648  0.56799747  1.0
  H  H30  1  0.53714378  0.21278722  0.93200501  1.0
  H  H31  1  0.96284416  0.28721499  0.43200408  1.0
  H  H32  1  0.52920780  0.84734461  0.13392552  1.0
  H  H33  1  0.97079448  0.65265126  0.63392735  1.0
  H  H34  1  0.47079063  0.15265133  0.86607353  1.0
  H  H35  1  0.02920524  0.34735021  0.36607569  1.0
  H  H36  1  0.59252384  0.70587095  0.14456984  1.0
  H  H37  1  0.90748329  0.79412788  0.64456998  1.0
  H  H38  1  0.40747675  0.29412868  0.85543021  1.0
  H  H39  1  0.09251445  0.20587297  0.35543206  1.0
  H  H40  1  0.64794287  0.70258623  0.06026457  1.0
  H  H41  1  0.85206389  0.79741416  0.56026644  1.0
  H  H42  1  0.35205462  0.29741033  0.93973549  1.0
  H  H43  1  0.14793777  0.20258732  0.43973710  1.0
  H  H44  1  0.90291948  0.87358007  0.12133866  1.0
  H  H45  1  0.59708526  0.62642086  0.62133593  1.0
  H  H46  1  0.09707510  0.12641647  0.87865990  1.0
  H  H47  1  0.40291352  0.37358123  0.37866362  1.0
  H  H48  1  0.75489552  0.89570133  0.15884947  1.0
  H  H49  1  0.74510432  0.60429364  0.65884919  1.0
  H  H50  1  0.24510593  0.10429647  0.84115008  1.0
  H  H51  1  0.25488852  0.39570658  0.34115285  1.0
  H  H52  1  0.73359998  0.60769955  0.13897280  1.0
  H  H53  1  0.76640703  0.89229566  0.63897591  1.0
  H  H54  1  0.26640535  0.39229825  0.86102825  1.0
  H  H55  1  0.23359258  0.10770397  0.36102315  1.0
  H  H56  1  0.88655182  0.51858604  0.19566138  1.0
  H  H57  1  0.61344735  0.98140851  0.69566408  1.0
  H  H58  1  0.11344988  0.48141605  0.80433967  1.0
  H  H59  1  0.38655021  0.01858927  0.30433597  1.0
  H  H60  1  0.14210912  0.71458154  0.23813369  1.0
  H  H61  1  0.35789695  0.78541113  0.73813761  1.0
  H  H62  1  0.85789927  0.28541874  0.76185989  1.0
  H  H63  1  0.64209881  0.21458910  0.26185896  1.0
  H  H64  1  0.00002596  0.81412520  0.18695689  1.0
  H  H65  1  0.49998595  0.68586867  0.68696084  1.0
  H  H66  1  0.99998237  0.18587385  0.81303818  1.0
  H  H67  1  0.50001075  0.31413094  0.31303722  1.0
  H  H68  1  0.85276659  0.92729284  0.84158732  1.0
  H  H69  1  0.64724538  0.57271548  0.34159582  1.0
  H  H70  1  0.14724112  0.07271234  0.15841024  1.0
  H  H71  1  0.35275549  0.42728907  0.65841420  1.0
  H  H72  1  0.66536955  0.82358713  0.84039914  1.0
  H  H73  1  0.83463563  0.67642118  0.34040007  1.0
  H  H74  1  0.33463423  0.17641743  0.15960440  1.0
  H  H75  1  0.16536704  0.32358092  0.65960447  1.0
  H  H76  1  0.70267819  0.67931816  0.80492462  1.0
  H  H77  1  0.79733049  0.82068932  0.30492024  1.0
  H  H78  1  0.29732066  0.32068515  0.19507842  1.0
  H  H79  1  0.20267985  0.17931096  0.69508031  1.0
  H  H80  1  0.10359008  0.74498648  0.76574141  1.0
  H  H81  1  0.39641498  0.75501386  0.26574599  1.0
  H  H82  1  0.89640259  0.25501067  0.23425415  1.0
  H  H83  1  0.60359251  0.24498764  0.73425655  1.0
  C  C84  1  0.36623600  0.90519515  0.91285532  1.0
  C  C85  1  0.13377040  0.59480601  0.41285276  1.0
  C  C86  1  0.63376034  0.09479833  0.08714224  1.0
  C  C87  1  0.86622558  0.40519791  0.58714330  1.0
  C  C88  1  0.42076670  0.87845478  0.97130047  1.0
  C  C89  1  0.07924154  0.62154573  0.47129748  1.0
  C  C90  1  0.57922370  0.12153683  0.02869859  1.0
  C  C91  1  0.92075641  0.37845881  0.52869858  1.0
  C  C92  1  0.55443675  0.89643941  0.98473363  1.0
  C  C93  1  0.94557321  0.60356116  0.48473255  1.0
  C  C94  1  0.44555390  0.10355650  0.01526792  1.0
  C  C95  1  0.05442651  0.39644031  0.51526850  1.0
  C  C96  1  0.62172581  0.94618545  0.93661167  1.0
  C  C97  1  0.87828416  0.55381750  0.43661175  1.0
  C  C98  1  0.37826516  0.05381599  0.06338838  1.0
  C  C99  1  0.12171358  0.44618335  0.56338681  1.0
  C  C100  1  0.55875490  0.97061972  0.87971381  1.0
  C  C101  1  0.94125407  0.52938202  0.37971327  1.0
  C  C102  1  0.44124180  0.02937990  0.12028824  1.0
  C  C103  1  0.05874184  0.47062067  0.62028678  1.0
  C  C104  1  0.75386169  0.89035626  0.05073292  1.0
  C  C105  1  0.74614542  0.60964731  0.55073111  1.0
  C  C106  1  0.24613975  0.10964153  0.94926713  1.0
  C  C107  1  0.25385138  0.39035415  0.44927043  1.0
  C  C108  1  0.55387768  0.81369600  0.08834785  1.0
  C  C109  1  0.94612856  0.68630407  0.58834856  1.0
  C  C110  1  0.44611876  0.18629932  0.91165470  1.0
  C  C111  1  0.05387123  0.31369863  0.41165448  1.0
  C  C112  1  0.64000764  0.74245098  0.10452614  1.0
  C  C113  1  0.85999838  0.75755014  0.60452725  1.0
  C  C114  1  0.35998319  0.25754801  0.89547242  1.0
  C  C115  1  0.14000425  0.24245134  0.39547479  1.0
  C  C116  1  0.79809667  0.86039947  0.11843877  1.0
  C  C117  1  0.70191094  0.63959966  0.61843845  1.0
  C  C118  1  0.20190298  0.13960078  0.88155929  1.0
  C  C119  1  0.29808868  0.36039997  0.38156160  1.0
  C  C120  1  0.85162898  0.72104026  0.15583107  1.0
  C  C121  1  0.64837776  0.77895538  0.65583551  1.0
  C  C122  1  0.14837344  0.27895754  0.84416898  1.0
  C  C123  1  0.35162002  0.22104608  0.34416504  1.0
  C  C124  1  0.82275046  0.63515420  0.15979801  1.0
  C  C125  1  0.67725430  0.86484200  0.65979873  1.0
  C  C126  1  0.17725095  0.36484298  0.84020454  1.0
  C  C127  1  0.32274445  0.13515947  0.34020032  1.0
  C  C128  1  0.90793482  0.58454285  0.19123209  1.0
  C  C129  1  0.59207214  0.91545055  0.69123286  1.0
  C  C130  1  0.09207149  0.41545496  0.80876796  1.0
  C  C131  1  0.40792557  0.08454969  0.30876520  1.0
  C  C132  1  0.05019322  0.69399387  0.21529378  1.0
  C  C133  1  0.44981514  0.80599783  0.71530012  1.0
  C  C134  1  0.94981607  0.30600518  0.78470079  1.0
  C  C135  1  0.55018058  0.19400179  0.28469794  1.0
  C  C136  1  0.97071328  0.74925930  0.18541456  1.0
  C  C137  1  0.52929375  0.75073355  0.68542026  1.0
  C  C138  1  0.02929220  0.25074096  0.81458300  1.0
  C  C139  1  0.47070000  0.24926544  0.31457930  1.0
  C  C140  1  0.10122230  0.90500366  0.80592785  1.0
  C  C141  1  0.39878775  0.59499440  0.30593402  1.0
  C  C142  1  0.89877825  0.09499536  0.19406373  1.0
  C  C143  1  0.60121784  0.40500770  0.69406952  1.0
  C  C144  1  0.98911008  0.84277482  0.80394520  1.0
  C  C145  1  0.51090021  0.65722654  0.30395325  1.0
  C  C146  1  0.01089162  0.15722727  0.19604738  1.0
  C  C147  1  0.48910624  0.34277372  0.69605129  1.0
  C  C148  1  0.86547159  0.86427086  0.82538335  1.0
  C  C149  1  0.63453858  0.63573518  0.32538898  1.0
  C  C150  1  0.13453309  0.13573247  0.17461271  1.0
  C  C151  1  0.36546513  0.36426815  0.67461705  1.0
  C  C152  1  0.76200445  0.80613359  0.82511271  1.0
  C  C153  1  0.73800487  0.69387428  0.32511447  1.0
  C  C154  1  0.23799632  0.19386911  0.17488734  1.0
  C  C155  1  0.26200370  0.30612906  0.67488907  1.0
  C  C156  1  0.78199112  0.72568114  0.80511912  1.0
  C  C157  1  0.71801360  0.77432510  0.30511841  1.0
  C  C158  1  0.21800471  0.27432032  0.19488193  1.0
  C  C159  1  0.28199390  0.22567639  0.69488264  1.0
  C  C160  1  0.90555678  0.70323371  0.78415287  1.0
  C  C161  1  0.59444429  0.79677030  0.28415557  1.0
  C  C162  1  0.09443510  0.29676651  0.21584569  1.0
  C  C163  1  0.40556612  0.20323121  0.71584547  1.0
  C  C164  1  0.00807473  0.76234257  0.78276944  1.0
  C  C165  1  0.49192818  0.73765941  0.28277420  1.0
  C  C166  1  0.99191999  0.23765643  0.21722612  1.0
  C  C167  1  0.50807737  0.26234208  0.71722785  1.0
  C  C168  1  0.92838392  0.61695350  0.76225124  1.0
  C  C169  1  0.57161859  0.88305199  0.26224947  1.0
  C  C170  1  0.07160601  0.38304671  0.23775030  1.0
  C  C171  1  0.42839574  0.11695015  0.73775158  1.0
  N  N172  1  0.43263651  0.95008907  0.86638778  1.0
  N  N173  1  0.06737272  0.54991322  0.36638585  1.0
  N  N174  1  0.56735882  0.04990379  0.13361576  1.0
  N  N175  1  0.93262639  0.45009439  0.63361321  1.0
  N  N176  1  0.61590098  0.86888623  0.03958057  1.0
  N  N177  1  0.88411005  0.63111441  0.53957846  1.0
  N  N178  1  0.38409853  0.13111156  0.96042198  1.0
  N  N179  1  0.11588856  0.36888461  0.46042408  1.0
  N  N180  1  0.76890031  0.77250747  0.12618991  1.0
  N  N181  1  0.73110906  0.72749096  0.62619333  1.0
  N  N182  1  0.23109729  0.22749092  0.87380915  1.0
  N  N183  1  0.26889354  0.27250991  0.37380872  1.0
  N  N184  1  0.02120498  0.61228594  0.21893182  1.0
  N  N185  1  0.47879933  0.88770387  0.71893496  1.0
  N  N186  1  0.97880234  0.38771249  0.78106425  1.0
  N  N187  1  0.52119726  0.11229391  0.28106260  1.0
  O  O188  1  0.20179966  0.88507952  0.77111351  1.0
  O  O189  1  0.29821653  0.61491343  0.27111404  1.0
  O  O190  1  0.79819703  0.11492010  0.22887607  1.0
  O  O191  1  0.70179737  0.38508134  0.72888202  1.0
  O  O192  1  0.09466824  0.96846440  0.84060378  1.0
  O  O193  1  0.40533938  0.53153573  0.34061535  1.0
  O  O194  1  0.90533707  0.03153279  0.15938880  1.0
  O  O195  1  0.59465764  0.46846942  0.65939268  1.0
  O  O196  1  0.82681641  0.56678558  0.76514835  1.0
  O  O197  1  0.67318310  0.93321925  0.26514775  1.0
  O  O198  1  0.17317067  0.43321585  0.23485270  1.0
  O  O199  1  0.32683116  0.06678166  0.73485529  1.0
  O  O200  1  0.03790439  0.59740884  0.74144083  1.0
  O  O201  1  0.46210032  0.90259484  0.24143760  1.0
  O  O202  1  0.96208446  0.40258952  0.25855922  1.0
  O  O203  1  0.53791703  0.09740915  0.75856195  1.0
