# generated using pymatgen
data_Zn4H16C28BrNO13
_symmetry_space_group_name_H-M   'P 1'
_cell_length_a   13.04063070
_cell_length_b   13.30450130
_cell_length_c   15.75701442
_cell_angle_alpha   70.63300540
_cell_angle_beta   75.02660525
_cell_angle_gamma   88.73912045
_symmetry_Int_Tables_number   1
_chemical_formula_structural   Zn4H16C28BrNO13
_chemical_formula_sum   'Zn4 H16 C28 Br1 N1 O13'
_cell_volume   2485.47018757
_cell_formula_units_Z   1
loop_
 _symmetry_equiv_pos_site_id
 _symmetry_equiv_pos_as_xyz
  1  'x, y, z'
loop_
 _atom_site_type_symbol
 _atom_site_label
 _atom_site_symmetry_multiplicity
 _atom_site_fract_x
 _atom_site_fract_y
 _atom_site_fract_z
 _atom_site_occupancy
  Zn  Zn0  1  0.41333604  0.44113382  0.44358829  1.0
  Zn  Zn1  1  0.57299623  0.39354463  0.57237208  1.0
  Zn  Zn2  1  0.40747460  0.55847857  0.59507946  1.0
  Zn  Zn3  1  0.59104490  0.61875580  0.39588011  1.0
  H  H4  1  0.48533510  0.22759814  0.87004336  1.0
  H  H5  1  0.58169227  0.74951872  0.11820104  1.0
  H  H6  1  0.54910406  0.66610367  0.88496922  1.0
  H  H7  1  0.58643550  0.80223086  0.94917837  1.0
  H  H8  1  0.50877388  0.36920036  0.23937692  1.0
  H  H9  1  0.88468695  0.46201153  0.59657625  1.0
  H  H10  1  0.47781212  0.19164449  0.25348983  1.0
  H  H11  1  0.45763456  0.15398282  0.16676773  1.0
  H  H12  1  0.09930615  0.52104144  0.44015748  1.0
  H  H13  1  0.93766236  0.57391042  0.38290587  1.0
  H  H14  1  0.05500108  0.46978903  0.65289496  1.0
  H  H15  1  0.48295284  0.90416087  0.56610877  1.0
  H  H16  1  0.54406440  0.06871041  0.56768673  1.0
  H  H17  1  0.42513690  0.93391405  0.38173274  1.0
  H  H18  1  0.49170005  0.17777769  0.03363448  1.0
  H  H19  1  0.49754263  0.55886932  0.84149134  1.0
  C  C20  1  0.77338421  0.52754471  0.46855031  1.0
  C  C21  1  0.49815947  0.47621559  0.88527375  1.0
  C  C22  1  0.48949028  0.28869036  0.90118443  1.0
  C  C23  1  0.21623793  0.49086416  0.55853376  1.0
  C  C24  1  0.54162500  0.58418629  0.14773705  1.0
  C  C25  1  0.09880744  0.48438997  0.58034694  1.0
  C  C26  1  0.04934321  0.50177412  0.51168556  1.0
  C  C27  1  0.88996893  0.53403232  0.45433538  1.0
  C  C28  1  0.93583301  0.49701944  0.52557687  1.0
  C  C29  1  0.44619849  0.89377821  0.44690186  1.0
  C  C30  1  0.45594400  0.94648215  0.50422690  1.0
  C  C31  1  0.56817801  0.71911024  0.99437347  1.0
  C  C32  1  0.49082627  0.11364641  0.52780669  1.0
  C  C33  1  0.44007469  0.05876702  0.49019946  1.0
  C  C34  1  0.49062754  0.22735528  0.51952312  1.0
  C  C35  1  0.47093890  0.77994901  0.46617925  1.0
  C  C36  1  0.48313005  0.42638855  0.74930781  1.0
  C  C37  1  0.53056691  0.56230578  0.24903412  1.0
  C  C38  1  0.49292309  0.26198388  0.99269522  1.0
  C  C39  1  0.48951746  0.39712315  0.84738108  1.0
  C  C40  1  0.56587620  0.68979831  0.08885701  1.0
  C  C41  1  0.54690300  0.64204455  0.95860469  1.0
  C  C42  1  0.52555827  0.53356866  0.01468344  1.0
  C  C43  1  0.52442733  0.50248145  0.11118545  1.0
  C  C44  1  0.50805915  0.45131383  0.97690820  1.0
  C  C45  1  0.50083774  0.34120423  0.03282252  1.0
  C  C46  1  0.50181700  0.31305593  0.12929460  1.0
  C  C47  1  0.51103068  0.39220205  0.16588914  1.0
  Br  Br48  1  0.34510080  0.12132396  0.41660838  1.0
  N  N49  1  0.49689140  0.20649619  0.18349230  1.0
  O  O50  1  0.49804673  0.50547236  0.50053059  1.0
  O  O51  1  0.51258520  0.35816258  0.70811703  1.0
  O  O52  1  0.58969898  0.61993928  0.27074180  1.0
  O  O53  1  0.44907140  0.51728600  0.71276941  1.0
  O  O54  1  0.46008676  0.48942637  0.30747534  1.0
  O  O55  1  0.42215864  0.28471438  0.48482142  1.0
  O  O56  1  0.53278629  0.75771371  0.39850705  1.0
  O  O57  1  0.71883557  0.45490121  0.54165048  1.0
  O  O58  1  0.25771435  0.50934243  0.61780529  1.0
  O  O59  1  0.73812494  0.59564503  0.40546722  1.0
  O  O60  1  0.26662418  0.47817113  0.48196460  1.0
  O  O61  1  0.56260440  0.25818374  0.54954625  1.0
  O  O62  1  0.42803066  0.71599277  0.54813969  1.0
