# generated using pymatgen
data_Zn4H4C24S4Br4O13
_symmetry_space_group_name_H-M   'P 1'
_cell_length_a   19.66207548
_cell_length_b   19.71701515
_cell_length_c   33.35860426
_cell_angle_alpha   79.06713419
_cell_angle_beta   79.22385325
_cell_angle_gamma   63.97640776
_symmetry_Int_Tables_number   1
_chemical_formula_structural   Zn4H4C24S4Br4O13
_chemical_formula_sum   'Zn16 H16 C96 S16 Br16 O52'
_cell_volume   11331.10623052
_cell_formula_units_Z   4
loop_
 _symmetry_equiv_pos_site_id
 _symmetry_equiv_pos_as_xyz
  1  'x, y, z'
loop_
 _atom_site_type_symbol
 _atom_site_label
 _atom_site_symmetry_multiplicity
 _atom_site_fract_x
 _atom_site_fract_y
 _atom_site_fract_z
 _atom_site_occupancy
  Zn  Zn0  1  0.05615701  0.40033863  0.47804924  1.0
  Zn  Zn1  1  0.98478379  0.48396166  0.55975817  1.0
  Zn  Zn2  1  0.05879968  0.56180713  0.48339275  1.0
  Zn  Zn3  1  0.90056747  0.55351657  0.47871000  1.0
  Zn  Zn4  1  0.69360966  0.34981554  0.27179102  1.0
  Zn  Zn5  1  0.69093501  0.18843730  0.26644533  1.0
  Zn  Zn6  1  0.76772646  0.26507589  0.18959706  1.0
  Zn  Zn7  1  0.84718143  0.19719672  0.27228106  1.0
  Zn  Zn8  1  0.26519090  0.76597587  0.69028930  1.0
  Zn  Zn9  1  0.34936208  0.69652536  0.77134835  1.0
  Zn  Zn10  1  0.19376948  0.84966236  0.77203087  1.0
  Zn  Zn11  1  0.19109555  0.68826875  0.76663851  1.0
  Zn  Zn12  1  0.55897096  0.06164284  0.98358353  1.0
  Zn  Zn13  1  0.40281693  0.05278505  0.97774434  1.0
  Zn  Zn14  1  0.55635531  0.90010680  0.97827384  1.0
  Zn  Zn15  1  0.48240451  0.98482845  0.06039863  1.0
  H  H16  1  0.79616289  0.50208492  0.39902350  1.0
  H  H17  1  0.95363688  0.24848994  0.35090021  1.0
  H  H18  1  0.74762048  0.45453448  0.35088999  1.0
  H  H19  1  0.00219628  0.29601626  0.39901042  1.0
  H  H20  1  0.15266485  0.65270325  0.54930990  1.0
  H  H21  1  0.09736552  0.59729428  0.70069761  1.0
  H  H22  1  0.20074864  0.70053569  0.59757346  1.0
  H  H23  1  0.04927715  0.54946318  0.65243979  1.0
  H  H24  1  0.70075337  0.20049455  0.09742365  1.0
  H  H25  1  0.54927979  0.04950127  0.15258854  1.0
  H  H26  1  0.65243962  0.15265662  0.04930456  1.0
  H  H27  1  0.59758100  0.09733769  0.20070914  1.0
  H  H28  1  0.24790828  0.95411739  0.85089657  1.0
  H  H29  1  0.50246258  0.79559375  0.89903472  1.0
  H  H30  1  0.29643563  0.00165528  0.89902829  1.0
  H  H31  1  0.45393044  0.74807634  0.85088241  1.0
  C  C32  1  0.06155338  0.31640946  0.56143039  1.0
  C  C33  1  0.06944954  0.57000528  0.56946202  1.0
  C  C34  1  0.18360368  0.43950253  0.43878866  1.0
  C  C35  1  0.93755504  0.68379836  0.43890500  1.0
  C  C36  1  0.93055000  0.43009379  0.43061019  1.0
  C  C37  1  0.81662738  0.56097206  0.56164024  1.0
  C  C38  1  0.56628614  0.31051070  0.31125841  1.0
  C  C39  1  0.68119289  0.17966794  0.18044272  1.0
  C  C40  1  0.68922083  0.43323567  0.18841161  1.0
  C  C41  1  0.93411660  0.18846649  0.18913750  1.0
  C  C42  1  0.81894905  0.32030389  0.31957011  1.0
  C  C43  1  0.81189584  0.06630442  0.31129800  1.0
  C  C44  1  0.43328787  0.68917042  0.68840179  1.0
  C  C45  1  0.31948054  0.82006070  0.81934701  1.0
  C  C46  1  0.18866621  0.93347041  0.68858058  1.0
  C  C47  1  0.06621702  0.81054007  0.81122671  1.0
  C  C48  1  0.18064929  0.67992096  0.68053417  1.0
  C  C49  1  0.31237027  0.56618988  0.81106583  1.0
  C  C50  1  0.43793506  0.18370653  0.93871655  1.0
  C  C51  1  0.43103820  0.92985110  0.93038872  1.0
  C  C52  1  0.68353078  0.93953222  0.93874875  1.0
  C  C53  1  0.56100862  0.81663816  0.06161393  1.0
  C  C54  1  0.56893607  0.07024153  0.06956222  1.0
  C  C55  1  0.31605251  0.06153401  0.06093352  1.0
  C  C56  1  0.90192522  0.40179615  0.40175921  1.0
  C  C57  1  0.84787401  0.34883546  0.34813409  1.0
  C  C58  1  0.83015635  0.44670399  0.38826361  1.0
  C  C59  1  0.91970277  0.30392923  0.36159785  1.0
  C  C60  1  0.80326490  0.42037160  0.36158678  1.0
  C  C61  1  0.94659992  0.33027788  0.38826900  1.0
  C  C62  1  0.09822334  0.59841510  0.59814916  1.0
  C  C63  1  0.15184296  0.65154269  0.65185730  1.0
  C  C64  1  0.14089802  0.64095079  0.58249147  1.0
  C  C65  1  0.10913292  0.60903303  0.66752197  1.0
  C  C66  1  0.16756251  0.66739961  0.60921701  1.0
  C  C67  1  0.08247587  0.58257760  0.64078525  1.0
  C  C68  1  0.30489398  0.45435460  0.40070675  1.0
  C  C69  1  0.44495270  0.29567561  0.34928108  1.0
  C  C70  1  0.25847221  0.41581960  0.41388765  1.0
  C  C71  1  0.49138066  0.33421762  0.33612423  1.0
  C  C72  1  0.37694395  0.33942752  0.37279243  1.0
  C  C73  1  0.37283959  0.41065008  0.37714759  1.0
  C  C74  1  0.72558165  0.57608615  0.62975111  1.0
  C  C75  1  0.52430640  0.67393040  0.62029111  1.0
  C  C76  1  0.74247318  0.58539027  0.58722047  1.0
  C  C77  1  0.50743014  0.66470604  0.66282789  1.0
  C  C78  1  0.60378357  0.64167920  0.60819341  1.0
  C  C79  1  0.64609024  0.60834540  0.64184347  1.0
  C  C80  1  0.07623110  0.22532140  0.62959513  1.0
  C  C81  1  0.17379291  0.02451804  0.62041084  1.0
  C  C82  1  0.08555913  0.24228446  0.58705771  1.0
  C  C83  1  0.16456506  0.00756673  0.66296282  1.0
  C  C84  1  0.14163114  0.10385815  0.60821696  1.0
  C  C85  1  0.10839743  0.14598043  0.64178650  1.0
  C  C86  1  0.84322359  0.80127813  0.39707196  1.0
  C  C87  1  0.90652139  0.94861401  0.35284191  1.0
  C  C88  1  0.91158641  0.75837986  0.41373932  1.0
  C  C89  1  0.83806665  0.99153351  0.33624093  1.0
  C  C90  1  0.90852391  0.87922592  0.37500164  1.0
  C  C91  1  0.84133746  0.87059432  0.37486762  1.0
  C  C92  1  0.65204335  0.15151253  0.15179815  1.0
  C  C93  1  0.59804911  0.09842448  0.09821494  1.0
  C  C94  1  0.66759208  0.16735101  0.10914567  1.0
  C  C95  1  0.58246561  0.08260619  0.14086538  1.0
  C  C96  1  0.64076446  0.14091180  0.08249247  1.0
  C  C97  1  0.60928237  0.10906226  0.16752480  1.0
  C  C98  1  0.67379661  0.52456100  0.12028343  1.0
  C  C99  1  0.57621815  0.72528217  0.12973989  1.0
  C  C100  1  0.66473592  0.50740386  0.16282000  1.0
  C  C101  1  0.58536138  0.74245638  0.08721382  1.0
  C  C102  1  0.60845715  0.64590354  0.14183039  1.0
  C  C103  1  0.64158609  0.60394014  0.10819190  1.0
  C  C104  1  0.08179825  0.12384868  0.17770636  1.0
  C  C105  1  0.16840156  0.12603510  0.07236046  1.0
  C  C106  1  0.00957744  0.16292784  0.16486400  1.0
  C  C107  1  0.24061203  0.08700297  0.08521650  1.0
  C  C108  1  0.11045979  0.13939884  0.10603353  1.0
  C  C109  1  0.13971237  0.11026538  0.14402396  1.0
  C  C110  1  0.34824284  0.84844395  0.84807876  1.0
  C  C111  1  0.40225243  0.90137067  0.90173217  1.0
  C  C112  1  0.30355785  0.91993949  0.86159055  1.0
  C  C113  1  0.44688204  0.82983266  0.88828106  1.0
  C  C114  1  0.33042935  0.94626827  0.88827503  1.0
  C  C115  1  0.42000429  0.80351277  0.86158729  1.0
  C  C116  1  0.40670008  0.44867425  0.85288828  1.0
  C  C117  1  0.34335380  0.30137453  0.89712411  1.0
  C  C118  1  0.33832812  0.49159750  0.83621977  1.0
  C  C119  1  0.41177942  0.25846802  0.91374692  1.0
  C  C120  1  0.34142091  0.37072356  0.87492965  1.0
  C  C121  1  0.40860620  0.37934679  0.87507309  1.0
  C  C122  1  0.94492413  0.79567659  0.84928808  1.0
  C  C123  1  0.80486199  0.95435494  0.90071329  1.0
  C  C124  1  0.99133788  0.83423292  0.83611531  1.0
  C  C125  1  0.75843286  0.91583042  0.91387316  1.0
  C  C126  1  0.87281842  0.91064071  0.87715912  1.0
  C  C127  1  0.87692391  0.83941662  0.87280760  1.0
  S  S128  1  0.29808482  0.32594180  0.39741288  1.0
  S  S129  1  0.45171916  0.42412964  0.35255259  1.0
  S  S130  1  0.66093547  0.63367171  0.56198452  1.0
  S  S131  1  0.58896788  0.61640864  0.68805838  1.0
  S  S132  1  0.13368524  0.16101571  0.56195476  1.0
  S  S133  1  0.11644125  0.08884183  0.68805613  1.0
  S  S134  1  0.97372425  0.80289373  0.40215200  1.0
  S  S135  1  0.77606467  0.94690106  0.34776834  1.0
  S  S136  1  0.61661245  0.58855232  0.18803621  1.0
  S  S137  1  0.63348715  0.66130547  0.06199223  1.0
  S  S138  1  0.01258123  0.18313515  0.11147400  1.0
  S  S139  1  0.23759588  0.06665433  0.13859927  1.0
  S  S140  1  0.27621256  0.44705795  0.84779130  1.0
  S  S141  1  0.47383618  0.30303903  0.90220650  1.0
  S  S142  1  0.95168660  0.92413072  0.85256181  1.0
  S  S143  1  0.79805455  0.82594041  0.89741852  1.0
  Br  Br144  1  0.28551135  0.55190029  0.41111250  1.0
  Br  Br145  1  0.46451970  0.19802895  0.33896953  1.0
  Br  Br146  1  0.79484701  0.52786057  0.66893953  1.0
  Br  Br147  1  0.45504005  0.72201504  0.58109778  1.0
  Br  Br148  1  0.02812737  0.29432903  0.66866850  1.0
  Br  Br149  1  0.22171068  0.95552748  0.58132363  1.0
  Br  Br150  1  0.76044502  0.77574385  0.40154088  1.0
  Br  Br151  1  0.98936639  0.97411640  0.34826196  1.0
  Br  Br152  1  0.72151252  0.45567236  0.08114608  1.0
  Br  Br153  1  0.52828868  0.79418881  0.16886300  1.0
  Br  Br154  1  0.10583706  0.09072566  0.23195149  1.0
  Br  Br155  1  0.14442036  0.15960521  0.01811969  1.0
  Br  Br156  1  0.48951461  0.47414714  0.84841286  1.0
  Br  Br157  1  0.26054604  0.27582925  0.90164656  1.0
  Br  Br158  1  0.96450365  0.69802310  0.83898251  1.0
  Br  Br159  1  0.78548818  0.05188675  0.91113430  1.0
  O  O160  1  0.00053919  0.49939722  0.49944992  1.0
  O  O161  1  0.07869740  0.31452693  0.52252396  1.0
  O  O162  1  0.03147471  0.53119443  0.58581133  1.0
  O  O163  1  0.15467720  0.50537543  0.45039636  1.0
  O  O164  1  0.02621819  0.37533720  0.58001246  1.0
  O  O165  1  0.15450153  0.39091516  0.44643870  1.0
  O  O166  1  0.08500843  0.58676505  0.53099805  1.0
  O  O167  1  0.00441046  0.65824859  0.44988630  1.0
  O  O168  1  0.88657688  0.49536151  0.44192926  1.0
  O  O169  1  0.89204936  0.65158840  0.44756042  1.0
  O  O170  1  0.99642477  0.38678475  0.44162227  1.0
  O  O171  1  0.87593848  0.52588834  0.58017152  1.0
  O  O172  1  0.81437447  0.57753244  0.52269873  1.0
  O  O173  1  0.74886888  0.25110518  0.24998944  1.0
  O  O174  1  0.59539402  0.35909373  0.30359503  1.0
  O  O175  1  0.66520600  0.16317352  0.21889225  1.0
  O  O176  1  0.72515959  0.37426087  0.16990639  1.0
  O  O177  1  0.59526434  0.24458892  0.29970381  1.0
  O  O178  1  0.67180895  0.43530797  0.22730592  1.0
  O  O179  1  0.71982841  0.21784004  0.16413691  1.0
  O  O180  1  0.87685641  0.22343511  0.16854167  1.0
  O  O181  1  0.86265479  0.25462419  0.30868224  1.0
  O  O182  1  0.93224671  0.17376368  0.22806831  1.0
  O  O183  1  0.75321444  0.36352562  0.30837733  1.0
  O  O184  1  0.74529916  0.09182148  0.30001668  1.0
  O  O185  1  0.85712457  0.09884877  0.30315436  1.0
  O  O186  1  0.24938622  0.75063856  0.75059954  1.0
  O  O187  1  0.37399796  0.72420991  0.66984547  1.0
  O  O188  1  0.36337324  0.75474554  0.80808199  1.0
  O  O189  1  0.17170329  0.93534131  0.72749627  1.0
  O  O190  1  0.43551108  0.67269987  0.72733911  1.0
  O  O191  1  0.22388354  0.87454658  0.66998085  1.0
  O  O192  1  0.25352930  0.86332364  0.80840039  1.0
  O  O193  1  0.09534589  0.85911716  0.80359528  1.0
  O  O194  1  0.16514395  0.66316007  0.71899187  1.0
  O  O195  1  0.09514179  0.74468552  0.79960880  1.0
  O  O196  1  0.21860422  0.71875527  0.66416316  1.0
  O  O197  1  0.35782495  0.59845805  0.80249141  1.0
  O  O198  1  0.24556041  0.59170850  0.80003133  1.0
  O  O199  1  0.50113326  0.99887243  0.00001459  1.0
  O  O200  1  0.50460379  0.15814620  0.94991805  1.0
  O  O201  1  0.38730855  0.99551341  0.94127808  1.0
  O  O202  1  0.65445596  0.89092250  0.94641147  1.0
  O  O203  1  0.39265185  0.15124753  0.94695599  1.0
  O  O204  1  0.65456031  0.00544487  0.95029933  1.0
  O  O205  1  0.49670429  0.88655813  0.94166383  1.0
  O  O206  1  0.57852875  0.81454083  0.02272084  1.0
  O  O207  1  0.53022135  0.03215271  0.08584653  1.0
  O  O208  1  0.52507617  0.87563583  0.08009468  1.0
  O  O209  1  0.58501017  0.08668879  0.03110661  1.0
  O  O210  1  0.31788650  0.07622797  0.02201205  1.0
  O  O211  1  0.37333377  0.02658297  0.08152305  1.0
