# generated using pymatgen
data_Zn6H48C63O29
_symmetry_space_group_name_H-M   'P 1'
_cell_length_a   18.55722728
_cell_length_b   18.58929192
_cell_length_c   18.69999105
_cell_angle_alpha   109.58896615
_cell_angle_beta   109.19681271
_cell_angle_gamma   109.17232798
_symmetry_Int_Tables_number   1
_chemical_formula_structural   Zn6H48C63O29
_chemical_formula_sum   'Zn6 H48 C63 O29'
_cell_volume   4993.53234027
_cell_formula_units_Z   1
loop_
 _symmetry_equiv_pos_site_id
 _symmetry_equiv_pos_as_xyz
  1  'x, y, z'
loop_
 _atom_site_type_symbol
 _atom_site_label
 _atom_site_symmetry_multiplicity
 _atom_site_fract_x
 _atom_site_fract_y
 _atom_site_fract_z
 _atom_site_occupancy
  Zn  Zn0  1  0.93725171  0.93554008  0.50168414  1.0
  Zn  Zn1  1  0.06249656  0.06187894  0.50356178  1.0
  Zn  Zn2  1  0.06347478  0.49710599  0.05904139  1.0
  Zn  Zn3  1  0.93761161  0.50395721  0.94200775  1.0
  Zn  Zn4  1  0.49939287  0.93509334  0.93412930  1.0
  Zn  Zn5  1  0.50714999  0.06429634  0.06310726  1.0
  H  H6  1  0.98296250  0.10269599  0.76211316  1.0
  H  H7  1  0.74163774  0.89127837  0.27441508  1.0
  H  H8  1  0.14781262  0.73104550  0.30755736  1.0
  H  H9  1  0.87509672  0.61999290  0.12897499  1.0
  H  H10  1  0.86373458  0.72498550  0.24493477  1.0
  H  H11  1  0.27021678  0.90617952  0.76472344  1.0
  H  H12  1  0.14190564  0.78434437  0.02053523  1.0
  H  H13  1  0.27136788  0.89355710  0.02799487  1.0
  H  H14  1  0.32635013  0.68973883  0.91467882  1.0
  H  H15  1  0.70596671  0.23882747  0.82425249  1.0
  H  H16  1  0.75588497  0.21851361  0.09232137  1.0
  H  H17  1  0.86848097  0.34419938  0.09868422  1.0
  H  H18  1  0.91957243  0.29978847  0.52023094  1.0
  H  H19  1  0.99249269  0.44397647  0.65749752  1.0
  H  H20  1  0.03017892  0.44902997  0.79862113  1.0
  H  H21  1  0.01907945  0.23519967  0.89286299  1.0
  H  H22  1  0.92133746  0.15147640  0.34418723  1.0
  H  H23  1  0.79742351  0.15596122  0.24209853  1.0
  H  H24  1  0.23037446  0.79002910  0.46252948  1.0
  H  H25  1  0.27050166  0.85832292  0.42152511  1.0
  H  H26  1  0.29733319  0.90523533  0.53263043  1.0
  H  H27  1  0.18066293  0.92964115  0.44764747  1.0
  H  H28  1  0.14754183  0.87065506  0.49702786  1.0
  H  H29  1  0.20509463  0.26495610  0.79737007  1.0
  H  H30  1  0.21339725  0.21957705  0.86911559  1.0
  H  H31  1  0.13831655  0.15027201  0.75405973  1.0
  H  H32  1  0.51549624  0.19785754  0.93309840  1.0
  H  H33  1  0.47952279  0.24560588  0.87074066  1.0
  H  H34  1  0.54072018  0.30871519  0.98670414  1.0
  H  H35  1  0.38190366  0.26171572  0.93488966  1.0
  H  H36  1  0.41568545  0.21146261  0.99513657  1.0
  H  H37  1  0.04399413  0.83501530  0.64050317  1.0
  H  H38  1  0.12225727  0.79849622  0.67003023  1.0
  H  H39  1  0.05189640  0.75971269  0.55730263  1.0
  H  H40  1  0.77179597  0.15517614  0.45761474  1.0
  H  H41  1  0.77208464  0.10136940  0.52173765  1.0
  H  H42  1  0.76348217  0.04883337  0.41682287  1.0
  H  H43  1  0.23991345  0.53767657  0.82149207  1.0
  H  H44  1  0.21343534  0.46196421  0.86036850  1.0
  H  H45  1  0.31223764  0.56656225  0.93067096  1.0
  H  H46  1  0.65621403  0.04607912  0.73129602  1.0
  H  H47  1  0.61905155  0.98579272  0.78035233  1.0
  H  H48  1  0.54412240  0.96418996  0.67709232  1.0
  H  H49  1  0.52301480  0.05315418  0.79404313  1.0
  H  H50  1  0.56155696  0.11466684  0.74731496  1.0
  H  H51  1  0.53823554  0.93546832  0.20929768  1.0
  H  H52  1  0.57849489  0.88039667  0.26123171  1.0
  H  H53  1  0.48570220  0.81786958  0.15292595  1.0
  C  C54  1  0.90932627  0.01892417  0.38068803  1.0
  C  C55  1  0.96246548  0.23167833  0.67069698  1.0
  C  C56  1  0.96267021  0.15780293  0.67834599  1.0
  C  C57  1  0.98294034  0.15955183  0.75727281  1.0
  C  C58  1  0.00595999  0.23504509  0.83151535  1.0
  C  C59  1  0.01154312  0.30961102  0.82759669  1.0
  C  C60  1  0.85515972  0.09545187  0.30544062  1.0
  C  C61  1  0.78595757  0.09775075  0.24885273  1.0
  C  C62  1  0.70112077  0.02514344  0.19918390  1.0
  C  C63  1  0.68563784  0.95001697  0.20797039  1.0
  C  C64  1  0.75426189  0.94869272  0.26624396  1.0
  C  C65  1  0.96039269  0.08658838  0.60802079  1.0
  C  C66  1  0.83919928  0.02096495  0.31475808  1.0
  C  C67  1  0.08350623  0.79555044  0.35807983  1.0
  C  C68  1  0.08654915  0.73197556  0.29460039  1.0
  C  C69  1  0.01264022  0.67031205  0.21221720  1.0
  C  C70  1  0.93207656  0.66794842  0.19339061  1.0
  C  C71  1  0.92623478  0.72685175  0.25757448  1.0
  C  C72  1  0.00128314  0.79140876  0.33821350  1.0
  C  C73  1  0.27049318  0.12038313  0.78505023  1.0
  C  C74  1  0.33310204  0.12512782  0.85689191  1.0
  C  C75  1  0.33007993  0.04547626  0.84786008  1.0
  C  C76  1  0.13904116  0.03421757  0.63180261  1.0
  C  C77  1  0.26824650  0.96564559  0.77041821  1.0
  C  C78  1  0.20716630  0.96264692  0.70074961  1.0
  C  C79  1  0.20747313  0.04028798  0.70730651  1.0
  C  C80  1  0.09475270  0.61513075  0.97501733  1.0
  C  C81  1  0.02367820  0.38299838  0.90390182  1.0
  C  C82  1  0.85931323  0.37552803  0.96775638  1.0
  C  C83  1  0.01890301  0.60886608  0.14214565  1.0
  C  C84  1  0.38204168  0.86314076  0.97666200  1.0
  C  C85  1  0.62770697  0.02438594  0.13352767  1.0
  C  C86  1  0.60990440  0.08443717  0.95850105  1.0
  C  C87  1  0.99262267  0.85947136  0.40006709  1.0
  C  C88  1  0.39297197  0.03872190  0.91626227  1.0
  C  C89  1  0.18311474  0.76418629  0.99837853  1.0
  C  C90  1  0.25470458  0.82495803  0.00226367  1.0
  C  C91  1  0.30590913  0.79731921  0.97228042  1.0
  C  C92  1  0.28608386  0.70933309  0.93875404  1.0
  C  C93  1  0.21648333  0.64947728  0.93848279  1.0
  C  C94  1  0.16458680  0.67727192  0.96856733  1.0
  C  C95  1  0.71750281  0.23230516  0.88228606  1.0
  C  C96  1  0.65735876  0.15754417  0.87568235  1.0
  C  C97  1  0.67287366  0.15431810  0.95329846  1.0
  C  C98  1  0.93132992  0.22888376  0.58859150  1.0
  C  C99  1  0.74748120  0.22226575  0.03340926  1.0
  C  C100  1  0.80897760  0.29262710  0.03746032  1.0
  C  C101  1  0.79293506  0.29854261  0.96150757  1.0
  C  C102  1  0.94276783  0.30402587  0.58396390  1.0
  C  C103  1  0.98214444  0.38433113  0.66111150  1.0
  C  C104  1  0.00409655  0.38756291  0.74054321  1.0
  C  C105  1  0.99296626  0.31115226  0.74732230  1.0
  C  C106  1  0.16431226  0.86591672  0.44503752  1.0
  C  C107  1  0.24477641  0.85381237  0.46603186  1.0
  C  C108  1  0.20307075  0.20798352  0.80379747  1.0
  C  C109  1  0.40408417  0.21380416  0.93480738  1.0
  C  C110  1  0.48990526  0.24313418  0.93103718  1.0
  C  C111  1  0.08889868  0.81599722  0.62353673  1.0
  C  C112  1  0.79272664  0.11180085  0.47547923  1.0
  C  C113  1  0.24329736  0.53145373  0.87890467  1.0
  C  C114  1  0.57998009  0.08523476  0.78751688  1.0
  C  C115  1  0.60114350  0.01615339  0.74122909  1.0
  C  C116  1  0.54874349  0.87857442  0.19850360  1.0
  O  O117  1  0.88433264  0.96178424  0.40294597  1.0
  O  O118  1  0.01450631  0.59268487  0.92714408  1.0
  O  O119  1  0.07679693  0.40530930  0.98222026  1.0
  O  O120  1  0.97603313  0.41700898  0.88574474  1.0
  O  O121  1  0.93844204  0.40787138  0.02490496  1.0
  O  O122  1  0.83326368  0.40450471  0.91624654  1.0
  O  O123  1  0.07598943  0.58409874  0.16399284  1.0
  O  O124  1  0.96639059  0.58516941  0.06416224  1.0
  O  O125  1  0.40895512  0.83514902  0.92323321  1.0
  O  O126  1  0.41531826  0.94312771  0.03276600  1.0
  O  O127  1  0.59646950  0.96986423  0.05433429  1.0
  O  O128  1  0.99006667  0.07487401  0.41164714  1.0
  O  O129  1  0.60233236  0.07915780  0.16227766  1.0
  O  O130  1  0.57770972  0.00277438  0.90416262  1.0
  O  O131  1  0.59309244  0.11184191  0.01966073  1.0
  O  O132  1  0.41092904  0.97807493  0.88886202  1.0
  O  O133  1  0.42432027  0.09161724  0.99790045  1.0
  O  O134  1  0.90755247  0.00562802  0.57953088  1.0
  O  O135  1  0.01842706  0.11300073  0.58721970  1.0
  O  O136  1  0.05997197  0.98056875  0.60444345  1.0
  O  O137  1  0.16462237  0.08279002  0.60015001  1.0
  O  O138  1  0.93491628  0.83312295  0.42288660  1.0
  O  O139  1  0.04139638  0.93884056  0.42415167  1.0
  O  O140  1  0.12113406  0.59043118  0.02897811  1.0
  O  O141  1  0.27205269  0.19708768  0.79145054  1.0
  O  O142  1  0.15044532  0.88575413  0.62208482  1.0
  O  O143  1  0.88635383  0.14857345  0.51298187  1.0
  O  O144  1  0.19283625  0.56320760  0.90959227  1.0
  O  O145  1  0.60294989  0.87722919  0.15857616  1.0
