# generated using pymatgen
data_Zn8H47C77Cl19O26
_symmetry_space_group_name_H-M   'P 1'
_cell_length_a   17.90318521
_cell_length_b   18.34399580
_cell_length_c   18.35983543
_cell_angle_alpha   61.96212699
_cell_angle_beta   61.08332236
_cell_angle_gamma   61.53834505
_symmetry_Int_Tables_number   1
_chemical_formula_structural   Zn8H47C77Cl19O26
_chemical_formula_sum   'Zn8 H47 C77 Cl19 O26'
_cell_volume   4409.32522557
_cell_formula_units_Z   1
loop_
 _symmetry_equiv_pos_site_id
 _symmetry_equiv_pos_as_xyz
  1  'x, y, z'
loop_
 _atom_site_type_symbol
 _atom_site_label
 _atom_site_symmetry_multiplicity
 _atom_site_fract_x
 _atom_site_fract_y
 _atom_site_fract_z
 _atom_site_occupancy
  Zn  Zn0  1  0.86899074  0.53955189  0.54106461  1.0
  Zn  Zn1  1  0.04730920  0.54529664  0.54132005  1.0
  Zn  Zn2  1  0.04125475  0.54210128  0.37113157  1.0
  Zn  Zn3  1  0.04965746  0.37070831  0.54015236  1.0
  Zn  Zn4  1  0.63590041  0.95443639  0.95742078  1.0
  Zn  Zn5  1  0.45672455  0.96318394  0.12457734  1.0
  Zn  Zn6  1  0.45482290  0.96071264  0.95136142  1.0
  Zn  Zn7  1  0.46371279  0.12922659  0.95770767  1.0
  H  H8  1  0.03756413  0.26404989  0.31607781  1.0
  H  H9  1  0.85053542  0.83272144  0.34354241  1.0
  H  H10  1  0.83330162  0.89625328  0.24071249  1.0
  H  H11  1  0.62642881  0.79901242  0.47206259  1.0
  H  H12  1  0.73148577  0.77989256  0.47526349  1.0
  H  H13  1  0.65082139  0.88660296  0.46420362  1.0
  H  H14  1  0.48538965  0.24254409  0.15102225  1.0
  H  H15  1  0.46997100  0.18260728  0.26301093  1.0
  H  H16  1  0.48849676  0.13277119  0.19045679  1.0
  H  H17  1  0.13314751  0.11060880  0.31651841  1.0
  H  H18  1  0.07622731  0.13629767  0.24557109  1.0
  H  H19  1  0.70286987  0.78103712  0.61996813  1.0
  H  H20  1  0.19551651  0.08325120  0.21773243  1.0
  H  H21  1  0.31206852  0.45366708  0.62576590  1.0
  H  H22  1  0.39017574  0.38506470  0.56050833  1.0
  H  H23  1  0.27930985  0.44490517  0.55428651  1.0
  H  H24  1  0.09548617  0.20637651  0.95185943  1.0
  H  H25  1  0.07604116  0.10626458  0.98677788  1.0
  H  H26  1  0.17404200  0.10549750  0.99096694  1.0
  H  H27  1  0.04081201  0.74987788  0.25809572  1.0
  H  H28  1  0.02986531  0.86265891  0.20980731  1.0
  H  H29  1  0.09826240  0.79188719  0.14549353  1.0
  H  H30  1  0.83530026  0.36563161  0.76502622  1.0
  H  H31  1  0.19411772  0.88209345  0.04805524  1.0
  H  H32  1  0.11094926  0.94576780  0.11718414  1.0
  H  H33  1  0.22164513  0.95400336  0.06158115  1.0
  H  H34  1  0.94392623  0.20219742  0.39802507  1.0
  H  H35  1  0.84584426  0.20650641  0.39248243  1.0
  H  H36  1  0.86028718  0.30432342  0.37401276  1.0
  H  H37  1  0.74871723  0.60765437  0.94612559  1.0
  H  H38  1  0.82576169  0.59395203  0.99035313  1.0
  H  H39  1  0.72630491  0.68700651  0.99057862  1.0
  H  H40  1  0.68204879  0.14683125  0.95941419  1.0
  H  H41  1  0.72564565  0.37193913  0.84273368  1.0
  H  H42  1  0.70410412  0.23768341  0.94531944  1.0
  H  H43  1  0.60313020  0.25255941  0.93657901  1.0
  H  H44  1  0.90043727  0.53839125  0.28450190  1.0
  H  H45  1  0.80690033  0.52819646  0.28452364  1.0
  H  H46  1  0.88706857  0.56630236  0.18454255  1.0
  H  H47  1  0.79972356  0.67373157  0.08586644  1.0
  H  H48  1  0.73373839  0.61195193  0.18070705  1.0
  H  H49  1  0.68077434  0.71818587  0.12038773  1.0
  H  H50  1  0.81899301  0.27849273  0.86300451  1.0
  H  H51  1  0.53518508  0.87152844  0.39391767  1.0
  H  H52  1  0.53281200  0.97700576  0.37620271  1.0
  H  H53  1  0.51199360  0.95907641  0.30090883  1.0
  H  H54  1  0.77637796  0.94246654  0.32741002  1.0
  C  C55  1  0.15499263  0.37343602  0.62340573  1.0
  C  C56  1  0.79918716  0.69343657  0.30794696  1.0
  C  C57  1  0.79606947  0.66156649  0.25320469  1.0
  C  C58  1  0.85787625  0.63698716  0.36376270  1.0
  C  C59  1  0.74131951  0.71569612  0.19934104  1.0
  C  C60  1  0.68897896  0.80253835  0.19952069  1.0
  C  C61  1  0.69108867  0.83066797  0.25671504  1.0
  C  C62  1  0.65170637  0.90656579  0.29103668  1.0
  C  C63  1  0.72201630  0.84903647  0.34542212  1.0
  C  C64  1  0.16923056  0.28617904  0.25886105  1.0
  C  C65  1  0.19963119  0.31123498  0.29748837  1.0
  C  C66  1  0.73352667  0.15568649  0.65491383  1.0
  C  C67  1  0.29361577  0.27983747  0.27853800  1.0
  C  C68  1  0.35492376  0.22482165  0.22548595  1.0
  C  C69  1  0.31988931  0.19852611  0.19097865  1.0
  C  C70  1  0.85960261  0.64323138  0.62827811  1.0
  C  C71  1  0.22738813  0.22973370  0.20937865  1.0
  C  C72  1  0.15253777  0.22075540  0.20035298  1.0
  C  C73  1  0.08567736  0.28985319  0.25382429  1.0
  C  C74  1  0.19549877  0.24123008  0.74491993  1.0
  C  C75  1  0.21395385  0.31630050  0.67909463  1.0
  C  C76  1  0.28794841  0.33291847  0.67004985  1.0
  C  C77  1  0.74562986  0.19810776  0.69508457  1.0
  C  C78  1  0.33653112  0.27471611  0.72954820  1.0
  C  C79  1  0.31459371  0.20142647  0.79850116  1.0
  C  C80  1  0.24281395  0.18662271  0.80298309  1.0
  C  C81  1  0.18084682  0.13151788  0.86140707  1.0
  C  C82  1  0.13704432  0.36648884  0.35685983  1.0
  C  C83  1  0.12842729  0.19287961  0.78954306  1.0
  C  C84  1  0.24996120  0.70716835  0.32004218  1.0
  C  C85  1  0.17861039  0.71249727  0.30406675  1.0
  C  C86  1  0.15708073  0.78058322  0.23047017  1.0
  C  C87  1  0.21015027  0.83742252  0.17295542  1.0
  C  C88  1  0.79862642  0.25664963  0.63947709  1.0
  C  C89  1  0.28514813  0.82700298  0.18849455  1.0
  C  C90  1  0.30098233  0.76246566  0.26480536  1.0
  C  C91  1  0.36650690  0.71806597  0.31418456  1.0
  C  C92  1  0.30715255  0.65032179  0.37830079  1.0
  C  C93  1  0.82917909  0.69603337  0.74728059  1.0
  C  C94  1  0.13141586  0.64577121  0.36184276  1.0
  C  C95  1  0.80459979  0.70376284  0.68195505  1.0
  C  C96  1  0.72494673  0.77079730  0.67088056  1.0
  C  C97  1  0.67260659  0.82578769  0.72369940  1.0
  C  C98  1  0.69482738  0.81425602  0.79354822  1.0
  C  C99  1  0.81114333  0.29811508  0.68013496  1.0
  C  C100  1  0.77549316  0.74781727  0.80197727  1.0
  C  C101  1  0.82936075  0.69384577  0.86471494  1.0
  C  C102  1  0.89751167  0.64006999  0.79385488  1.0
  C  C103  1  0.37797177  0.13983558  0.13504732  1.0
  C  C104  1  0.63710843  0.86605364  0.85643452  1.0
  C  C105  1  0.63493847  0.86321243  0.14008241  1.0
  C  C106  1  0.86777601  0.35762675  0.62998608  1.0
  C  C107  1  0.36392489  0.14230387  0.86288676  1.0
  C  C108  1  0.34850170  0.87858178  0.12894241  1.0
  C  C109  1  0.64851898  0.13021345  0.85158800  1.0
  C  C110  1  0.77387174  0.28460170  0.77003337  1.0
  C  C111  1  0.83498112  0.26861518  0.54735874  1.0
  C  C112  1  0.82635510  0.22404885  0.50947710  1.0
  C  C113  1  0.77476486  0.16660548  0.56572630  1.0
  C  C114  1  0.78946615  0.32768820  0.81171465  1.0
  C  C115  1  0.55177466  0.93033554  0.34385711  1.0
  C  C116  1  0.80013907  0.88241537  0.31177268  1.0
  C  C117  1  0.67953471  0.82772550  0.44490409  1.0
  C  C118  1  0.45473215  0.19378128  0.20677903  1.0
  C  C119  1  0.13833519  0.13221329  0.24780679  1.0
  C  C120  1  0.31843084  0.40811660  0.59847296  1.0
  C  C121  1  0.72056996  0.22830665  0.82423482  1.0
  C  C122  1  0.12792786  0.13786416  0.95354245  1.0
  C  C123  1  0.07729543  0.79632429  0.21075138  1.0
  C  C124  1  0.18319249  0.90886226  0.09623208  1.0
  C  C125  1  0.87064912  0.23527359  0.41317785  1.0
  C  C126  1  0.77949270  0.64198037  0.95361806  1.0
  C  C127  1  0.67569492  0.21564585  0.92136549  1.0
  C  C128  1  0.85040088  0.56917794  0.25191014  1.0
  C  C129  1  0.73838889  0.67811404  0.14385457  1.0
  C  C130  1  0.70805560  0.18614847  0.78681601  1.0
  C  C131  1  0.74574737  0.77855186  0.30827883  1.0
  Cl  Cl132  1  0.33572389  0.31277840  0.32151171  1.0
  Cl  Cl133  1  0.36346397  0.77925826  0.36714667  1.0
  Cl  Cl134  1  0.36536485  0.54213289  0.37168443  1.0
  Cl  Cl135  1  0.25497633  0.64664498  0.48921434  1.0
  Cl  Cl136  1  0.57995733  0.90990322  0.69854100  1.0
  Cl  Cl137  1  0.87876581  0.74842789  0.87904282  1.0
  Cl  Cl138  1  0.00414664  0.65549385  0.73347609  1.0
  Cl  Cl139  1  0.91303469  0.52589524  0.83644740  1.0
  Cl  Cl140  1  0.76199098  0.10980538  0.52176725  1.0
  Cl  Cl141  1  0.66700622  0.08932579  0.71453186  1.0
  Cl  Cl142  1  0.67276850  0.00633014  0.20598570  1.0
  Cl  Cl143  1  0.15653007  0.25729109  0.08947200  1.0
  Cl  Cl144  1  0.02152654  0.39273983  0.19965848  1.0
  Cl  Cl145  1  0.89337510  0.34271626  0.47427226  1.0
  Cl  Cl146  1  0.42927830  0.29423653  0.71428206  1.0
  Cl  Cl147  1  0.23255470  0.01921689  0.86591387  1.0
  Cl  Cl148  1  0.13106810  0.13897165  0.72973424  1.0
  Cl  Cl149  1  0.01404865  0.25767655  0.83235496  1.0
  Cl  Cl150  1  0.48029205  0.67098441  0.25388077  1.0
  O  O151  1  0.00165387  0.49897603  0.49929108  1.0
  O  O152  1  0.39213086  0.06142799  0.87172192  1.0
  O  O153  1  0.37743836  0.89611162  0.16796180  1.0
  O  O154  1  0.13262492  0.33265597  0.60113327  1.0
  O  O155  1  0.56432172  0.17129450  0.86855674  1.0
  O  O156  1  0.37014324  0.89808152  0.04648650  1.0
  O  O157  1  0.68635365  0.05090141  0.88942745  1.0
  O  O158  1  0.67627320  0.87352234  0.05838565  1.0
  O  O159  1  0.37129205  0.17726119  0.90363105  1.0
  O  O160  1  0.37744606  0.06142711  0.17252365  1.0
  O  O161  1  0.55235228  0.88240726  0.88295256  1.0
  O  O162  1  0.81861491  0.62988561  0.59728770  1.0
  O  O163  1  0.81858396  0.60514032  0.44493673  1.0
  O  O164  1  0.94279637  0.60960184  0.61989055  1.0
  O  O165  1  0.10485734  0.44745105  0.31949692  1.0
  O  O166  1  0.10599674  0.63081175  0.44394821  1.0
  O  O167  1  0.95198648  0.32061525  0.61725004  1.0
  O  O168  1  0.12278093  0.60890419  0.32378898  1.0
  O  O169  1  0.82495633  0.43931270  0.61199482  1.0
  O  O170  1  0.12142015  0.32662033  0.43830106  1.0
  O  O171  1  0.13044038  0.45583673  0.60538766  1.0
  O  O172  1  0.94216310  0.62593062  0.32521603  1.0
  O  O173  1  0.50302446  0.00106952  0.99636619  1.0
  O  O174  1  0.41958205  0.17384083  0.05525819  1.0
  O  O175  1  0.67955112  0.88675946  0.87886643  1.0
  O  O176  1  0.55171143  0.90066153  0.17639805  1.0
