# generated using pymatgen
data_ZnH18C29SN2O15
_symmetry_space_group_name_H-M   'P 1'
_cell_length_a   14.46081122
_cell_length_b   15.73476769
_cell_length_c   23.86111719
_cell_angle_alpha   90.11902551
_cell_angle_beta   90.16257841
_cell_angle_gamma   91.57694381
_symmetry_Int_Tables_number   1
_chemical_formula_structural   ZnH18C29SN2O15
_chemical_formula_sum   'Zn2 H36 C58 S2 N4 O30'
_cell_volume   5427.20837078
_cell_formula_units_Z   2
loop_
 _symmetry_equiv_pos_site_id
 _symmetry_equiv_pos_as_xyz
  1  'x, y, z'
loop_
 _atom_site_type_symbol
 _atom_site_label
 _atom_site_symmetry_multiplicity
 _atom_site_fract_x
 _atom_site_fract_y
 _atom_site_fract_z
 _atom_site_occupancy
  Zn  Zn0  1  0.60475285  0.50493186  0.49216432  1.0
  Zn  Zn1  1  0.40576755  0.50309613  0.48223051  1.0
  H  H2  1  0.58108587  0.70416320  0.92856980  1.0
  H  H3  1  0.32178701  0.54282520  0.67667047  1.0
  H  H4  1  0.58844078  0.42988219  0.78225759  1.0
  H  H5  1  0.58177325  0.09025363  0.58016413  1.0
  H  H6  1  0.42794047  0.07225373  0.57794295  1.0
  H  H7  1  0.57283903  0.94441645  0.59206630  1.0
  H  H8  1  0.39278600  0.92782023  0.57173939  1.0
  H  H9  1  0.35890528  0.93262430  0.50054214  1.0
  H  H10  1  0.65015635  0.93094256  0.53577431  1.0
  H  H11  1  0.59079400  0.92497363  0.43690570  1.0
  H  H12  1  0.47076979  0.91112430  0.42322656  1.0
  H  H13  1  0.57307678  0.06983998  0.42079891  1.0
  H  H14  1  0.45147301  0.05811694  0.41928829  1.0
  H  H15  1  0.93153757  0.61953957  0.56245041  1.0
  H  H16  1  0.08483855  0.57243561  0.57840809  1.0
  H  H17  1  0.59715728  0.71380631  0.03414146  1.0
  H  H18  1  0.05839664  0.36197034  0.51288635  1.0
  H  H19  1  0.91940026  0.37114504  0.55014198  1.0
  H  H20  1  0.07141393  0.42645977  0.42610486  1.0
  H  H21  1  0.92441514  0.39940843  0.45400382  1.0
  H  H22  1  0.10452940  0.63378753  0.51679293  1.0
  H  H23  1  0.94743908  0.62761840  0.48864752  1.0
  H  H24  1  0.38341773  0.33051813  0.05949761  1.0
  H  H25  1  0.36993969  0.31969338  0.95363513  1.0
  H  H26  1  0.60715204  0.42632159  0.20203078  1.0
  H  H27  1  0.43291422  0.63167264  0.31636817  1.0
  H  H28  1  0.42533559  0.63743561  0.21147292  1.0
  H  H29  1  0.32797800  0.55551094  0.78063649  1.0
  H  H30  1  0.73435354  0.39046582  0.66913909  1.0
  H  H31  1  0.25308011  0.11964160  0.45579055  1.0
  H  H32  1  0.77732648  0.07113699  0.46610892  1.0
  H  H33  1  0.31403844  0.46522504  0.59922531  1.0
  H  H34  1  0.04571315  0.40518503  0.66088340  1.0
  H  H35  1  0.06604884  0.57619033  0.32589275  1.0
  H  H36  1  0.77800664  0.47783913  0.36239764  1.0
  H  H37  1  0.73359444  0.33800177  0.31308975  1.0
  C  C38  1  0.50398133  0.65956225  0.51073661  1.0
  C  C39  1  0.55522261  0.65310872  0.95561118  1.0
  C  C40  1  0.56403906  0.65846521  0.01418618  1.0
  C  C41  1  0.53069876  0.59281933  0.04811215  1.0
  C  C42  1  0.48733917  0.51982872  0.02371540  1.0
  C  C43  1  0.45203016  0.45224364  0.05712090  1.0
  C  C44  1  0.40988880  0.38113380  0.03232437  1.0
  C  C45  1  0.40229335  0.37520639  0.97380653  1.0
  C  C46  1  0.54151743  0.59918683  0.10982933  1.0
  C  C47  1  0.45977204  0.45649670  0.11885452  1.0
  C  C48  1  0.57030966  0.47211796  0.22724850  1.0
  C  C49  1  0.52500815  0.52313085  0.38068636  1.0
  C  C50  1  0.57340284  0.46809929  0.28569451  1.0
  C  C51  1  0.52378418  0.52608288  0.31788208  1.0
  C  C52  1  0.47137155  0.58731524  0.29089436  1.0
  C  C53  1  0.46699462  0.59053010  0.23263622  1.0
  C  C54  1  0.51582882  0.53211171  0.20120731  1.0
  C  C55  1  0.38307160  0.52475208  0.75786194  1.0
  C  C56  1  0.37966790  0.51674293  0.69971573  1.0
  C  C57  1  0.45135924  0.47785035  0.67083506  1.0
  C  C58  1  0.52690467  0.44519771  0.70058711  1.0
  C  C59  1  0.53020548  0.45416785  0.75870105  1.0
  C  C60  1  0.50812816  0.34467967  0.48833972  1.0
  C  C61  1  0.45873850  0.49378949  0.78669249  1.0
  C  C62  1  0.58487377  0.95971030  0.54775625  1.0
  C  C63  1  0.41221615  0.95402564  0.53071748  1.0
  C  C64  1  0.41905275  0.05262684  0.53401896  1.0
  C  C65  1  0.59016278  0.05773460  0.53982321  1.0
  C  C66  1  0.50601324  0.25353670  0.49113150  1.0
  C  C67  1  0.50606865  0.91952475  0.51162665  1.0
  C  C68  1  0.50710273  0.08523295  0.50159387  1.0
  C  C69  1  0.51334532  0.04238649  0.44318764  1.0
  C  C70  1  0.52194731  0.94537615  0.44957228  1.0
  C  C71  1  0.50676552  0.17684758  0.49586577  1.0
  C  C72  1  0.50547316  0.82769852  0.51544261  1.0
  C  C73  1  0.45429081  0.48088597  0.60862482  1.0
  C  C74  1  0.50429533  0.75050003  0.51614961  1.0
  C  C75  1  0.06618351  0.57904929  0.53402737  1.0
  C  C76  1  0.96209989  0.58941030  0.52586749  1.0
  C  C77  1  0.05963653  0.41870002  0.53983465  1.0
  C  C78  1  0.95693820  0.43178817  0.55724587  1.0
  C  C79  1  0.09330051  0.49600981  0.50370878  1.0
  C  C80  1  0.91708004  0.49969160  0.51677323  1.0
  C  C81  1  0.93950515  0.46805452  0.45558136  1.0
  C  C82  1  0.04483867  0.48443703  0.44534389  1.0
  C  C83  1  0.81725130  0.50320757  0.52085455  1.0
  C  C84  1  0.19163197  0.49675126  0.49240673  1.0
  C  C85  1  0.42831905  0.43264677  0.87832328  1.0
  C  C86  1  0.50542906  0.57719679  0.86871932  1.0
  C  C87  1  0.51338714  0.58193709  0.93071009  1.0
  C  C88  1  0.47893473  0.51412631  0.96431022  1.0
  C  C89  1  0.43638061  0.44064874  0.94006755  1.0
  C  C90  1  0.60054098  0.39520948  0.67189107  1.0
  C  C91  1  0.32728708  0.08973279  0.51729907  1.0
  C  C92  1  0.68319086  0.09101148  0.51871389  1.0
  C  C93  1  0.06864529  0.55588408  0.40403150  1.0
  C  C94  1  0.87710408  0.50928016  0.41226632  1.0
  C  C95  1  0.61984206  0.39490225  0.31245712  1.0
  S  S96  1  0.15027739  0.38390177  0.59011455  1.0
  S  S97  1  0.91681584  0.45378190  0.63087980  1.0
  N  N98  1  0.46385796  0.50190946  0.84690696  1.0
  N  N99  1  0.50630429  0.52939926  0.14114738  1.0
  N  N100  1  0.73759839  0.50637404  0.51721041  1.0
  N  N101  1  0.26771314  0.50080661  0.47745484  1.0
  O  O102  1  0.58263968  0.62616252  0.50405454  1.0
  O  O103  1  0.42553478  0.62044132  0.51185940  1.0
  O  O104  1  0.60207544  0.51179346  0.40512219  1.0
  O  O105  1  0.44704272  0.53343854  0.40390073  1.0
  O  O106  1  0.58730827  0.38135589  0.49362818  1.0
  O  O107  1  0.43095834  0.38086125  0.48138569  1.0
  O  O108  1  0.52761233  0.49207336  0.58319579  1.0
  O  O109  1  0.37517180  0.47586131  0.57950957  1.0
  O  O110  1  0.39331754  0.37008039  0.85489750  1.0
  O  O111  1  0.53307938  0.63416386  0.83742614  1.0
  O  O112  1  0.57905061  0.66050446  0.13337696  1.0
  O  O113  1  0.42832513  0.40066538  0.14986111  1.0
  O  O114  1  0.58357500  0.33615253  0.63996542  1.0
  O  O115  1  0.68546760  0.42204246  0.68863288  1.0
  O  O116  1  0.26831519  0.10953745  0.55077845  1.0
  O  O117  1  0.31386134  0.09452062  0.46064373  1.0
  O  O118  1  0.72533426  0.15261369  0.53770889  1.0
  O  O119  1  0.71759675  0.04387525  0.47539199  1.0
  O  O120  1  0.09832486  0.34198745  0.63657374  1.0
  O  O121  1  0.20400037  0.32717579  0.55655072  1.0
  O  O122  1  0.20057890  0.46209711  0.60909311  1.0
  O  O123  1  0.87393795  0.53542355  0.63115936  1.0
  O  O124  1  0.85983553  0.37921520  0.64414265  1.0
  O  O125  1  0.00377320  0.46016369  0.66821592  1.0
  O  O126  1  0.10028892  0.62616285  0.41540646  1.0
  O  O127  1  0.05310548  0.52784515  0.35081189  1.0
  O  O128  1  0.87621693  0.58513697  0.40220907  1.0
  O  O129  1  0.82141259  0.44989112  0.38781764  1.0
  O  O130  1  0.58340576  0.34382216  0.34416021  1.0
  O  O131  1  0.71000695  0.38916545  0.29514853  1.0
