# generated using pymatgen
data_ZnH2C10N(O2F)2
_symmetry_space_group_name_H-M   'P 1'
_cell_length_a   9.88483428
_cell_length_b   10.98579641
_cell_length_c   14.49733904
_cell_angle_alpha   89.19078232
_cell_angle_beta   89.96389839
_cell_angle_gamma   89.97925674
_symmetry_Int_Tables_number   1
_chemical_formula_structural   ZnH2C10N(O2F)2
_chemical_formula_sum   'Zn2 H4 C20 N2 O8 F4'
_cell_volume   1574.14888036
_cell_formula_units_Z   2
loop_
 _symmetry_equiv_pos_site_id
 _symmetry_equiv_pos_as_xyz
  1  'x, y, z'
loop_
 _atom_site_type_symbol
 _atom_site_label
 _atom_site_symmetry_multiplicity
 _atom_site_fract_x
 _atom_site_fract_y
 _atom_site_fract_z
 _atom_site_occupancy
  Zn  Zn0  1  0.63866515  0.49997894  0.49987922  1.0
  Zn  Zn1  1  0.36133512  0.50002071  0.50012069  1.0
  H  H2  1  0.28422601  0.11442718  0.51530925  1.0
  H  H3  1  0.71577425  0.88557247  0.48469066  1.0
  H  H4  1  0.28409134  0.88533850  0.51533479  1.0
  H  H5  1  0.71590893  0.11466115  0.48466581  1.0
  C  C6  1  0.50006011  0.26346751  0.49965329  1.0
  C  C7  1  0.50000555  0.50001185  0.04256552  1.0
  C  C8  1  0.37793711  0.06321224  0.50846695  1.0
  C  C9  1  0.62206316  0.93678649  0.49153366  1.0
  C  C10  1  0.37788402  0.93665837  0.50862030  1.0
  C  C11  1  0.62211625  0.06334127  0.49138099  1.0
  C  C12  1  0.49995713  0.87269619  0.50021915  1.0
  C  C13  1  0.50004314  0.12730345  0.49978214  1.0
  C  C14  1  0.07093056  0.57592710  0.44554326  1.0
  C  C15  1  0.92906869  0.42407345  0.55445872  1.0
  C  C16  1  0.07084078  0.42409471  0.55446775  1.0
  C  C17  1  0.49994015  0.73653214  0.50034731  1.0
  C  C18  1  0.92915948  0.57590402  0.44553424  1.0
  C  C19  1  0.49999700  0.49991528  0.68078674  1.0
  C  C20  1  0.50000225  0.50008437  0.31921317  1.0
  C  C21  1  0.50004970  0.50028618  0.78025822  1.0
  C  C22  1  0.49995057  0.49971257  0.21974101  1.0
  C  C23  1  0.50001247  0.50005738  0.86490194  1.0
  C  C24  1  0.49998881  0.49994136  0.13509798  1.0
  C  C25  1  0.49999471  0.49998780  0.95743439  1.0
  N  N26  1  0.86015492  0.49999170  0.49997594  1.0
  N  N27  1  0.13984434  0.50000794  0.50002604  1.0
  O  O28  1  0.61482490  0.31665077  0.49938571  1.0
  O  O29  1  0.38517436  0.68334979  0.50061489  1.0
  O  O30  1  0.61470608  0.68330227  0.50001435  1.0
  O  O31  1  0.38529418  0.31669738  0.49998556  1.0
  O  O32  1  0.61549969  0.49964575  0.64163210  1.0
  O  O33  1  0.38450057  0.50035481  0.35836781  1.0
  O  O34  1  0.61559410  0.50034002  0.35814542  1.0
  O  O35  1  0.38440616  0.49965963  0.64185449  1.0
  F  F36  1  0.13811312  0.65229670  0.39096084  1.0
  F  F37  1  0.86188613  0.34770474  0.60904320  1.0
  F  F38  1  0.13798724  0.34771165  0.60907479  1.0
  F  F39  1  0.86201201  0.65228709  0.39092581  1.0
