# generated using pymatgen
data_Zn4H7C13N3O13
_symmetry_space_group_name_H-M   'P 1'
_cell_length_a   10.83639390
_cell_length_b   10.88000919
_cell_length_c   10.92234888
_cell_angle_alpha   85.89590851
_cell_angle_beta   81.55040835
_cell_angle_gamma   82.24955232
_symmetry_Int_Tables_number   1
_chemical_formula_structural   Zn4H7C13N3O13
_chemical_formula_sum   'Zn4 H7 C13 N3 O13'
_cell_volume   1260.37103700
_cell_formula_units_Z   1
loop_
 _symmetry_equiv_pos_site_id
 _symmetry_equiv_pos_as_xyz
  1  'x, y, z'
loop_
 _atom_site_type_symbol
 _atom_site_label
 _atom_site_symmetry_multiplicity
 _atom_site_fract_x
 _atom_site_fract_y
 _atom_site_fract_z
 _atom_site_occupancy
  Zn  Zn0  1  0.59143864  0.37827892  0.60978710  1.0
  Zn  Zn1  1  0.61168949  0.58662040  0.38878210  1.0
  Zn  Zn2  1  0.37701743  0.61981065  0.60619794  1.0
  Zn  Zn3  1  0.40656999  0.40534395  0.41205162  1.0
  H  H4  1  0.49117255  0.99083099  0.63025424  1.0
  H  H5  1  0.97713566  0.65081292  0.51533406  1.0
  H  H6  1  0.01302105  0.36453603  0.50530947  1.0
  H  H7  1  0.48734531  0.94333851  0.25789120  1.0
  H  H8  1  0.47341322  0.09884992  0.30197795  1.0
  H  H9  1  0.30834751  0.48311142  0.12175622  1.0
  H  H10  1  0.25662793  0.50413494  0.97325635  1.0
  C  C11  1  0.53249863  0.49428176  0.17499272  1.0
  C  C12  1  0.48374932  0.03726739  0.53977568  1.0
  C  C13  1  0.47662206  0.96633623  0.44246720  1.0
  C  C14  1  0.44482371  0.49682312  0.97500146  1.0
  C  C15  1  0.66804936  0.51343314  0.97519532  1.0
  C  C16  1  0.54671774  0.49783278  0.03918901  1.0
  C  C17  1  0.02561781  0.55636889  0.50983823  1.0
  C  C18  1  0.96370795  0.45883093  0.50365849  1.0
  C  C19  1  0.46190543  0.50400667  0.83441946  1.0
  C  C20  1  0.82605169  0.47089780  0.50201718  1.0
  C  C21  1  0.16296342  0.53885162  0.51554722  1.0
  C  C22  1  0.48263496  0.82729834  0.46524992  1.0
  C  C23  1  0.49360472  0.16843562  0.52668851  1.0
  N  N24  1  0.46989732  0.00678613  0.32377385  1.0
  N  N25  1  0.32616263  0.49029506  0.02734634  1.0
  N  N26  1  0.76903492  0.52751738  0.92625939  1.0
  O  O27  1  0.49478517  0.50104833  0.50832741  1.0
  O  O28  1  0.53707840  0.76326701  0.37446039  1.0
  O  O29  1  0.47080657  0.22875424  0.42313921  1.0
  O  O30  1  0.43336684  0.78650904  0.57050600  1.0
  O  O31  1  0.52555299  0.21952600  0.61819752  1.0
  O  O32  1  0.77173951  0.37869785  0.55159504  1.0
  O  O33  1  0.22595883  0.43938772  0.47306380  1.0
  O  O34  1  0.62539958  0.51773790  0.22542082  1.0
  O  O35  1  0.37587286  0.57390689  0.78566934  1.0
  O  O36  1  0.42652656  0.46770886  0.23586533  1.0
  O  O37  1  0.55611897  0.43738530  0.78148448  1.0
  O  O38  1  0.77439322  0.56986197  0.45039312  1.0
  O  O39  1  0.20626145  0.62587873  0.56249223  1.0
