# generated using pymatgen
data_ZnH29C33NO22
_symmetry_space_group_name_H-M   'P 1'
_cell_length_a   14.48013782
_cell_length_b   15.14995933
_cell_length_c   15.81994768
_cell_angle_alpha   93.28665501
_cell_angle_beta   97.41979343
_cell_angle_gamma   93.13677107
_symmetry_Int_Tables_number   1
_chemical_formula_structural   ZnH29C33NO22
_chemical_formula_sum   'Zn2 H58 C66 N2 O44'
_cell_volume   3428.98599547
_cell_formula_units_Z   2
loop_
 _symmetry_equiv_pos_site_id
 _symmetry_equiv_pos_as_xyz
  1  'x, y, z'
loop_
 _atom_site_type_symbol
 _atom_site_label
 _atom_site_symmetry_multiplicity
 _atom_site_fract_x
 _atom_site_fract_y
 _atom_site_fract_z
 _atom_site_occupancy
  Zn  Zn0  1  0.39542558  0.49519926  0.49951266  1.0
  Zn  Zn1  1  0.60531524  0.50187236  0.50012519  1.0
  H  H2  1  0.75387374  0.58643029  0.18574089  1.0
  H  H3  1  0.72842636  0.48082000  0.22813434  1.0
  H  H4  1  0.74776213  0.57925873  0.29773360  1.0
  H  H5  1  0.28825246  0.45653744  0.79246416  1.0
  H  H6  1  0.32828130  0.44590883  0.68930508  1.0
  H  H7  1  0.27677012  0.54552781  0.72073047  1.0
  H  H8  1  0.01070506  0.49506877  0.32677295  1.0
  H  H9  1  0.89730290  0.47001093  0.26554668  1.0
  H  H10  1  0.98342599  0.38872229  0.27115023  1.0
  H  H11  1  0.01576366  0.65762224  0.35873226  1.0
  H  H12  1  0.13253642  0.70941444  0.38203384  1.0
  H  H13  1  0.03391854  0.76796125  0.40791199  1.0
  H  H14  1  0.65541410  0.27996970  0.41920443  1.0
  H  H15  1  0.28877558  0.78941307  0.54426519  1.0
  H  H16  1  0.68184917  0.71455345  0.63418751  1.0
  H  H17  1  0.23574896  0.22896654  0.51837430  1.0
  H  H18  1  0.97926255  0.54621659  0.70793212  1.0
  H  H19  1  0.87457561  0.60545473  0.70740525  1.0
  H  H20  1  0.98703970  0.66282607  0.73728434  1.0
  H  H21  1  0.99678690  0.38978766  0.63510161  1.0
  H  H22  1  0.09847407  0.32573074  0.63667381  1.0
  H  H23  1  0.98464806  0.27565945  0.59573296  1.0
  H  H24  1  0.82385357  0.42093723  0.72249545  1.0
  H  H25  1  0.23459078  0.37401170  0.30454609  1.0
  H  H26  1  0.64750055  0.20908153  0.02595800  1.0
  H  H27  1  0.63949351  0.12857466  0.93711454  1.0
  H  H28  1  0.56135168  0.11890272  0.01649740  1.0
  H  H29  1  0.32773881  0.20993342  0.00792979  1.0
  H  H30  1  0.37118328  0.12873315  0.07847420  1.0
  H  H31  1  0.41447479  0.13817565  0.97732635  1.0
  H  H32  1  0.23217600  0.45729305  0.09084050  1.0
  H  H33  1  0.17577463  0.35103860  0.05633074  1.0
  H  H34  1  0.24321089  0.40899759  0.98657922  1.0
  H  H35  1  0.71670908  0.35355459  0.00183153  1.0
  H  H36  1  0.78888473  0.39976176  0.92868303  1.0
  H  H37  1  0.79942223  0.28713579  0.95638732  1.0
  H  H38  1  0.44614234  0.57945842  0.94387596  1.0
  H  H39  1  0.37573052  0.53469943  0.01815792  1.0
  H  H40  1  0.32385983  0.55714187  0.91249856  1.0
  H  H41  1  0.63809391  0.59322556  0.07206807  1.0
  H  H42  1  0.59866642  0.53082137  0.97245897  1.0
  H  H43  1  0.71883882  0.53384870  0.01672981  1.0
  H  H44  1  0.42994428  0.03851117  0.75931666  1.0
  H  H45  1  0.32748131  0.92247605  0.24005209  1.0
  H  H46  1  0.31237799  0.23293444  0.71330201  1.0
  H  H47  1  0.30519068  0.65843307  0.29207958  1.0
  H  H48  1  0.44531496  0.30151305  0.32922691  1.0
  H  H49  1  0.45901100  0.20048732  0.26737545  1.0
  H  H50  1  0.54303398  0.29309775  0.27026147  1.0
  H  H51  1  0.56877688  0.72586674  0.74592317  1.0
  H  H52  1  0.47588681  0.69352022  0.66185338  1.0
  H  H53  1  0.48256861  0.80301419  0.71335979  1.0
  H  H54  1  0.64441315  0.98152872  0.42742213  1.0
  H  H55  1  0.67658747  0.08411901  0.38295316  1.0
  H  H56  1  0.63875754  0.98681085  0.31395198  1.0
  H  H57  1  0.71226117  0.91251567  0.61257357  1.0
  H  H58  1  0.67413051  0.91100011  0.71581219  1.0
  H  H59  1  0.71189308  0.01445221  0.67687963  1.0
  C  C60  1  0.47288133  0.33005553  0.50283486  1.0
  C  C61  1  0.49270998  0.66454608  0.49732083  1.0
  C  C62  1  0.44105627  0.09050290  0.56720979  1.0
  C  C63  1  0.43014822  0.88999396  0.42603714  1.0
  C  C64  1  0.44032348  0.18349810  0.56925716  1.0
  C  C65  1  0.43979947  0.79821937  0.42367961  1.0
  C  C66  1  0.47483292  0.23064477  0.50449407  1.0
  C  C67  1  0.49198693  0.76266993  0.49354338  1.0
  C  C68  1  0.51064807  0.18319192  0.43855859  1.0
  C  C69  1  0.53846363  0.81685185  0.56188162  1.0
  C  C70  1  0.50654694  0.09036357  0.43404273  1.0
  C  C71  1  0.53590959  0.90926320  0.56027652  1.0
  C  C72  1  0.47228319  0.04313143  0.49833151  1.0
  C  C73  1  0.47730230  0.94550448  0.49471053  1.0
  C  C74  1  0.88746620  0.46149905  0.43507407  1.0
  C  C75  1  0.10768535  0.59282564  0.49826318  1.0
  C  C76  1  0.79182286  0.45525505  0.44088493  1.0
  C  C77  1  0.20536917  0.58578934  0.51181738  1.0
  C  C78  1  0.80618186  0.57910064  0.53682922  1.0
  C  C79  1  0.18552629  0.43261898  0.50200267  1.0
  C  C80  1  0.90393529  0.57752640  0.54757017  1.0
  C  C81  1  0.09004097  0.43559130  0.50897950  1.0
  C  C82  1  0.49181587  0.50229961  0.33599869  1.0
  C  C83  1  0.54285085  0.49332275  0.66116242  1.0
  C  C84  1  0.94636902  0.51974092  0.49409782  1.0
  C  C85  1  0.04840881  0.51649822  0.50110114  1.0
  C  C86  1  0.47765869  0.49592754  0.24040312  1.0
  C  C87  1  0.54836094  0.46432852  0.75049727  1.0
  C  C88  1  0.55356968  0.50667081  0.19347655  1.0
  C  C89  1  0.47681954  0.47771868  0.80119728  1.0
  C  C90  1  0.55440600  0.45259582  0.11774341  1.0
  C  C91  1  0.47267733  0.43191158  0.87578385  1.0
  C  C92  1  0.47869770  0.39105720  0.08856441  1.0
  C  C93  1  0.53653493  0.36687812  0.89807296  1.0
  C  C94  1  0.39474708  0.39968356  0.12476141  1.0
  C  C95  1  0.61327100  0.36146986  0.85114763  1.0
  C  C96  1  0.39378759  0.45189550  0.20022430  1.0
  C  C97  1  0.61925696  0.40890458  0.77884167  1.0
  C  C98  1  0.48559160  0.31002938  0.03434988  1.0
  C  C99  1  0.52084003  0.29967829  0.95896632  1.0
  C  C100  1  0.71889985  0.55188918  0.23333584  1.0
  C  C101  1  0.31980771  0.49224560  0.74335759  1.0
  C  C102  1  0.95499621  0.44298076  0.30631897  1.0
  C  C103  1  0.06335069  0.70312279  0.40328563  1.0
  C  C104  1  0.73309171  0.37807719  0.39261276  1.0
  C  C105  1  0.26425426  0.66646069  0.55217752  1.0
  C  C106  1  0.76291486  0.66405865  0.56271131  1.0
  C  C107  1  0.21276656  0.34136348  0.47592870  1.0
  C  C108  1  0.94778759  0.60971210  0.69559926  1.0
  C  C109  1  0.02977197  0.33667098  0.60166240  1.0
  C  C110  1  0.69847065  0.38793131  0.72958591  1.0
  C  C111  1  0.30756855  0.45460676  0.24399330  1.0
  C  C112  1  0.59964364  0.16527726  0.98040700  1.0
  C  C113  1  0.38927854  0.17458653  0.03112089  1.0
  C  C114  1  0.23797793  0.39487944  0.05340545  1.0
  C  C115  1  0.75060646  0.33930154  0.94462935  1.0
  C  C116  1  0.38595583  0.53451273  0.95061077  1.0
  C  C117  1  0.64718730  0.53330051  0.03218787  1.0
  C  C118  1  0.41189078  0.03943888  0.63885696  1.0
  C  C119  1  0.36794222  0.93076305  0.35832996  1.0
  C  C120  1  0.40747303  0.23376343  0.64254542  1.0
  C  C121  1  0.40676545  0.73318301  0.34789436  1.0
  C  C122  1  0.49559574  0.25704750  0.30657431  1.0
  C  C123  1  0.52321964  0.74880476  0.69186197  1.0
  C  C124  1  0.62961083  0.02375885  0.37351417  1.0
  C  C125  1  0.67610680  0.94912727  0.65909210  1.0
  N  N126  1  0.75192729  0.51375806  0.49042472  1.0
  N  N127  1  0.24338350  0.50594498  0.50731979  1.0
  O  O128  1  0.39411822  0.36263721  0.50751296  1.0
  O  O129  1  0.57011658  0.63143666  0.51403717  1.0
  O  O130  1  0.54811111  0.37178080  0.49403724  1.0
  O  O131  1  0.41199785  0.62437327  0.48415233  1.0
  O  O132  1  0.42024092  0.48269692  0.37234521  1.0
  O  O133  1  0.61889262  0.49448615  0.62836659  1.0
  O  O134  1  0.57497121  0.51409629  0.37380658  1.0
  O  O135  1  0.46352740  0.50919718  0.62271588  1.0
  O  O136  1  0.62173364  0.57000964  0.22337303  1.0
  O  O137  1  0.40883316  0.53517733  0.77838668  1.0
  O  O138  1  0.92103255  0.40432481  0.37840109  1.0
  O  O139  1  0.06947521  0.67221277  0.48871519  1.0
  O  O140  1  0.71172319  0.37109572  0.31515147  1.0
  O  O141  1  0.71031067  0.31978601  0.44734984  1.0
  O  O142  1  0.30649808  0.66404888  0.62391673  1.0
  O  O143  1  0.25442154  0.73965373  0.50902019  1.0
  O  O144  1  0.76453258  0.72417917  0.51459887  1.0
  O  O145  1  0.72635491  0.66586778  0.63572580  1.0
  O  O146  1  0.21588894  0.31847814  0.40109048  1.0
  O  O147  1  0.21993053  0.28756423  0.53999511  1.0
  O  O148  1  0.95681979  0.63216862  0.60924902  1.0
  O  O149  1  0.03865011  0.35839812  0.51537670  1.0
  O  O150  1  0.69832244  0.32622557  0.67696617  1.0
  O  O151  1  0.77698874  0.44239125  0.75690943  1.0
  O  O152  1  0.26499655  0.52163437  0.25553527  1.0
  O  O153  1  0.27878562  0.37294299  0.26178895  1.0
  O  O154  1  0.53695198  0.21552980  0.92717690  1.0
  O  O155  1  0.46021643  0.23615553  0.07635336  1.0
  O  O156  1  0.31689698  0.34848609  0.08716116  1.0
  O  O157  1  0.68400213  0.30586761  0.87302156  1.0
  O  O158  1  0.40148716  0.44435783  0.92395260  1.0
  O  O159  1  0.63330872  0.45442934  0.07708882  1.0
  O  O160  1  0.35900982  0.97282513  0.62990957  1.0
  O  O161  1  0.45397679  0.07410079  0.71621896  1.0
  O  O162  1  0.31712251  0.99049745  0.37136401  1.0
  O  O163  1  0.37248884  0.89313810  0.27892470  1.0
  O  O164  1  0.44694208  0.30006692  0.68042287  1.0
  O  O165  1  0.32540829  0.19700750  0.66318685  1.0
  O  O166  1  0.46386903  0.70062545  0.30712349  1.0
  O  O167  1  0.31427307  0.71140257  0.33290868  1.0
  O  O168  1  0.55498393  0.22464870  0.37820439  1.0
  O  O169  1  0.58511724  0.78132233  0.63330362  1.0
  O  O170  1  0.53349881  0.04614721  0.36404528  1.0
  O  O171  1  0.58327844  0.96706690  0.62187728  1.0
