# generated using pymatgen
data_AlH15C21(NO2)3
_symmetry_space_group_name_H-M   'P 1'
_cell_length_a   3.95830855
_cell_length_b   24.59171637
_cell_length_c   24.59161728
_cell_angle_alpha   59.99977674
_cell_angle_beta   89.99992683
_cell_angle_gamma   89.99999262
_symmetry_Int_Tables_number   1
_chemical_formula_structural   AlH15C21(NO2)3
_chemical_formula_sum   'Al2 H30 C42 N6 O12'
_cell_volume   2073.07603728
_cell_formula_units_Z   2
loop_
 _symmetry_equiv_pos_site_id
 _symmetry_equiv_pos_as_xyz
  1  'x, y, z'
loop_
 _atom_site_type_symbol
 _atom_site_label
 _atom_site_symmetry_multiplicity
 _atom_site_fract_x
 _atom_site_fract_y
 _atom_site_fract_z
 _atom_site_occupancy
  Al  Al0  1  0.97157647  0.49999964  0.00000139  1.0
  Al  Al1  1  0.97239239  0.16666468  0.66666877  1.0
  H  H2  1  0.67630276  0.27606809  0.29497846  1.0
  H  H3  1  0.67637566  0.39081099  0.37174202  1.0
  H  H4  1  0.16416655  0.17970688  0.49628888  1.0
  H  H5  1  0.14640185  0.23426334  0.37930435  1.0
  H  H6  1  0.16369282  0.48712354  0.17035003  1.0
  H  H7  1  0.14632383  0.43265218  0.28733269  1.0
  H  H8  1  0.67629727  0.42895386  0.77606919  1.0
  H  H9  1  0.67637014  0.23744842  0.89081315  1.0
  H  H10  1  0.16415219  0.32400193  0.67970990  1.0
  H  H11  1  0.14637667  0.38642992  0.73426467  1.0
  H  H12  1  0.16367343  0.34252801  0.98712372  1.0
  H  H13  1  0.14629252  0.28001837  0.93265255  1.0
  H  H14  1  0.67626362  0.79497322  0.92896321  1.0
  H  H15  1  0.67634523  0.87173880  0.73744960  1.0
  H  H16  1  0.16418918  0.99628576  0.82401087  1.0
  H  H17  1  0.14641876  0.87930288  0.88643830  1.0
  H  H18  1  0.16370672  0.67034998  0.84252604  1.0
  H  H19  1  0.14633335  0.78733112  0.78001833  1.0
  H  H20  1  0.84261688  0.35518454  0.12890981  1.0
  H  H21  1  0.92778935  0.29122900  0.20109633  1.0
  H  H22  1  0.84324426  0.31157030  0.53779889  1.0
  H  H23  1  0.92814696  0.37557406  0.46563630  1.0
  H  H24  1  0.84262552  0.51590419  0.85518614  1.0
  H  H25  1  0.92779601  0.50767214  0.79123137  1.0
  H  H26  1  0.84325078  0.15063255  0.81157327  1.0
  H  H27  1  0.92815455  0.15879190  0.87557624  1.0
  H  H28  1  0.84258438  0.62890577  0.01591298  1.0
  H  H29  1  0.92772681  0.70109079  0.00768636  1.0
  H  H30  1  0.84322118  0.03779438  0.65063184  1.0
  H  H31  1  0.92809698  0.96563255  0.65878838  1.0
  C  C32  1  0.46491830  0.59741049  0.95078489  1.0
  C  C33  1  0.46491523  0.45180580  0.09741368  1.0
  C  C34  1  0.46491584  0.45078165  0.95180676  1.0
  C  C35  1  0.46566623  0.21493705  0.56925803  1.0
  C  C36  1  0.46566815  0.21580280  0.71494101  1.0
  C  C37  1  0.46567327  0.06925499  0.71580652  1.0
  C  C38  1  0.44925171  0.41512739  0.16645513  1.0
  C  C39  1  0.44975061  0.25167865  0.50022033  1.0
  C  C40  1  0.59978306  0.35463042  0.20166729  1.0
  C  C41  1  0.56313078  0.32257533  0.26748527  1.0
  C  C42  1  0.60014072  0.31219236  0.46503161  1.0
  C  C43  1  0.56326159  0.34429628  0.39921600  1.0
  C  C44  1  0.28262887  0.22549437  0.46818571  1.0
  C  C45  1  0.27224337  0.25583932  0.40322373  1.0
  C  C46  1  0.28226862  0.44134758  0.19847242  1.0
  C  C47  1  0.27210493  0.41104933  0.26343534  1.0
  C  C48  1  0.41106063  0.35037548  0.29861088  1.0
  C  C49  1  0.41110836  0.31652312  0.36806976  1.0
  C  C50  1  0.44924264  0.41841727  0.91512826  1.0
  C  C51  1  0.44974704  0.24810099  0.75168196  1.0
  C  C52  1  0.59977940  0.44370335  0.85463170  1.0
  C  C53  1  0.56311995  0.40993905  0.82257640  1.0
  C  C54  1  0.60014094  0.22277543  0.81219525  1.0
  C  C55  1  0.56325130  0.25648999  0.84429798  1.0
  C  C56  1  0.28261675  0.30631735  0.72549633  1.0
  C  C57  1  0.27222328  0.34093670  0.75584152  1.0
  C  C58  1  0.28224951  0.36018297  0.94134855  1.0
  C  C59  1  0.27208117  0.32551662  0.91104937  1.0
  C  C60  1  0.41104228  0.35101581  0.85037626  1.0
  C  C61  1  0.41109296  0.31540714  0.81652493  1.0
  C  C62  1  0.44923746  0.66645260  0.91842006  1.0
  C  C63  1  0.44974717  0.00021647  0.74810562  1.0
  C  C64  1  0.59975871  0.70166354  0.94371004  1.0
  C  C65  1  0.56309922  0.76748224  0.90994549  1.0
  C  C66  1  0.60012835  0.96502862  0.72277746  1.0
  C  C67  1  0.56323874  0.89921197  0.75649319  1.0
  C  C68  1  0.28263885  0.96818451  0.80632429  1.0
  C  C69  1  0.27224794  0.90322019  0.84094437  1.0
  C  C70  1  0.28226991  0.69846964  0.86018395  1.0
  C  C71  1  0.27210154  0.76343501  0.82551785  1.0
  C  C72  1  0.41104713  0.79860686  0.85102102  1.0
  C  C73  1  0.41110282  0.86806703  0.81541112  1.0
  N  N74  1  0.76293873  0.32566995  0.17360972  1.0
  N  N75  1  0.76339214  0.34111319  0.49311966  1.0
  N  N76  1  0.76294515  0.50071872  0.82567110  1.0
  N  N77  1  0.76339493  0.16576876  0.84111730  1.0
  N  N78  1  0.76289129  0.67360397  0.00072859  1.0
  N  N79  1  0.76335486  0.99311605  0.66576825  1.0
  O  O80  1  0.23856394  0.43833881  0.99369406  1.0
  O  O81  1  0.23857168  0.56796643  0.93834088  1.0
  O  O82  1  0.23856108  0.49369234  0.06796951  1.0
  O  O83  1  0.70557927  0.49042668  0.94017121  1.0
  O  O84  1  0.70558128  0.44017039  0.06940304  1.0
  O  O85  1  0.70558155  0.56940169  0.99042862  1.0
  O  O86  1  0.23944021  0.09868627  0.72829237  1.0
  O  O87  1  0.23943566  0.17302006  0.59868910  1.0
  O  O88  1  0.23943785  0.22828871  0.67302371  1.0
  O  O89  1  0.70645556  0.09726987  0.67619372  1.0
  O  O90  1  0.70645531  0.17618960  0.72653893  1.0
  O  O91  1  0.70645330  0.22653389  0.59727423  1.0
