# generated using pymatgen
data_ZnH22C28(NO5)2
_symmetry_space_group_name_H-M   'P 1'
_cell_length_a   10.08271308
_cell_length_b   10.91553294
_cell_length_c   23.68527272
_cell_angle_alpha   94.02434285
_cell_angle_beta   89.91727708
_cell_angle_gamma   89.71440309
_symmetry_Int_Tables_number   1
_chemical_formula_structural   ZnH22C28(NO5)2
_chemical_formula_sum   'Zn2 H44 C56 N4 O20'
_cell_volume   2600.29423767
_cell_formula_units_Z   2
loop_
 _symmetry_equiv_pos_site_id
 _symmetry_equiv_pos_as_xyz
  1  'x, y, z'
loop_
 _atom_site_type_symbol
 _atom_site_label
 _atom_site_symmetry_multiplicity
 _atom_site_fract_x
 _atom_site_fract_y
 _atom_site_fract_z
 _atom_site_occupancy
  Zn  Zn0  1  0.35473302  0.50039474  0.50019526  1.0
  Zn  Zn1  1  0.64792547  0.50047269  0.49892977  1.0
  H  H2  1  0.46615793  0.19895676  0.92979304  1.0
  H  H3  1  0.44107990  0.80331940  0.06931178  1.0
  H  H4  1  0.49236005  0.18810702  0.03557930  1.0
  H  H5  1  0.47645933  0.81558881  0.96406006  1.0
  H  H6  1  0.70839312  0.80668597  0.19892451  1.0
  H  H7  1  0.75072729  0.21202442  0.79709943  1.0
  H  H8  1  0.69673192  0.72622521  0.31081305  1.0
  H  H9  1  0.58879541  0.70283697  0.36813717  1.0
  H  H10  1  0.72766763  0.60671101  0.35694137  1.0
  H  H11  1  0.64823187  0.35250242  0.62045614  1.0
  H  H12  1  0.75938780  0.33975479  0.67774382  1.0
  H  H13  1  0.61762610  0.24647786  0.67264833  1.0
  H  H14  1  0.40191979  0.28365452  0.37000802  1.0
  H  H15  1  0.27239661  0.25821332  0.31942617  1.0
  H  H16  1  0.42859096  0.19020371  0.30674895  1.0
  H  H17  1  0.42679949  0.80967261  0.69197907  1.0
  H  H18  1  0.40079265  0.71508006  0.62913174  1.0
  H  H19  1  0.27215600  0.73939487  0.68044384  1.0
  H  H20  1  0.24408118  0.15491057  0.19031028  1.0
  H  H21  1  0.24494697  0.84489226  0.80961466  1.0
  H  H22  1  0.75000176  0.18961323  0.55703618  1.0
  H  H23  1  0.82899563  0.04802773  0.53584666  1.0
  H  H24  1  0.80979294  0.16342677  0.48751767  1.0
  H  H25  1  0.25917373  0.79393895  0.45826638  1.0
  H  H26  1  0.20175264  0.85304401  0.52510272  1.0
  H  H27  1  0.18327927  0.94147190  0.46564420  1.0
  H  H28  1  0.73911591  0.80742927  0.43645269  1.0
  H  H29  1  0.82334705  0.94578514  0.45706737  1.0
  H  H30  1  0.80756131  0.82817090  0.50447272  1.0
  H  H31  1  0.27038927  0.21582617  0.54888436  1.0
  H  H32  1  0.20070126  0.15591036  0.48456149  1.0
  H  H33  1  0.19113819  0.07050762  0.54532448  1.0
  H  H34  1  0.75548458  0.68016464  0.56293491  1.0
  H  H35  1  0.84834112  0.62562267  0.61904523  1.0
  H  H36  1  0.90851647  0.75077615  0.58308336  1.0
  H  H37  1  0.25036464  0.35665351  0.42324826  1.0
  H  H38  1  0.11272198  0.25718005  0.41403551  1.0
  H  H39  1  0.12304620  0.38873461  0.37481160  1.0
  H  H40  1  0.75934232  0.32120964  0.43482995  1.0
  H  H41  1  0.85060587  0.38044865  0.37951482  1.0
  H  H42  1  0.91397315  0.25336918  0.41339721  1.0
  H  H43  1  0.24662351  0.64739293  0.57586162  1.0
  H  H44  1  0.10248857  0.73717729  0.59105955  1.0
  H  H45  1  0.12793888  0.59970228  0.62488637  1.0
  C  C46  1  0.50909406  0.26692858  0.50723265  1.0
  C  C47  1  0.50413033  0.73421474  0.49262832  1.0
  C  C48  1  0.49664510  0.48154125  0.38934821  1.0
  C  C49  1  0.49787311  0.51821289  0.60978723  1.0
  C  C50  1  0.49946438  0.62770049  0.88557153  1.0
  C  C51  1  0.49660120  0.37627441  0.11427110  1.0
  C  C52  1  0.45511250  0.40194362  0.87250601  1.0
  C  C53  1  0.43852103  0.59988142  0.12660284  1.0
  C  C54  1  0.46677617  0.39533563  0.93445181  1.0
  C  C55  1  0.45440465  0.60727185  0.06482851  1.0
  C  C56  1  0.47072305  0.50479168  0.96987586  1.0
  C  C57  1  0.46819707  0.49821145  0.02954439  1.0
  C  C58  1  0.47762828  0.62069383  0.94703686  1.0
  C  C59  1  0.47996043  0.38271168  0.05251755  1.0
  C  C60  1  0.47045872  0.28218068  0.95796597  1.0
  C  C61  1  0.45311031  0.72043711  0.04129735  1.0
  C  C62  1  0.48217522  0.27603737  0.01683384  1.0
  C  C63  1  0.46995718  0.72725654  0.98265471  1.0
  C  C64  1  0.56371602  0.56532922  0.23914503  1.0
  C  C65  1  0.57625129  0.44037738  0.76021252  1.0
  C  C66  1  0.56840001  0.56689427  0.29862884  1.0
  C  C67  1  0.57606017  0.43470903  0.70046637  1.0
  C  C68  1  0.49765072  0.47617440  0.32539197  1.0
  C  C69  1  0.50223175  0.52366222  0.67369155  1.0
  C  C70  1  0.42771048  0.38252791  0.29493280  1.0
  C  C71  1  0.43152814  0.61770140  0.70438537  1.0
  C  C72  1  0.41078484  0.39159249  0.23613402  1.0
  C  C73  1  0.41672549  0.61000359  0.76331241  1.0
  C  C74  1  0.48021972  0.48141278  0.20866072  1.0
  C  C75  1  0.49062413  0.52265966  0.79088098  1.0
  C  C76  1  0.62869972  0.06268255  0.50650265  1.0
  C  C77  1  0.38311556  0.93829681  0.49649212  1.0
  C  C78  1  0.62656957  0.93546449  0.49104436  1.0
  C  C79  1  0.38509471  0.06660808  0.50784537  1.0
  C  C80  1  0.50416820  0.87192296  0.49066307  1.0
  C  C81  1  0.50778099  0.12949234  0.51008645  1.0
  C  C82  1  0.92925914  0.57610335  0.53668551  1.0
  C  C83  1  0.07081309  0.42809725  0.46140144  1.0
  C  C84  1  0.93082702  0.42543259  0.46217819  1.0
  C  C85  1  0.06919161  0.57127524  0.53867565  1.0
  C  C86  1  0.65111354  0.64495914  0.20611161  1.0
  C  C87  1  0.67155363  0.36682290  0.79263211  1.0
  C  C88  1  0.65059173  0.65627818  0.33485200  1.0
  C  C89  1  0.65421189  0.33868353  0.66561266  1.0
  C  C90  1  0.37911722  0.27391012  0.32475361  1.0
  C  C91  1  0.37914340  0.72511249  0.67451007  1.0
  C  C92  1  0.31219399  0.31422347  0.20292930  1.0
  C  C93  1  0.31622580  0.68614533  0.79659729  1.0
  C  C94  1  0.76140227  0.11920460  0.52225344  1.0
  C  C95  1  0.24999605  0.87802801  0.48590819  1.0
  C  C96  1  0.75604747  0.87586874  0.47154767  1.0
  C  C97  1  0.25518907  0.13111042  0.52230052  1.0
  C  C98  1  0.85612027  0.66302757  0.57720825  1.0
  C  C99  1  0.14392111  0.35362316  0.41633655  1.0
  C  C100  1  0.85956929  0.34021767  0.42069244  1.0
  C  C101  1  0.14098557  0.64310391  0.58467618  1.0
  N  N102  1  0.48070672  0.51777669  0.85121521  1.0
  N  N103  1  0.47048913  0.48557923  0.14827102  1.0
  N  N104  1  0.13867675  0.49938592  0.50023125  1.0
  N  N105  1  0.86163819  0.50123646  0.49913058  1.0
  O  O106  1  0.40494670  0.31725381  0.48849333  1.0
  O  O107  1  0.61048411  0.67508151  0.47942007  1.0
  O  O108  1  0.40014779  0.68413879  0.51136762  1.0
  O  O109  1  0.61582187  0.32536958  0.51949134  1.0
  O  O110  1  0.38882586  0.51698850  0.41347292  1.0
  O  O111  1  0.60184832  0.54886978  0.58415141  1.0
  O  O112  1  0.38954250  0.48255680  0.58664714  1.0
  O  O113  1  0.60257787  0.45202329  0.41395023  1.0
  O  O114  1  0.53107790  0.72364958  0.86499167  1.0
  O  O115  1  0.53053010  0.28121437  0.13528548  1.0
  O  O116  1  0.42761720  0.31194765  0.84067477  1.0
  O  O117  1  0.40303174  0.68815074  0.15814543  1.0
  O  O118  1  0.71851725  0.60640180  0.16567889  1.0
  O  O119  1  0.64926921  0.76587507  0.22457256  1.0
  O  O120  1  0.73300788  0.40843798  0.83409892  1.0
  O  O121  1  0.68671560  0.24825206  0.77185605  1.0
  O  O122  1  0.23508221  0.35433548  0.16885317  1.0
  O  O123  1  0.31229079  0.19410072  0.21480657  1.0
  O  O124  1  0.23993197  0.64487020  0.83059208  1.0
  O  O125  1  0.31371254  0.80634266  0.78489997  1.0
