# generated using pymatgen
data_Hf3H10C34(BrO)16
_symmetry_space_group_name_H-M   'P 1'
_cell_length_a   15.51317426
_cell_length_b   17.36075736
_cell_length_c   17.59873170
_cell_angle_alpha   86.49103797
_cell_angle_beta   89.95618928
_cell_angle_gamma   89.72396135
_symmetry_Int_Tables_number   1
_chemical_formula_structural   Hf3H10C34(BrO)16
_chemical_formula_sum   'Hf6 H20 C68 Br32 O32'
_cell_volume   4730.75717725
_cell_formula_units_Z   2
loop_
 _symmetry_equiv_pos_site_id
 _symmetry_equiv_pos_as_xyz
  1  'x, y, z'
loop_
 _atom_site_type_symbol
 _atom_site_label
 _atom_site_symmetry_multiplicity
 _atom_site_fract_x
 _atom_site_fract_y
 _atom_site_fract_z
 _atom_site_occupancy
  Hf  Hf0  1  0.01230598  0.14294948  0.99206529  1.0
  Hf  Hf1  1  0.01773783  0.99378521  0.86672472  1.0
  Hf  Hf2  1  0.00745013  0.00961345  0.14828235  1.0
  Hf  Hf3  1  0.00040201  0.85546939  0.02380128  1.0
  Hf  Hf4  1  0.84974603  0.00416979  0.00300965  1.0
  Hf  Hf5  1  0.16950710  0.99610209  0.01148642  1.0
  H  H6  1  0.14404641  0.11053859  0.89008674  1.0
  H  H7  1  0.88418334  0.88653419  0.89964980  1.0
  H  H8  1  0.12063297  0.88045942  0.13567300  1.0
  H  H9  1  0.88770773  0.12631980  0.10835469  1.0
  H  H10  1  0.06830398  0.88773517  0.77731923  1.0
  H  H11  1  0.01000198  0.82536834  0.87016617  1.0
  H  H12  1  0.94959961  0.75242256  0.12695764  1.0
  H  H13  1  0.05147763  0.94039774  0.28390793  1.0
  H  H14  1  0.95689114  0.11554391  0.24370563  1.0
  H  H15  1  0.96073336  0.28199591  0.04960697  1.0
  H  H16  1  0.96463743  0.23495312  0.87487846  1.0
  H  H17  1  0.02024101  0.14636548  0.82237071  1.0
  H  H18  1  0.95216350  0.92292191  0.27374986  1.0
  H  H19  1  0.06088225  0.26904875  0.06777618  1.0
  H  H20  1  0.08404773  0.10580322  0.76234973  1.0
  H  H21  1  0.05337301  0.75439823  0.91934608  1.0
  H  H22  1  0.66449526  0.50371905  0.96205279  1.0
  H  H23  1  0.35115664  0.49850504  0.97654902  1.0
  H  H24  1  0.35592495  0.01500181  0.50970246  1.0
  H  H25  1  0.67194030  0.99899687  0.50307752  1.0
  C  C26  1  0.80757577  0.18742460  0.97532925  1.0
  C  C27  1  0.23173207  0.99307579  0.83858002  1.0
  C  C28  1  0.81336680  0.00844803  0.82422110  1.0
  C  C29  1  0.21758803  0.18011956  0.00468449  1.0
  C  C30  1  0.22062649  0.00930921  0.18450188  1.0
  C  C31  1  0.79127130  0.82629743  0.02089155  1.0
  C  C32  1  0.20562267  0.81377668  0.01184192  1.0
  C  C33  1  0.79551966  0.00638779  0.17690140  1.0
  C  C34  1  0.55401431  0.43228411  0.94367888  1.0
  C  C35  1  0.46355030  0.43113605  0.95748854  1.0
  C  C36  1  0.42092310  0.50051965  0.96931243  1.0
  C  C37  1  0.46151988  0.57142405  0.97472283  1.0
  C  C38  1  0.55264274  0.57099346  0.97529556  1.0
  C  C39  1  0.59467425  0.50239198  0.95984635  1.0
  C  C40  1  0.47032159  0.00716699  0.57815140  1.0
  C  C41  1  0.56164483  0.00191477  0.57600230  1.0
  C  C42  1  0.60174810  0.00163659  0.50463686  1.0
  C  C43  1  0.55756133  0.00619294  0.43512707  1.0
  C  C44  1  0.46641697  0.01223142  0.43665388  1.0
  C  C45  1  0.42610756  0.01200797  0.50828986  1.0
  C  C46  1  0.28824059  0.07648309  0.29482933  1.0
  C  C47  1  0.29224302  0.01916175  0.24159207  1.0
  C  C48  1  0.36089138  0.96619046  0.24762505  1.0
  C  C49  1  0.40937685  0.95910850  0.31526498  1.0
  C  C50  1  0.41016843  0.01766868  0.36720401  1.0
  C  C51  1  0.35145519  0.07963317  0.35176399  1.0
  C  C52  1  0.65971673  0.93869475  0.34744564  1.0
  C  C53  1  0.61253463  0.00537431  0.36491080  1.0
  C  C54  1  0.62638697  0.07303950  0.31775435  1.0
  C  C55  1  0.68450940  0.07392208  0.25636536  1.0
  C  C56  1  0.72666250  0.00634272  0.23774489  1.0
  C  C57  1  0.71171667  0.93836931  0.28243045  1.0
  C  C58  1  0.36145365  0.06974154  0.66504658  1.0
  C  C59  1  0.41711336  0.00743371  0.64964441  1.0
  C  C60  1  0.41619262  0.94401850  0.70375889  1.0
  C  C61  1  0.36579768  0.94334229  0.77050119  1.0
  C  C62  1  0.30338824  0.00056307  0.77937407  1.0
  C  C63  1  0.30539442  0.06512914  0.72758576  1.0
  C  C64  1  0.63406207  0.06796890  0.68300080  1.0
  C  C65  1  0.62172305  0.00077438  0.64296011  1.0
  C  C66  1  0.67743752  0.93757977  0.66174549  1.0
  C  C67  1  0.73889330  0.94024713  0.72011795  1.0
  C  C68  1  0.74755228  0.00648132  0.76091672  1.0
  C  C69  1  0.69610325  0.07077397  0.74067094  1.0
  C  C70  1  0.31575132  0.71741666  0.06528373  1.0
  C  C71  1  0.27047274  0.74975359  0.00221623  1.0
  C  C72  1  0.28295465  0.71889692  0.93144081  1.0
  C  C73  1  0.34711759  0.66309663  0.92181077  1.0
  C  C74  1  0.40114000  0.63763206  0.98313070  1.0
  C  C75  1  0.38290474  0.66461840  0.05540519  1.0
  C  C76  1  0.66104265  0.76951293  0.95705393  1.0
  C  C77  1  0.72111220  0.76521525  0.01715236  1.0
  C  C78  1  0.72113220  0.69764578  0.06599813  1.0
  C  C79  1  0.66375988  0.63678262  0.05513447  1.0
  C  C80  1  0.60782420  0.63860198  0.99165536  1.0
  C  C81  1  0.61082873  0.70495127  0.94173647  1.0
  C  C82  1  0.27426929  0.29846091  0.93148395  1.0
  C  C83  1  0.28255877  0.24468609  0.99426311  1.0
  C  C84  1  0.35130980  0.25225838  0.04511194  1.0
  C  C85  1  0.40945207  0.31375982  0.03414107  1.0
  C  C86  1  0.40490192  0.36408581  0.96852434  1.0
  C  C87  1  0.33666330  0.35517741  0.91721050  1.0
  C  C88  1  0.65180892  0.23128308  0.95382114  1.0
  C  C89  1  0.74082222  0.24782622  0.95235478  1.0
  C  C90  1  0.76297871  0.32225725  0.91884711  1.0
  C  C91  1  0.70038793  0.37940978  0.90523512  1.0
  C  C92  1  0.61116963  0.36723203  0.92501601  1.0
  C  C93  1  0.59051618  0.28737876  0.92801599  1.0
  Br  Br94  1  0.35639473  0.16903404  0.40774511  1.0
  Br  Br95  1  0.19946514  0.15145004  0.28552312  1.0
  Br  Br96  1  0.46422425  0.86353825  0.34000075  1.0
  Br  Br97  1  0.39126449  0.90509005  0.16655925  1.0
  Br  Br98  1  0.76218954  0.84594668  0.25031217  1.0
  Br  Br99  1  0.66030845  0.84877829  0.41386602  1.0
  Br  Br100  1  0.71214562  0.16753900  0.19997986  1.0
  Br  Br101  1  0.57051218  0.16531548  0.34187986  1.0
  Br  Br102  1  0.23865598  0.15285333  0.75229321  1.0
  Br  Br103  1  0.35822111  0.16048282  0.60003254  1.0
  Br  Br104  1  0.38610443  0.86787013  0.85020061  1.0
  Br  Br105  1  0.47772856  0.85348536  0.68342715  1.0
  Br  Br106  1  0.71718096  0.16319175  0.78904002  1.0
  Br  Br107  1  0.57088435  0.15831506  0.65400742  1.0
  Br  Br108  1  0.81386659  0.85564108  0.74424147  1.0
  Br  Br109  1  0.67482382  0.84767471  0.60628453  1.0
  Br  Br110  1  0.44532952  0.62332034  0.14077639  1.0
  Br  Br111  1  0.27404434  0.73630087  0.16358050  1.0
  Br  Br112  1  0.35706108  0.61930069  0.82633935  1.0
  Br  Br113  1  0.20623980  0.74820367  0.85034567  1.0
  Br  Br114  1  0.55261605  0.70358073  0.84761571  1.0
  Br  Br115  1  0.64761544  0.86064831  0.89374364  1.0
  Br  Br116  1  0.66347044  0.54865425  0.12488401  1.0
  Br  Br117  1  0.79824008  0.68767436  0.15015097  1.0
  Br  Br118  1  0.33668547  0.41441406  0.82335682  1.0
  Br  Br119  1  0.17853705  0.29396909  0.86521407  1.0
  Br  Br120  1  0.49645224  0.32880708  0.10719346  1.0
  Br  Br121  1  0.36326369  0.18091422  0.12987518  1.0
  Br  Br122  1  0.49292361  0.25044251  0.87719901  1.0
  Br  Br123  1  0.60414528  0.13669305  0.99320398  1.0
  Br  Br124  1  0.72793370  0.46810659  0.83962769  1.0
  Br  Br125  1  0.87694195  0.34778230  0.88488070  1.0
  O  O126  1  0.88475577  0.21039741  0.98419115  1.0
  O  O127  1  0.78462180  0.11757318  0.98381415  1.0
  O  O128  1  0.15623915  0.98692160  0.81130707  1.0
  O  O129  1  0.25177858  0.99455689  0.90825203  1.0
  O  O130  1  0.89137040  0.01155919  0.80404650  1.0
  O  O131  1  0.78317486  0.00469268  0.89165848  1.0
  O  O132  1  0.13941235  0.20211549  0.01214918  1.0
  O  O133  1  0.24424960  0.11174783  0.00170197  1.0
  O  O134  1  0.01437443  0.20103151  0.88399484  1.0
  O  O135  1  0.00358406  0.24564961  0.07142906  1.0
  O  O136  1  0.02790338  0.09936061  0.78719716  1.0
  O  O137  1  0.01767142  0.89326012  0.80911436  1.0
  O  O138  1  0.94671530  0.05865301  0.94242814  1.0
  O  O139  1  0.10622845  0.07864810  0.92288733  1.0
  O  O140  1  0.14525157  0.00226884  0.21123764  1.0
  O  O141  1  0.24219963  0.00581514  0.11501333  1.0
  O  O142  1  0.86732758  0.79964111  0.02242281  1.0
  O  O143  1  0.76992159  0.89724203  0.01820443  1.0
  O  O144  1  0.12788678  0.79320336  0.01318592  1.0
  O  O145  1  0.23605444  0.88110024  0.01740123  1.0
  O  O146  1  0.87165196  0.00011097  0.20291917  1.0
  O  O147  1  0.77238676  0.01379484  0.10777373  1.0
  O  O148  1  0.00896185  0.91918619  0.24998390  1.0
  O  O149  1  0.00730416  0.09207623  0.22214519  1.0
  O  O150  1  0.00183941  0.78097962  0.11418163  1.0
  O  O151  1  0.00179454  0.78701613  0.91718939  1.0
  O  O152  1  0.09184151  0.91683728  0.09980769  1.0
  O  O153  1  0.93563849  0.94556405  0.07179738  1.0
  O  O154  1  0.07919453  0.06201368  0.06337279  1.0
  O  O155  1  0.91944556  0.91813421  0.93113208  1.0
  O  O156  1  0.92323511  0.09187372  0.08001408  1.0
  O  O157  1  0.07803935  0.93795783  0.95708706  1.0
