# generated using pymatgen
data_AlHC8S2O5F2
_symmetry_space_group_name_H-M   'P 1'
_cell_length_a   6.75504711
_cell_length_b   15.33636605
_cell_length_c   19.30104407
_cell_angle_alpha   89.99322527
_cell_angle_beta   89.93753799
_cell_angle_gamma   90.90902202
_symmetry_Int_Tables_number   1
_chemical_formula_structural   AlHC8S2O5F2
_chemical_formula_sum   'Al4 H4 C32 S8 O20 F8'
_cell_volume   1999.29429817
_cell_formula_units_Z   4
loop_
 _symmetry_equiv_pos_site_id
 _symmetry_equiv_pos_as_xyz
  1  'x, y, z'
loop_
 _atom_site_type_symbol
 _atom_site_label
 _atom_site_symmetry_multiplicity
 _atom_site_fract_x
 _atom_site_fract_y
 _atom_site_fract_z
 _atom_site_occupancy
  Al  Al0  1  0.00745705  0.00059305  0.50067854  1.0
  Al  Al1  1  0.50723374  0.99935987  0.49952147  1.0
  Al  Al2  1  0.99277160  0.50060575  0.00049503  1.0
  Al  Al3  1  0.49254159  0.49936223  0.99932873  1.0
  H  H4  1  0.26223151  0.11513116  0.49778557  1.0
  H  H5  1  0.75508982  0.88482858  0.49841744  1.0
  H  H6  1  0.23773675  0.38482713  0.00213309  1.0
  H  H7  1  0.74489110  0.61513109  0.00147368  1.0
  C  C8  1  0.75676911  0.10196097  0.59459378  1.0
  C  C9  1  0.76546550  0.10235177  0.40559075  1.0
  C  C10  1  0.25541810  0.89791288  0.40553626  1.0
  C  C11  1  0.25020005  0.89784720  0.59440767  1.0
  C  C12  1  0.74325099  0.39802454  0.90539288  1.0
  C  C13  1  0.73457907  0.39759651  0.09440679  1.0
  C  C14  1  0.24460007  0.60203045  0.09448741  1.0
  C  C15  1  0.24976485  0.60219650  0.90565432  1.0
  C  C16  1  0.91400763  0.20510037  0.31272987  1.0
  C  C17  1  0.58600190  0.29487844  0.18727750  1.0
  C  C18  1  0.76059478  0.15958752  0.34469690  1.0
  C  C19  1  0.73943072  0.34037178  0.15530322  1.0
  C  C20  1  0.64740715  0.24531796  0.24476098  1.0
  C  C21  1  0.85258636  0.25468100  0.25525933  1.0
  C  C22  1  0.40516971  0.79277151  0.68259037  1.0
  C  C23  1  0.09480157  0.70730352  0.81748716  1.0
  C  C24  1  0.25113998  0.84048103  0.65521272  1.0
  C  C25  1  0.24883447  0.65961097  0.84487879  1.0
  C  C26  1  0.14979093  0.75612251  0.75833728  1.0
  C  C27  1  0.35017980  0.74391601  0.74172367  1.0
  C  C28  1  0.09514228  0.79262354  0.31670867  1.0
  C  C29  1  0.40483857  0.70737183  0.18327975  1.0
  C  C30  1  0.25117343  0.84058942  0.34470430  1.0
  C  C31  1  0.24881591  0.65938838  0.15529707  1.0
  C  C32  1  0.35086874  0.75624040  0.24211959  1.0
  C  C33  1  0.14909464  0.74376730  0.25785950  1.0
  C  C34  1  0.90964644  0.20799193  0.68442313  1.0
  C  C35  1  0.59036522  0.29208027  0.81550963  1.0
  C  C36  1  0.75620103  0.15942544  0.65534896  1.0
  C  C37  1  0.74382753  0.34060770  0.84460868  1.0
  C  C38  1  0.64874975  0.24344879  0.75707121  1.0
  C  C39  1  0.85123605  0.25665854  0.74283926  1.0
  S  S40  1  0.53432891  0.17781023  0.30464021  1.0
  S  S41  1  0.96568345  0.32216206  0.19536923  1.0
  S  S42  1  0.03278012  0.82556408  0.70213189  1.0
  S  S43  1  0.46719384  0.67449662  0.79794772  1.0
  S  S44  1  0.47030294  0.82591762  0.29878887  1.0
  S  S45  1  0.02967044  0.67407316  0.20119799  1.0
  S  S46  1  0.53403003  0.17340725  0.69952950  1.0
  S  S47  1  0.96598293  0.32665779  0.80041155  1.0
  O  O48  1  0.92324371  0.08579206  0.56687934  1.0
  O  O49  1  0.59693600  0.08363978  0.43244134  1.0
  O  O50  1  0.42715069  0.92553541  0.42370895  1.0
  O  O51  1  0.08112271  0.92655934  0.57663417  1.0
  O  O52  1  0.09105819  0.91449338  0.43468885  1.0
  O  O53  1  0.41549748  0.91334641  0.56472962  1.0
  O  O54  1  0.58674814  0.07381369  0.57498518  1.0
  O  O55  1  0.93394293  0.07694144  0.42608792  1.0
  O  O56  1  0.25975478  0.05206768  0.50010188  1.0
  O  O57  1  0.75601688  0.94793474  0.49988106  1.0
  O  O58  1  0.91327403  0.42613465  0.92503412  1.0
  O  O59  1  0.56610601  0.42300034  0.07390185  1.0
  O  O60  1  0.40896992  0.58543238  0.06535037  1.0
  O  O61  1  0.08446399  0.58666664  0.93532046  1.0
  O  O62  1  0.07286886  0.57440337  0.07631731  1.0
  O  O63  1  0.41883736  0.57345370  0.92340243  1.0
  O  O64  1  0.57675723  0.41419338  0.93309383  1.0
  O  O65  1  0.90311302  0.41631048  0.06755983  1.0
  O  O66  1  0.24025440  0.44789545  0.99989970  1.0
  O  O67  1  0.74397511  0.55202040  0.00011213  1.0
  F  F68  1  0.10322973  0.20472782  0.33440098  1.0
  F  F69  1  0.39679140  0.29523587  0.16559438  1.0
  F  F70  1  0.58911572  0.79100569  0.65593798  1.0
  F  F71  1  0.91084849  0.70908382  0.84413654  1.0
  F  F72  1  0.91017023  0.79049835  0.34263981  1.0
  F  F73  1  0.58980617  0.70949195  0.15734404  1.0
  F  F74  1  0.09605161  0.21078977  0.65983758  1.0
  F  F75  1  0.40397161  0.28927383  0.84010856  1.0
