# generated using pymatgen
data_Zn6H41C43N3O31
_symmetry_space_group_name_H-M   'P 1'
_cell_length_a   18.40639974
_cell_length_b   18.63809976
_cell_length_c   19.22455846
_cell_angle_alpha   109.12313655
_cell_angle_beta   109.42767830
_cell_angle_gamma   108.30842644
_symmetry_Int_Tables_number   1
_chemical_formula_structural   Zn6H41C43N3O31
_chemical_formula_sum   'Zn6 H41 C43 N3 O31'
_cell_volume   5171.67870061
_cell_formula_units_Z   1
loop_
 _symmetry_equiv_pos_site_id
 _symmetry_equiv_pos_as_xyz
  1  'x, y, z'
loop_
 _atom_site_type_symbol
 _atom_site_label
 _atom_site_symmetry_multiplicity
 _atom_site_fract_x
 _atom_site_fract_y
 _atom_site_fract_z
 _atom_site_occupancy
  Zn  Zn0  1  0.49753003  0.56132546  0.56263995  1.0
  Zn  Zn1  1  0.50405122  0.45204879  0.43591693  1.0
  Zn  Zn2  1  0.07935070  0.00914434  0.56828451  1.0
  Zn  Zn3  1  0.95479439  0.01145911  0.44732839  1.0
  Zn  Zn4  1  0.91785252  0.43337521  0.99912069  1.0
  Zn  Zn5  1  0.04704049  0.54296788  0.99051252  1.0
  H  H6  1  0.08700057  0.18304014  0.36520801  1.0
  H  H7  1  0.21753234  0.47541094  0.11805667  1.0
  H  H8  1  0.11409003  0.41688837  0.20388792  1.0
  H  H9  1  0.31745429  0.42809496  0.19738956  1.0
  H  H10  1  0.27752965  0.52168942  0.33322475  1.0
  H  H11  1  0.16264695  0.38858722  0.89038622  1.0
  H  H12  1  0.18046016  0.26238401  0.80927051  1.0
  H  H13  1  0.99298570  0.20943926  0.68358090  1.0
  H  H14  1  0.26155357  0.14228145  0.49747451  1.0
  H  H15  1  0.92720730  0.76972586  0.28505375  1.0
  H  H16  1  0.28454530  0.22416817  0.59205866  1.0
  H  H17  1  0.68237441  0.43069077  0.82259277  1.0
  H  H18  1  0.31460685  0.38449586  0.62845422  1.0
  H  H19  1  0.18676800  0.31905362  0.39960365  1.0
  H  H20  1  0.24356940  0.26729916  0.36511221  1.0
  H  H21  1  0.41081243  0.32787209  0.64176099  1.0
  H  H22  1  0.29754202  0.47736266  0.57543183  1.0
  H  H23  1  0.12449500  0.35242278  0.51664587  1.0
  H  H24  1  0.65333379  0.35742525  0.53347514  1.0
  H  H25  1  0.67864336  0.25553038  0.56064447  1.0
  H  H26  1  0.63701302  0.27659593  0.63327408  1.0
  H  H27  1  0.75020531  0.33466981  0.66949961  1.0
  H  H28  1  0.81424736  0.47487956  0.75876198  1.0
  H  H29  1  0.91250613  0.24498178  0.83125090  1.0
  H  H30  1  0.89856671  0.11168739  0.79582982  1.0
  H  H31  1  0.01495556  0.15884540  0.83630509  1.0
  H  H32  1  0.94534835  0.12050736  0.72889907  1.0
  H  H33  1  0.87806373  0.63432001  0.21694182  1.0
  H  H34  1  0.11817660  0.76986093  0.16041162  1.0
  H  H35  1  0.14867933  0.83141382  0.31535823  1.0
  H  H36  1  0.28037497  0.94328001  0.43085401  1.0
  H  H37  1  0.22808571  0.96869345  0.49132916  1.0
  H  H38  1  0.21710008  0.99662622  0.40935149  1.0
  H  H39  1  0.60158376  0.46764425  0.71883427  1.0
  H  H40  1  0.13092346  0.25734110  0.61062670  1.0
  H  H41  1  0.21515645  0.13221330  0.35949908  1.0
  H  H42  1  0.88046159  0.78635951  0.54279382  1.0
  H  H43  1  0.74137978  0.83680130  0.46724149  1.0
  H  H44  1  0.74357529  0.65266387  0.49645359  1.0
  H  H45  1  0.34443403  0.24272839  0.46724604  1.0
  H  H46  1  0.69465197  0.78890182  0.57805747  1.0
  C  C47  1  0.59259703  0.44989429  0.57601694  1.0
  C  C48  1  0.80519082  0.83982465  0.49505415  1.0
  C  C49  1  0.74772333  0.71665385  0.52011698  1.0
  C  C50  1  0.37095537  0.40736021  0.50903516  1.0
  C  C51  1  0.69070684  0.72615247  0.54700076  1.0
  C  C52  1  0.20856653  0.45807185  0.16490529  1.0
  C  C53  1  0.13175424  0.44204778  0.16475812  1.0
  C  C54  1  0.28057601  0.45442141  0.22205137  1.0
  C  C55  1  0.30834326  0.48875176  0.30541566  1.0
  C  C56  1  0.05295927  0.13334674  0.64699572  1.0
  C  C57  1  0.10523600  0.12351224  0.47729285  1.0
  C  C58  1  0.17475363  0.19995986  0.48378166  1.0
  C  C59  1  0.04892529  0.89956612  0.41915198  1.0
  C  C60  1  0.87711807  0.90255671  0.49352141  1.0
  C  C61  1  0.02149898  0.38757493  0.89851195  1.0
  C  C62  1  0.38447597  0.49129182  0.36631320  1.0
  C  C63  1  0.84894604  0.45963671  0.86969442  1.0
  C  C64  1  0.01403477  0.63342764  0.10427507  1.0
  C  C65  1  0.06648050  0.45431982  0.10657408  1.0
  C  C66  1  0.10674966  0.32459581  0.84574666  1.0
  C  C67  1  0.02998056  0.31233717  0.84831290  1.0
  C  C68  1  0.11693488  0.26128518  0.78899178  1.0
  C  C69  1  0.18009562  0.28609550  0.54167838  1.0
  C  C70  1  0.05186929  0.20311502  0.70841118  1.0
  C  C71  1  0.97435060  0.70497010  0.21161838  1.0
  C  C72  1  0.02545052  0.70709132  0.17274171  1.0
  C  C73  1  0.98720542  0.77502068  0.28304828  1.0
  C  C74  1  0.62256050  0.65154085  0.53969127  1.0
  C  C75  1  0.06285731  0.84431369  0.35293197  1.0
  C  C76  1  0.33341269  0.27294468  0.51977188  1.0
  C  C77  1  0.26528045  0.20574835  0.52560519  1.0
  C  C78  1  0.26507571  0.36347654  0.56428670  1.0
  C  C79  1  0.21953272  0.28065322  0.41058258  1.0
  C  C80  1  0.15430867  0.19456763  0.39682117  1.0
  C  C81  1  0.29737987  0.33375280  0.50134964  1.0
  C  C82  1  0.68473347  0.30576785  0.61517591  1.0
  C  C83  1  0.95371105  0.15267460  0.79265573  1.0
  C  C84  1  0.22165516  0.94765553  0.42837524  1.0
  C  C85  1  0.70303823  0.43855176  0.77720263  1.0
  C  C86  1  0.78630366  0.45417593  0.79502394  1.0
  C  C87  1  0.64506012  0.44211469  0.70861791  1.0
  C  C88  1  0.63965223  0.42000628  0.63060140  1.0
  C  C89  1  0.81633901  0.78414555  0.52239283  1.0
  N  N90  1  0.66879445  0.36829843  0.59309482  1.0
  N  N91  1  0.95720600  0.23589501  0.81453845  1.0
  N  N92  1  0.14611471  0.86254579  0.36863796  1.0
  O  O93  1  0.57472908  0.50845943  0.60823940  1.0
  O  O94  1  0.07639200  0.46431915  0.92104177  1.0
  O  O95  1  0.82039731  0.41705426  0.90473840  1.0
  O  O96  1  0.57494342  0.41369899  0.49795803  1.0
  O  O97  1  0.92995729  0.50725657  0.89563138  1.0
  O  O98  1  0.95523814  0.55753809  0.07609986  1.0
  O  O99  1  0.06906156  0.65205805  0.07549337  1.0
  O  O100  1  0.98489718  0.41007407  0.08370340  1.0
  O  O101  1  0.09507511  0.50733341  0.08232329  1.0
  O  O102  1  0.39939313  0.48540902  0.56623541  1.0
  O  O103  1  0.40126693  0.38846875  0.45981086  1.0
  O  O104  1  0.99686320  0.10226593  0.56971276  1.0
  O  O105  1  0.41215476  0.53987919  0.44382760  1.0
  O  O106  1  0.41848488  0.44489482  0.33883400  1.0
  O  O107  1  0.58754704  0.66857643  0.58701738  1.0
  O  O108  1  0.60223519  0.57582556  0.48788006  1.0
  O  O109  1  0.10669508  0.10401227  0.67070668  1.0
  O  O110  1  0.41826864  0.31837326  0.59224492  1.0
  O  O111  1  0.24421215  0.43096876  0.56430522  1.0
  O  O112  1  0.10512344  0.29065949  0.49765823  1.0
  O  O113  1  0.89980328  0.62850466  0.17664777  1.0
  O  O114  1  0.09360946  0.78570920  0.19785060  1.0
  O  O115  1  0.13145872  0.09214576  0.52376432  1.0
  O  O116  1  0.18908442  0.29218429  0.62023816  1.0
  O  O117  1  0.15481997  0.12058600  0.34232812  1.0
  O  O118  1  0.02434691  0.09695765  0.42735183  1.0
  O  O119  1  0.09969398  0.92436698  0.49681970  1.0
  O  O120  1  0.98711273  0.91693123  0.39366255  1.0
  O  O121  1  0.95557804  0.92206600  0.54000936  1.0
  O  O122  1  0.85297167  0.93214418  0.44275736  1.0
  O  O123  1  0.95831733  0.36854686  0.91439722  1.0
