# generated using pymatgen
data_ZnH8C17S4N(O8F)2
_symmetry_space_group_name_H-M   'P 1'
_cell_length_a   14.52771003
_cell_length_b   15.70789507
_cell_length_c   15.96772955
_cell_angle_alpha   87.39009901
_cell_angle_beta   89.29483579
_cell_angle_gamma   87.63763261
_symmetry_Int_Tables_number   1
_chemical_formula_structural   ZnH8C17S4N(O8F)2
_chemical_formula_sum   'Zn2 H16 C34 S8 N2 O32 F4'
_cell_volume   3636.75992446
_cell_formula_units_Z   2
loop_
 _symmetry_equiv_pos_site_id
 _symmetry_equiv_pos_as_xyz
  1  'x, y, z'
loop_
 _atom_site_type_symbol
 _atom_site_label
 _atom_site_symmetry_multiplicity
 _atom_site_fract_x
 _atom_site_fract_y
 _atom_site_fract_z
 _atom_site_occupancy
  Zn  Zn0  1  0.41064445  0.52703978  0.50866618  1.0
  Zn  Zn1  1  0.60456955  0.48882573  0.50979921  1.0
  H  H2  1  0.06930101  0.62892808  0.54713734  1.0
  H  H3  1  0.72977666  0.06390607  0.59668092  1.0
  H  H4  1  0.29188846  0.19588952  0.37391645  1.0
  H  H5  1  0.61986229  0.08742652  0.28636298  1.0
  H  H6  1  0.42338015  0.59718287  0.23311596  1.0
  H  H7  1  0.55959062  0.30918857  0.20366087  1.0
  H  H8  1  0.79461134  0.37732781  0.36579587  1.0
  H  H9  1  0.29113446  0.36620866  0.52602970  1.0
  H  H10  1  0.89931479  0.60515588  0.54954540  1.0
  H  H11  1  0.60833581  0.11610726  0.46280840  1.0
  H  H12  1  0.33460909  0.04996689  0.55083907  1.0
  H  H13  1  0.63548515  0.97626458  0.43479710  1.0
  H  H14  1  0.37397520  0.91347993  0.52832568  1.0
  H  H15  1  0.40538651  0.58573021  0.94051366  1.0
  H  H16  1  0.61817612  0.38490595  0.92759281  1.0
  H  H17  1  0.56262920  0.92254665  0.69811106  1.0
  C  C18  1  0.51271029  0.51100283  0.66835837  1.0
  C  C19  1  0.57162014  0.42545326  0.96378901  1.0
  C  C20  1  0.45170870  0.53810064  0.97113672  1.0
  C  C21  1  0.51273921  0.48743890  0.92312135  1.0
  C  C22  1  0.51194924  0.45990680  0.18812712  1.0
  C  C23  1  0.45581555  0.34452064  0.52209444  1.0
  C  C24  1  0.51344158  0.49772858  0.83479000  1.0
  C  C25  1  0.51264393  0.50607955  0.75868124  1.0
  C  C26  1  0.51606021  0.45861505  0.26430187  1.0
  C  C27  1  0.07315607  0.42423821  0.47700169  1.0
  C  C28  1  0.97844750  0.41703356  0.46567890  1.0
  C  C29  1  0.47167870  0.95647661  0.40219903  1.0
  C  C30  1  0.10349335  0.50306471  0.50346107  1.0
  C  C31  1  0.91749506  0.48145456  0.49565407  1.0
  C  C32  1  0.04232155  0.56950925  0.52718517  1.0
  C  C33  1  0.94864557  0.55706907  0.52712684  1.0
  C  C34  1  0.19826940  0.52135368  0.50451528  1.0
  C  C35  1  0.82107381  0.47082607  0.49989315  1.0
  C  C36  1  0.52061640  0.47199855  0.35288538  1.0
  C  C37  1  0.53404579  0.66695646  0.48272820  1.0
  C  C38  1  0.40867219  0.03895121  0.55964694  1.0
  C  C39  1  0.56973770  0.07419089  0.50551540  1.0
  C  C40  1  0.43617553  0.05239379  0.40258006  1.0
  C  C41  1  0.59938845  0.98059577  0.49532273  1.0
  C  C42  1  0.43402354  0.94271467  0.55494558  1.0
  C  C43  1  0.54374356  0.75824188  0.47789654  1.0
  C  C44  1  0.46329879  0.08946780  0.48914364  1.0
  C  C45  1  0.51408068  0.92483930  0.49040950  1.0
  C  C46  1  0.53653016  0.83470314  0.48450145  1.0
  C  C47  1  0.44560106  0.18013396  0.49693391  1.0
  C  C48  1  0.44650437  0.25483960  0.51248031  1.0
  C  C49  1  0.44983955  0.52698412  0.05777963  1.0
  C  C50  1  0.57021109  0.41603784  0.05052966  1.0
  C  C51  1  0.51010320  0.46673576  0.09993448  1.0
  S  S52  1  0.43024121  0.88599533  0.65917781  1.0
  S  S53  1  0.69368620  0.93984872  0.56293189  1.0
  S  S54  1  0.30366740  0.05846132  0.38535749  1.0
  S  S55  1  0.47768239  0.11628748  0.30702194  1.0
  S  S56  1  0.36248002  0.58645071  0.11360221  1.0
  S  S57  1  0.64899574  0.33882224  0.09953444  1.0
  S  S58  1  0.92911744  0.33134295  0.40926658  1.0
  S  S59  1  0.15465290  0.33160887  0.47321547  1.0
  N  N60  1  0.74241733  0.46477780  0.51005433  1.0
  N  N61  1  0.27285883  0.54513226  0.50267443  1.0
  O  O62  1  0.43451748  0.51813010  0.63307454  1.0
  O  O63  1  0.46277674  0.79957245  0.64848640  1.0
  O  O64  1  0.49740016  0.93212375  0.71734892  1.0
  O  O65  1  0.66290036  0.92336820  0.64831581  1.0
  O  O66  1  0.74409921  0.87552492  0.51921613  1.0
  O  O67  1  0.75710527  0.02071693  0.55995513  1.0
  O  O68  1  0.29011532  0.05362266  0.29726891  1.0
  O  O69  1  0.26241730  0.00104285  0.44548669  1.0
  O  O70  1  0.27705962  0.15060394  0.41629226  1.0
  O  O71  1  0.47006609  0.06972061  0.23289691  1.0
  O  O72  1  0.43689060  0.20039321  0.31534115  1.0
  O  O73  1  0.59155706  0.50616730  0.63259133  1.0
  O  O74  1  0.58623103  0.12387977  0.32576426  1.0
  O  O75  1  0.32623685  0.65215515  0.05682044  1.0
  O  O76  1  0.30506916  0.52595930  0.15690093  1.0
  O  O77  1  0.41960467  0.63422849  0.18182493  1.0
  O  O78  1  0.68709754  0.28595291  0.03606331  1.0
  O  O79  1  0.70596927  0.38195937  0.15570518  1.0
  O  O80  1  0.58080921  0.27886994  0.15386722  1.0
  O  O81  1  0.99825075  0.29896616  0.35381979  1.0
  O  O82  1  0.87641002  0.27956683  0.46699239  1.0
  O  O83  1  0.85879325  0.38960325  0.35147819  1.0
  O  O84  1  0.38207305  0.39352694  0.51738240  1.0
  O  O85  1  0.10128855  0.26160049  0.50321502  1.0
  O  O86  1  0.20208974  0.33207509  0.39347177  1.0
  O  O87  1  0.22070443  0.35435730  0.54378890  1.0
  O  O88  1  0.53559567  0.37009930  0.53191217  1.0
  O  O89  1  0.44683036  0.50238406  0.38579004  1.0
  O  O90  1  0.59744948  0.45478643  0.38845508  1.0
  O  O91  1  0.45053514  0.64616790  0.49122360  1.0
  O  O92  1  0.60529165  0.61742161  0.47947557  1.0
  O  O93  1  0.33880513  0.90576124  0.68898061  1.0
  F  F94  1  0.42799197  0.07233036  0.63634927  1.0
  F  F95  1  0.58933145  0.09952775  0.58687688  1.0
  F  F96  1  0.40352500  0.90462752  0.38123971  1.0
  F  F97  1  0.53970105  0.94572120  0.34154505  1.0
