# generated using pymatgen
data_AlH8C15O5F
_symmetry_space_group_name_H-M   'P 1'
_cell_length_a   6.64271034
_cell_length_b   15.29406154
_cell_length_c   17.75181757
_cell_angle_alpha   88.05275521
_cell_angle_beta   79.67432469
_cell_angle_gamma   78.89980154
_symmetry_Int_Tables_number   1
_chemical_formula_structural   AlH8C15O5F
_chemical_formula_sum   'Al2 H16 C30 O10 F2'
_cell_volume   1741.07752651
_cell_formula_units_Z   2
loop_
 _symmetry_equiv_pos_site_id
 _symmetry_equiv_pos_as_xyz
  1  'x, y, z'
loop_
 _atom_site_type_symbol
 _atom_site_label
 _atom_site_symmetry_multiplicity
 _atom_site_fract_x
 _atom_site_fract_y
 _atom_site_fract_z
 _atom_site_occupancy
  Al  Al0  1  0.00004627  0.49996845  0.49999328  1.0
  Al  Al1  1  0.50004849  0.49997638  0.50001420  1.0
  H  H2  1  0.32111923  0.39851018  0.45012382  1.0
  H  H3  1  0.67898580  0.60143997  0.54988407  1.0
  H  H4  1  0.81939694  0.50605530  0.72894528  1.0
  H  H5  1  0.74069243  0.50934112  0.87251662  1.0
  H  H6  1  0.39879761  0.46669012  0.87762844  1.0
  H  H7  1  0.47411457  0.46430610  0.73402915  1.0
  H  H8  1  0.60083798  0.53358277  0.12245390  1.0
  H  H9  1  0.52577424  0.53583727  0.26605220  1.0
  H  H10  1  0.18057209  0.49391012  0.27098441  1.0
  H  H11  1  0.25904860  0.49075534  0.12740831  1.0
  H  H12  1  0.33060578  0.93948805  0.53312962  1.0
  H  H13  1  0.66947835  0.06045793  0.46688321  1.0
  H  H14  1  0.16396267  0.23247482  0.53965524  1.0
  H  H15  1  0.25623125  0.06940853  0.53829598  1.0
  H  H16  1  0.83610900  0.76747394  0.46033643  1.0
  H  H17  1  0.74385005  0.93054233  0.46169158  1.0
  C  C18  1  0.82456704  0.33909004  0.50579901  1.0
  C  C19  1  0.80495829  0.50938575  0.36173591  1.0
  C  C20  1  0.17552422  0.66084676  0.49419834  1.0
  C  C21  1  0.19511366  0.49058227  0.63826878  1.0
  C  C22  1  0.15093587  0.48602480  0.72350855  1.0
  C  C23  1  0.94416404  0.49736679  0.76246512  1.0
  C  C24  1  0.90093616  0.49921109  0.84188690  1.0
  C  C25  1  0.06449512  0.48968979  0.88441462  1.0
  C  C26  1  0.27253124  0.47546978  0.84480643  1.0
  C  C27  1  0.31458118  0.47392133  0.76532610  1.0
  C  C28  1  0.01992455  0.49615664  0.96518882  1.0
  C  C29  1  0.97963667  0.50408577  0.03481494  1.0
  C  C30  1  0.93518042  0.51050248  0.11559084  1.0
  C  C31  1  0.72716984  0.52473164  0.15523928  1.0
  C  C32  1  0.68526388  0.52620333  0.23472722  1.0
  C  C33  1  0.84901576  0.51400602  0.27649624  1.0
  C  C34  1  0.05574801  0.50266153  0.23749292  1.0
  C  C35  1  0.09881667  0.50088780  0.15807321  1.0
  C  C36  1  0.13262614  0.76018977  0.49395198  1.0
  C  C37  1  0.86744383  0.23974687  0.50604967  1.0
  C  C38  1  0.26729239  0.81268094  0.51339450  1.0
  C  C39  1  0.21751761  0.90494884  0.51593433  1.0
  C  C40  1  0.73277327  0.18726111  0.48659718  1.0
  C  C41  1  0.78256377  0.09499591  0.48406465  1.0
  C  C42  1  0.05638047  0.19330650  0.52452067  1.0
  C  C43  1  0.10775431  0.10103802  0.52301910  1.0
  C  C44  1  0.94369942  0.80663767  0.47546659  1.0
  C  C45  1  0.89232868  0.89891556  0.47696434  1.0
  C  C46  1  0.02735184  0.95070058  0.49810193  1.0
  C  C47  1  0.97274394  0.04924899  0.50188916  1.0
  O  O48  1  0.97279527  0.37694739  0.51562900  1.0
  O  O49  1  0.61470586  0.51885391  0.39420177  1.0
  O  O50  1  0.35410213  0.62092414  0.50524384  1.0
  O  O51  1  0.03787320  0.50612348  0.60439821  1.0
  O  O52  1  0.02728455  0.62299681  0.48435545  1.0
  O  O53  1  0.38538345  0.48109465  0.60582529  1.0
  O  O54  1  0.64597119  0.37901574  0.49477272  1.0
  O  O55  1  0.96224615  0.49383097  0.39558492  1.0
  O  O56  1  0.28351519  0.46012376  0.46683475  1.0
  O  O57  1  0.71659698  0.53982385  0.53316257  1.0
  F  F58  1  0.45464170  0.77492123  0.53224344  1.0
  F  F59  1  0.54541536  0.22501393  0.46776760  1.0
