# generated using pymatgen
data_Zn2H16C23N11Cl3
_symmetry_space_group_name_H-M   'P 1'
_cell_length_a   14.63635786
_cell_length_b   14.86433041
_cell_length_c   14.98827069
_cell_angle_alpha   110.34636026
_cell_angle_beta   112.53343125
_cell_angle_gamma   103.89984510
_symmetry_Int_Tables_number   1
_chemical_formula_structural   Zn2H16C23N11Cl3
_chemical_formula_sum   'Zn4 H32 C46 N22 Cl6'
_cell_volume   2547.89257685
_cell_formula_units_Z   2
loop_
 _symmetry_equiv_pos_site_id
 _symmetry_equiv_pos_as_xyz
  1  'x, y, z'
loop_
 _atom_site_type_symbol
 _atom_site_label
 _atom_site_symmetry_multiplicity
 _atom_site_fract_x
 _atom_site_fract_y
 _atom_site_fract_z
 _atom_site_occupancy
  Zn  Zn0  1  0.86838434  0.00030160  0.87018147  1.0
  Zn  Zn1  1  0.01440588  0.86458454  0.87340311  1.0
  Zn  Zn2  1  0.14904275  0.99559613  0.14510349  1.0
  Zn  Zn3  1  0.00099550  0.13314639  0.13460220  1.0
  H  H4  1  0.64691733  0.82998694  0.81273043  1.0
  H  H5  1  0.58018051  0.53402794  0.80188241  1.0
  H  H6  1  0.95198662  0.05104910  0.55715056  1.0
  H  H7  1  0.27210907  0.49767517  0.17146946  1.0
  H  H8  1  0.29516076  0.66841689  0.17543657  1.0
  H  H9  1  0.05029388  0.50225716  0.82784230  1.0
  H  H10  1  0.02876739  0.33212280  0.82306380  1.0
  H  H11  1  0.97997977  0.79403970  0.61279463  1.0
  H  H12  1  0.02224686  0.83614190  0.20005133  1.0
  H  H13  1  0.16437863  0.34421929  0.38045525  1.0
  H  H14  1  0.08198278  0.66648711  0.83307950  1.0
  H  H15  1  0.99165750  0.17214885  0.82018865  1.0
  H  H16  1  0.22865975  0.80885558  0.18868794  1.0
  H  H17  1  0.18385828  0.34366813  0.17964653  1.0
  H  H18  1  0.65357110  0.05810298  0.81379532  1.0
  H  H19  1  0.15123866  0.02354714  0.82210430  1.0
  H  H20  1  0.81993135  0.00542100  0.15917852  1.0
  H  H21  1  0.37030070  0.17842477  0.39425560  1.0
  H  H22  1  0.02478437  0.14620251  0.48462642  1.0
  H  H23  1  0.00440490  0.09047289  0.35615772  1.0
  H  H24  1  0.34969698  0.27493571  0.59451156  1.0
  H  H25  1  0.44915052  0.35204745  0.72948895  1.0
  H  H26  1  0.78311831  0.68447542  0.42619229  1.0
  H  H27  1  0.46285335  0.11051143  0.02824800  1.0
  H  H28  1  0.75696909  0.62337956  0.29330650  1.0
  H  H29  1  0.56418073  0.62491219  0.47748122  1.0
  H  H30  1  0.66285676  0.70638302  0.61396409  1.0
  H  H31  1  0.86920173  0.22494768  0.24903878  1.0
  H  H32  1  0.78129251  0.27797251  0.21161549  1.0
  H  H33  1  0.39922083  0.10348744  0.22947435  1.0
  H  H34  1  0.61858806  0.22422035  0.07026740  1.0
  H  H35  1  0.46958702  0.17896675  0.19534545  1.0
  C  C36  1  0.70719191  0.79810693  0.81903079  1.0
  C  C37  1  0.11058881  0.30076497  0.99913716  1.0
  C  C38  1  0.16516935  0.69733992  0.00905573  1.0
  C  C39  1  0.70138669  0.16339695  0.99021784  1.0
  C  C40  1  0.30349933  0.10121006  0.99032456  1.0
  C  C41  1  0.41852737  0.15975507  0.91162027  1.0
  C  C42  1  0.51608946  0.16629558  0.90361077  1.0
  C  C43  1  0.93387438  0.83783688  0.63090827  1.0
  C  C44  1  0.39846154  0.12725871  0.97925022  1.0
  C  C45  1  0.61283856  0.18885951  0.98976063  1.0
  C  C46  1  0.92187588  0.98845790  0.39074042  1.0
  C  C47  1  0.44890161  0.42221070  0.63297121  1.0
  C  C48  1  0.91566016  0.97924852  0.47806219  1.0
  C  C49  1  0.54216623  0.51808363  0.71625283  1.0
  C  C50  1  0.86936687  0.88084894  0.46996353  1.0
  C  C51  1  0.58810699  0.59407585  0.69275336  1.0
  C  C52  1  0.82206316  0.78589225  0.36923845  1.0
  C  C53  1  0.54145223  0.57662533  0.58250335  1.0
  C  C54  1  0.83039198  0.79595010  0.28220381  1.0
  C  C55  1  0.44991127  0.47944479  0.50006617  1.0
  C  C56  1  0.98027218  0.88382304  0.18071615  1.0
  C  C57  1  0.19912969  0.28719520  0.36817145  1.0
  C  C58  1  0.88023614  0.89418787  0.29059744  1.0
  C  C59  1  0.90300826  0.90646567  0.20693885  1.0
  C  C60  1  0.40240016  0.40205542  0.52227381  1.0
  C  C61  1  0.22324418  0.49779378  0.09528964  1.0
  C  C62  1  0.23592074  0.59462105  0.09775019  1.0
  C  C63  1  0.17088871  0.59887448  0.00310656  1.0
  C  C64  1  0.14495545  0.40087807  0.99785806  1.0
  C  C65  1  0.30671407  0.30198292  0.43023468  1.0
  C  C66  1  0.10102212  0.50203354  0.90327721  1.0
  C  C67  1  0.08871463  0.40551156  0.90068719  1.0
  C  C68  1  0.11602467  0.71655053  0.92113325  1.0
  C  C69  1  0.03146508  0.19950393  0.90854365  1.0
  C  C70  1  0.79740777  0.18729438  0.08637151  1.0
  C  C71  1  0.30637377  0.10118417  0.08605186  1.0
  C  C72  1  0.19116175  0.78931284  0.10227682  1.0
  C  C73  1  0.13008428  0.28680628  0.09183542  1.0
  C  C74  1  0.70926182  0.09619626  0.90239066  1.0
  C  C75  1  0.19104130  0.04526356  0.90904600  1.0
  C  C76  1  0.87705243  0.97021873  0.15997595  1.0
  C  C77  1  0.30385839  0.20245000  0.37497763  1.0
  C  C78  1  0.79785480  0.70041195  0.80932264  1.0
  C  C79  1  0.83779624  0.93017180  0.63575283  1.0
  C  C80  1  0.69082958  0.69154985  0.77605706  1.0
  C  C81  1  0.87595849  0.87910666  0.56969120  1.0
  N  N82  1  0.81470879  0.86346203  0.87215029  1.0
  N  N83  1  0.00548944  0.13249936  0.94546912  1.0
  N  N84  1  0.11220721  0.81121480  0.95856123  1.0
  N  N85  1  0.85539422  0.13836053  0.05684519  1.0
  N  N86  1  0.20388936  0.05086105  0.06259110  1.0
  N  N87  1  0.15934869  0.85677732  0.07182795  1.0
  N  N88  1  0.06603351  0.18583245  0.05804371  1.0
  N  N89  1  0.93025400  0.86301082  0.72469558  1.0
  N  N90  1  0.79913274  0.08069031  0.94194831  1.0
  N  N91  1  0.13300139  0.01284622  0.95203838  1.0
  N  N92  1  0.93706304  0.98681289  0.11286307  1.0
  N  N93  1  0.20293324  0.13401506  0.28622754  1.0
  N  N94  1  0.87156904  0.80325344  0.86667709  1.0
  N  N95  1  0.86992514  0.92062529  0.72754775  1.0
  N  N96  1  0.97047606  0.08972212  0.40406274  1.0
  N  N97  1  0.39952990  0.35015829  0.65883219  1.0
  N  N98  1  0.76582647  0.68780044  0.35544993  1.0
  N  N99  1  0.58367087  0.65266763  0.55758941  1.0
  N  N100  1  0.83493205  0.25211056  0.19717442  1.0
  N  N101  1  0.39724772  0.14785498  0.19091825  1.0
  N  N102  1  0.00054643  0.93357809  0.12560295  1.0
  N  N103  1  0.13737894  0.18713809  0.28223989  1.0
  Cl  Cl104  1  0.77736097  0.67967552  0.15931414  1.0
  Cl  Cl105  1  0.49617258  0.12380649  0.77064790  1.0
  Cl  Cl106  1  0.32405636  0.18803634  0.82615012  1.0
  Cl  Cl107  1  0.39817738  0.45313015  0.36313090  1.0
  Cl  Cl108  1  0.83583601  0.59867845  0.78036410  1.0
  Cl  Cl109  1  0.76093047  0.99903700  0.61368050  1.0
