# generated using pymatgen
data_AlH9C21N3(ClO2)3
_symmetry_space_group_name_H-M   'P 1'
_cell_length_a   3.97604566
_cell_length_b   27.93928127
_cell_length_c   27.93956483
_cell_angle_alpha   60.00150112
_cell_angle_beta   89.99936042
_cell_angle_gamma   89.99932990
_symmetry_Int_Tables_number   1
_chemical_formula_structural   AlH9C21N3(ClO2)3
_chemical_formula_sum   'Al2 H18 C42 N6 Cl6 O12'
_cell_volume   2687.96389656
_cell_formula_units_Z   2
loop_
 _symmetry_equiv_pos_site_id
 _symmetry_equiv_pos_as_xyz
  1  'x, y, z'
loop_
 _atom_site_type_symbol
 _atom_site_label
 _atom_site_symmetry_multiplicity
 _atom_site_fract_x
 _atom_site_fract_y
 _atom_site_fract_z
 _atom_site_occupancy
  Al  Al0  1  0.01028110  0.00000479  0.49999947  1.0
  Al  Al1  1  0.01028605  0.66666916  0.16666044  1.0
  H  H2  1  0.46957496  0.51141500  0.31073485  1.0
  H  H3  1  0.47968545  0.40767429  0.36015347  1.0
  H  H4  1  0.51111956  0.41383679  0.20326065  1.0
  H  H5  1  0.51113880  0.25283166  0.46340229  1.0
  H  H6  1  0.47967626  0.25899543  0.30651139  1.0
  H  H7  1  0.46955056  0.15525349  0.35593064  1.0
  H  H8  1  0.46951467  0.81073803  0.17785048  1.0
  H  H9  1  0.47963825  0.86015778  0.23217453  1.0
  H  H10  1  0.51117785  0.70326115  0.38289521  1.0
  H  H11  1  0.51114053  0.96340520  0.28377037  1.0
  H  H12  1  0.47966275  0.80651152  0.43449106  1.0
  H  H13  1  0.46953037  0.85592923  0.48881706  1.0
  H  H14  1  0.46957966  0.67784669  0.01141129  1.0
  H  H15  1  0.47968755  0.73217369  0.90766824  1.0
  H  H16  1  0.51113679  0.88289537  0.91384402  1.0
  H  H17  1  0.51116241  0.78377091  0.75282393  1.0
  H  H18  1  0.47964960  0.93449675  0.75899768  1.0
  H  H19  1  0.46955340  0.98881561  0.65525944  1.0
  C  C20  1  0.50770368  0.95200282  0.58455546  1.0
  C  C21  1  0.50770030  0.08455282  0.46345002  1.0
  C  C22  1  0.50770086  0.96345006  0.45200289  1.0
  C  C23  1  0.50769697  0.58211356  0.20321682  1.0
  C  C24  1  0.50769642  0.70322169  0.21466019  1.0
  C  C25  1  0.50771120  0.71466398  0.08211475  1.0
  C  C26  1  0.50025144  0.52068599  0.22974931  1.0
  C  C27  1  0.48275069  0.48935497  0.28777404  1.0
  C  C28  1  0.48732693  0.43215410  0.31525555  1.0
  C  C29  1  0.50006557  0.40496255  0.28435597  1.0
  C  C30  1  0.50844925  0.43559554  0.22650380  1.0
  C  C31  1  0.51189351  0.49312828  0.19935708  1.0
  C  C32  1  0.50846461  0.23107581  0.44016091  1.0
  C  C33  1  0.50007786  0.26170798  0.38230988  1.0
  C  C34  1  0.48732383  0.23451934  0.35140851  1.0
  C  C35  1  0.48273771  0.17731847  0.37888895  1.0
  C  C36  1  0.50024410  0.14598577  0.43691593  1.0
  C  C37  1  0.51190156  0.17354513  0.46730660  1.0
  C  C38  1  0.50021664  0.72975040  0.24956267  1.0
  C  C39  1  0.48269748  0.78777702  0.22287107  1.0
  C  C40  1  0.48729268  0.81525867  0.25259157  1.0
  C  C41  1  0.50006822  0.78435704  0.31068148  1.0
  C  C42  1  0.50846740  0.72650399  0.33789672  1.0
  C  C43  1  0.51188520  0.69935957  0.30750938  1.0
  C  C44  1  0.50845869  0.94016527  0.32876706  1.0
  C  C45  1  0.50006732  0.88230975  0.35598390  1.0
  C  C46  1  0.48730995  0.85141020  0.41407279  1.0
  C  C47  1  0.48272769  0.87889144  0.44379565  1.0
  C  C48  1  0.50024368  0.93691723  0.41710427  1.0
  C  C49  1  0.51190198  0.96731051  0.35915219  1.0
  C  C50  1  0.50025498  0.74956782  0.02068340  1.0
  C  C51  1  0.48275562  0.72287335  0.98934847  1.0
  C  C52  1  0.48733654  0.75259753  0.93214432  1.0
  C  C53  1  0.50008148  0.81068738  0.90495778  1.0
  C  C54  1  0.50846433  0.83790330  0.93559676  1.0
  C  C55  1  0.51190145  0.80752034  0.99312491  1.0
  C  C56  1  0.50847276  0.82877083  0.73106906  1.0
  C  C57  1  0.50007764  0.85598924  0.76170538  1.0
  C  C58  1  0.48731734  0.91408075  0.73451444  1.0
  C  C59  1  0.48274343  0.94379832  0.67731576  1.0
  C  C60  1  0.50025313  0.91710684  0.64598039  1.0
  C  C61  1  0.51191182  0.85915792  0.67353669  1.0
  N  N62  1  0.50133221  0.34699081  0.30716163  1.0
  N  N63  1  0.50135395  0.31967517  0.35950686  1.0
  N  N64  1  0.50135107  0.80715996  0.34584763  1.0
  N  N65  1  0.50133474  0.85950723  0.32081862  1.0
  N  N66  1  0.50134734  0.84584958  0.84699464  1.0
  N  N67  1  0.50133941  0.82082042  0.81967540  1.0
  Cl  Cl68  1  0.51278512  0.52919616  0.12794020  1.0
  Cl  Cl69  1  0.51280068  0.13747312  0.53872590  1.0
  Cl  Cl70  1  0.51282278  0.62794056  0.34285337  1.0
  Cl  Cl71  1  0.51279822  0.03872458  0.32381158  1.0
  Cl  Cl72  1  0.51279581  0.84285590  0.02919862  1.0
  Cl  Cl73  1  0.51281764  0.82380965  0.63746505  1.0
  O  O74  1  0.74756370  0.99659539  0.44445784  1.0
  O  O75  1  0.74756141  0.94446221  0.55895064  1.0
  O  O76  1  0.74756906  0.05895556  0.49659345  1.0
  O  O77  1  0.27613075  0.94973842  0.48809216  1.0
  O  O78  1  0.27612246  0.06217653  0.44973536  1.0
  O  O79  1  0.27613879  0.98809363  0.56217638  1.0
  O  O80  1  0.74757382  0.72221259  0.10771233  1.0
  O  O81  1  0.74756114  0.60771469  0.17007251  1.0
  O  O82  1  0.74756147  0.67007816  0.22220325  1.0
  O  O83  1  0.27612497  0.67857549  0.10448910  1.0
  O  O84  1  0.27612044  0.71693484  0.17857018  1.0
  O  O85  1  0.27614130  0.60449424  0.21692894  1.0
