# generated using pymatgen
data_Zn4H16C31(Br4O5)3
_symmetry_space_group_name_H-M   'P 1'
_cell_length_a   18.15871790
_cell_length_b   18.17993029
_cell_length_c   18.22515279
_cell_angle_alpha   61.17291914
_cell_angle_beta   61.22023883
_cell_angle_gamma   60.91509153
_symmetry_Int_Tables_number   1
_chemical_formula_structural   Zn4H16C31(Br4O5)3
_chemical_formula_sum   'Zn8 H32 C62 Br24 O30'
_cell_volume   4359.88575983
_cell_formula_units_Z   2
loop_
 _symmetry_equiv_pos_site_id
 _symmetry_equiv_pos_as_xyz
  1  'x, y, z'
loop_
 _atom_site_type_symbol
 _atom_site_label
 _atom_site_symmetry_multiplicity
 _atom_site_fract_x
 _atom_site_fract_y
 _atom_site_fract_z
 _atom_site_occupancy
  Zn  Zn0  1  0.62097807  0.29131954  0.29244460  1.0
  Zn  Zn1  1  0.20633233  0.88190265  0.70586851  1.0
  Zn  Zn2  1  0.79485237  0.29376058  0.11897734  1.0
  Zn  Zn3  1  0.79004685  0.11917550  0.29450415  1.0
  Zn  Zn4  1  0.21049412  0.70489747  0.88051782  1.0
  Zn  Zn5  1  0.79540297  0.29554869  0.29284676  1.0
  Zn  Zn6  1  0.37932960  0.70669890  0.70806477  1.0
  Zn  Zn7  1  0.20249885  0.70656507  0.70849147  1.0
  H  H8  1  0.35650785  0.03903663  0.49706113  1.0
  H  H9  1  0.38544232  0.21661606  0.48035368  1.0
  H  H10  1  0.27956321  0.26767157  0.36300458  1.0
  H  H11  1  0.26232056  0.19375770  0.47313991  1.0
  H  H12  1  0.22145019  0.31576536  0.52874462  1.0
  H  H13  1  0.15268026  0.34937009  0.46692333  1.0
  H  H14  1  0.24231652  0.39044900  0.41889920  1.0
  H  H15  1  0.88289444  0.29111580  0.43430261  1.0
  H  H16  1  0.99297706  0.21432847  0.42337447  1.0
  H  H17  1  0.86228565  0.27077534  0.58845868  1.0
  H  H18  1  0.97161371  0.19438191  0.57868260  1.0
  H  H19  1  0.00256064  0.04575623  0.59903129  1.0
  H  H20  1  0.03423428  0.31406909  0.45239048  1.0
  H  H21  1  0.96677736  0.34697015  0.54837349  1.0
  H  H22  1  0.92477231  0.39141957  0.46013452  1.0
  H  H23  1  0.59734909  0.63129995  0.71241878  1.0
  H  H24  1  0.61743754  0.51843699  0.78198682  1.0
  H  H25  1  0.71771473  0.63949244  0.73483451  1.0
  H  H26  1  0.73797681  0.52817170  0.80686163  1.0
  H  H27  1  0.78246204  0.47401345  0.68273884  1.0
  H  H28  1  0.84833698  0.53718616  0.65285843  1.0
  H  H29  1  0.75993751  0.58545821  0.60975674  1.0
  H  H30  1  0.64470877  0.50141136  0.96023836  1.0
  H  H31  1  0.14484617  0.53368794  0.71804968  1.0
  H  H32  1  0.03166966  0.54779926  0.78629811  1.0
  H  H33  1  0.17224042  0.37207462  0.75572336  1.0
  H  H34  1  0.05865744  0.38731603  0.81931769  1.0
  H  H35  1  0.01536769  0.50012605  0.68196727  1.0
  H  H36  1  0.08619516  0.39490627  0.66751636  1.0
  H  H37  1  0.13000879  0.48262872  0.61875846  1.0
  H  H38  1  0.40302565  0.28739052  0.36845366  1.0
  H  H39  1  0.01020912  0.38681314  0.96370304  1.0
  C  C40  1  0.87876588  0.40104955  0.11128140  1.0
  C  C41  1  0.06835343  0.94508200  0.53709517  1.0
  C  C42  1  0.92133563  0.53336037  0.07443293  1.0
  C  C43  1  0.37917317  0.23110731  0.41715518  1.0
  C  C44  1  0.28336917  0.25253963  0.42758487  1.0
  C  C45  1  0.22152381  0.33138981  0.46239854  1.0
  C  C46  1  0.92639678  0.23298923  0.47139082  1.0
  C  C47  1  0.92969426  0.25398814  0.54081259  1.0
  C  C48  1  0.96582508  0.33087933  0.49806042  1.0
  C  C49  1  0.62175325  0.58235826  0.76851952  1.0
  C  C50  1  0.71648418  0.57409895  0.74831165  1.0
  C  C51  1  0.78028118  0.54083633  0.66906318  1.0
  C  C52  1  0.55373074  0.42860329  0.05406517  1.0
  C  C53  1  0.09951477  0.49926783  0.77575857  1.0
  C  C54  1  0.10465499  0.42099795  0.76136597  1.0
  C  C55  1  0.08282504  0.45141157  0.67772450  1.0
  C  C56  1  0.93381389  0.46146118  0.05443656  1.0
  C  C57  1  0.44766009  0.94491196  0.57044054  1.0
  C  C58  1  0.41916525  0.02262497  0.50467197  1.0
  C  C59  1  0.00679234  0.02659822  0.54866435  1.0
  C  C60  1  0.58216114  0.49395609  0.97633584  1.0
  C  C61  1  0.61134147  0.37585736  0.11218857  1.0
  C  C62  1  0.00196193  0.44185600  0.97897975  1.0
  C  C63  1  0.46983491  0.07888767  0.44859281  1.0
  C  C64  1  0.95014791  0.08262829  0.49796910  1.0
  C  C65  1  0.53131176  0.54990709  0.91987705  1.0
  C  C66  1  0.05978657  0.49102549  0.92414942  1.0
  C  C67  1  0.12168407  0.88827187  0.59954378  1.0
  C  C68  1  0.55294822  0.05556118  0.45577687  1.0
  C  C69  1  0.95313150  0.05623757  0.43523103  1.0
  C  C70  1  0.44866503  0.54246794  0.94271226  1.0
  C  C71  1  0.05030728  0.56051359  0.94563315  1.0
  C  C72  1  0.38969702  0.88738144  0.62376811  1.0
  C  C73  1  0.90669256  0.03070474  0.02557542  1.0
  C  C74  1  0.95703460  0.97681801  0.97134454  1.0
  C  C75  1  0.04994823  0.94336356  0.94829837  1.0
  C  C76  1  0.94961753  0.05098982  0.05647650  1.0
  C  C77  1  0.09285156  0.96327956  0.97953363  1.0
  C  C78  1  0.04254030  0.01740905  0.03349991  1.0
  C  C79  1  0.60940224  0.11384725  0.39064319  1.0
  C  C80  1  0.88902102  0.11623132  0.38384647  1.0
  C  C81  1  0.39202864  0.60791651  0.88427211  1.0
  C  C82  1  0.11338535  0.61245456  0.88590930  1.0
  C  C83  1  0.89478173  0.10977360  0.11423249  1.0
  C  C84  1  0.10507669  0.88596576  0.88920343  1.0
  C  C85  1  0.61605986  0.38227947  0.39383913  1.0
  C  C86  1  0.38221595  0.60950663  0.61637201  1.0
  C  C87  1  0.57133664  0.39424842  0.55128171  1.0
  C  C88  1  0.44800855  0.45836623  0.47590504  1.0
  C  C89  1  0.38615825  0.50739574  0.54862371  1.0
  C  C90  1  0.51865689  0.46682103  0.60155435  1.0
  C  C91  1  0.57012026  0.53515477  0.40612843  1.0
  C  C92  1  0.49467859  0.60424641  0.45796051  1.0
  C  C93  1  0.55230038  0.44054940  0.45693265  1.0
  C  C94  1  0.44376859  0.54826187  0.55660657  1.0
  C  C95  1  0.58035966  0.97899982  0.52393334  1.0
  C  C96  1  0.01683660  0.97557900  0.42137890  1.0
  C  C97  1  0.42145719  0.47455497  0.01913779  1.0
  C  C98  1  0.98032073  0.58216566  0.01984214  1.0
  C  C99  1  0.52755238  0.92396848  0.58230085  1.0
  C  C100  1  0.07513160  0.92000120  0.47141766  1.0
  C  C101  1  0.47412820  0.41661765  0.07470732  1.0
  Br  Br102  1  0.69775936  0.33472096  0.54963900  1.0
  Br  Br103  1  0.41615488  0.35270034  0.50822895  1.0
  Br  Br104  1  0.33353900  0.42884722  0.66564336  1.0
  Br  Br105  1  0.47057588  0.41505029  0.73277416  1.0
  Br  Br106  1  0.53973523  0.28391482  0.62020633  1.0
  Br  Br107  1  0.69237085  0.51930449  0.39077698  1.0
  Br  Br108  1  0.58393843  0.58470945  0.27760957  1.0
  Br  Br109  1  0.40512398  0.69851641  0.39914807  1.0
  Br  Br110  1  0.41500735  0.52660043  0.36573429  1.0
  Br  Br111  1  0.54512734  0.68701845  0.44681700  1.0
  Br  Br112  1  0.68662665  0.95442289  0.54029828  1.0
  Br  Br113  1  0.02835941  0.94611309  0.32878092  1.0
  Br  Br114  1  0.31551716  0.45840750  0.04293742  1.0
  Br  Br115  1  0.96213790  0.68331921  0.04085096  1.0
  Br  Br116  1  0.26911587  0.59100873  0.52688881  1.0
  Br  Br117  1  0.55997080  0.82731061  0.68004544  1.0
  Br  Br118  1  0.16516472  0.81557752  0.44604170  1.0
  Br  Br119  1  0.44202900  0.31924932  0.17179999  1.0
  Br  Br120  1  0.82244392  0.56833866  0.16923478  1.0
  Br  Br121  1  0.60084639  0.50907861  0.60220741  1.0
  Br  Br122  1  0.78094353  0.07724441  0.05833257  1.0
  Br  Br123  1  0.90197557  0.94728607  0.92835803  1.0
  Br  Br124  1  0.21855634  0.91611070  0.94736820  1.0
  Br  Br125  1  0.09788293  0.04684544  0.07621653  1.0
  O  O126  1  0.75140722  0.25033866  0.24853127  1.0
  O  O127  1  0.57205977  0.36031780  0.19511677  1.0
  O  O128  1  0.13839304  0.80481084  0.62691289  1.0
  O  O129  1  0.42861152  0.80374144  0.64152955  1.0
  O  O130  1  0.57276537  0.19581924  0.38422878  1.0
  O  O131  1  0.88843876  0.19623305  0.34286802  1.0
  O  O132  1  0.42784418  0.61301080  0.80311338  1.0
  O  O133  1  0.11336745  0.65262438  0.80626438  1.0
  O  O134  1  0.24890043  0.75177790  0.75015695  1.0
  O  O135  1  0.69503473  0.35452838  0.07217920  1.0
  O  O136  1  0.85901347  0.37683867  0.06972389  1.0
  O  O137  1  0.30603264  0.92851993  0.64344341  1.0
  O  O138  1  0.14259236  0.93022373  0.62219757  1.0
  O  O139  1  0.84052018  0.08228558  0.38630199  1.0
  O  O140  1  0.68818477  0.07713629  0.34666206  1.0
  O  O141  1  0.16102767  0.61176816  0.91964615  1.0
  O  O142  1  0.31386045  0.65363624  0.92036484  1.0
  O  O143  1  0.87629798  0.19274770  0.07336411  1.0
  O  O144  1  0.12758537  0.92749764  0.80676873  1.0
  O  O145  1  0.69873917  0.35511364  0.38045118  1.0
  O  O146  1  0.57905084  0.37034841  0.35921710  1.0
  O  O147  1  0.30069298  0.61706894  0.65246972  1.0
  O  O148  1  0.42113020  0.64595897  0.62359652  1.0
  O  O149  1  0.87284808  0.06966828  0.19707130  1.0
  O  O150  1  0.85947531  0.37666389  0.19454233  1.0
  O  O151  1  0.12332057  0.80270955  0.92868017  1.0
  O  O152  1  0.44016371  0.15528759  0.38502454  1.0
  O  O153  1  0.88935025  0.16179186  0.51079831  1.0
  O  O154  1  0.55973719  0.61415901  0.84404599  1.0
  O  O155  1  0.12754573  0.47149852  0.85076856  1.0
