# generated using pymatgen
data_AlH12C33(ClO2)3
_symmetry_space_group_name_H-M   'P 1'
_cell_length_a   3.96801403
_cell_length_b   20.44123482
_cell_length_c   20.48109223
_cell_angle_alpha   60.07962440
_cell_angle_beta   87.04928337
_cell_angle_gamma   86.99615418
_symmetry_Int_Tables_number   1
_chemical_formula_structural   AlH12C33(ClO2)3
_chemical_formula_sum   'Al1 H12 C33 Cl3 O6'
_cell_volume   1437.23790243
_cell_formula_units_Z   1
loop_
 _symmetry_equiv_pos_site_id
 _symmetry_equiv_pos_as_xyz
  1  'x, y, z'
loop_
 _atom_site_type_symbol
 _atom_site_label
 _atom_site_symmetry_multiplicity
 _atom_site_fract_x
 _atom_site_fract_y
 _atom_site_fract_z
 _atom_site_occupancy
  Al  Al0  1  0.03353213  0.49949845  0.49997450  1.0
  H  H1  1  0.82441763  0.30763063  0.70672159  1.0
  H  H2  1  0.80422318  0.23502508  0.84760721  1.0
  H  H3  1  0.22995239  0.70860821  0.30797050  1.0
  H  H4  1  0.22819813  0.84972025  0.23601875  1.0
  H  H5  1  0.27133478  0.30909648  0.48454667  1.0
  H  H6  1  0.28580602  0.23712683  0.41529566  1.0
  H  H7  1  0.78398310  0.70730592  0.48346044  1.0
  H  H8  1  0.76156179  0.84844027  0.41499549  1.0
  H  H9  1  0.19518928  0.48390428  0.70934620  1.0
  H  H10  1  0.19617435  0.41497401  0.85022513  1.0
  H  H11  1  0.87383828  0.48046191  0.30732118  1.0
  H  H12  1  0.86743299  0.41221999  0.23451166  1.0
  C  C13  1  0.51896220  0.44194035  0.61612077  1.0
  C  C14  1  0.56200697  0.44086636  0.44205093  1.0
  C  C15  1  0.51806784  0.61585757  0.44145936  1.0
  C  C16  1  0.68275712  0.32980240  0.73883566  1.0
  C  C17  1  0.67252157  0.28965073  0.81703184  1.0
  C  C18  1  0.35035515  0.73986888  0.33012763  1.0
  C  C19  1  0.34832160  0.81821107  0.29033812  1.0
  C  C20  1  0.40681171  0.33021526  0.43051633  1.0
  C  C21  1  0.41393925  0.29040818  0.39195312  1.0
  C  C22  1  0.65772559  0.73918786  0.42994249  1.0
  C  C23  1  0.64609541  0.81751447  0.39183826  1.0
  C  C24  1  0.33216187  0.43000900  0.74027874  1.0
  C  C25  1  0.33156537  0.39158145  0.81848718  1.0
  C  C26  1  0.74137784  0.42781635  0.32970906  1.0
  C  C27  1  0.73894779  0.38975054  0.28944431  1.0
  C  C28  1  0.51052916  0.39988191  0.69986153  1.0
  C  C29  1  0.49963804  0.32044746  0.85802607  1.0
  C  C30  1  0.49735989  0.28066747  0.93765782  1.0
  C  C31  1  0.49949630  0.24634053  0.00632860  1.0
  C  C32  1  0.50609533  0.20680439  0.08566021  1.0
  C  C33  1  0.50797457  0.69975743  0.39976491  1.0
  C  C34  1  0.49431927  0.85820574  0.32094495  1.0
  C  C35  1  0.49180395  0.93796330  0.28099365  1.0
  C  C36  1  0.49476380  0.00676607  0.24658850  1.0
  C  C37  1  0.50329998  0.08615599  0.20666865  1.0
  C  C38  1  0.57195491  0.39889351  0.40002969  1.0
  C  C39  1  0.57632072  0.32022594  0.32021478  1.0
  C  C40  1  0.57039319  0.28108282  0.27966508  1.0
  C  C41  1  0.55758365  0.24688802  0.24525160  1.0
  C  C42  1  0.53856275  0.20708686  0.20588936  1.0
  C  C43  1  0.49143495  0.12719795  0.12712335  1.0
  C  C44  1  0.52656003  0.12740325  0.24475881  1.0
  C  C45  1  0.52968222  0.24546790  0.12632771  1.0
  Cl  Cl46  1  0.54166372  0.07929577  0.34106644  1.0
  Cl  Cl47  1  0.54876791  0.34187450  0.07764749  1.0
  Cl  Cl48  1  0.45811302  0.07896594  0.07942234  1.0
  O  O49  1  0.29581701  0.58233168  0.42685465  1.0
  O  O50  1  0.27947914  0.48997723  0.58295161  1.0
  O  O51  1  0.32150571  0.42668288  0.49082133  1.0
  O  O52  1  0.74925985  0.58241940  0.48951274  1.0
  O  O53  1  0.79174814  0.48824828  0.42710061  1.0
  O  O54  1  0.76649226  0.42720419  0.58257909  1.0
