# generated using pymatgen
data_ZnH12C22N3O8
_symmetry_space_group_name_H-M   'P 1'
_cell_length_a   15.91450904
_cell_length_b   17.26625766
_cell_length_c   17.97687735
_cell_angle_alpha   89.77969964
_cell_angle_beta   87.59314981
_cell_angle_gamma   84.30604334
_symmetry_Int_Tables_number   1
_chemical_formula_structural   ZnH12C22N3O8
_chemical_formula_sum   'Zn2 H24 C44 N6 O16'
_cell_volume   4911.04941118
_cell_formula_units_Z   2
loop_
 _symmetry_equiv_pos_site_id
 _symmetry_equiv_pos_as_xyz
  1  'x, y, z'
loop_
 _atom_site_type_symbol
 _atom_site_label
 _atom_site_symmetry_multiplicity
 _atom_site_fract_x
 _atom_site_fract_y
 _atom_site_fract_z
 _atom_site_occupancy
  Zn  Zn0  1  0.41089545  0.50387346  0.50338999  1.0
  Zn  Zn1  1  0.58933379  0.49618158  0.49668657  1.0
  H  H2  1  0.71697004  0.57328528  0.57616297  1.0
  H  H3  1  0.87625065  0.57038094  0.57561923  1.0
  H  H4  1  0.88878951  0.39898083  0.40040307  1.0
  H  H5  1  0.72840991  0.40901567  0.40811415  1.0
  H  H6  1  0.11146480  0.59968820  0.60072275  1.0
  H  H7  1  0.12394581  0.43049357  0.42352226  1.0
  H  H8  1  0.28318772  0.42763429  0.42292597  1.0
  H  H9  1  0.27176278  0.58971180  0.59298908  1.0
  H  H10  1  0.62109277  0.74091471  0.49498953  1.0
  H  H11  1  0.61380481  0.88716664  0.49486733  1.0
  H  H12  1  0.34267790  0.89999318  0.50657689  1.0
  H  H13  1  0.35017667  0.75330373  0.50707542  1.0
  H  H14  1  0.65712344  0.10011798  0.49389825  1.0
  H  H15  1  0.38600314  0.11299488  0.50386751  1.0
  H  H16  1  0.37871301  0.25920762  0.50362860  1.0
  H  H17  1  0.64959053  0.24680926  0.49394281  1.0
  H  H18  1  0.36473986  0.51692293  0.26633467  1.0
  H  H19  1  0.63624154  0.48427871  0.25577962  1.0
  H  H20  1  0.36551155  0.49426585  0.74393756  1.0
  H  H21  1  0.63440614  0.50499769  0.73411408  1.0
  H  H22  1  0.61485727  0.41156280  0.03772266  1.0
  H  H23  1  0.38373427  0.59074627  0.04778665  1.0
  H  H24  1  0.60466965  0.57958009  0.95415528  1.0
  H  H25  1  0.39357434  0.41817687  0.96040524  1.0
  C  C26  1  0.49086990  0.65176400  0.50169070  1.0
  C  C27  1  0.50000110  0.49981095  0.64632126  1.0
  C  C28  1  0.50892726  0.34832699  0.49836129  1.0
  C  C29  1  0.50066823  0.50041883  0.35375771  1.0
  C  C30  1  0.75803094  0.53596233  0.53825560  1.0
  C  C31  1  0.84527833  0.53445589  0.53774121  1.0
  C  C32  1  0.89326836  0.48444037  0.48723280  1.0
  C  C33  1  0.85207327  0.43805464  0.43967893  1.0
  C  C34  1  0.76421723  0.44343461  0.44376644  1.0
  C  C35  1  0.14813971  0.56100726  0.56108321  1.0
  C  C36  1  0.10693348  0.51528924  0.51290677  1.0
  C  C37  1  0.15492406  0.46602760  0.46175249  1.0
  C  C38  1  0.24216926  0.46452994  0.46122593  1.0
  C  C39  1  0.23597693  0.55567457  0.55696410  1.0
  C  C40  1  0.48602527  0.73884114  0.50152942  1.0
  C  C41  1  0.56053711  0.77651110  0.49790661  1.0
  C  C42  1  0.55677551  0.85705944  0.49767561  1.0
  C  C43  1  0.47755453  0.90149586  0.50091065  1.0
  C  C44  1  0.40307744  0.86406939  0.50424772  1.0
  C  C45  1  0.40730200  0.78326934  0.50462247  1.0
  C  C46  1  0.59672234  0.13603854  0.49596381  1.0
  C  C47  1  0.52224592  0.09860563  0.49876962  1.0
  C  C48  1  0.44304516  0.14306502  0.50153996  1.0
  C  C49  1  0.43925872  0.22360431  0.50124536  1.0
  C  C50  1  0.51376154  0.26126445  0.49833047  1.0
  C  C51  1  0.59247315  0.21683971  0.49580080  1.0
  C  C52  1  0.50050392  0.50045612  0.26999246  1.0
  C  C53  1  0.42426166  0.51003989  0.23375617  1.0
  C  C54  1  0.42296455  0.51244718  0.15626203  1.0
  C  C55  1  0.50015164  0.50002856  0.11301738  1.0
  C  C56  1  0.57756526  0.48774569  0.15033196  1.0
  C  C57  1  0.57652894  0.49070857  0.22787536  1.0
  C  C58  1  0.49981900  0.49993934  0.03417259  1.0
  C  C59  1  0.49975371  0.50014506  0.96591501  1.0
  C  C60  1  0.49980016  0.50015280  0.88705661  1.0
  C  C61  1  0.42364158  0.49401269  0.84958774  1.0
  C  C62  1  0.42454635  0.49632977  0.77202291  1.0
  C  C63  1  0.49991448  0.49979752  0.73007970  1.0
  C  C64  1  0.57521110  0.50340587  0.76648059  1.0
  C  C65  1  0.57602994  0.50628627  0.84395952  1.0
  C  C66  1  0.66382588  0.47112359  0.11254392  1.0
  C  C67  1  0.33662877  0.52764649  0.12480468  1.0
  C  C68  1  0.66084480  0.51590552  0.87523566  1.0
  C  C69  1  0.33871337  0.48583852  0.88745050  1.0
  N  N70  1  0.71844943  0.49133074  0.49221741  1.0
  N  N71  1  0.98287890  0.47568373  0.48098272  1.0
  N  N72  1  0.01731364  0.52395497  0.51920845  1.0
  N  N73  1  0.28174241  0.50848798  0.50790467  1.0
  N  N74  1  0.46593488  0.98364419  0.50094394  1.0
  N  N75  1  0.53385268  0.01644829  0.49864781  1.0
  O  O76  1  0.42118352  0.62104315  0.50631245  1.0
  O  O77  1  0.56436412  0.61479901  0.49704022  1.0
  O  O78  1  0.57156965  0.49911629  0.61213682  1.0
  O  O79  1  0.42837427  0.50054381  0.61748603  1.0
  O  O80  1  0.57860970  0.37902640  0.49771650  1.0
  O  O81  1  0.43542516  0.38531223  0.49923162  1.0
  O  O82  1  0.42886387  0.50586610  0.38803903  1.0
  O  O83  1  0.57259742  0.49486277  0.38251199  1.0
  O  O84  1  0.67076127  0.42383558  0.05180336  1.0
  O  O85  1  0.72622838  0.49524865  0.13716438  1.0
  O  O86  1  0.32844565  0.57596043  0.06506157  1.0
  O  O87  1  0.27520789  0.50104107  0.15344000  1.0
  O  O88  1  0.66229322  0.56274156  0.93573098  1.0
  O  O89  1  0.72636455  0.48659805  0.84566443  1.0
  O  O90  1  0.33627479  0.43773956  0.94740878  1.0
  O  O91  1  0.27378386  0.51774416  0.86367625  1.0
