# generated using pymatgen
data_Zn2H18C39I6N2O17
_symmetry_space_group_name_H-M   'P 1'
_cell_length_a   10.91859081
_cell_length_b   12.01597964
_cell_length_c   13.01691099
_cell_angle_alpha   86.03534345
_cell_angle_beta   86.37260613
_cell_angle_gamma   82.16097243
_symmetry_Int_Tables_number   1
_chemical_formula_structural   Zn2H18C39I6N2O17
_chemical_formula_sum   'Zn2 H18 C39 I6 N2 O17'
_cell_volume   1685.27311847
_cell_formula_units_Z   1
loop_
 _symmetry_equiv_pos_site_id
 _symmetry_equiv_pos_as_xyz
  1  'x, y, z'
loop_
 _atom_site_type_symbol
 _atom_site_label
 _atom_site_symmetry_multiplicity
 _atom_site_fract_x
 _atom_site_fract_y
 _atom_site_fract_z
 _atom_site_occupancy
  Zn  Zn0  1  0.48385096  0.62360437  0.50655508  1.0
  Zn  Zn1  1  0.50388592  0.38039996  0.50206986  1.0
  H  H2  1  0.53887360  0.34864180  0.17934880  1.0
  H  H3  1  0.97254271  0.40201153  0.27490809  1.0
  H  H4  1  0.64705068  0.15401206  0.97034670  1.0
  H  H5  1  0.41264834  0.74933233  0.91084146  1.0
  H  H6  1  0.69320418  0.24427729  0.74779977  1.0
  H  H7  1  0.30769127  0.81946272  0.76725196  1.0
  H  H8  1  0.71414970  0.07502727  0.26821746  1.0
  H  H9  1  0.18193858  0.73307326  0.36558075  1.0
  H  H10  1  0.13243152  0.29856063  0.32144318  1.0
  H  H11  1  0.83058210  0.26735826  0.53378398  1.0
  H  H12  1  0.47885254  0.70938585  0.17951861  1.0
  H  H13  1  0.58087868  0.81600529  0.40142665  1.0
  H  H14  1  0.09810232  0.51599853  0.63999738  1.0
  H  H15  1  0.34983215  0.98651132  0.70136209  1.0
  H  H16  1  0.63259721  0.21515012  0.37418106  1.0
  H  H17  1  0.84616693  0.60410892  0.59755445  1.0
  H  H18  1  0.87969500  0.67120845  0.42502865  1.0
  H  H19  1  0.12235322  0.35276145  0.54005902  1.0
  C  C20  1  0.54737275  0.45850673  0.69700341  1.0
  C  C21  1  0.54497572  0.54396365  0.97379966  1.0
  C  C22  1  0.55165278  0.43480954  0.02831209  1.0
  C  C23  1  0.25751637  0.52950657  0.49157463  1.0
  C  C24  1  0.53517359  0.43009123  0.13726740  1.0
  C  C25  1  0.50339103  0.63348370  0.13744182  1.0
  C  C26  1  0.51324473  0.64274466  0.03081933  1.0
  C  C27  1  0.59068757  0.04545549  0.40402273  1.0
  C  C28  1  0.58166360  0.15810124  0.42382815  1.0
  C  C29  1  0.44339370  0.14350203  0.56620002  1.0
  C  C30  1  0.45525201  0.02384342  0.55943458  1.0
  C  C31  1  0.88157789  0.49442744  0.47217319  1.0
  C  C32  1  0.52631071  0.97443521  0.47459279  1.0
  C  C33  1  0.52880884  0.85624256  0.46625847  1.0
  C  C34  1  0.40692894  0.83913512  0.61856571  1.0
  C  C35  1  0.50192955  0.51862191  0.30623961  1.0
  C  C36  1  0.39951090  0.95235678  0.63276935  1.0
  C  C37  1  0.73817270  0.50037304  0.47832147  1.0
  C  C38  1  0.04707820  0.55779289  0.57537007  1.0
  C  C39  1  0.91396642  0.53235125  0.57737142  1.0
  C  C40  1  0.05987148  0.59572980  0.38266698  1.0
  C  C41  1  0.09854660  0.39463239  0.46463988  1.0
  C  C42  1  0.91949846  0.59052343  0.39401798  1.0
  C  C43  1  0.11955150  0.52165080  0.47292953  1.0
  C  C44  1  0.93549235  0.34900264  0.33963473  1.0
  C  C45  1  0.61276018  0.22080992  0.02360162  1.0
  C  C46  1  0.46265384  0.75437420  0.98215179  1.0
  C  C47  1  0.60970140  0.24228976  0.80121014  1.0
  C  C48  1  0.34097279  0.77126985  0.69827357  1.0
  C  C49  1  0.66634151  0.00818162  0.31033373  1.0
  C  C50  1  0.08394104  0.72015771  0.36282838  1.0
  C  C51  1  0.18100657  0.31924414  0.38921432  1.0
  C  C52  1  0.92976943  0.27353165  0.51617004  1.0
  C  C53  1  0.96024914  0.37998441  0.44972831  1.0
  C  C54  1  0.51559288  0.52693798  0.19085651  1.0
  C  C55  1  0.56938465  0.45259703  0.80993195  1.0
  C  C56  1  0.57874441  0.33451558  0.97205218  1.0
  C  C57  1  0.58015653  0.34476149  0.86419903  1.0
  C  C58  1  0.57032740  0.54796028  0.86507308  1.0
  I  I59  1  0.03443712  0.73619440  0.60857322  1.0
  I  I60  1  0.16495445  0.53822097  0.23857054  1.0
  I  I61  1  0.82287895  0.61034720  0.25129443  1.0
  I  I62  1  0.64158110  0.69188848  0.79492715  1.0
  I  I63  1  0.31141245  0.21566094  0.67342888  1.0
  I  I64  1  0.88410167  0.41387975  0.70968168  1.0
  N  N65  1  0.46963773  0.79216440  0.53413921  1.0
  N  N66  1  0.50851886  0.20653173  0.50196728  1.0
  O  O67  1  0.52832192  0.55383716  0.64971952  1.0
  O  O68  1  0.60798906  0.19711885  0.11701082  1.0
  O  O69  1  0.46170363  0.84422924  0.02111940  1.0
  O  O70  1  0.55610474  0.15883800  0.81300050  1.0
  O  O71  1  0.31955598  0.67530505  0.69124547  1.0
  O  O72  1  0.67525034  0.91322486  0.27973180  1.0
  O  O73  1  0.00119878  0.79480307  0.33988244  1.0
  O  O74  1  0.28436951  0.27143266  0.40380950  1.0
  O  O75  1  0.01164076  0.19680314  0.53668858  1.0
  O  O76  1  0.54144327  0.36499837  0.65765345  1.0
  O  O77  1  0.29598809  0.62405196  0.47619866  1.0
  O  O78  1  0.31905966  0.44098350  0.52979525  1.0
  O  O79  1  0.50150909  0.60942080  0.35072402  1.0
  O  O80  1  0.49170866  0.42164039  0.34957415  1.0
  O  O81  1  0.68186575  0.59825236  0.48993642  1.0
  O  O82  1  0.69152281  0.40970894  0.47599672  1.0
  O  O83  1  0.87593978  0.27343408  0.32397487  1.0
