# generated using pymatgen
data_ZnH4C22Br2N(ClO)4
_symmetry_space_group_name_H-M   'P 1'
_cell_length_a   14.41311034
_cell_length_b   15.48704658
_cell_length_c   15.84083420
_cell_angle_alpha   79.15585494
_cell_angle_beta   87.20370766
_cell_angle_gamma   73.95700865
_symmetry_Int_Tables_number   1
_chemical_formula_structural   ZnH4C22Br2N(ClO)4
_chemical_formula_sum   'Zn2 H8 C44 Br4 N2 Cl8 O8'
_cell_volume   3337.52449211
_cell_formula_units_Z   2
loop_
 _symmetry_equiv_pos_site_id
 _symmetry_equiv_pos_as_xyz
  1  'x, y, z'
loop_
 _atom_site_type_symbol
 _atom_site_label
 _atom_site_symmetry_multiplicity
 _atom_site_fract_x
 _atom_site_fract_y
 _atom_site_fract_z
 _atom_site_occupancy
  Zn  Zn0  1  0.47403398  0.59846620  0.51228422  1.0
  Zn  Zn1  1  0.52595872  0.40154353  0.48771689  1.0
  H  H2  1  0.48966554  0.73901936  0.94475978  1.0
  H  H3  1  0.51026863  0.26099160  0.05523288  1.0
  H  H4  1  0.66176654  0.85258837  0.50371717  1.0
  H  H5  1  0.33819910  0.14740263  0.49629799  1.0
  H  H6  1  0.49979764  0.27253781  0.75209779  1.0
  H  H7  1  0.50018940  0.72747011  0.24789749  1.0
  H  H8  1  0.48745085  0.63144607  0.85172676  1.0
  H  H9  1  0.51250786  0.36855071  0.14827567  1.0
  C  C10  1  0.47781184  0.57356020  0.34006884  1.0
  C  C11  1  0.50617630  0.39274256  0.07945288  1.0
  C  C12  1  0.49288649  0.66839395  0.97264130  1.0
  C  C13  1  0.50706276  0.33160990  0.02735458  1.0
  C  C14  1  0.66584122  0.15109143  0.38566158  1.0
  C  C15  1  0.33414857  0.84889330  0.61433869  1.0
  C  C16  1  0.62272979  0.24217880  0.39182896  1.0
  C  C17  1  0.37726643  0.75781064  0.60816654  1.0
  C  C18  1  0.50942551  0.20308665  0.48880301  1.0
  C  C19  1  0.49055353  0.79690259  0.51118360  1.0
  C  C20  1  0.53551090  0.11119589  0.47428828  1.0
  C  C21  1  0.52219071  0.42643656  0.65992778  1.0
  C  C22  1  0.46446043  0.88879342  0.52570235  1.0
  C  C23  1  0.62806562  0.08188935  0.43518442  1.0
  C  C24  1  0.37190642  0.91809997  0.56480492  1.0
  C  C25  1  0.68342373  0.48594707  0.49715339  1.0
  C  C26  1  0.31656180  0.51409107  0.50285779  1.0
  C  C27  1  0.47839967  0.04715603  0.49904190  1.0
  C  C28  1  0.52157036  0.95283628  0.50093439  1.0
  C  C29  1  0.62263571  0.92415586  0.48613106  1.0
  C  C30  1  0.37733511  0.07583280  0.51385907  1.0
  C  C31  1  0.67363625  0.98529473  0.45238199  1.0
  C  C32  1  0.48285782  0.55434827  0.10091574  1.0
  C  C33  1  0.32633904  0.01469233  0.54761647  1.0
  C  C34  1  0.78356795  0.48649879  0.49765211  1.0
  C  C35  1  0.21642352  0.51354068  0.50235488  1.0
  C  C36  1  0.86711005  0.49130652  0.49847260  1.0
  C  C37  1  0.13287989  0.50871801  0.50153753  1.0
  C  C38  1  0.95822098  0.49700670  0.49948749  1.0
  C  C39  1  0.04177839  0.50300337  0.50052535  1.0
  C  C40  1  0.47503723  0.59775039  0.24349931  1.0
  C  C41  1  0.52494928  0.40225405  0.75650098  1.0
  C  C42  1  0.49741601  0.70529850  0.11800332  1.0
  C  C43  1  0.51711932  0.44565224  0.89908676  1.0
  C  C44  1  0.50254699  0.29470574  0.88199459  1.0
  C  C45  1  0.49317294  0.68140647  0.20599088  1.0
  C  C46  1  0.50680748  0.31859740  0.79400969  1.0
  C  C47  1  0.46140703  0.53925090  0.19068942  1.0
  C  C48  1  0.53857492  0.46075497  0.80931141  1.0
  C  C49  1  0.49313636  0.64330469  0.06362994  1.0
  C  C50  1  0.50682256  0.35670439  0.93636666  1.0
  C  C51  1  0.49587347  0.48699724  0.04537161  1.0
  C  C52  1  0.50409142  0.51300761  0.95462803  1.0
  C  C53  1  0.49378614  0.60726094  0.92054896  1.0
  Br  Br54  1  0.80939774  0.93607867  0.44576285  1.0
  Br  Br55  1  0.19058231  0.06390427  0.55427087  1.0
  Br  Br56  1  0.57936838  0.76396180  0.42314885  1.0
  Br  Br57  1  0.42059310  0.23603136  0.57682630  1.0
  N  N58  1  0.55198334  0.26621977  0.45017225  1.0
  N  N59  1  0.44800636  0.73377038  0.54982840  1.0
  Cl  Cl60  1  0.59691510  0.54280247  0.76476993  1.0
  Cl  Cl61  1  0.40307516  0.45720033  0.23524250  1.0
  Cl  Cl62  1  0.50988794  0.81293399  0.07418351  1.0
  Cl  Cl63  1  0.49007640  0.18707850  0.92580668  1.0
  Cl  Cl64  1  0.34047710  0.67316375  0.67302037  1.0
  Cl  Cl65  1  0.65953949  0.32682075  0.32700245  1.0
  Cl  Cl66  1  0.75595073  0.12686725  0.31237204  1.0
  Cl  Cl67  1  0.24404140  0.87311129  0.68763107  1.0
  O  O68  1  0.45663229  0.63920545  0.38177162  1.0
  O  O69  1  0.54333630  0.36078300  0.61823187  1.0
  O  O70  1  0.50755101  0.48938319  0.37215235  1.0
  O  O71  1  0.49247991  0.51061185  0.62783544  1.0
  O  O72  1  0.62289871  0.56127177  0.50552290  1.0
  O  O73  1  0.37708959  0.43877289  0.49446312  1.0
  O  O74  1  0.66639338  0.41189544  0.48831926  1.0
  O  O75  1  0.33359447  0.58813826  0.51171026  1.0
