# generated using pymatgen
data_AgH18C20IN2
_symmetry_space_group_name_H-M   'P 1'
_cell_length_a   4.47752171
_cell_length_b   18.22469713
_cell_length_c   25.31032400
_cell_angle_alpha   89.99986061
_cell_angle_beta   89.00568770
_cell_angle_gamma   89.99988644
_symmetry_Int_Tables_number   1
_chemical_formula_structural   AgH18C20IN2
_chemical_formula_sum   'Ag4 H72 C80 I4 N8'
_cell_volume   2065.04882692
_cell_formula_units_Z   4
loop_
 _symmetry_equiv_pos_site_id
 _symmetry_equiv_pos_as_xyz
  1  'x, y, z'
loop_
 _atom_site_type_symbol
 _atom_site_label
 _atom_site_symmetry_multiplicity
 _atom_site_fract_x
 _atom_site_fract_y
 _atom_site_fract_z
 _atom_site_occupancy
  Ag  Ag0  1  0.69616950  0.55317816  0.45522883  1.0
  Ag  Ag1  1  0.69617211  0.94682062  0.95522859  1.0
  Ag  Ag2  1  0.30383013  0.44682243  0.54477069  1.0
  Ag  Ag3  1  0.30382975  0.05317887  0.04477132  1.0
  H  H4  1  0.25675558  0.80231732  0.33422086  1.0
  H  H5  1  0.25675792  0.69768099  0.83422145  1.0
  H  H6  1  0.74324181  0.19768218  0.66577828  1.0
  H  H7  1  0.74324171  0.30231905  0.16577808  1.0
  H  H8  1  0.41741432  0.90859458  0.28216479  1.0
  H  H9  1  0.41741749  0.59140493  0.78216517  1.0
  H  H10  1  0.58258084  0.09140437  0.71783475  1.0
  H  H11  1  0.58258660  0.40859567  0.21783434  1.0
  H  H12  1  0.23248204  0.92790758  0.19062906  1.0
  H  H13  1  0.23248536  0.57209232  0.69062908  1.0
  H  H14  1  0.76751313  0.07209301  0.80937087  1.0
  H  H15  1  0.76751650  0.42790827  0.30937004  1.0
  H  H16  1  0.87877545  0.83985719  0.15224445  1.0
  H  H17  1  0.87878032  0.66014362  0.65224470  1.0
  H  H18  1  0.12121078  0.16014340  0.84775512  1.0
  H  H19  1  0.12122377  0.33985752  0.34775441  1.0
  H  H20  1  0.58770247  0.72787240  0.15857231  1.0
  H  H21  1  0.58771315  0.77212908  0.65857234  1.0
  H  H22  1  0.41228823  0.27212819  0.84142764  1.0
  H  H23  1  0.41229317  0.22787151  0.34142677  1.0
  H  H24  1  0.28437537  0.61769121  0.16313590  1.0
  H  H25  1  0.28437402  0.88230876  0.66313617  1.0
  H  H26  1  0.71562650  0.38230773  0.83686362  1.0
  H  H27  1  0.71562784  0.11769348  0.33686374  1.0
  H  H28  1  0.09450340  0.50914891  0.21339190  1.0
  H  H29  1  0.09450343  0.99085099  0.71339119  1.0
  H  H30  1  0.90549400  0.49085004  0.78660803  1.0
  H  H31  1  0.90549621  0.00914960  0.28660873  1.0
  H  H32  1  0.26769605  0.48724546  0.30531294  1.0
  H  H33  1  0.26769983  0.01275553  0.80531188  1.0
  H  H34  1  0.73229466  0.51275513  0.69468819  1.0
  H  H35  1  0.73229757  0.98724452  0.19468845  1.0
  H  H36  1  0.61624660  0.56961650  0.34709245  1.0
  H  H37  1  0.61624935  0.93038489  0.84709303  1.0
  H  H38  1  0.38374632  0.43038519  0.65290710  1.0
  H  H39  1  0.38375251  0.06961571  0.15290728  1.0
  H  H40  1  0.99978706  0.62120187  0.36610860  1.0
  H  H41  1  0.99978575  0.87879817  0.86610888  1.0
  H  H42  1  0.00021481  0.37879873  0.63389132  1.0
  H  H43  1  0.00021389  0.12120242  0.13389143  1.0
  H  H44  1  0.19810217  0.70413404  0.36326046  1.0
  H  H45  1  0.19810597  0.79586531  0.86326008  1.0
  H  H46  1  0.80189969  0.29586546  0.63673906  1.0
  H  H47  1  0.80189589  0.20413529  0.13673944  1.0
  H  H48  1  0.76375109  0.82316411  0.37401368  1.0
  H  H49  1  0.76375358  0.67683546  0.87401273  1.0
  H  H50  1  0.23626196  0.17683813  0.62598738  1.0
  H  H51  1  0.23624828  0.32316403  0.12598600  1.0
  H  H52  1  0.37035633  0.83321855  0.46038476  1.0
  H  H53  1  0.37035890  0.66678038  0.96038422  1.0
  H  H54  1  0.62965002  0.16678314  0.53961632  1.0
  H  H55  1  0.62964743  0.33321857  0.03961528  1.0
  H  H56  1  0.27020435  0.63765365  0.51245335  1.0
  H  H57  1  0.27020378  0.86234465  0.01245304  1.0
  H  H58  1  0.72979750  0.36234640  0.48754538  1.0
  H  H59  1  0.72980033  0.13765320  0.98754726  1.0
  H  H60  1  0.05479548  0.71788989  0.50406146  1.0
  H  H61  1  0.05479777  0.78210744  0.00406168  1.0
  H  H62  1  0.94520638  0.28210961  0.49593766  1.0
  H  H63  1  0.94521081  0.21788986  0.99593900  1.0
  H  H64  1  0.25835435  0.71178753  0.59550217  1.0
  H  H65  1  0.25835882  0.78821104  0.09550198  1.0
  H  H66  1  0.74164528  0.28821087  0.40449736  1.0
  H  H67  1  0.74164975  0.21178846  0.90449831  1.0
  H  H68  1  0.41747695  0.78852023  0.56161225  1.0
  H  H69  1  0.41748427  0.71147947  0.06161336  1.0
  H  H70  1  0.58252045  0.21147981  0.43838768  1.0
  H  H71  1  0.58252431  0.28852058  0.93838811  1.0
  H  H72  1  0.62722271  0.70563210  0.56942961  1.0
  H  H73  1  0.62722491  0.79436693  0.06942981  1.0
  H  H74  1  0.37277915  0.29436795  0.43056990  1.0
  H  H75  1  0.37278144  0.20563202  0.93057127  1.0
  C  C76  1  0.96926892  0.75602128  0.27383496  1.0
  C  C77  1  0.96927537  0.74397799  0.77383545  1.0
  C  C78  1  0.03071954  0.24397877  0.72616500  1.0
  C  C79  1  0.03072873  0.25602261  0.22616406  1.0
  C  C80  1  0.16989264  0.80940285  0.29463078  1.0
  C  C81  1  0.16989057  0.69059729  0.79463100  1.0
  C  C82  1  0.83010252  0.19059775  0.70536916  1.0
  C  C83  1  0.83010906  0.30940331  0.20536813  1.0
  C  C84  1  0.26129028  0.86925517  0.26549211  1.0
  C  C85  1  0.26129315  0.63074392  0.76549282  1.0
  C  C86  1  0.73870488  0.13074487  0.73450703  1.0
  C  C87  1  0.73870872  0.36925668  0.23450670  1.0
  C  C88  1  0.15813505  0.88029635  0.21333628  1.0
  C  C89  1  0.15814023  0.61970297  0.71333621  1.0
  C  C90  1  0.84185341  0.11970315  0.78666368  1.0
  C  C91  1  0.84186386  0.38029653  0.28666291  1.0
  C  C92  1  0.96438979  0.83075791  0.19184345  1.0
  C  C93  1  0.96439459  0.66924328  0.69184369  1.0
  C  C94  1  0.03560314  0.16924323  0.80815689  1.0
  C  C95  1  0.03560951  0.33075842  0.30815582  1.0
  C  C96  1  0.86548178  0.76789594  0.22067374  1.0
  C  C97  1  0.86549055  0.73210410  0.72067385  1.0
  C  C98  1  0.13450668  0.23210465  0.77932582  1.0
  C  C99  1  0.13451354  0.26789704  0.27932526  1.0
  C  C100  1  0.66768292  0.71788916  0.19839439  1.0
  C  C101  1  0.66769129  0.78211161  0.69839362  1.0
  C  C102  1  0.33230778  0.28211143  0.80160635  1.0
  C  C103  1  0.33231504  0.21788954  0.30160588  1.0
  C  C104  1  0.56521190  0.65638085  0.22617575  1.0
  C  C105  1  0.56521757  0.84362042  0.72617607  1.0
  C  C106  1  0.43478103  0.34361920  0.77382420  1.0
  C  C107  1  0.43478207  0.15638072  0.27382385  1.0
  C  C108  1  0.36069309  0.60623250  0.20303343  1.0
  C  C109  1  0.36069389  0.89376785  0.70303368  1.0
  C  C110  1  0.63930654  0.39376645  0.79696610  1.0
  C  C111  1  0.63930575  0.10623274  0.29696664  1.0
  C  C112  1  0.25633314  0.54646578  0.23065476  1.0
  C  C113  1  0.25633347  0.95353508  0.73065490  1.0
  C  C114  1  0.74366202  0.45353372  0.76934478  1.0
  C  C115  1  0.74366170  0.04646552  0.26934582  1.0
  C  C116  1  0.35370022  0.53405559  0.28301839  1.0
  C  C117  1  0.35370268  0.96594614  0.78301811  1.0
  C  C118  1  0.64629272  0.46594556  0.71698195  1.0
  C  C119  1  0.64629026  0.03405445  0.21698263  1.0
  C  C120  1  0.55171084  0.58092870  0.30653724  1.0
  C  C121  1  0.55171368  0.91907230  0.80653744  1.0
  C  C122  1  0.44828209  0.41907134  0.69346270  1.0
  C  C123  1  0.44828596  0.08092829  0.19346327  1.0
  C  C124  1  0.66574099  0.64394815  0.27945531  1.0
  C  C125  1  0.66574655  0.85605289  0.77945482  1.0
  C  C126  1  0.33425418  0.35605244  0.72054502  1.0
  C  C127  1  0.33425532  0.14394770  0.22054470  1.0
  C  C128  1  0.86858763  0.69373654  0.30244517  1.0
  C  C129  1  0.86859358  0.80626432  0.80244556  1.0
  C  C130  1  0.13140531  0.30626350  0.69755477  1.0
  C  C131  1  0.13140828  0.19373737  0.19755435  1.0
  C  C132  1  0.97702378  0.67991726  0.35773466  1.0
  C  C133  1  0.97702739  0.82008226  0.85773463  1.0
  C  C134  1  0.02297809  0.32008278  0.64226526  1.0
  C  C135  1  0.02297447  0.17991778  0.14226489  1.0
  C  C136  1  0.68668304  0.78222184  0.40211712  1.0
  C  C137  1  0.68668522  0.71777713  0.90211649  1.0
  C  C138  1  0.31331215  0.21777765  0.59788677  1.0
  C  C139  1  0.31332111  0.28222182  0.09788262  1.0
  C  C140  1  0.49351979  0.78693410  0.44430232  1.0
  C  C141  1  0.49352201  0.71306427  0.94430210  1.0
  C  C142  1  0.50649769  0.21306375  0.55569517  1.0
  C  C143  1  0.50648209  0.28693358  0.05569781  1.0
  C  C144  1  0.64086438  0.66771674  0.43755077  1.0
  C  C145  1  0.64087013  0.83228214  0.93755111  1.0
  C  C146  1  0.35913526  0.33228331  0.56244915  1.0
  C  C147  1  0.35913397  0.16771681  0.06244880  1.0
  C  C148  1  0.28183711  0.69776987  0.51110035  1.0
  C  C149  1  0.28183700  0.80222842  0.01110015  1.0
  C  C150  1  0.71816699  0.30222962  0.48889956  1.0
  C  C151  1  0.71816710  0.19776943  0.98889976  1.0
  C  C152  1  0.40425892  0.72825915  0.56227082  1.0
  C  C153  1  0.40426129  0.77173946  0.06227106  1.0
  C  C154  1  0.59574295  0.27174034  0.43772909  1.0
  C  C155  1  0.59574505  0.22825894  0.93772963  1.0
  I  I156  1  0.19314743  0.46288548  0.42698687  1.0
  I  I157  1  0.19314880  0.03711459  0.92698735  1.0
  I  I158  1  0.80684997  0.53711731  0.57301345  1.0
  I  I159  1  0.80685307  0.96288381  0.07301256  1.0
  N  N160  1  0.77304119  0.70925546  0.39876318  1.0
  N  N161  1  0.77304503  0.79074348  0.89876281  1.0
  N  N162  1  0.22696291  0.29074569  0.60123712  1.0
  N  N163  1  0.22695683  0.20925601  0.10123670  1.0
  N  N164  1  0.46817183  0.71680287  0.46506204  1.0
  N  N165  1  0.46817349  0.78319600  0.96506209  1.0
  N  N166  1  0.53183227  0.28319772  0.53493787  1.0
  N  N167  1  0.53183284  0.21680295  0.03493781  1.0
