# generated using pymatgen
data_Zn2H23C38N2O8F5
_symmetry_space_group_name_H-M   'P 1'
_cell_length_a   10.87751031
_cell_length_b   12.40381156
_cell_length_c   13.56019041
_cell_angle_alpha   80.96888272
_cell_angle_beta   87.98207129
_cell_angle_gamma   71.82726202
_symmetry_Int_Tables_number   1
_chemical_formula_structural   Zn2H23C38N2O8F5
_chemical_formula_sum   'Zn2 H23 C38 N2 O8 F5'
_cell_volume   1716.58406437
_cell_formula_units_Z   1
loop_
 _symmetry_equiv_pos_site_id
 _symmetry_equiv_pos_as_xyz
  1  'x, y, z'
loop_
 _atom_site_type_symbol
 _atom_site_label
 _atom_site_symmetry_multiplicity
 _atom_site_fract_x
 _atom_site_fract_y
 _atom_site_fract_z
 _atom_site_occupancy
  Zn  Zn0  1  0.45525022  0.61563977  0.51290685  1.0
  Zn  Zn1  1  0.54156885  0.38171632  0.48576128  1.0
  H  H2  1  0.81230251  0.67779686  0.44310868  1.0
  H  H3  1  0.30522740  0.12530273  0.69685900  1.0
  H  H4  1  0.24791127  0.94246366  0.71448289  1.0
  H  H5  1  0.53490723  0.81246216  0.43914580  1.0
  H  H6  1  0.63295690  0.91664397  0.36773262  1.0
  H  H7  1  0.75055614  0.05199922  0.28960179  1.0
  H  H8  1  0.42924863  0.24896433  0.61295549  1.0
  H  H9  1  0.05877854  0.63109831  0.35613350  1.0
  H  H10  1  0.02129665  0.68954220  0.46824032  1.0
  H  H11  1  0.87022726  0.60276116  0.61356202  1.0
  H  H12  1  0.09650986  0.55467494  0.64035863  1.0
  H  H13  1  0.17972740  0.32319382  0.47725425  1.0
  H  H14  1  0.93044836  0.36740786  0.40192539  1.0
  H  H15  1  0.12134687  0.41620892  0.36442485  1.0
  H  H16  1  0.42834664  0.56637997  0.82888226  1.0
  H  H17  1  0.28345502  0.75073754  0.65868742  1.0
  H  H18  1  0.11840472  0.40660467  0.63960657  1.0
  H  H19  1  0.72367289  0.26030754  0.77901339  1.0
  H  H20  1  0.81597134  0.31497994  0.10875057  1.0
  H  H21  1  0.81356486  0.23735452  0.95110681  1.0
  H  H22  1  0.30650466  0.75066500  0.22243106  1.0
  H  H23  1  0.34065451  0.67117759  0.92316927  1.0
  H  H24  1  0.23108333  0.79736659  0.04368277  1.0
  C  C25  1  0.48925247  0.57019099  0.30866792  1.0
  C  C26  1  0.49082376  0.55928840  0.02669647  1.0
  C  C27  1  0.53926615  0.53979693  0.12673456  1.0
  C  C28  1  0.73802084  0.49553904  0.50457615  1.0
  C  C29  1  0.55538547  0.48159412  0.95756002  1.0
  C  C30  1  0.66839667  0.38787180  0.99020418  1.0
  C  C31  1  0.72309510  0.37896056  0.08640000  1.0
  C  C32  1  0.66190942  0.45365161  0.14929043  1.0
  C  C33  1  0.51075911  0.49407052  0.85899921  1.0
  C  C34  1  0.67827396  0.32046504  0.83001618  1.0
  C  C35  1  0.46751519  0.60669297  0.19790428  1.0
  C  C36  1  0.11732577  0.50475580  0.49098003  1.0
  C  C37  1  0.31248878  0.91696437  0.65316024  1.0
  C  C38  1  0.66102517  0.17521836  0.38729771  1.0
  C  C39  1  0.68383947  0.07118818  0.35074519  1.0
  C  C40  1  0.52386036  0.43611184  0.69008754  1.0
  C  C41  1  0.61838956  0.99781305  0.39488512  1.0
  C  C42  1  0.53362261  0.02798766  0.47450617  1.0
  C  C43  1  0.51835277  0.13528448  0.50652782  1.0
  C  C44  1  0.46280533  0.95482118  0.52500151  1.0
  C  C45  1  0.37954179  0.99098876  0.60505013  1.0
  C  C46  1  0.36868443  0.09874639  0.63510093  1.0
  C  C47  1  0.07102030  0.49378266  0.60063234  1.0
  C  C48  1  0.43629885  0.16791899  0.58853817  1.0
  C  C49  1  0.47324805  0.84679517  0.49929999  1.0
  C  C50  1  0.33035344  0.81228218  0.62290061  1.0
  C  C51  1  0.25672895  0.50764637  0.49115626  1.0
  C  C52  1  0.88987166  0.60144259  0.42702781  1.0
  C  C53  1  0.02477642  0.61502555  0.43267034  1.0
  C  C54  1  0.92439008  0.51482740  0.60133230  1.0
  C  C55  1  0.97236596  0.38758934  0.46627321  1.0
  C  C56  1  0.87914570  0.49585805  0.50046322  1.0
  C  C57  1  0.10559132  0.40247604  0.44534488  1.0
  C  C58  1  0.72723511  0.30829030  0.92503643  1.0
  C  C59  1  0.56993466  0.41546196  0.79589270  1.0
  C  C60  1  0.35952591  0.69985668  0.16689093  1.0
  C  C61  1  0.31654114  0.72443173  0.06701284  1.0
  C  C62  1  0.37886938  0.65368211  0.99919097  1.0
  N  N63  1  0.40999605  0.77832510  0.54666426  1.0
  N  N64  1  0.58218652  0.20883298  0.46021713  1.0
  O  O65  1  0.48479969  0.64740241  0.36189823  1.0
  O  O66  1  0.49970144  0.46569908  0.34046846  1.0
  O  O67  1  0.65528734  0.58219480  0.53301989  1.0
  O  O68  1  0.71599330  0.41002255  0.47772898  1.0
  O  O69  1  0.44800555  0.53596497  0.65661638  1.0
  O  O70  1  0.56568863  0.35367198  0.63961758  1.0
  O  O71  1  0.27400871  0.60521608  0.48508593  1.0
  O  O72  1  0.34496816  0.41109205  0.50026676  1.0
  F  F73  1  0.89181384  0.44239114  0.68203404  1.0
  F  F74  1  0.86504735  0.58748564  0.32834326  1.0
  F  F75  1  0.72278738  0.45068121  0.23580819  1.0
  F  F76  1  0.72408187  0.24715055  0.34501333  1.0
  F  F77  1  0.98605619  0.29196946  0.54341114  1.0
