# generated using pymatgen
data_Zn2H25C43N3O10
_symmetry_space_group_name_H-M   'P 1'
_cell_length_a   9.73935114
_cell_length_b   10.92259741
_cell_length_c   14.93392995
_cell_angle_alpha   88.03579029
_cell_angle_beta   75.72717371
_cell_angle_gamma   88.94392628
_symmetry_Int_Tables_number   1
_chemical_formula_structural   Zn2H25C43N3O10
_chemical_formula_sum   'Zn2 H25 C43 N3 O10'
_cell_volume   1538.63294151
_cell_formula_units_Z   1
loop_
 _symmetry_equiv_pos_site_id
 _symmetry_equiv_pos_as_xyz
  1  'x, y, z'
loop_
 _atom_site_type_symbol
 _atom_site_label
 _atom_site_symmetry_multiplicity
 _atom_site_fract_x
 _atom_site_fract_y
 _atom_site_fract_z
 _atom_site_occupancy
  Zn  Zn0  1  0.13965573  0.48558120  0.50214621  1.0
  Zn  Zn1  1  0.85251747  0.49421098  0.49509733  1.0
  H  H2  1  0.74148529  0.74527230  0.07228355  1.0
  H  H3  1  0.71020258  0.32489579  0.62819569  1.0
  H  H4  1  0.55491868  0.16151031  0.71643536  1.0
  H  H5  1  0.30464103  0.14622617  0.70534677  1.0
  H  H6  1  0.20708792  0.29551241  0.60850055  1.0
  H  H7  1  0.38757871  0.63441595  0.42356580  1.0
  H  H8  1  0.91275146  0.48772876  0.19082371  1.0
  H  H9  1  0.95238778  0.72310150  0.94248756  1.0
  H  H10  1  0.67613662  0.48882411  0.76986897  1.0
  H  H11  1  0.49577705  0.69192208  0.14763419  1.0
  H  H12  1  0.46809338  0.47871901  0.81881258  1.0
  H  H13  1  0.01026834  0.46894978  0.02023442  1.0
  H  H14  1  0.49355222  0.43307016  0.17408925  1.0
  H  H15  1  0.37826726  0.39373949  0.28560092  1.0
  H  H16  1  0.51986699  0.50082083  0.27572867  1.0
  H  H17  1  0.27981795  0.25389037  0.87409333  1.0
  H  H18  1  0.10885576  0.27962854  0.85115343  1.0
  H  H19  1  0.12850595  0.28320440  0.96761695  1.0
  H  H20  1  0.83087932  0.09472302  0.60997103  1.0
  H  H21  1  0.16451328  0.23125732  0.33453616  1.0
  H  H22  1  0.32182812  0.12897659  0.20179304  1.0
  H  H23  1  0.33594090  0.90031095  0.19873218  1.0
  H  H24  1  0.19557019  0.77492330  0.32812995  1.0
  H  H25  1  0.84198922  0.86609192  0.60653987  1.0
  H  H26  1  0.64739837  0.64223502  0.42646982  1.0
  C  C27  1  0.98605118  0.25498505  0.49050890  1.0
  C  C28  1  0.22466882  0.51023636  0.02483476  1.0
  C  C29  1  0.31500453  0.55214921  0.07962922  1.0
  C  C30  1  0.93527638  0.51364177  0.67510440  1.0
  C  C31  1  0.07862278  0.49200545  0.06483349  1.0
  C  C32  1  0.02483623  0.50188380  0.15870558  1.0
  C  C33  1  0.25886731  0.54815759  0.17757983  1.0
  C  C34  1  0.17132221  0.13144221  0.33339104  1.0
  C  C35  1  0.25908448  0.07429911  0.25948449  1.0
  C  C36  1  0.26714035  0.94493193  0.25785340  1.0
  C  C37  1  0.18802732  0.87440169  0.33000074  1.0
  C  C38  1  0.66436325  0.58127561  0.89842692  1.0
  C  C39  1  0.09574358  0.92996511  0.40733581  1.0
  C  C40  1  0.08733025  0.06153786  0.40849214  1.0
  C  C41  1  0.99178495  0.11849639  0.48387122  1.0
  C  C42  1  0.00774060  0.72490826  0.48815663  1.0
  C  C43  1  0.90456266  0.04933794  0.55347261  1.0
  C  C44  1  0.91104522  0.92090953  0.55188700  1.0
  C  C45  1  0.00588806  0.86158410  0.48175245  1.0
  C  C46  1  0.60132405  0.31697898  0.62345832  1.0
  C  C47  1  0.51374348  0.22744269  0.67279560  1.0
  C  C48  1  0.37140752  0.21919706  0.66712820  1.0
  C  C49  1  0.74707151  0.64729670  0.94719247  1.0
  C  C50  1  0.31585180  0.30234928  0.61388242  1.0
  C  C51  1  0.40272704  0.39578924  0.56268203  1.0
  C  C52  1  0.54819227  0.40250757  0.56663604  1.0
  C  C53  1  0.57734437  0.57213151  0.46600307  1.0
  C  C54  1  0.05891141  0.50554400  0.31939166  1.0
  C  C55  1  0.43383213  0.56708711  0.46351600  1.0
  C  C56  1  0.87529167  0.56091076  0.76975673  1.0
  C  C57  1  0.11619150  0.52196229  0.21690699  1.0
  C  C58  1  0.89105429  0.67090858  0.90524981  1.0
  C  C59  1  0.95655186  0.62929922  0.81776077  1.0
  C  C60  1  0.51628582  0.55729528  0.94074836  1.0
  C  C61  1  0.73314456  0.54006856  0.81017240  1.0
  C  C62  1  0.43993470  0.46704276  0.24251143  1.0
  C  C63  1  0.17900472  0.30521952  0.89448908  1.0
  C  C64  1  0.10158633  0.66142945  0.78006775  1.0
  C  C65  1  0.45883879  0.58839428  0.03437323  1.0
  C  C66  1  0.54353212  0.65952281  0.07884767  1.0
  C  C67  1  0.68088677  0.68930020  0.03687685  1.0
  C  C68  1  0.42748744  0.50270334  0.89071099  1.0
  C  C69  1  0.28673570  0.48300763  0.93015041  1.0
  N  N70  1  0.63347134  0.49088579  0.51504331  1.0
  N  N71  1  0.34990323  0.47937907  0.50904725  1.0
  N  N72  1  0.21829296  0.69583776  0.75668095  1.0
  O  O73  1  0.08618463  0.30329421  0.51737986  1.0
  O  O74  1  0.20271080  0.43442401  0.87830581  1.0
  O  O75  1  0.88123531  0.31135218  0.47135918  1.0
  O  O76  1  0.06730898  0.52503405  0.63984688  1.0
  O  O77  1  0.84847196  0.46589697  0.63527675  1.0
  O  O78  1  0.12717642  0.66951733  0.47075271  1.0
  O  O79  1  0.88703956  0.67343958  0.51359196  1.0
  O  O80  1  0.14331296  0.46020888  0.36497852  1.0
  O  O81  1  0.92911586  0.53334571  0.35329327  1.0
  O  O82  1  0.34761288  0.56927561  0.23447260  1.0
