# generated using pymatgen
data_KNiH42C55N5O13
_symmetry_space_group_name_H-M   'P 1'
_cell_length_a   12.49498245
_cell_length_b   14.53916569
_cell_length_c   17.89119931
_cell_angle_alpha   94.03546116
_cell_angle_beta   109.44354906
_cell_angle_gamma   93.57538773
_symmetry_Int_Tables_number   1
_chemical_formula_structural   KNiH42C55N5O13
_chemical_formula_sum   'K2 Ni2 H84 C110 N10 O26'
_cell_volume   3044.53232435
_cell_formula_units_Z   2
loop_
 _symmetry_equiv_pos_site_id
 _symmetry_equiv_pos_as_xyz
  1  'x, y, z'
loop_
 _atom_site_type_symbol
 _atom_site_label
 _atom_site_symmetry_multiplicity
 _atom_site_fract_x
 _atom_site_fract_y
 _atom_site_fract_z
 _atom_site_occupancy
  K  K0  1  0.65277465  0.50029211  0.08304585  1.0
  K  K1  1  0.34722993  0.49970458  0.91695680  1.0
  Ni  Ni2  1  0.30713518  0.02291703  0.51680873  1.0
  Ni  Ni3  1  0.69286328  0.97708521  0.48318927  1.0
  H  H4  1  0.31180086  0.38111514  0.55607961  1.0
  H  H5  1  0.51172195  0.34250834  0.65687217  1.0
  H  H6  1  0.73684010  0.04361145  0.68487960  1.0
  H  H7  1  0.67185601  0.85988345  0.64761237  1.0
  H  H8  1  0.26576201  0.66817130  0.53642548  1.0
  H  H9  1  0.06339570  0.70564809  0.43376755  1.0
  H  H10  1  0.91482707  0.99887410  0.29042891  1.0
  H  H11  1  0.98422324  0.18200145  0.31846244  1.0
  H  H12  1  0.68643686  0.28900734  0.60919323  1.0
  H  H13  1  0.85485811  0.38195689  0.70812680  1.0
  H  H14  1  0.80498440  0.23156528  0.89470074  1.0
  H  H15  1  0.64177075  0.13774946  0.79626470  1.0
  H  H16  1  0.97989875  0.28255684  0.94748812  1.0
  H  H17  1  0.92735683  0.38867621  0.97047301  1.0
  H  H18  1  0.23317600  0.44035917  0.06346460  1.0
  H  H19  1  0.54540173  0.80416779  0.73034366  1.0
  H  H20  1  0.61893539  0.66489378  0.79144959  1.0
  H  H21  1  0.50271517  0.51080175  0.55998485  1.0
  H  H22  1  0.43526777  0.65407351  0.49777242  1.0
  H  H23  1  0.73473894  0.54660262  0.80649415  1.0
  H  H24  1  0.68963304  0.42684871  0.79663501  1.0
  H  H25  1  0.04542682  0.76119186  0.28330142  1.0
  H  H26  1  0.87094814  0.67660494  0.18465163  1.0
  H  H27  1  0.66692002  0.81738386  0.30185660  1.0
  H  H28  1  0.84038512  0.90068419  0.39843375  1.0
  H  H29  1  0.56156722  0.80456202  0.16923747  1.0
  H  H30  1  0.52136606  0.70454491  0.20893283  1.0
  H  H31  1  0.31813965  0.69875989  0.01330854  1.0
  H  H32  1  0.27626439  0.38191117  0.41431781  1.0
  H  H33  1  0.18460091  0.52754019  0.38473184  1.0
  H  H34  1  0.87641808  0.39924333  0.40639943  1.0
  H  H35  1  0.96996184  0.25806216  0.44031806  1.0
  H  H36  1  0.86242313  0.64359607  0.37826154  1.0
  H  H37  1  0.85962983  0.54563247  0.43165743  1.0
  H  H38  1  0.60752912  0.51011722  0.26202175  1.0
  H  H39  1  0.85474910  0.22083614  0.06850067  1.0
  H  H40  1  0.92072411  0.46234748  0.15008986  1.0
  H  H41  1  0.06832358  0.44761215  0.17225164  1.0
  H  H42  1  0.99986967  0.42395880  0.24336969  1.0
  H  H43  1  0.01876678  0.19155100  0.14622717  1.0
  H  H44  1  0.07193870  0.26118292  0.23958296  1.0
  H  H45  1  0.12601437  0.28550891  0.16166810  1.0
  H  H46  1  0.68819832  0.61888987  0.44391556  1.0
  H  H47  1  0.48827888  0.65749459  0.34312734  1.0
  H  H48  1  0.26315972  0.95639152  0.31513271  1.0
  H  H49  1  0.32813692  0.14011400  0.35239492  1.0
  H  H50  1  0.73422600  0.33182756  0.46358284  1.0
  H  H51  1  0.93659434  0.29435627  0.56623052  1.0
  H  H52  1  0.08518051  0.00112252  0.70955517  1.0
  H  H53  1  0.01578234  0.81800214  0.68152974  1.0
  H  H54  1  0.31355135  0.71099496  0.39080739  1.0
  H  H55  1  0.14513445  0.61804053  0.29186888  1.0
  H  H56  1  0.19502853  0.76842790  0.10530096  1.0
  H  H57  1  0.35822983  0.86225002  0.20373813  1.0
  H  H58  1  0.02010705  0.71743499  0.05250988  1.0
  H  H59  1  0.07265425  0.61131695  0.02951904  1.0
  H  H60  1  0.76682678  0.55964168  0.93653695  1.0
  H  H61  1  0.45457820  0.19583388  0.26966764  1.0
  H  H62  1  0.38105299  0.33510439  0.20855999  1.0
  H  H63  1  0.49729138  0.48920602  0.44001852  1.0
  H  H64  1  0.56472739  0.34593570  0.50223410  1.0
  H  H65  1  0.26526428  0.45340446  0.19351021  1.0
  H  H66  1  0.31037339  0.57315905  0.20336911  1.0
  H  H67  1  0.95457457  0.23880965  0.71668747  1.0
  H  H68  1  0.12904854  0.32339453  0.81534295  1.0
  H  H69  1  0.33308122  0.18261284  0.69814787  1.0
  H  H70  1  0.15962181  0.09931316  0.60156088  1.0
  H  H71  1  0.43843197  0.19543330  0.83076238  1.0
  H  H72  1  0.47863043  0.29545250  0.79106595  1.0
  H  H73  1  0.68186041  0.30123820  0.98669209  1.0
  H  H74  1  0.72373214  0.61809039  0.58568000  1.0
  H  H75  1  0.81539701  0.47245999  0.61526828  1.0
  H  H76  1  0.12357846  0.60075616  0.59360105  1.0
  H  H77  1  0.03003763  0.74193939  0.55968099  1.0
  H  H78  1  0.13757683  0.35640826  0.62174135  1.0
  H  H79  1  0.14036638  0.45437256  0.56834165  1.0
  H  H80  1  0.39247143  0.48987948  0.73797856  1.0
  H  H81  1  0.14525724  0.77916192  0.93149938  1.0
  H  H82  1  0.07928242  0.53765337  0.84991633  1.0
  H  H83  1  0.93168125  0.55238662  0.82775119  1.0
  H  H84  1  0.00013969  0.57603787  0.75663433  1.0
  H  H85  1  0.98123901  0.80844913  0.85376966  1.0
  H  H86  1  0.92806986  0.73881582  0.76041499  1.0
  H  H87  1  0.87399232  0.71449260  0.83832786  1.0
  C  C88  1  0.28932243  0.22882068  0.51649395  1.0
  C  C89  1  0.34557400  0.31429374  0.56180706  1.0
  C  C90  1  0.44699087  0.29452377  0.61378516  1.0
  C  C91  1  0.45335751  0.19674238  0.60031494  1.0
  C  C92  1  0.54919213  0.15208092  0.63824428  1.0
  C  C93  1  0.55089458  0.05694434  0.62489339  1.0
  C  C94  1  0.65188549  0.00951867  0.65534994  1.0
  C  C95  1  0.61912009  0.91728444  0.63676477  1.0
  C  C96  1  0.49788871  0.90824824  0.59580850  1.0
  C  C97  1  0.43135164  0.82382842  0.57695013  1.0
  C  C98  1  0.31524693  0.81836694  0.53286379  1.0
  C  C99  1  0.24116457  0.73385220  0.51401934  1.0
  C  C100  1  0.13859992  0.75302767  0.46284387  1.0
  C  C101  1  0.14846180  0.84966098  0.45202238  1.0
  C  C102  1  0.06129007  0.89321079  0.40051582  1.0
  C  C103  1  0.07243947  0.98795542  0.39432064  1.0
  C  C104  1  0.98996474  0.03377153  0.33591187  1.0
  C  C105  1  0.02533397  0.12581831  0.35003322  1.0
  C  C106  1  0.12918446  0.13673500  0.41755892  1.0
  C  C107  1  0.18522000  0.22255457  0.45428598  1.0
  C  C108  1  0.65118296  0.20696279  0.69572641  1.0
  C  C109  1  0.71173389  0.27708148  0.67184298  1.0
  C  C110  1  0.80553246  0.32915870  0.72640549  1.0
  C  C111  1  0.84079402  0.31292834  0.80706529  1.0
  C  C112  1  0.78181291  0.24364555  0.83223272  1.0
  C  C113  1  0.68833477  0.19109214  0.77629285  1.0
  C  C114  1  0.97808433  0.35664486  0.93749267  1.0
  C  C115  1  0.10071837  0.39989579  0.96864759  1.0
  C  C116  1  0.48265865  0.73974546  0.60975152  1.0
  C  C117  1  0.53773879  0.74045841  0.69219159  1.0
  C  C118  1  0.57952268  0.66130515  0.72701330  1.0
  C  C119  1  0.56447674  0.57813447  0.67877078  1.0
  C  C120  1  0.51249575  0.57630374  0.59612200  1.0
  C  C121  1  0.47324016  0.65619145  0.56226315  1.0
  C  C122  1  0.65926810  0.49606929  0.78918161  1.0
  C  C123  1  0.59234297  0.51242242  0.84602388  1.0
  C  C124  1  0.95584792  0.83800955  0.34719169  1.0
  C  C125  1  0.96223921  0.77314143  0.28713966  1.0
  C  C126  1  0.86508479  0.72620339  0.23143218  1.0
  C  C127  1  0.75774492  0.74389642  0.23480617  1.0
  C  C128  1  0.74900189  0.80564516  0.29582693  1.0
  C  C129  1  0.84802041  0.85234639  0.35132224  1.0
  C  C130  1  0.55721425  0.72829306  0.16414347  1.0
  C  C131  1  0.47607671  0.69117280  0.08180386  1.0
  C  C132  1  0.13025206  0.30832611  0.43012755  1.0
  C  C133  1  0.18907294  0.38583003  0.41359516  1.0
  C  C134  1  0.13790343  0.46763174  0.39643349  1.0
  C  C135  1  0.02477812  0.47389904  0.39337595  1.0
  C  C136  1  0.96415872  0.39713410  0.40822672  1.0
  C  C137  1  0.01729267  0.31614146  0.42662476  1.0
  C  C138  1  0.87022789  0.56861429  0.37701766  1.0
  C  C139  1  0.77464185  0.52308427  0.30346637  1.0
  C  C140  1  0.86230723  0.29535713  0.08895044  1.0
  C  C141  1  0.98899777  0.42051875  0.17981399  1.0
  C  C142  1  0.04933518  0.26196632  0.17476984  1.0
  C  C143  1  0.71067713  0.77118156  0.48350516  1.0
  C  C144  1  0.65442353  0.68570989  0.43818995  1.0
  C  C145  1  0.55300638  0.70547917  0.38621332  1.0
  C  C146  1  0.54663892  0.80325918  0.39968363  1.0
  C  C147  1  0.45080610  0.84792272  0.36175690  1.0
  C  C148  1  0.44910585  0.94306067  0.37510650  1.0
  C  C149  1  0.34811596  0.99048427  0.34465450  1.0
  C  C150  1  0.38087489  0.08271784  0.36324096  1.0
  C  C151  1  0.50210735  0.09175263  0.40419232  1.0
  C  C152  1  0.56864203  0.17617525  0.42305767  1.0
  C  C153  1  0.68474912  0.18163256  0.46714052  1.0
  C  C154  1  0.75882863  0.26614800  0.48598379  1.0
  C  C155  1  0.86139310  0.24697322  0.53715647  1.0
  C  C156  1  0.85153373  0.15033920  0.54797706  1.0
  C  C157  1  0.93870846  0.10678867  0.59947889  1.0
  C  C158  1  0.92755806  0.01204404  0.60567220  1.0
  C  C159  1  0.01003745  0.96622582  0.66407625  1.0
  C  C160  1  0.97466481  0.87417906  0.64995750  1.0
  C  C161  1  0.87081323  0.86326377  0.58243671  1.0
  C  C162  1  0.81477821  0.77744560  0.54571185  1.0
  C  C163  1  0.34881251  0.79303948  0.30427549  1.0
  C  C164  1  0.28826026  0.72291802  0.32815682  1.0
  C  C165  1  0.19446654  0.67083800  0.27359239  1.0
  C  C166  1  0.15921222  0.68706625  0.19293219  1.0
  C  C167  1  0.21819215  0.75635182  0.16776693  1.0
  C  C168  1  0.31166295  0.80890803  0.22370880  1.0
  C  C169  1  0.02192538  0.64334556  0.06250242  1.0
  C  C170  1  0.89929487  0.60009253  0.03134682  1.0
  C  C171  1  0.51732736  0.26025756  0.39025723  1.0
  C  C172  1  0.46224199  0.25954255  0.30781714  1.0
  C  C173  1  0.42046368  0.33869371  0.27299336  1.0
  C  C174  1  0.43552078  0.42187195  0.32123390  1.0
  C  C175  1  0.48750461  0.42370268  0.40388468  1.0
  C  C176  1  0.52675364  0.34381430  0.43774558  1.0
  C  C177  1  0.34073863  0.50393709  0.21082372  1.0
  C  C178  1  0.40766107  0.48757981  0.15397889  1.0
  C  C179  1  0.04415693  0.16198780  0.65279997  1.0
  C  C180  1  0.03775954  0.22685870  0.71284920  1.0
  C  C181  1  0.13491302  0.27379606  0.76855836  1.0
  C  C182  1  0.24225633  0.25609957  0.76518796  1.0
  C  C183  1  0.25099926  0.19435083  0.70416796  1.0
  C  C184  1  0.15198362  0.14764958  0.64866951  1.0
  C  C185  1  0.44278353  0.27170434  0.83585489  1.0
  C  C186  1  0.52392034  0.30882391  0.91819465  1.0
  C  C187  1  0.86974328  0.69167546  0.56986992  1.0
  C  C188  1  0.81092297  0.61417084  0.58640204  1.0
  C  C189  1  0.86209477  0.53236912  0.60356516  1.0
  C  C190  1  0.97522049  0.52610321  0.60662566  1.0
  C  C191  1  0.03583964  0.60286677  0.59177555  1.0
  C  C192  1  0.98270421  0.68386010  0.57337513  1.0
  C  C193  1  0.12977002  0.43139212  0.62298396  1.0
  C  C194  1  0.22535972  0.47691935  0.69653299  1.0
  C  C195  1  0.13769725  0.70464163  0.91105030  1.0
  C  C196  1  0.01100871  0.57948002  0.82019050  1.0
  C  C197  1  0.95067170  0.73803381  0.82522809  1.0
  N  N198  1  0.35411677  0.15566387  0.54253357  1.0
  N  N199  1  0.45713680  0.99471076  0.58469677  1.0
  N  N200  1  0.25650359  0.89048463  0.49697434  1.0
  N  N201  1  0.16033964  0.05106761  0.44273086  1.0
  N  N202  1  0.96152381  0.32454138  0.14529295  1.0
  N  N203  1  0.64588112  0.84433907  0.45746470  1.0
  N  N204  1  0.54286313  0.00529216  0.41530010  1.0
  N  N205  1  0.74348997  0.10951626  0.50302655  1.0
  N  N206  1  0.83965613  0.94893049  0.55726458  1.0
  N  N207  1  0.03848157  0.67545946  0.85470776  1.0
  O  O208  1  0.93354207  0.36897317  0.85529001  1.0
  O  O209  1  0.15332017  0.41787551  0.92356494  1.0
  O  O210  1  0.14310093  0.41332356  0.04704988  1.0
  O  O211  1  0.59650372  0.49509358  0.70669392  1.0
  O  O212  1  0.48509259  0.50397516  0.82116724  1.0
  O  O213  1  0.65371597  0.53069951  0.91934491  1.0
  O  O214  1  0.66608866  0.69680201  0.17528709  1.0
  O  O215  1  0.37785198  0.72922833  0.06591265  1.0
  O  O216  1  0.49789950  0.63332128  0.03684288  1.0
  O  O217  1  0.98149148  0.55687468  0.37522376  1.0
  O  O218  1  0.67486905  0.52696153  0.31443034  1.0
  O  O219  1  0.78935287  0.49087285  0.24274085  1.0
  O  O220  1  0.78274725  0.34498521  0.05946462  1.0
  O  O221  1  0.06647099  0.63101515  0.14470594  1.0
  O  O222  1  0.84669686  0.58210380  0.07643448  1.0
  O  O223  1  0.85690280  0.58667311  0.95294499  1.0
  O  O224  1  0.40350219  0.50491349  0.29330883  1.0
  O  O225  1  0.51491006  0.49602154  0.17883605  1.0
  O  O226  1  0.34628427  0.46930343  0.08065919  1.0
  O  O227  1  0.33391133  0.30319470  0.82471266  1.0
  O  O228  1  0.62214901  0.27076907  0.93408981  1.0
  O  O229  1  0.50209949  0.36667405  0.96315850  1.0
  O  O230  1  0.01850863  0.44313173  0.62478007  1.0
  O  O231  1  0.32513200  0.47303863  0.68556949  1.0
  O  O232  1  0.21064779  0.50912732  0.75726204  1.0
  O  O233  1  0.21725430  0.65501149  0.94053756  1.0
