# generated using pymatgen
data_Zn4H10C28S2Br2Cl2O13
_symmetry_space_group_name_H-M   'P 1'
_cell_length_a   18.55602392
_cell_length_b   19.71211349
_cell_length_c   32.81047385
_cell_angle_alpha   86.02754993
_cell_angle_beta   73.59813614
_cell_angle_gamma   61.95536483
_symmetry_Int_Tables_number   1
_chemical_formula_structural   Zn4H10C28S2Br2Cl2O13
_chemical_formula_sum   'Zn16 H40 C112 S8 Br8 Cl8 O52'
_cell_volume   10132.52847877
_cell_formula_units_Z   4
loop_
 _symmetry_equiv_pos_site_id
 _symmetry_equiv_pos_as_xyz
  1  'x, y, z'
loop_
 _atom_site_type_symbol
 _atom_site_label
 _atom_site_symmetry_multiplicity
 _atom_site_fract_x
 _atom_site_fract_y
 _atom_site_fract_z
 _atom_site_occupancy
  Zn  Zn0  1  0.87287609  0.55435612  0.51842614  1.0
  Zn  Zn1  1  0.03772972  0.48530139  0.43907494  1.0
  Zn  Zn2  1  0.04317000  0.39833571  0.52404829  1.0
  Zn  Zn3  1  0.04623578  0.56099160  0.51798513  1.0
  Zn  Zn4  1  0.62557270  0.19279123  0.73321223  1.0
  Zn  Zn5  1  0.46397092  0.34947938  0.72512057  1.0
  Zn  Zn6  1  0.45659988  0.26538313  0.81281361  1.0
  Zn  Zn7  1  0.45494700  0.19153591  0.72897812  1.0
  Zn  Zn8  1  0.46316120  0.76210412  0.31252867  1.0
  Zn  Zn9  1  0.45267615  0.69222807  0.23196099  1.0
  Zn  Zn10  1  0.62616972  0.69375749  0.22929291  1.0
  Zn  Zn11  1  0.45676972  0.85208031  0.22645345  1.0
  Zn  Zn12  1  0.03621892  0.90045020  0.02515922  1.0
  Zn  Zn13  1  0.05124012  0.05580307  0.01830946  1.0
  Zn  Zn14  1  0.87539796  0.05915318  0.01979169  1.0
  Zn  Zn15  1  0.03823470  0.98447797  0.93731568  1.0
  H  H16  1  0.81124648  0.24280058  0.65345100  1.0
  H  H17  1  0.54411986  0.48577823  0.62043186  1.0
  H  H18  1  0.54970623  0.52602368  0.66573998  1.0
  H  H19  1  0.65028966  0.56963071  0.61738323  1.0
  H  H20  1  0.64446656  0.52959208  0.57217742  1.0
  H  H21  1  0.29336669  0.60214574  0.29609027  1.0
  H  H22  1  0.35022187  0.67368254  0.43430213  1.0
  H  H23  1  0.25963424  0.76206875  0.43164876  1.0
  H  H24  1  0.16284740  0.71223411  0.47759547  1.0
  H  H25  1  0.25330488  0.62380136  0.48007044  1.0
  H  H26  1  0.81072062  0.60142287  0.29532548  1.0
  H  H27  1  0.54743941  0.76237182  0.43001049  1.0
  H  H28  1  0.54226955  0.67412521  0.43268159  1.0
  H  H29  1  0.64196577  0.62450614  0.47907244  1.0
  H  H30  1  0.64725503  0.71268724  0.47643023  1.0
  H  H31  1  0.30745578  0.45616233  0.64630476  1.0
  H  H32  1  0.33037512  0.17802185  0.62978370  1.0
  H  H33  1  0.23973054  0.21882395  0.67519790  1.0
  H  H34  1  0.14382088  0.27135137  0.62686166  1.0
  H  H35  1  0.23441510  0.23052499  0.58154309  1.0
  H  H36  1  0.69022791  0.14789508  0.95540360  1.0
  H  H37  1  0.95539250  0.07748396  0.81688298  1.0
  H  H38  1  0.95075589  0.98899044  0.81919109  1.0
  H  H39  1  0.84935634  0.03951522  0.77365735  1.0
  H  H40  1  0.85404404  0.12793350  0.77142302  1.0
  H  H41  1  0.19346428  0.05174750  0.84468840  1.0
  H  H42  1  0.16939681  0.21621894  0.97565771  1.0
  H  H43  1  0.26046119  0.12793639  0.97784015  1.0
  H  H44  1  0.35574485  0.17464806  0.92740809  1.0
  H  H45  1  0.26484333  0.26296953  0.92527084  1.0
  H  H46  1  0.19427284  0.79372465  0.10315024  1.0
  H  H47  1  0.26032870  0.03224766  0.07478440  1.0
  H  H48  1  0.16923968  0.07260488  0.12002986  1.0
  H  H49  1  0.26474830  0.02062526  0.16853968  1.0
  H  H50  1  0.35572845  0.98016557  0.12334866  1.0
  H  H51  1  0.68866797  0.00698528  0.09665365  1.0
  H  H52  1  0.95127060  0.72390932  0.08435599  1.0
  H  H53  1  0.95543543  0.76467735  0.12992471  1.0
  H  H54  1  0.85530848  0.72029222  0.17762099  1.0
  H  H55  1  0.85111216  0.67934348  0.13221106  1.0
  C  C56  1  0.86198602  0.56825988  0.43068592  1.0
  C  C57  1  0.12404634  0.31612914  0.43868793  1.0
  C  C58  1  0.86469999  0.42785851  0.56843108  1.0
  C  C59  1  0.13920862  0.43307773  0.56839420  1.0
  C  C60  1  0.87337118  0.68373554  0.56036334  1.0
  C  C61  1  0.13741549  0.56949386  0.43078765  1.0
  C  C62  1  0.63912600  0.31831406  0.68147979  1.0
  C  C63  1  0.37687568  0.43473102  0.81022679  1.0
  C  C64  1  0.63457320  0.18238356  0.82090892  1.0
  C  C65  1  0.36098288  0.18083068  0.81761629  1.0
  C  C66  1  0.62643036  0.06574345  0.68888768  1.0
  C  C67  1  0.36346240  0.31823256  0.68040844  1.0
  C  C68  1  0.36291086  0.68060585  0.31992754  1.0
  C  C69  1  0.62255417  0.56632451  0.18870773  1.0
  C  C70  1  0.63863154  0.68051201  0.31842923  1.0
  C  C71  1  0.63533664  0.82069028  0.18039436  1.0
  C  C72  1  0.37621528  0.93252613  0.31234630  1.0
  C  C73  1  0.36069926  0.81826842  0.18155080  1.0
  C  C74  1  0.13871247  0.93119818  0.06874785  1.0
  C  C75  1  0.88059299  0.18375937  0.06109635  1.0
  C  C76  1  0.86102674  0.93214140  0.06924204  1.0
  C  C77  1  0.86225468  0.06901707  0.93127573  1.0
  C  C78  1  0.12170996  0.81529318  0.93999036  1.0
  C  C79  1  0.13886133  0.06803512  0.93071969  1.0
  C  C80  1  0.73509741  0.80400221  0.60087688  1.0
  C  C81  1  0.76447533  0.94511604  0.64874653  1.0
  C  C82  1  0.82276878  0.75845552  0.58558689  1.0
  C  C83  1  0.67679540  0.99085122  0.66393255  1.0
  C  C84  1  0.78582534  0.87711588  0.62567340  1.0
  C  C85  1  0.71366499  0.87216435  0.62385103  1.0
  C  C86  1  0.20205285  0.22662794  0.36911297  1.0
  C  C87  1  0.29794234  0.02232989  0.38190282  1.0
  C  C88  1  0.17324058  0.24204954  0.41312802  1.0
  C  C89  1  0.32696733  0.00670102  0.33791762  1.0
  C  C90  1  0.25240463  0.10243092  0.39333294  1.0
  C  C91  1  0.24759555  0.14647404  0.35771116  1.0
  C  C92  1  0.69616095  0.34612198  0.65289426  1.0
  C  C93  1  0.81054475  0.39711335  0.59727228  1.0
  C  C94  1  0.66613573  0.41810614  0.63631215  1.0
  C  C95  1  0.84069995  0.32367496  0.61448232  1.0
  C  C96  1  0.72184568  0.44195585  0.60957973  1.0
  C  C97  1  0.78499003  0.29957005  0.64123974  1.0
  C  C98  1  0.58731362  0.49220672  0.63498594  1.0
  C  C99  1  0.65021106  0.51951871  0.60472670  1.0
  C  C100  1  0.30577945  0.65265006  0.34814286  1.0
  C  C101  1  0.19417521  0.59662005  0.40118361  1.0
  C  C102  1  0.27984024  0.66430946  0.39238644  1.0
  C  C103  1  0.22080684  0.58509221  0.35586449  1.0
  C  C104  1  0.22611250  0.63699309  0.41757034  1.0
  C  C105  1  0.27476800  0.61237464  0.33057169  1.0
  C  C106  1  0.28608455  0.69906735  0.43016718  1.0
  C  C107  1  0.22540369  0.66795547  0.45885120  1.0
  C  C108  1  0.69517286  0.65241135  0.34689796  1.0
  C  C109  1  0.80838820  0.59593209  0.40073116  1.0
  C  C110  1  0.66448679  0.66418515  0.39116124  1.0
  C  C111  1  0.83935023  0.58435623  0.35543244  1.0
  C  C112  1  0.71969569  0.63667043  0.41669751  1.0
  C  C113  1  0.78403352  0.61186565  0.32977675  1.0
  C  C114  1  0.58529007  0.69936691  0.42867377  1.0
  C  C115  1  0.64767570  0.66829729  0.45774357  1.0
  C  C116  1  0.30608187  0.34727422  0.65236984  1.0
  C  C117  1  0.19579006  0.40704984  0.59698009  1.0
  C  C118  1  0.27262710  0.30488145  0.63966828  1.0
  C  C119  1  0.22995220  0.45016562  0.61031584  1.0
  C  C120  1  0.21965438  0.33422469  0.61297591  1.0
  C  C121  1  0.28308511  0.42084380  0.63701496  1.0
  C  C122  1  0.26913410  0.22945335  0.64301965  1.0
  C  C123  1  0.20910897  0.26237057  0.61279749  1.0
  C  C124  1  0.29789470  0.58410200  0.82076213  1.0
  C  C125  1  0.20160112  0.66593033  0.92951494  1.0
  C  C126  1  0.32740330  0.51007609  0.83469158  1.0
  C  C127  1  0.17177623  0.73995093  0.91558252  1.0
  C  C128  1  0.24752146  0.60904705  0.89499641  1.0
  C  C129  1  0.25190471  0.64095822  0.85529202  1.0
  C  C130  1  0.80484094  0.09732706  0.90319648  1.0
  C  C131  1  0.68917716  0.15478624  0.85047720  1.0
  C  C132  1  0.83417072  0.08625013  0.85891166  1.0
  C  C133  1  0.65969403  0.16560874  0.89578767  1.0
  C  C134  1  0.77788869  0.11426300  0.83389358  1.0
  C  C135  1  0.71601129  0.13779820  0.92091242  1.0
  C  C136  1  0.91260191  0.05199204  0.82097157  1.0
  C  C137  1  0.84913515  0.08359021  0.79249825  1.0
  C  C138  1  0.19482748  0.09696162  0.90216444  1.0
  C  C139  1  0.30401732  0.15130652  0.84475806  1.0
  C  C140  1  0.22745978  0.13794828  0.91708690  1.0
  C  C141  1  0.27014284  0.10956915  0.82975877  1.0
  C  C142  1  0.27992326  0.16382091  0.88913904  1.0
  C  C143  1  0.21756272  0.08356747  0.85772682  1.0
  C  C144  1  0.23072932  0.17084768  0.95649637  1.0
  C  C145  1  0.29040203  0.20011819  0.92493931  1.0
  C  C146  1  0.64355430  0.44662388  0.14876451  1.0
  C  C147  1  0.86063963  0.30327470  0.10092418  1.0
  C  C148  1  0.67164880  0.49155911  0.16370159  1.0
  C  C149  1  0.83225354  0.25850922  0.08605769  1.0
  C  C150  1  0.79199691  0.37194020  0.12383605  1.0
  C  C151  1  0.71245263  0.37803277  0.12594858  1.0
  C  C152  1  0.19538091  0.90268119  0.09707067  1.0
  C  C153  1  0.30456152  0.84393443  0.15284816  1.0
  C  C154  1  0.22806362  0.94562229  0.10995954  1.0
  C  C155  1  0.27110275  0.80024996  0.13940245  1.0
  C  C156  1  0.28055227  0.91671745  0.13685044  1.0
  C  C157  1  0.21838182  0.82922784  0.11249455  1.0
  C  C158  1  0.23079107  0.02141481  0.10686752  1.0
  C  C159  1  0.29051465  0.98882959  0.13724058  1.0
  C  C160  1  0.80395549  0.90371135  0.09715669  1.0
  C  C161  1  0.68958005  0.85168042  0.15186840  1.0
  C  C162  1  0.83397835  0.83145648  0.11345670  1.0
  C  C163  1  0.65940501  0.92539873  0.13493994  1.0
  C  C164  1  0.77834464  0.80708986  0.13977891  1.0
  C  C165  1  0.71508523  0.95000449  0.10860245  1.0
  C  C166  1  0.91293896  0.75769757  0.11506828  1.0
  C  C167  1  0.85021180  0.72989192  0.14494916  1.0
  S  S168  1  0.87928204  0.79898843  0.59934947  1.0
  S  S169  1  0.62022278  0.95047491  0.65003524  1.0
  S  S170  1  0.20163520  0.15860378  0.44060159  1.0
  S  S171  1  0.29849925  0.09019300  0.31046750  1.0
  S  S172  1  0.29904522  0.51001654  0.89014048  1.0
  S  S173  1  0.20005916  0.73997350  0.86012251  1.0
  S  S174  1  0.78253307  0.44993261  0.14968025  1.0
  S  S175  1  0.72140172  0.30038341  0.10015464  1.0
  Br  Br176  1  0.65039228  0.78298740  0.59368569  1.0
  Br  Br177  1  0.84929304  0.96582660  0.65594657  1.0
  Br  Br178  1  0.18649974  0.29821735  0.32738489  1.0
  Br  Br179  1  0.31324888  0.95084663  0.42379585  1.0
  Br  Br180  1  0.31317260  0.61170072  0.76418841  1.0
  Br  Br181  1  0.18669345  0.63833909  0.98606404  1.0
  Br  Br182  1  0.53058649  0.46847810  0.15583301  1.0
  Br  Br183  1  0.97407607  0.28086645  0.09327355  1.0
  Cl  Cl184  1  0.94780394  0.25777558  0.60397317  1.0
  Cl  Cl185  1  0.18910442  0.53752836  0.32805004  1.0
  Cl  Cl186  1  0.94652846  0.53578706  0.32805319  1.0
  Cl  Cl187  1  0.20936596  0.54192833  0.59492298  1.0
  Cl  Cl188  1  0.55275721  0.21389943  0.92377434  1.0
  Cl  Cl189  1  0.29007349  0.08758978  0.77617541  1.0
  Cl  Cl190  1  0.29183473  0.70854838  0.15479170  1.0
  Cl  Cl191  1  0.55227255  0.99106350  0.14523452  1.0
  O  O192  1  0.99820970  0.50053662  0.50138736  1.0
  O  O193  1  0.82194072  0.58225539  0.47048797  1.0
  O  O194  1  0.10172432  0.37670081  0.41845467  1.0
  O  O195  1  0.94504995  0.38682464  0.55893951  1.0
  O  O196  1  0.94228182  0.53323314  0.41483761  1.0
  O  O197  1  0.82418668  0.49452508  0.55559431  1.0
  O  O198  1  0.10818015  0.31263045  0.47919860  1.0
  O  O199  1  0.11704776  0.38437704  0.55989528  1.0
  O  O200  1  0.95424616  0.65752114  0.55051188  1.0
  O  O201  1  0.11759825  0.49980501  0.55475693  1.0
  O  O202  1  0.83336769  0.65247895  0.55077650  1.0
  O  O203  1  0.11296750  0.52988425  0.41484574  1.0
  O  O204  1  0.11795380  0.58845784  0.47050322  1.0
  O  O205  1  0.50049858  0.24963442  0.75022582  1.0
  O  O206  1  0.67429673  0.25227509  0.69568865  1.0
  O  O207  1  0.39944425  0.43462193  0.76980673  1.0
  O  O208  1  0.55417839  0.21808322  0.83660174  1.0
  O  O209  1  0.55927438  0.36377806  0.68924868  1.0
  O  O210  1  0.67492943  0.16705123  0.78116174  1.0
  O  O211  1  0.39247835  0.37586191  0.83233584  1.0
  O  O212  1  0.38146177  0.21963040  0.83760422  1.0
  O  O213  1  0.54550555  0.09438184  0.69677935  1.0
  O  O214  1  0.38493460  0.16561983  0.77757056  1.0
  O  O215  1  0.66642555  0.09518861  0.70030476  1.0
  O  O216  1  0.38935150  0.36310910  0.68977480  1.0
  O  O217  1  0.38193437  0.25049377  0.69254923  1.0
  O  O218  1  0.50108737  0.75055705  0.25004998  1.0
  O  O219  1  0.38872567  0.71623432  0.33843048  1.0
  O  O220  1  0.54182252  0.59523636  0.19970827  1.0
  O  O221  1  0.67398118  0.66795543  0.27832571  1.0
  O  O222  1  0.38113472  0.66674121  0.27986964  1.0
  O  O223  1  0.55881516  0.71505289  0.33722318  1.0
  O  O224  1  0.66621078  0.59533897  0.19711995  1.0
  O  O225  1  0.67559446  0.75265807  0.19183568  1.0
  O  O226  1  0.39241933  0.93648043  0.27186364  1.0
  O  O227  1  0.55506925  0.86284557  0.19111100  1.0
  O  O228  1  0.39801413  0.87175184  0.33244861  1.0
  O  O229  1  0.38271447  0.75125663  0.19478069  1.0
  O  O230  1  0.38233200  0.86702261  0.19059370  1.0
  O  O231  1  0.00022576  0.00018572  0.99983027  1.0
  O  O232  1  0.11071654  0.88729278  0.06045045  1.0
  O  O233  1  0.96144303  0.15310006  0.05064555  1.0
  O  O234  1  0.82597313  0.99945566  0.05635827  1.0
  O  O235  1  0.12293957  0.99770525  0.05528053  1.0
  O  O236  1  0.94084517  0.88604301  0.06066728  1.0
  O  O237  1  0.83586113  0.15640311  0.05220639  1.0
  O  O238  1  0.82713161  0.08468457  0.97128729  1.0
  O  O239  1  0.10312694  0.87417528  0.91780043  1.0
  O  O240  1  0.94198741  0.03140693  0.91259243  1.0
  O  O241  1  0.10149356  0.81547404  0.98042812  1.0
  O  O242  1  0.12253111  0.08218832  0.97062380  1.0
  O  O243  1  0.11221973  0.03195223  0.91318010  1.0
