# generated using pymatgen
data_ZnH22C24(NO)4
_symmetry_space_group_name_H-M   'P 1'
_cell_length_a   12.04281945
_cell_length_b   21.56167573
_cell_length_c   21.56711266
_cell_angle_alpha   116.60980455
_cell_angle_beta   100.73233290
_cell_angle_gamma   100.71510134
_symmetry_Int_Tables_number   1
_chemical_formula_structural   ZnH22C24(NO)4
_chemical_formula_sum   'Zn6 H132 C144 N24 O24'
_cell_volume   4682.48076742
_cell_formula_units_Z   6
loop_
 _symmetry_equiv_pos_site_id
 _symmetry_equiv_pos_as_xyz
  1  'x, y, z'
loop_
 _atom_site_type_symbol
 _atom_site_label
 _atom_site_symmetry_multiplicity
 _atom_site_fract_x
 _atom_site_fract_y
 _atom_site_fract_z
 _atom_site_occupancy
  Zn  Zn0  1  0.42117970  0.21808036  0.37779468  1.0
  Zn  Zn1  1  0.20339595  0.15984375  0.78180490  1.0
  Zn  Zn2  1  0.04360704  0.62207051  0.84017453  1.0
  Zn  Zn3  1  0.57881970  0.78191674  0.62220556  1.0
  Zn  Zn4  1  0.79660593  0.84015990  0.21819698  1.0
  Zn  Zn5  1  0.95639264  0.37793030  0.15982462  1.0
  H  H6  1  0.66422680  0.26151448  0.37141136  1.0
  H  H7  1  0.24606129  0.11365157  0.39226007  1.0
  H  H8  1  0.01018612  0.15692516  0.61045900  1.0
  H  H9  1  0.88942626  0.16447798  0.50787356  1.0
  H  H10  1  0.77198958  0.32909949  0.66049301  1.0
  H  H11  1  0.89865516  0.32381411  0.76273531  1.0
  H  H12  1  0.58627400  0.19423152  0.56874455  1.0
  H  H13  1  0.51124179  0.25649561  0.56581547  1.0
  H  H14  1  0.46131885  0.16555111  0.49240504  1.0
  H  H15  1  0.97105105  0.29888163  0.50614962  1.0
  H  H16  1  0.91422311  0.23921411  0.41034505  1.0
  H  H17  1  0.91469814  0.33113656  0.44762731  1.0
  H  H18  1  0.04295245  0.76686619  0.04349362  1.0
  H  H19  1  0.07041200  0.88332946  0.15461434  1.0
  H  H20  1  0.44998268  0.93576400  0.19485850  1.0
  H  H21  1  0.41970322  0.81871651  0.08264915  1.0
  H  H22  1  0.15166008  0.89981400  0.28524811  1.0
  H  H23  1  0.18348739  0.97174057  0.37603411  1.0
  H  H24  1  0.05918328  0.95630904  0.30634774  1.0
  H  H25  1  0.36059154  0.10070345  0.18508484  1.0
  H  H26  1  0.42240508  0.02857459  0.17094695  1.0
  H  H27  1  0.49714856  0.11777531  0.24657542  1.0
  H  H28  1  0.40301974  0.10988586  0.73840406  1.0
  H  H29  1  0.13244014  0.27861373  0.88633446  1.0
  H  H30  1  0.85369110  0.45370504  0.84309478  1.0
  H  H31  1  0.72547120  0.34357228  0.83566698  1.0
  H  H32  1  0.44359433  0.33122994  0.67072683  1.0
  H  H33  1  0.57526431  0.43887577  0.67605251  1.0
  H  H34  1  0.39248024  0.37460399  0.80565682  1.0
  H  H35  1  0.25528793  0.30934220  0.74337781  1.0
  H  H36  1  0.29629191  0.32684493  0.83429853  1.0
  H  H37  1  0.67268027  0.20701614  0.70099998  1.0
  H  H38  1  0.67543243  0.17087349  0.76069444  1.0
  H  H39  1  0.58385567  0.11631560  0.66881484  1.0
  H  H40  1  0.27602418  0.27661253  0.23301427  1.0
  H  H41  1  0.18707148  0.27111020  0.11645022  1.0
  H  H42  1  0.51428895  0.25891924  0.06411947  1.0
  H  H43  1  0.60109510  0.26402676  0.18132980  1.0
  H  H44  1  0.25172786  0.38523611  0.10013075  1.0
  H  H45  1  0.21166314  0.40418594  0.02826014  1.0
  H  H46  1  0.10278136  0.34989219  0.04365386  1.0
  H  H47  1  0.25974844  0.08423405  0.89923350  1.0
  H  H48  1  0.39363492  0.14222853  0.97135995  1.0
  H  H49  1  0.37931069  0.12859080  0.88215305  1.0
  H  H50  1  0.29311793  0.62857303  0.89008831  1.0
  H  H51  1  0.85381970  0.60775040  0.72142157  1.0
  H  H52  1  0.39994005  0.38933546  0.54634870  1.0
  H  H53  1  0.38210812  0.49200316  0.65656581  1.0
  H  H54  1  0.11217179  0.33950080  0.66877248  1.0
  H  H55  1  0.13606176  0.23719756  0.56106939  1.0
  H  H56  1  0.01789800  0.43116920  0.62548185  1.0
  H  H57  1  0.94596962  0.43413154  0.69073978  1.0
  H  H58  1  0.96954515  0.50760087  0.67327730  1.0
  H  H59  1  0.46562653  0.49395781  0.79300363  1.0
  H  H60  1  0.50452686  0.58978545  0.82913568  1.0
  H  H61  1  0.46753848  0.55245542  0.88370319  1.0
  H  H62  1  0.99955452  0.95658010  0.72335623  1.0
  H  H63  1  0.91594032  0.84551525  0.72882166  1.0
  H  H64  1  0.25515430  0.80507834  0.74091871  1.0
  H  H65  1  0.33700814  0.91717665  0.73582324  1.0
  H  H66  1  0.86621464  0.71478157  0.61463285  1.0
  H  H67  1  0.80734365  0.62401369  0.59587230  1.0
  H  H68  1  0.75267527  0.69371804  0.65005545  1.0
  H  H69  1  0.17553401  0.81492481  0.91561856  1.0
  H  H70  1  0.25144858  0.82907858  0.85763340  1.0
  H  H71  1  0.25058807  0.75341466  0.87119274  1.0
  H  H72  1  0.33577174  0.73848484  0.62858888  1.0
  H  H73  1  0.75393639  0.88634561  0.60774180  1.0
  H  H74  1  0.98981584  0.84307333  0.38953961  1.0
  H  H75  1  0.11057879  0.83552383  0.49212451  1.0
  H  H76  1  0.22801321  0.67090140  0.33950560  1.0
  H  H77  1  0.10134257  0.67618347  0.23726329  1.0
  H  H78  1  0.41373067  0.80577201  0.43125951  1.0
  H  H79  1  0.48875760  0.74350288  0.43418477  1.0
  H  H80  1  0.53868502  0.83444697  0.50759738  1.0
  H  H81  1  0.02894831  0.70111897  0.49385226  1.0
  H  H82  1  0.08577652  0.76078723  0.58965737  1.0
  H  H83  1  0.08530294  0.66886349  0.55237294  1.0
  H  H84  1  0.95704442  0.23313686  0.95650499  1.0
  H  H85  1  0.92958540  0.11666977  0.84538700  1.0
  H  H86  1  0.55001359  0.06423189  0.80514392  1.0
  H  H87  1  0.58029227  0.18128267  0.91734837  1.0
  H  H88  1  0.84833506  0.10018292  0.71475376  1.0
  H  H89  1  0.81650861  0.02825458  0.62396777  1.0
  H  H90  1  0.94081410  0.04368767  0.69365523  1.0
  H  H91  1  0.63940641  0.89929261  0.81491758  1.0
  H  H92  1  0.57759065  0.97142029  0.82905438  1.0
  H  H93  1  0.50285193  0.88222010  0.75342700  1.0
  H  H94  1  0.59698382  0.89011685  0.26159945  1.0
  H  H95  1  0.86755894  0.72138800  0.11366688  1.0
  H  H96  1  0.14631006  0.54629607  0.15690056  1.0
  H  H97  1  0.27453213  0.65643101  0.16433272  1.0
  H  H98  1  0.55640886  0.66876414  0.32926579  1.0
  H  H99  1  0.42473833  0.56111915  0.32393902  1.0
  H  H100  1  0.60752203  0.62539702  0.19433906  1.0
  H  H101  1  0.74471378  0.69065714  0.25661862  1.0
  H  H102  1  0.70371007  0.67315653  0.16569844  1.0
  H  H103  1  0.32732416  0.79298407  0.29900190  1.0
  H  H104  1  0.32457115  0.82912709  0.23930744  1.0
  H  H105  1  0.41614707  0.88368583  0.33118704  1.0
  H  H106  1  0.72397630  0.72338612  0.76698815  1.0
  H  H107  1  0.81292505  0.72888874  0.88355275  1.0
  H  H108  1  0.48570901  0.74108305  0.93588131  1.0
  H  H109  1  0.39890317  0.73597230  0.81866990  1.0
  H  H110  1  0.74826755  0.61476293  0.89987167  1.0
  H  H111  1  0.78833166  0.59581541  0.97174446  1.0
  H  H112  1  0.89721236  0.65010760  0.95634856  1.0
  H  H113  1  0.74025375  0.91576961  0.10076729  1.0
  H  H114  1  0.60636528  0.85777540  0.02864193  1.0
  H  H115  1  0.62069316  0.87141377  0.11784937  1.0
  H  H116  1  0.70688263  0.37142529  0.10990921  1.0
  H  H117  1  0.14618396  0.39225032  0.27857540  1.0
  H  H118  1  0.60006215  0.61066496  0.45365209  1.0
  H  H119  1  0.61788961  0.50799720  0.34343280  1.0
  H  H120  1  0.88782763  0.66049789  0.33122613  1.0
  H  H121  1  0.86394131  0.76280082  0.43892976  1.0
  H  H122  1  0.98210027  0.56882985  0.37451785  1.0
  H  H123  1  0.05402807  0.56586955  0.30926046  1.0
  H  H124  1  0.03045761  0.49240075  0.32672295  1.0
  H  H125  1  0.53437398  0.50604196  0.20699715  1.0
  H  H126  1  0.49547477  0.41021422  0.17086565  1.0
  H  H127  1  0.53245699  0.44754263  0.11629596  1.0
  H  H128  1  0.00044393  0.04342420  0.27664891  1.0
  H  H129  1  0.08405794  0.15448565  0.27117803  1.0
  H  H130  1  0.74484374  0.19492362  0.25907717  1.0
  H  H131  1  0.66298957  0.08282696  0.26417537  1.0
  H  H132  1  0.13378730  0.28521969  0.38536576  1.0
  H  H133  1  0.19265886  0.37598739  0.40412576  1.0
  H  H134  1  0.24732864  0.30628321  0.34994370  1.0
  H  H135  1  0.82446654  0.18507536  0.08437896  1.0
  H  H136  1  0.74855561  0.17092248  0.14236629  1.0
  H  H137  1  0.74941473  0.24658577  0.12880587  1.0
  C  C138  1  0.82335272  0.24763532  0.57732785  1.0
  C  C139  1  0.03550391  0.23506593  0.75330862  1.0
  C  C140  1  0.96134438  0.23985145  0.69257763  1.0
  C  C141  1  0.95866569  0.19499152  0.62064509  1.0
  C  C142  1  0.89158800  0.19948631  0.56380098  1.0
  C  C143  1  0.82509122  0.29177324  0.64943097  1.0
  C  C144  1  0.89492041  0.28870005  0.70661556  1.0
  C  C145  1  0.74806015  0.24911825  0.51648283  1.0
  C  C146  1  0.62315123  0.23213351  0.49671944  1.0
  C  C147  1  0.78219661  0.26355554  0.46426731  1.0
  C  C148  1  0.54089264  0.21079734  0.53245397  1.0
  C  C149  1  0.90184682  0.28441716  0.45673732  1.0
  C  C150  1  0.21188015  0.71978975  0.98438596  1.0
  C  C151  1  0.22965364  0.78606903  0.05558926  1.0
  C  C152  1  0.13180698  0.80396430  0.07723678  1.0
  C  C153  1  0.14763250  0.86923394  0.13961394  1.0
  C  C154  1  0.26195145  0.91877012  0.18183376  1.0
  C  C155  1  0.36027169  0.89932988  0.16133000  1.0
  C  C156  1  0.34411045  0.83375491  0.09911088  1.0
  C  C157  1  0.27794929  0.99011821  0.24422978  1.0
  C  C158  1  0.22821814  0.00543646  0.30163320  1.0
  C  C159  1  0.34374921  0.05875798  0.25728426  1.0
  C  C160  1  0.15184066  0.95598546  0.31831146  1.0
  C  C161  1  0.40969118  0.07719655  0.21266181  1.0
  C  C162  1  0.57641196  0.32968094  0.75229928  1.0
  C  C163  1  0.80066643  0.51830936  0.76484485  1.0
  C  C164  1  0.72195858  0.45272507  0.76003432  1.0
  C  C165  1  0.76416037  0.42572127  0.80496825  1.0
  C  C166  1  0.69269464  0.36439084  0.80052749  1.0
  C  C167  1  0.53400440  0.35755314  0.70805951  1.0
  C  C168  1  0.60674455  0.41784723  0.71113099  1.0
  C  C169  1  0.49962633  0.26736429  0.75085982  1.0
  C  C170  1  0.39165076  0.26464455  0.76778017  1.0
  C  C171  1  0.51921745  0.20067402  0.73643554  1.0
  C  C172  1  0.33064197  0.32170410  0.78907128  1.0
  C  C173  1  0.61789357  0.17213942  0.71551798  1.0
  C  C174  1  0.49208972  0.26466584  0.28017134  1.0
  C  C175  1  0.44356371  0.26950503  0.21385040  1.0
  C  C176  1  0.32777488  0.27317907  0.19588924  1.0
  C  C177  1  0.27837300  0.27019520  0.13057662  1.0
  C  C178  1  0.34317873  0.26282545  0.08105055  1.0
  C  C179  1  0.46097778  0.26182158  0.10053510  1.0
  C  C180  1  0.51039781  0.26532336  0.16618717  1.0
  C  C181  1  0.28777138  0.25391586  0.00973410  1.0
  C  C182  1  0.22274360  0.29607360  0.99448997  1.0
  C  C183  1  0.28492912  0.19838765  0.94108580  1.0
  C  C184  1  0.19577212  0.36217573  0.04397240  1.0
  C  C185  1  0.33237348  0.13529399  0.92269817  1.0
  C  C186  1  0.24678378  0.42260038  0.67042644  1.0
  C  C187  1  0.28214317  0.24653953  0.48166539  1.0
  C  C188  1  0.26900855  0.30729371  0.54725453  1.0
  C  C189  1  0.33840179  0.37919640  0.57432784  1.0
  C  C190  1  0.32842414  0.43607547  0.63573836  1.0
  C  C191  1  0.17632156  0.35051317  0.64248133  1.0
  C  C192  1  0.18862967  0.29329117  0.58212679  1.0
  C  C193  1  0.23230016  0.48349572  0.73269778  1.0
  C  C194  1  0.12704293  0.50317068  0.73541437  1.0
  C  C195  1  0.31853935  0.53577537  0.79937440  1.0
  C  C196  1  0.00898752  0.46746364  0.67838413  1.0
  C  C197  1  0.44573055  0.54335845  0.82788840  1.0
  C  C198  1  0.22749119  0.01552620  0.73520666  1.0
  C  C199  1  0.17407908  0.94433985  0.73033142  1.0
  C  C200  1  0.05463768  0.92279531  0.72669455  1.0
  C  C201  1  0.00809746  0.86045592  0.72966185  1.0
  C  C202  1  0.08018679  0.81820708  0.73698967  1.0
  C  C203  1  0.19895278  0.83860686  0.73795447  1.0
  C  C204  1  0.24497823  0.90076728  0.73447881  1.0
  C  C205  1  0.03367090  0.75583555  0.74596923  1.0
  C  C206  1  0.92649736  0.69845657  0.70390735  1.0
  C  C207  1  0.08646092  0.74273772  0.80150604  1.0
  C  C208  1  0.83339745  0.68175879  0.63778755  1.0
  C  C209  1  0.19703892  0.78734722  0.86453850  1.0
  C  C210  1  0.17664893  0.75236455  0.42267185  1.0
  C  C211  1  0.96449183  0.76493239  0.24669108  1.0
  C  C212  1  0.03865278  0.76014492  0.30742152  1.0
  C  C213  1  0.04133318  0.80500755  0.37935243  1.0
  C  C214  1  0.10841561  0.80051401  0.43619926  1.0
  C  C215  1  0.17491101  0.70822552  0.35056818  1.0
  C  C216  1  0.10507759  0.71129873  0.29338359  1.0
  C  C217  1  0.25194093  0.75088273  0.48351741  1.0
  C  C218  1  0.37684928  0.76786672  0.50328135  1.0
  C  C219  1  0.21780277  0.73644480  0.53573293  1.0
  C  C220  1  0.45910980  0.78920361  0.46754899  1.0
  C  C221  1  0.09815257  0.71558318  0.54326292  1.0
  C  C222  1  0.78810380  0.28021190  0.01561046  1.0
  C  C223  1  0.77034549  0.21393309  0.94440880  1.0
  C  C224  1  0.86818878  0.19603607  0.92276128  1.0
  C  C225  1  0.85236545  0.13076630  0.86038848  1.0
  C  C226  1  0.73804397  0.08122660  0.81816866  1.0
  C  C227  1  0.63972738  0.10066747  0.83867296  1.0
  C  C228  1  0.65588250  0.16624307  0.90088664  1.0
  C  C229  1  0.72204951  0.00987980  0.75577264  1.0
  C  C230  1  0.77177812  0.99456035  0.69836922  1.0
  C  C231  1  0.65624845  0.94123762  0.74271925  1.0
  C  C232  1  0.84815699  0.04401199  0.68169206  1.0
  C  C233  1  0.59030904  0.92279904  0.78734006  1.0
  C  C234  1  0.42359171  0.67031792  0.24769770  1.0
  C  C235  1  0.19933306  0.48169038  0.23514886  1.0
  C  C236  1  0.27804457  0.54727437  0.23995992  1.0
  C  C237  1  0.23584247  0.57427909  0.19502709  1.0
  C  C238  1  0.30730960  0.63561062  0.19946894  1.0
  C  C239  1  0.46600156  0.64244499  0.29193529  1.0
  C  C240  1  0.39325552  0.58214862  0.28886216  1.0
  C  C241  1  0.50037783  0.73263704  0.24914151  1.0
  C  C242  1  0.60835342  0.73535652  0.23221952  1.0
  C  C243  1  0.48078698  0.79932804  0.26356634  1.0
  C  C244  1  0.66935973  0.67829709  0.21092515  1.0
  C  C245  1  0.38210917  0.82786108  0.28448390  1.0
  C  C246  1  0.50791166  0.73533283  0.71982781  1.0
  C  C247  1  0.55643539  0.73049437  0.78615093  1.0
  C  C248  1  0.67222031  0.72681964  0.80410937  1.0
  C  C249  1  0.72162803  0.72980492  0.86942690  1.0
  C  C250  1  0.65682009  0.73717600  0.91895023  1.0
  C  C251  1  0.53901904  0.73817922  0.89946678  1.0
  C  C252  1  0.48960019  0.73467589  0.83381198  1.0
  C  C253  1  0.71222571  0.74608614  0.99026832  1.0
  C  C254  1  0.77725153  0.70392796  0.00551191  1.0
  C  C255  1  0.71507107  0.80161583  0.05891608  1.0
  C  C256  1  0.80422525  0.63782561  0.95603056  1.0
  C  C257  1  0.66762955  0.86471022  0.07730261  1.0
  C  C258  1  0.75321507  0.57739849  0.32957271  1.0
  C  C259  1  0.71786184  0.75346096  0.51833594  1.0
  C  C260  1  0.73099591  0.69270670  0.45274571  1.0
  C  C261  1  0.66160098  0.62080336  0.42567240  1.0
  C  C262  1  0.67157555  0.56392395  0.36426079  1.0
  C  C263  1  0.82367928  0.64948495  0.35751673  1.0
  C  C264  1  0.81137002  0.70670778  0.41787237  1.0
  C  C265  1  0.76769953  0.51650323  0.26730137  1.0
  C  C266  1  0.87295592  0.49682773  0.26458478  1.0
  C  C267  1  0.68146034  0.46422405  0.20062475  1.0
  C  C268  1  0.99101187  0.53253670  0.32161611  1.0
  C  C269  1  0.55426857  0.45664069  0.17211129  1.0
  C  C270  1  0.77251318  0.98447779  0.26479848  1.0
  C  C271  1  0.82592166  0.05566370  0.26967155  1.0
  C  C272  1  0.94535941  0.07720948  0.27330787  1.0
  C  C273  1  0.99190051  0.13954544  0.27033894  1.0
  C  C274  1  0.91981093  0.18179560  0.26300894  1.0
  C  C275  1  0.80104524  0.16139351  0.26204305  1.0
  C  C276  1  0.75502145  0.09923632  0.26552034  1.0
  C  C277  1  0.96633135  0.24416527  0.25402829  1.0
  C  C278  1  0.07350543  0.30154386  0.29609125  1.0
  C  C279  1  0.91354329  0.25726261  0.19849202  1.0
  C  C280  1  0.16660561  0.31824284  0.36221160  1.0
  C  C281  1  0.80296529  0.21265358  0.13545957  1.0
  N  N282  1  0.58468939  0.23616825  0.43633877  1.0
  N  N283  1  0.68140296  0.25561856  0.41779801  1.0
  N  N284  1  0.26469306  0.07856298  0.34467737  1.0
  N  N285  1  0.33392421  0.11155675  0.31838052  1.0
  N  N286  1  0.34903209  0.20024119  0.76375390  1.0
  N  N287  1  0.42626878  0.16219249  0.74434892  1.0
  N  N288  1  0.18617145  0.26608907  0.92137430  1.0
  N  N289  1  0.22240343  0.20678705  0.88832597  1.0
  N  N290  1  0.14879319  0.56354966  0.79978973  1.0
  N  N291  1  0.26405255  0.58217084  0.83783024  1.0
  N  N292  1  0.91998829  0.65537281  0.73394786  1.0
  N  N293  1  0.01556833  0.68161493  0.79319113  1.0
  N  N294  1  0.41531139  0.76383180  0.56366256  1.0
  N  N295  1  0.31859446  0.74438041  0.58220168  1.0
  N  N296  1  0.73530601  0.92143530  0.65532560  1.0
  N  N297  1  0.66607628  0.88844051  0.68162191  1.0
  N  N298  1  0.65097095  0.79976116  0.23624689  1.0
  N  N299  1  0.57373366  0.83780939  0.25565404  1.0
  N  N300  1  0.81382844  0.73391439  0.07862867  1.0
  N  N301  1  0.77759788  0.79321725  0.11167645  1.0
  N  N302  1  0.85120508  0.43644847  0.20020997  1.0
  N  N303  1  0.73594741  0.41782746  0.16216946  1.0
  N  N304  1  0.08001707  0.34462808  0.26604911  1.0
  N  N305  1  0.98443814  0.31838540  0.20680638  1.0
  O  O306  1  0.07790600  0.18089086  0.73138661  1.0
  O  O307  1  0.05180176  0.28178571  0.81857756  1.0
  O  O308  1  0.10200448  0.68359960  0.94574663  1.0
  O  O309  1  0.30076135  0.70484518  0.96531519  1.0
  O  O310  1  0.89697180  0.55075491  0.81919293  1.0
  O  O311  1  0.77032619  0.53675239  0.71801545  1.0
  O  O312  1  0.41831951  0.26218152  0.31631926  1.0
  O  O313  1  0.59593557  0.26063380  0.29518480  1.0
  O  O314  1  0.34615754  0.26845046  0.44928205  1.0
  O  O315  1  0.23328295  0.18127555  0.46318558  1.0
  O  O316  1  0.15630512  0.05425136  0.73779150  1.0
  O  O317  1  0.33536529  0.03451919  0.73919354  1.0
  O  O318  1  0.92209200  0.81910699  0.26861254  1.0
  O  O319  1  0.94819567  0.71821279  0.18142213  1.0
  O  O320  1  0.89799462  0.31640464  0.05425307  1.0
  O  O321  1  0.69923928  0.29515605  0.03467742  1.0
  O  O322  1  0.10302456  0.44924641  0.18080295  1.0
  O  O323  1  0.22966935  0.46324672  0.28197880  1.0
  O  O324  1  0.58167627  0.73781329  0.68367880  1.0
  O  O325  1  0.40406129  0.73936535  0.70481545  1.0
  O  O326  1  0.65384608  0.73154939  0.55071819  1.0
  O  O327  1  0.76672372  0.81872492  0.53681738  1.0
  O  O328  1  0.84369445  0.94575283  0.26221419  1.0
  O  O329  1  0.66463428  0.96548546  0.26081215  1.0
