# generated using pymatgen
data_Al2H11C20ClO10
_symmetry_space_group_name_H-M   'P 1'
_cell_length_a   6.64631627
_cell_length_b   11.04674030
_cell_length_c   11.06484327
_cell_angle_alpha   93.93559765
_cell_angle_beta   106.52460311
_cell_angle_gamma   105.99817203
_symmetry_Int_Tables_number   1
_chemical_formula_structural   Al2H11C20ClO10
_chemical_formula_sum   'Al2 H11 C20 Cl1 O10'
_cell_volume   739.07623072
_cell_formula_units_Z   1
loop_
 _symmetry_equiv_pos_site_id
 _symmetry_equiv_pos_as_xyz
  1  'x, y, z'
loop_
 _atom_site_type_symbol
 _atom_site_label
 _atom_site_symmetry_multiplicity
 _atom_site_fract_x
 _atom_site_fract_y
 _atom_site_fract_z
 _atom_site_occupancy
  Al  Al0  1  0.98542085  0.49311869  0.49284290  1.0
  Al  Al1  1  0.48613206  0.49594073  0.49188457  1.0
  H  H2  1  0.62082649  0.40961067  0.33719257  1.0
  H  H3  1  0.34959524  0.56970552  0.64928752  1.0
  H  H4  1  0.59262012  0.87718854  0.41528294  1.0
  H  H5  1  0.25962473  0.88054144  0.59536651  1.0
  H  H6  1  0.73202517  0.11185439  0.41151374  1.0
  H  H7  1  0.50903924  0.65197366  0.24447388  1.0
  H  H8  1  0.76667855  0.76959177  0.14050415  1.0
  H  H9  1  0.24948445  0.66790247  0.77935642  1.0
  H  H10  1  0.63564378  0.77976407  0.90681870  1.0
  H  H11  1  0.60931722  0.41750474  0.86677922  1.0
  H  H12  1  0.73080019  0.42307681  0.10288165  1.0
  C  C13  1  0.12918536  0.50791486  0.26681099  1.0
  C  C14  1  0.13609359  0.26684515  0.48854526  1.0
  C  C15  1  0.85380384  0.50278637  0.72090032  1.0
  C  C16  1  0.84345585  0.72445256  0.50477078  1.0
  C  C17  1  0.07124047  0.12826803  0.50003582  1.0
  C  C18  1  0.91888376  0.86470577  0.50383665  1.0
  C  C19  1  0.22025131  0.06253239  0.55545785  1.0
  C  C20  1  0.76804148  0.92938231  0.45296194  1.0
  C  C21  1  0.14384073  0.93147026  0.55500360  1.0
  C  C22  1  0.84539156  0.05913351  0.45072309  1.0
  C  C23  1  0.06967439  0.52099685  0.12875247  1.0
  C  C24  1  0.22885598  0.58493539  0.07115698  1.0
  C  C25  1  0.84984120  0.46713071  0.05612960  1.0
  C  C26  1  0.45228332  0.65244911  0.14225879  1.0
  C  C27  1  0.59616039  0.71898551  0.08384345  1.0
  C  C28  1  0.93121037  0.51983218  0.86317912  1.0
  C  C29  1  0.78070921  0.46511744  0.92359638  1.0
  C  C30  1  0.15607397  0.58662662  0.93574798  1.0
  C  C31  1  0.30752948  0.65996754  0.87998117  1.0
  C  C32  1  0.52283398  0.72409531  0.95193874  1.0
  Cl  Cl33  1  0.49926134  0.13665559  0.63098843  1.0
  O  O34  1  0.98855337  0.51439601  0.32295911  1.0
  O  O35  1  0.33478363  0.32158989  0.49551932  1.0
  O  O36  1  0.66394773  0.51316707  0.66657497  1.0
  O  O37  1  0.99121336  0.66863019  0.52515417  1.0
  O  O38  1  0.98150829  0.47727280  0.66336731  1.0
  O  O39  1  0.63847565  0.67177319  0.48600131  1.0
  O  O40  1  0.31139391  0.48720872  0.31872730  1.0
  O  O41  1  0.98273121  0.31876419  0.46867014  1.0
  O  O42  1  0.67926696  0.43845921  0.42856435  1.0
  O  O43  1  0.29262422  0.55193441  0.55663991  1.0
