# generated using pymatgen
data_ZnH13C18N2O5
_symmetry_space_group_name_H-M   'P 1'
_cell_length_a   11.12817976
_cell_length_b   16.44206464
_cell_length_c   17.80616048
_cell_angle_alpha   91.22991839
_cell_angle_beta   91.18236663
_cell_angle_gamma   104.20928914
_symmetry_Int_Tables_number   1
_chemical_formula_structural   ZnH13C18N2O5
_chemical_formula_sum   'Zn2 H26 C36 N4 O10'
_cell_volume   3156.46541663
_cell_formula_units_Z   2
loop_
 _symmetry_equiv_pos_site_id
 _symmetry_equiv_pos_as_xyz
  1  'x, y, z'
loop_
 _atom_site_type_symbol
 _atom_site_label
 _atom_site_symmetry_multiplicity
 _atom_site_fract_x
 _atom_site_fract_y
 _atom_site_fract_z
 _atom_site_occupancy
  Zn  Zn0  1  0.52015064  0.58392236  0.50633352  1.0
  Zn  Zn1  1  0.49099279  0.41490249  0.49876870  1.0
  H  H2  1  0.62176608  0.87824879  0.39789028  1.0
  H  H3  1  0.48377063  0.62801250  0.74004871  1.0
  H  H4  1  0.40964142  0.85283665  0.60091326  1.0
  H  H5  1  0.64730894  0.16048615  0.41303242  1.0
  H  H6  1  0.42205932  0.70209134  0.60229413  1.0
  H  H7  1  0.63095939  0.31061034  0.41678541  1.0
  H  H8  1  0.62189331  0.72573176  0.40766247  1.0
  H  H9  1  0.36150903  0.26211874  0.57729774  1.0
  H  H10  1  0.77899915  0.40228946  0.56971583  1.0
  H  H11  1  0.87827781  0.38541992  0.69568269  1.0
  H  H12  1  0.01526578  0.38365776  0.64566290  1.0
  H  H13  1  0.36454834  0.10952595  0.58107451  1.0
  H  H14  1  0.88056353  0.29989868  0.63268665  1.0
  H  H15  1  0.23030190  0.59251097  0.58345635  1.0
  H  H16  1  0.12756206  0.60010728  0.70901175  1.0
  H  H17  1  0.99261850  0.60620965  0.65550725  1.0
  H  H18  1  0.12770107  0.69011643  0.65440937  1.0
  H  H19  1  0.45272395  0.30767321  0.14101244  1.0
  H  H20  1  0.45097725  0.68766282  0.85224693  1.0
  H  H21  1  0.93887338  0.60262915  0.50289294  1.0
  H  H22  1  0.07301695  0.39729741  0.49500954  1.0
  H  H23  1  0.41066191  0.62101385  0.13063522  1.0
  H  H24  1  0.42228737  0.36374298  0.88056267  1.0
  H  H25  1  0.44281967  0.62325559  0.27061823  1.0
  H  H26  1  0.45763513  0.36345219  0.74167886  1.0
  H  H27  1  0.47611129  0.36896089  0.25838664  1.0
  C  C28  1  0.49730190  0.49705686  0.65058486  1.0
  C  C29  1  0.57395042  0.26323941  0.45171330  1.0
  C  C30  1  0.57709543  0.75732143  0.44914434  1.0
  C  C31  1  0.42227032  0.23593647  0.54188423  1.0
  C  C32  1  0.57638160  0.84136078  0.44401506  1.0
  C  C33  1  0.42472592  0.15202833  0.54382254  1.0
  C  C34  1  0.51581622  0.87810053  0.49917113  1.0
  C  C35  1  0.50618355  0.12258972  0.49675675  1.0
  C  C36  1  0.51322561  0.96362350  0.49705708  1.0
  C  C37  1  0.51064229  0.03733919  0.49678929  1.0
  C  C38  1  0.26403389  0.46889697  0.51197909  1.0
  C  C39  1  0.48651269  0.49789264  0.35562624  1.0
  C  C40  1  0.74717516  0.53105186  0.50999357  1.0
  C  C41  1  0.13116581  0.45431153  0.52086279  1.0
  C  C42  1  0.87997724  0.54421189  0.52191397  1.0
  C  C43  1  0.07429736  0.50816768  0.55827211  1.0
  C  C44  1  0.93579501  0.48769508  0.55556295  1.0
  C  C45  1  0.42463836  0.56594503  0.15920340  1.0
  C  C46  1  0.43404158  0.42106044  0.84890941  1.0
  C  C47  1  0.44310170  0.56752156  0.23658501  1.0
  C  C48  1  0.45437815  0.42086097  0.77231082  1.0
  C  C49  1  0.46321180  0.49656411  0.27232496  1.0
  C  C50  1  0.42503481  0.49372879  0.11491314  1.0
  C  C51  1  0.47317278  0.49585088  0.73312481  1.0
  C  C52  1  0.46123836  0.42380453  0.22960749  1.0
  C  C53  1  0.46792582  0.57005344  0.77134934  1.0
  C  C54  1  0.44158713  0.42164149  0.15204774  1.0
  C  C55  1  0.44451863  0.57024452  0.84788372  1.0
  C  C56  1  0.91373022  0.36817248  0.64167146  1.0
  C  C57  1  0.09421801  0.62144183  0.65583216  1.0
  C  C58  1  0.42950277  0.49549404  0.88876162  1.0
  C  C59  1  0.41562478  0.49395409  0.03586291  1.0
  C  C60  1  0.41704057  0.49568895  0.96734416  1.0
  C  C61  1  0.45801141  0.82715170  0.55732898  1.0
  C  C62  1  0.58246047  0.18038681  0.44992873  1.0
  C  C63  1  0.46415588  0.74394816  0.55821089  1.0
  N  N64  1  0.52242929  0.70969772  0.50532322  1.0
  N  N65  1  0.49510373  0.29026480  0.49659761  1.0
  N  N66  1  0.87278796  0.41126981  0.57947660  1.0
  N  N67  1  0.13655342  0.58282180  0.59073603  1.0
  O  O68  1  0.54015038  0.56857898  0.62199220  1.0
  O  O69  1  0.43712571  0.64151752  0.88694037  1.0
  O  O70  1  0.51062563  0.43288607  0.38399646  1.0
  O  O71  1  0.47158430  0.42634803  0.61544433  1.0
  O  O72  1  0.48000878  0.56413387  0.39225947  1.0
  O  O73  1  0.33350083  0.54262064  0.52979656  1.0
  O  O74  1  0.67774676  0.45636584  0.51980233  1.0
  O  O75  1  0.30685426  0.40818764  0.48678972  1.0
  O  O76  1  0.70365558  0.59314115  0.49070146  1.0
  O  O77  1  0.43924791  0.35155696  0.10837735  1.0
