# generated using pymatgen
data_Cu4SiH8(C5N2)4
_symmetry_space_group_name_H-M   'P 1'
_cell_length_a   29.21252677
_cell_length_b   29.22689564
_cell_length_c   29.22302601
_cell_angle_alpha   109.35061868
_cell_angle_beta   109.46157284
_cell_angle_gamma   109.58879813
_symmetry_Int_Tables_number   1
_chemical_formula_structural   Cu4SiH8(C5N2)4
_chemical_formula_sum   'Cu24 Si6 H48 C120 N48'
_cell_volume   19209.74493618
_cell_formula_units_Z   6
loop_
 _symmetry_equiv_pos_site_id
 _symmetry_equiv_pos_as_xyz
  1  'x, y, z'
loop_
 _atom_site_type_symbol
 _atom_site_label
 _atom_site_symmetry_multiplicity
 _atom_site_fract_x
 _atom_site_fract_y
 _atom_site_fract_z
 _atom_site_occupancy
  Cu  Cu0  1  0.61691290  0.54393939  0.56702607  1.0
  Cu  Cu1  1  0.56587810  0.61831058  0.54037126  1.0
  Cu  Cu2  1  0.54135301  0.56845446  0.61728937  1.0
  Cu  Cu3  1  0.88344323  0.95073008  0.42688190  1.0
  Cu  Cu4  1  0.93444968  0.97462370  0.55201429  1.0
  Cu  Cu5  1  0.95906967  0.07628275  0.52721237  1.0
  Cu  Cu6  1  0.52300871  0.95570926  0.07344985  1.0
  Cu  Cu7  1  0.42180526  0.88203027  0.94804405  1.0
  Cu  Cu8  1  0.54850633  0.93188534  0.97338365  1.0
  Cu  Cu9  1  0.97634530  0.54944297  0.93267510  1.0
  Cu  Cu10  1  0.07758193  0.52541181  0.95998106  1.0
  Cu  Cu11  1  0.95106119  0.42392081  0.88308190  1.0
  Cu  Cu12  1  0.11615761  0.06696115  0.04348065  1.0
  Cu  Cu13  1  0.06503952  0.03976458  0.11776577  1.0
  Cu  Cu14  1  0.04031068  0.11658868  0.06797683  1.0
  Cu  Cu15  1  0.38491549  0.92675676  0.45066610  1.0
  Cu  Cu16  1  0.43523555  0.05212786  0.47441798  1.0
  Cu  Cu17  1  0.46028194  0.02720862  0.57602240  1.0
  Cu  Cu18  1  0.02365038  0.57317444  0.45629501  1.0
  Cu  Cu19  1  0.92212995  0.44784571  0.38223818  1.0
  Cu  Cu20  1  0.04881807  0.47284741  0.43259021  1.0
  Cu  Cu21  1  0.47627290  0.43297290  0.04890432  1.0
  Cu  Cu22  1  0.57773405  0.46015995  0.02499542  1.0
  Cu  Cu23  1  0.45103174  0.38291842  0.92340519  1.0
  Si  Si24  1  0.62678540  0.37662998  0.74955420  1.0
  Si  Si25  1  0.87294090  0.12336840  0.25015221  1.0
  Si  Si26  1  0.37360408  0.75027537  0.62398399  1.0
  Si  Si27  1  0.12635668  0.24983391  0.87652942  1.0
  Si  Si28  1  0.74988478  0.62501574  0.37431855  1.0
  Si  Si29  1  0.24942257  0.87496697  0.12536135  1.0
  H  H30  1  0.68462826  0.54512552  0.50173851  1.0
  H  H31  1  0.61502095  0.64645139  0.46438831  1.0
  H  H32  1  0.54401249  0.50255749  0.68544104  1.0
  H  H33  1  0.64745812  0.47000879  0.61658729  1.0
  H  H34  1  0.49972578  0.68522579  0.54185654  1.0
  H  H35  1  0.46649048  0.61767506  0.64609849  1.0
  H  H36  1  0.81565803  0.81791020  0.35988993  1.0
  H  H37  1  0.88542940  0.84937543  0.53052068  1.0
  H  H38  1  0.95674771  0.14213385  0.45903512  1.0
  H  H39  1  0.85296262  0.97007173  0.32276135  1.0
  H  H40  1  0.00034970  0.04172392  0.68507162  1.0
  H  H41  1  0.03374131  0.17960832  0.65139127  1.0
  H  H42  1  0.45664969  0.95418026  0.13995659  1.0
  H  H43  1  0.31784691  0.85414675  0.96915622  1.0
  H  H44  1  0.68265946  0.99800778  0.04181095  1.0
  H  H45  1  0.64652580  0.02925250  0.17788042  1.0
  H  H46  1  0.35620065  0.81541219  0.81505384  1.0
  H  H47  1  0.52801945  0.88302683  0.84926624  1.0
  H  H48  1  0.04229960  0.68222542  0.99757704  1.0
  H  H49  1  0.18140424  0.65058523  0.03616810  1.0
  H  H50  1  0.81700293  0.35813602  0.81497432  1.0
  H  H51  1  0.85286613  0.53022508  0.88276758  1.0
  H  H52  1  0.14344322  0.45817725  0.95889401  1.0
  H  H53  1  0.97173815  0.32046498  0.85455845  1.0
  H  H54  1  0.18411641  0.00201313  0.04458875  1.0
  H  H55  1  0.11405291  0.96377333  0.14545427  1.0
  H  H56  1  0.04240181  0.18454737  0.00181207  1.0
  H  H57  1  0.14664377  0.11679907  0.96959559  1.0
  H  H58  1  0.99907003  0.04097697  0.18494494  1.0
  H  H59  1  0.96547155  0.14505102  0.11747087  1.0
  H  H60  1  0.31682194  0.85983041  0.31783078  1.0
  H  H61  1  0.38481343  0.03062404  0.34937374  1.0
  H  H62  1  0.45727383  0.95918998  0.64207359  1.0
  H  H63  1  0.35461236  0.82252877  0.47027904  1.0
  H  H64  1  0.50132212  0.18526500  0.54145826  1.0
  H  H65  1  0.53534781  0.15151094  0.67922137  1.0
  H  H66  1  0.95764881  0.64005832  0.45462300  1.0
  H  H67  1  0.81841058  0.46927052  0.35397603  1.0
  H  H68  1  0.18300272  0.54110895  0.49902613  1.0
  H  H69  1  0.14742340  0.67747496  0.53019266  1.0
  H  H70  1  0.85617440  0.31470776  0.31541443  1.0
  H  H71  1  0.02778449  0.34857622  0.38366780  1.0
  H  H72  1  0.54235736  0.49822051  0.18180503  1.0
  H  H73  1  0.68150615  0.53649414  0.14999634  1.0
  H  H74  1  0.31686837  0.31475943  0.85763105  1.0
  H  H75  1  0.35252830  0.38308280  0.02961591  1.0
  H  H76  1  0.64368171  0.45887156  0.95782031  1.0
  H  H77  1  0.47211399  0.35427094  0.82016093  1.0
  C  C78  1  0.66304799  0.56865683  0.49803939  1.0
  C  C79  1  0.66170658  0.59888620  0.46923640  1.0
  C  C80  1  0.62735833  0.62057245  0.47893011  1.0
  C  C81  1  0.56786162  0.50002290  0.66403348  1.0
  C  C82  1  0.59921834  0.47247326  0.66284907  1.0
  C  C83  1  0.62086426  0.48330562  0.62878483  1.0
  C  C84  1  0.49702341  0.66415509  0.56602265  1.0
  C  C85  1  0.46924008  0.66326064  0.59723030  1.0
  C  C86  1  0.48000470  0.62954651  0.61942038  1.0
  C  C87  1  0.83727733  0.83556538  0.40496057  1.0
  C  C88  1  0.83865160  0.80792679  0.43635574  1.0
  C  C89  1  0.87307073  0.85177667  0.49242536  1.0
  C  C90  1  0.93281201  0.09691699  0.43255377  1.0
  C  C91  1  0.90138427  0.06451626  0.37366186  1.0
  C  C92  1  0.87963227  0.00878064  0.36268807  1.0
  C  C93  1  0.00310719  0.06872492  0.66686322  1.0
  C  C94  1  0.03087693  0.12769423  0.69391976  1.0
  C  C95  1  0.02020778  0.13935218  0.64959790  1.0
  C  C96  1  0.42939543  0.93097775  0.09487395  1.0
  C  C97  1  0.37037090  0.90111357  0.06335077  1.0
  C  C98  1  0.35829590  0.87971919  0.00732570  1.0
  C  C99  1  0.66382195  0.00022254  0.06821623  1.0
  C  C100  1  0.69025767  0.02744477  0.12710836  1.0
  C  C101  1  0.64539292  0.01628170  0.13799097  1.0
  C  C102  1  0.40144282  0.83646729  0.83337811  1.0
  C  C103  1  0.43353795  0.83745002  0.80648698  1.0
  C  C104  1  0.48947124  0.87111050  0.85092559  1.0
  C  C105  1  0.06967615  0.66450530  0.00160012  1.0
  C  C106  1  0.12871789  0.69207963  0.03071517  1.0
  C  C107  1  0.14091248  0.64821618  0.02133404  1.0
  C  C108  1  0.83575536  0.40335465  0.83613642  1.0
  C  C109  1  0.80927020  0.43577472  0.83697831  1.0
  C  C110  1  0.85405416  0.49150117  0.87084022  1.0
  C  C111  1  0.09820994  0.43122244  0.93468283  1.0
  C  C112  1  0.06621209  0.37225500  0.90352868  1.0
  C  C113  1  0.01024467  0.36068755  0.88123668  1.0
  C  C114  1  0.16241110  0.99807084  0.06802714  1.0
  C  C115  1  0.16096966  0.96911737  0.09810753  1.0
  C  C116  1  0.12647117  0.97852528  0.11970023  1.0
  C  C117  1  0.06648232  0.16342669  0.99934573  1.0
  C  C118  1  0.09798777  0.16255363  0.97187655  1.0
  C  C119  1  0.11988278  0.12873512  0.98281662  1.0
  C  C120  1  0.99627505  0.06512136  0.16387375  1.0
  C  C121  1  0.96842734  0.09621808  0.16304448  1.0
  C  C122  1  0.97908224  0.11843219  0.12928432  1.0
  C  C123  1  0.33810230  0.90494963  0.33552367  1.0
  C  C124  1  0.33873133  0.93640336  0.30794803  1.0
  C  C125  1  0.37298275  0.99249554  0.35177153  1.0
  C  C126  1  0.43363083  0.93258397  0.59689734  1.0
  C  C127  1  0.40236590  0.87362399  0.56465047  1.0
  C  C128  1  0.38103815  0.86254404  0.50890547  1.0
  C  C129  1  0.50419818  0.16700644  0.56841266  1.0
  C  C130  1  0.53215117  0.19405861  0.62734162  1.0
  C  C131  1  0.52162777  0.14971038  0.63899043  1.0
  C  C132  1  0.93022858  0.59495042  0.43127001  1.0
  C  C133  1  0.87116712  0.56350098  0.40116406  1.0
  C  C134  1  0.85894451  0.50741331  0.37971286  1.0
  C  C135  1  0.16431512  0.56762210  0.50121709  1.0
  C  C136  1  0.19092104  0.62657158  0.52845491  1.0
  C  C137  1  0.14614715  0.63751866  0.51721947  1.0
  C  C138  1  0.90140722  0.33300593  0.33665216  1.0
  C  C139  1  0.93332529  0.30597626  0.33772128  1.0
  C  C140  1  0.98932025  0.35034699  0.37161561  1.0
  C  C141  1  0.56975579  0.50217054  0.16405974  1.0
  C  C142  1  0.62881046  0.53118172  0.19159743  1.0
  C  C143  1  0.64099766  0.52173889  0.14769285  1.0
  C  C144  1  0.33556973  0.33603775  0.90282728  1.0
  C  C145  1  0.30899283  0.33703301  0.93522320  1.0
  C  C146  1  0.35379248  0.37102288  0.99091643  1.0
  C  C147  1  0.59845335  0.43459836  0.93087629  1.0
  C  C148  1  0.56653200  0.40335979  0.87195072  1.0
  C  C149  1  0.51053712  0.38101427  0.86038051  1.0
  C  C150  1  0.68894986  0.60624572  0.43846510  1.0
  C  C151  1  0.71293893  0.61292688  0.41195983  1.0
  C  C152  1  0.81129059  0.74995129  0.41636085  1.0
  C  C153  1  0.78709862  0.69950896  0.39911151  1.0
  C  C154  1  0.33227952  0.89378621  0.08322789  1.0
  C  C155  1  0.29910326  0.88709821  0.10052882  1.0
  C  C156  1  0.16665423  0.75004441  0.06146230  1.0
  C  C157  1  0.19973773  0.80051218  0.08791842  1.0
  C  C158  1  0.60740378  0.44160918  0.68977445  1.0
  C  C159  1  0.61473353  0.41493324  0.71338370  1.0
  C  C160  1  0.75149585  0.41700256  0.80988137  1.0
  C  C161  1  0.70123835  0.40082261  0.78605295  1.0
  C  C162  1  0.89306424  0.08327582  0.33466546  1.0
  C  C163  1  0.88537960  0.09938214  0.30054640  1.0
  C  C164  1  0.74808219  0.05834779  0.16607383  1.0
  C  C165  1  0.79840766  0.08505874  0.19997724  1.0
  C  C166  1  0.43839436  0.69026937  0.60499317  1.0
  C  C167  1  0.41185760  0.71404493  0.61212997  1.0
  C  C168  1  0.41428933  0.81045669  0.74865650  1.0
  C  C169  1  0.39769423  0.78665775  0.69837089  1.0
  C  C170  1  0.08555233  0.33373653  0.89583083  1.0
  C  C171  1  0.10219598  0.30007737  0.88867821  1.0
  C  C172  1  0.06163800  0.16612947  0.75178485  1.0
  C  C173  1  0.08811977  0.19969427  0.80209992  1.0
  C  C174  1  0.18833322  0.93859032  0.10570499  1.0
  C  C175  1  0.21245916  0.91238990  0.11298431  1.0
  C  C176  1  0.31097326  0.91654651  0.25006791  1.0
  C  C177  1  0.28652820  0.89960800  0.19974806  1.0
  C  C178  1  0.83304643  0.58331776  0.39358403  1.0
  C  C179  1  0.79960235  0.60023987  0.38648027  1.0
  C  C180  1  0.66684607  0.56169464  0.24952126  1.0
  C  C181  1  0.70009617  0.58774424  0.29989814  1.0
  C  C182  1  0.10629131  0.18962599  0.94111688  1.0
  C  C183  1  0.11397912  0.21340775  0.91463140  1.0
  C  C184  1  0.25114671  0.30995133  0.91650939  1.0
  C  C185  1  0.20087308  0.28616799  0.90045610  1.0
  C  C186  1  0.39383790  0.83467898  0.58355669  1.0
  C  C187  1  0.38603182  0.80064649  0.59981462  1.0
  C  C188  1  0.24877249  0.66562755  0.55927812  1.0
  C  C189  1  0.29905966  0.69977493  0.58581413  1.0
  C  C190  1  0.93758928  0.10396159  0.19008721  1.0
  C  C191  1  0.91102991  0.11125415  0.21381519  1.0
  C  C192  1  0.91389432  0.24809574  0.31055917  1.0
  C  C193  1  0.89713844  0.19777272  0.28651240  1.0
  C  C194  1  0.58589349  0.39565560  0.83342800  1.0
  C  C195  1  0.60241085  0.38845847  0.79964352  1.0
  C  C196  1  0.56276114  0.25193839  0.66575913  1.0
  C  C197  1  0.58895143  0.30225739  0.69931656  1.0
  N  N198  1  0.60984975  0.60443135  0.51095096  1.0
  N  N199  1  0.63197726  0.57226197  0.52276897  1.0
  N  N200  1  0.60364452  0.51474768  0.61130499  1.0
  N  N201  1  0.57079093  0.52513115  0.63313658  1.0
  N  N202  1  0.51167451  0.61202280  0.60271062  1.0
  N  N203  1  0.52222927  0.63349060  0.56959637  1.0
  N  N204  1  0.89055544  0.90139144  0.49400061  1.0
  N  N205  1  0.86836588  0.89129738  0.43979915  1.0
  N  N206  1  0.89681970  0.00838157  0.41126548  1.0
  N  N207  1  0.92976831  0.06296657  0.45458482  1.0
  N  N208  1  0.98861451  0.09111504  0.60033428  1.0
  N  N209  1  0.97801314  0.04731949  0.61103818  1.0
  N  N210  1  0.40644415  0.89569759  0.00592353  1.0
  N  N211  1  0.45046240  0.92744877  0.06016370  1.0
  N  N212  1  0.59643851  0.98495443  0.08937831  1.0
  N  N213  1  0.60780320  0.97496887  0.04610380  1.0
  N  N214  1  0.49031851  0.88855063  0.90012081  1.0
  N  N215  1  0.43572916  0.86705614  0.88921739  1.0
  N  N216  1  0.09283078  0.59863188  0.98915355  1.0
  N  N217  1  0.04874166  0.60877362  0.97695881  1.0
  N  N218  1  0.90303467  0.49187642  0.88848426  1.0
  N  N219  1  0.89175241  0.43728622  0.86700330  1.0
  N  N220  1  0.00929938  0.40897222  0.89784520  1.0
  N  N221  1  0.06384195  0.45270601  0.93098803  1.0
  N  N222  1  0.10900579  0.01058376  0.10370083  1.0
  N  N223  1  0.13128354  0.02268558  0.07168535  1.0
  N  N224  1  0.10270397  0.11113226  0.01425655  1.0
  N  N225  1  0.06960250  0.13262037  0.02453170  1.0
  N  N226  1  0.01076474  0.10185494  0.11166668  1.0
  N  N227  1  0.02140845  0.06878956  0.13311312  1.0
  N  N228  1  0.39106275  0.99403065  0.40131905  1.0
  N  N229  1  0.36944314  0.93977872  0.39123124  1.0
  N  N230  1  0.39831610  0.91108518  0.50835198  1.0
  N  N231  1  0.43091960  0.95452840  0.56287864  1.0
  N  N232  1  0.48990838  0.10040946  0.59077536  1.0
  N  N233  1  0.47910494  0.11114887  0.54702214  1.0
  N  N234  1  0.90698903  0.50588639  0.39584430  1.0
  N  N235  1  0.95114687  0.56014064  0.42779447  1.0
  N  N236  1  0.09708453  0.58892102  0.48582665  1.0
  N  N237  1  0.10830526  0.54556439  0.47588027  1.0
  N  N238  1  0.99036544  0.39963833  0.38904596  1.0
  N  N239  1  0.93584138  0.38887284  0.36736408  1.0
  N  N240  1  0.59293019  0.48958025  0.09816804  1.0
  N  N241  1  0.54879107  0.47746110  0.10832814  1.0
  N  N242  1  0.40283404  0.38859856  0.99130353  1.0
  N  N243  1  0.39157577  0.36692414  0.93671029  1.0
  N  N244  1  0.50948200  0.39767389  0.90861856  1.0
  N  N245  1  0.56400274  0.43090483  0.95232498  1.0
