# generated using pymatgen
data_Zn2H21C42S5Br2N2O23
_symmetry_space_group_name_H-M   'P 1'
_cell_length_a   16.50898995
_cell_length_b   17.82122100
_cell_length_c   28.78424483
_cell_angle_alpha   89.60279735
_cell_angle_beta   89.88987945
_cell_angle_gamma   89.86343840
_symmetry_Int_Tables_number   1
_chemical_formula_structural   Zn2H21C42S5Br2N2O23
_chemical_formula_sum   'Zn4 H42 C84 S10 Br4 N4 O46'
_cell_volume   8468.38006153
_cell_formula_units_Z   2
loop_
 _symmetry_equiv_pos_site_id
 _symmetry_equiv_pos_as_xyz
  1  'x, y, z'
loop_
 _atom_site_type_symbol
 _atom_site_label
 _atom_site_symmetry_multiplicity
 _atom_site_fract_x
 _atom_site_fract_y
 _atom_site_fract_z
 _atom_site_occupancy
  Zn  Zn0  1  0.41795888  0.50028784  0.50171214  1.0
  Zn  Zn1  1  0.58668005  0.49944363  0.50057774  1.0
  Zn  Zn2  1  0.58568386  0.50065779  0.11967815  1.0
  Zn  Zn3  1  0.41678324  0.50445172  0.11909834  1.0
  H  H4  1  0.71590375  0.58819357  0.45372904  1.0
  H  H5  1  0.86819705  0.59081187  0.45154957  1.0
  H  H6  1  0.71496256  0.41242801  0.54912616  1.0
  H  H7  1  0.29232191  0.57430561  0.44369161  1.0
  H  H8  1  0.28637983  0.42633161  0.55551416  1.0
  H  H9  1  0.13364828  0.42329087  0.55546907  1.0
  H  H10  1  0.37190016  0.73313031  0.51277181  1.0
  H  H11  1  0.36517036  0.87344506  0.50703177  1.0
  H  H12  1  0.63036085  0.74078537  0.49579838  1.0
  H  H13  1  0.37266984  0.26899391  0.48055819  1.0
  H  H14  1  0.62874765  0.25598694  0.50596810  1.0
  H  H15  1  0.62112705  0.11542492  0.50705043  1.0
  H  H16  1  0.41411687  0.40151142  0.22442372  1.0
  H  H17  1  0.41712840  0.40015357  0.39765346  1.0
  H  H18  1  0.62832619  0.49804943  0.97126582  1.0
  H  H19  1  0.62635512  0.50475485  0.88420981  1.0
  H  H20  1  0.36801200  0.49693188  0.97397009  1.0
  H  H21  1  0.62672777  0.50262944  0.64724985  1.0
  H  H22  1  0.36780445  0.47800344  0.64849458  1.0
  H  H23  1  0.36706097  0.48835694  0.73536262  1.0
  H  H24  1  0.28653920  0.59079676  0.16679799  1.0
  H  H25  1  0.13436495  0.59200992  0.16943703  1.0
  H  H26  1  0.28929029  0.42028183  0.06929573  1.0
  H  H27  1  0.71052405  0.57935049  0.17433500  1.0
  H  H28  1  0.71813176  0.42009813  0.06986028  1.0
  H  H29  1  0.87068609  0.41924453  0.06922097  1.0
  H  H30  1  0.63592047  0.74366284  0.11770084  1.0
  H  H31  1  0.63102575  0.88365158  0.12390935  1.0
  H  H32  1  0.37583325  0.73555088  0.11905990  1.0
  H  H33  1  0.62735010  0.26404523  0.12814456  1.0
  H  H34  1  0.36723416  0.26563472  0.13341445  1.0
  H  H35  1  0.36614666  0.12516768  0.13370900  1.0
  H  H36  1  0.96948382  0.32315770  0.52139841  1.0
  H  H37  1  0.02512320  0.53412893  0.40571757  1.0
  H  H38  1  0.60778768  0.98435443  0.44772194  1.0
  H  H39  1  0.37276257  0.01830982  0.44693595  1.0
  H  H40  1  0.37005330  0.57815081  0.82288691  1.0
  H  H41  1  0.61504731  0.58400522  0.79657531  1.0
  H  H42  1  0.03677719  0.32710128  0.09985301  1.0
  H  H43  1  0.97571101  0.54264781  0.21761860  1.0
  H  H44  1  0.37451865  0.97663695  0.17161760  1.0
  H  H45  1  0.62333660  0.01746487  0.16986107  1.0
  C  C46  1  0.50443267  0.64494402  0.50712078  1.0
  C  C47  1  0.49896043  0.51675229  0.41155207  1.0
  C  C48  1  0.50546668  0.35458607  0.49337917  1.0
  C  C49  1  0.49726413  0.48656638  0.59091424  1.0
  C  C50  1  0.50832386  0.64779482  0.11434612  1.0
  C  C51  1  0.49624007  0.51782110  0.20919072  1.0
  C  C52  1  0.49853555  0.35706356  0.12811827  1.0
  C  C53  1  0.50052799  0.49233840  0.02956585  1.0
  C  C54  1  0.75220254  0.54913045  0.47438387  1.0
  C  C55  1  0.83625232  0.54986185  0.47302854  1.0
  C  C56  1  0.88002097  0.49751211  0.50003145  1.0
  C  C57  1  0.83521805  0.44705666  0.52818789  1.0
  C  C58  1  0.75107735  0.45050496  0.52778533  1.0
  C  C59  1  0.96546738  0.49690439  0.49808959  1.0
  C  C60  1  0.03916670  0.49949853  0.49641848  1.0
  C  C61  1  0.12465518  0.50089840  0.49728773  1.0
  C  C62  1  0.17087631  0.54461263  0.46579135  1.0
  C  C63  1  0.25491711  0.54240201  0.46801012  1.0
  C  C64  1  0.25097005  0.45871315  0.53042721  1.0
  C  C65  1  0.16689689  0.45719594  0.53025532  1.0
  C  C66  1  0.50115526  0.72884944  0.50493385  1.0
  C  C67  1  0.42666469  0.76625723  0.50798363  1.0
  C  C68  1  0.42296667  0.84397727  0.50469297  1.0
  C  C69  1  0.49433721  0.88628961  0.49867970  1.0
  C  C70  1  0.56932927  0.84760222  0.49565292  1.0
  C  C71  1  0.57258010  0.76993406  0.49858194  1.0
  C  C72  1  0.49053331  0.96531277  0.49566529  1.0
  C  C73  1  0.48979068  0.03390289  0.49448750  1.0
  C  C74  1  0.49232775  0.11308659  0.49444571  1.0
  C  C75  1  0.42215021  0.15759151  0.48737443  1.0
  C  C76  1  0.42671879  0.23529252  0.48654678  1.0
  C  C77  1  0.50143222  0.27065480  0.49326261  1.0
  C  C78  1  0.57131248  0.22742866  0.50056286  1.0
  C  C79  1  0.56717400  0.14956841  0.50103342  1.0
  C  C80  1  0.49483127  0.52066057  0.26141279  1.0
  C  C81  1  0.45536455  0.46118368  0.28584627  1.0
  C  C82  1  0.53159164  0.57836453  0.28535558  1.0
  C  C83  1  0.41555627  0.40210013  0.26226531  1.0
  C  C84  1  0.37731658  0.34554096  0.28676037  1.0
  C  C85  1  0.49644477  0.51988050  0.35932731  1.0
  C  C86  1  0.53223405  0.57800666  0.33475361  1.0
  C  C87  1  0.45624820  0.46073788  0.33554066  1.0
  C  C88  1  0.41721868  0.40136004  0.35979956  1.0
  C  C89  1  0.37790154  0.34505863  0.33613910  1.0
  C  C90  1  0.49875349  0.49597610  0.97760829  1.0
  C  C91  1  0.57127640  0.49909176  0.95234360  1.0
  C  C92  1  0.57019147  0.50362987  0.90420191  1.0
  C  C93  1  0.49583490  0.50606346  0.88020775  1.0
  C  C94  1  0.42290309  0.50392045  0.90620985  1.0
  C  C95  1  0.42435773  0.49845379  0.95430780  1.0
  C  C96  1  0.49561127  0.50971871  0.83127845  1.0
  C  C97  1  0.49560044  0.50797012  0.78885684  1.0
  C  C98  1  0.49667502  0.50143853  0.74009274  1.0
  C  C99  1  0.57011855  0.50457077  0.71458126  1.0
  C  C100  1  0.57017491  0.49894195  0.66658021  1.0
  C  C101  1  0.49696922  0.48936558  0.64284642  1.0
  C  C102  1  0.42402725  0.48530369  0.66765113  1.0
  C  C103  1  0.42351371  0.49145601  0.71571829  1.0
  C  C104  1  0.25067195  0.55262505  0.14573715  1.0
  C  C105  1  0.16665351  0.55223218  0.14754393  1.0
  C  C106  1  0.12345530  0.50033069  0.12051981  1.0
  C  C107  1  0.16879369  0.45156945  0.09180898  1.0
  C  C108  1  0.25282787  0.45651803  0.09145260  1.0
  C  C109  1  0.03806562  0.49862549  0.12292380  1.0
  C  C110  1  0.96437741  0.50063926  0.12493967  1.0
  C  C111  1  0.87889910  0.50147011  0.12424219  1.0
  C  C112  1  0.83219624  0.54758279  0.15390233  1.0
  C  C113  1  0.74815637  0.54475028  0.15177423  1.0
  C  C114  1  0.75302340  0.45543447  0.09322518  1.0
  C  C115  1  0.83711420  0.45478217  0.09318475  1.0
  C  C116  1  0.50638997  0.73155354  0.11767917  1.0
  C  C117  1  0.57814514  0.77317216  0.11947077  1.0
  C  C118  1  0.57538466  0.85081221  0.12339501  1.0
  C  C119  1  0.50031468  0.88855153  0.12635469  1.0
  C  C120  1  0.42828961  0.84545610  0.12497439  1.0
  C  C121  1  0.43140694  0.76815147  0.12031654  1.0
  C  C122  1  0.49819951  0.96741559  0.13056917  1.0
  C  C123  1  0.49598524  0.03595551  0.13220806  1.0
  C  C124  1  0.49646632  0.11517821  0.13181562  1.0
  C  C125  1  0.57027787  0.15574796  0.13028196  1.0
  C  C126  1  0.57041789  0.23349905  0.12945320  1.0
  C  C127  1  0.49701260  0.27307854  0.13031542  1.0
  C  C128  1  0.42366819  0.23391879  0.13241472  1.0
  C  C129  1  0.42315333  0.15593317  0.13294807  1.0
  S  S130  1  0.88209821  0.37787379  0.56464474  1.0
  S  S131  1  0.12416127  0.60475266  0.42374910  1.0
  S  S132  1  0.66207176  0.89772833  0.48849634  1.0
  S  S133  1  0.32540646  0.11473681  0.48097752  1.0
  S  S134  1  0.32715527  0.50723578  0.87752912  1.0
  S  S135  1  0.66485978  0.51470433  0.74365022  1.0
  S  S136  1  0.12253694  0.38262835  0.05566592  1.0
  S  S137  1  0.87824850  0.61134973  0.19345595  1.0
  S  S138  1  0.33125617  0.88950796  0.12800257  1.0
  S  S139  1  0.66523895  0.10791805  0.12756171  1.0
  Br  Br140  1  0.58029572  0.65822786  0.36792480  1.0
  Br  Br141  1  0.58005941  0.65835903  0.25150529  1.0
  Br  Br142  1  0.32377419  0.26918842  0.25292835  1.0
  Br  Br143  1  0.32538445  0.26884668  0.37121151  1.0
  N  N144  1  0.71083900  0.50018076  0.50112108  1.0
  N  N145  1  0.29373533  0.50022064  0.49986442  1.0
  N  N146  1  0.29256858  0.50562092  0.11824439  1.0
  N  N147  1  0.70981248  0.49932757  0.12195959  1.0
  O  O148  1  0.43842529  0.61116176  0.51643766  1.0
  O  O149  1  0.57257863  0.61409440  0.49905945  1.0
  O  O150  1  0.56610401  0.49881494  0.42988018  1.0
  O  O151  1  0.43259443  0.52942582  0.43255890  1.0
  O  O152  1  0.57381598  0.38415113  0.50184722  1.0
  O  O153  1  0.43960685  0.38991914  0.48524022  1.0
  O  O154  1  0.42983489  0.47400024  0.57086831  1.0
  O  O155  1  0.56475566  0.49835559  0.57080749  1.0
  O  O156  1  0.57634034  0.61564723  0.12074465  1.0
  O  O157  1  0.44133032  0.61541420  0.10591725  1.0
  O  O158  1  0.42933721  0.53000815  0.18864206  1.0
  O  O159  1  0.56318952  0.50039089  0.19049074  1.0
  O  O160  1  0.43196493  0.39173638  0.13499003  1.0
  O  O161  1  0.56670583  0.38714164  0.11927073  1.0
  O  O162  1  0.56902057  0.50166447  0.04889648  1.0
  O  O163  1  0.43332999  0.48103741  0.05027781  1.0
  O  O164  1  0.91113129  0.31732304  0.52639694  1.0
  O  O165  1  0.81907880  0.34257876  0.59087017  1.0
  O  O166  1  0.95316706  0.40924369  0.58571634  1.0
  O  O167  1  0.07779994  0.54494560  0.39134282  1.0
  O  O168  1  0.18658136  0.63619085  0.39525404  1.0
  O  O169  1  0.06452325  0.64977603  0.44709320  1.0
  O  O170  1  0.64630252  0.94364975  0.44074042  1.0
  O  O171  1  0.72495084  0.84510280  0.47770135  1.0
  O  O172  1  0.66981438  0.95068811  0.52575106  1.0
  O  O173  1  0.33908045  0.06103185  0.43671495  1.0
  O  O174  1  0.26860466  0.17057915  0.46554858  1.0
  O  O175  1  0.30990685  0.06864456  0.52125327  1.0
  O  O176  1  0.33291642  0.58581470  0.84924615  1.0
  O  O177  1  0.26521398  0.51851274  0.91165453  1.0
  O  O178  1  0.32353877  0.44709414  0.84448099  1.0
  O  O179  1  0.65261366  0.59328809  0.77055348  1.0
  O  O180  1  0.72634612  0.52910323  0.70962800  1.0
  O  O181  1  0.67260227  0.45554188  0.77765334  1.0
  O  O182  1  0.09497891  0.32126121  0.09425468  1.0
  O  O183  1  0.18571166  0.34821889  0.02929497  1.0
  O  O184  1  0.05069302  0.41369799  0.03484565  1.0
  O  O185  1  0.92152148  0.55424543  0.22964646  1.0
  O  O186  1  0.81512302  0.64732957  0.21908168  1.0
  O  O187  1  0.94027855  0.65220838  0.16905623  1.0
  O  O188  1  0.33690151  0.93443318  0.17647228  1.0
  O  O189  1  0.27120566  0.83285631  0.13573650  1.0
  O  O190  1  0.32478116  0.94314775  0.09060018  1.0
  O  O191  1  0.66346626  0.05757018  0.17446453  1.0
  O  O192  1  0.72881444  0.16126270  0.13456128  1.0
  O  O193  1  0.66487378  0.05867584  0.08815404  1.0
