# generated using pymatgen
data_AlH6C9SO6
_symmetry_space_group_name_H-M   'P 1'
_cell_length_a   6.69428282
_cell_length_b   11.10056449
_cell_length_c   12.63042507
_cell_angle_alpha   96.34548592
_cell_angle_beta   102.15857764
_cell_angle_gamma   106.87810723
_symmetry_Int_Tables_number   1
_chemical_formula_structural   AlH6C9SO6
_chemical_formula_sum   'Al2 H12 C18 S2 O12'
_cell_volume   863.08330574
_cell_formula_units_Z   2
loop_
 _symmetry_equiv_pos_site_id
 _symmetry_equiv_pos_as_xyz
  1  'x, y, z'
loop_
 _atom_site_type_symbol
 _atom_site_label
 _atom_site_symmetry_multiplicity
 _atom_site_fract_x
 _atom_site_fract_y
 _atom_site_fract_z
 _atom_site_occupancy
  Al  Al0  1  0.99999603  0.49999726  0.49999647  1.0
  Al  Al1  1  0.50000028  0.49999811  0.50000100  1.0
  H  H2  1  0.34364638  0.58212657  0.63377374  1.0
  H  H3  1  0.65634491  0.41787607  0.36622443  1.0
  H  H4  1  0.74699404  0.11042195  0.42496021  1.0
  H  H5  1  0.25299778  0.88957774  0.57504643  1.0
  H  H6  1  0.45882837  0.92698068  0.37304565  1.0
  H  H7  1  0.51121504  0.78094244  0.33825816  1.0
  H  H8  1  0.45611982  0.81639212  0.46549312  1.0
  H  H9  1  0.54386295  0.18360308  0.53450613  1.0
  H  H10  1  0.48877936  0.21906216  0.66174072  1.0
  H  H11  1  0.54116394  0.07302387  0.62695269  1.0
  H  H12  1  0.66262900  0.56695081  0.12631377  1.0
  H  H13  1  0.33736678  0.43304120  0.87368261  1.0
  C  C14  1  0.83047167  0.50065833  0.69637997  1.0
  C  C15  1  0.86118680  0.72900951  0.50521940  1.0
  C  C16  1  0.16952260  0.49934066  0.30361975  1.0
  C  C17  1  0.13880683  0.27098292  0.49478107  1.0
  C  C18  1  0.92466288  0.86835179  0.49984779  1.0
  C  C19  1  0.07533698  0.13164289  0.50015653  1.0
  C  C20  1  0.77440429  0.92846538  0.45592268  1.0
  C  C21  1  0.22559395  0.07153186  0.54407875  1.0
  C  C22  1  0.85655265  0.05981467  0.45784468  1.0
  C  C23  1  0.14344443  0.94018431  0.54216454  1.0
  C  C24  1  0.92754621  0.52838760  0.12887110  1.0
  C  C25  1  0.07246472  0.47161989  0.87112903  1.0
  C  C26  1  0.10932871  0.50317421  0.18587805  1.0
  C  C27  1  0.89068372  0.49683389  0.81412828  1.0
  C  C28  1  0.08483672  0.48296088  0.98582743  1.0
  C  C29  1  0.91517748  0.51705476  0.01416904  1.0
  C  C30  1  0.53751911  0.85998473  0.40572054  1.0
  C  C31  1  0.46246968  0.14001149  0.59427964  1.0
  S  S32  1  0.26146755  0.46447168  0.09886843  1.0
  S  S33  1  0.73854560  0.53554311  0.90112898  1.0
  O  O34  1  0.97647352  0.50060798  0.64639946  1.0
  O  O35  1  0.66681683  0.67351243  0.50754466  1.0
  O  O36  1  0.35760415  0.49491598  0.34598815  1.0
  O  O37  1  0.99234479  0.32379870  0.49021455  1.0
  O  O38  1  0.02351974  0.49938910  0.35360010  1.0
  O  O39  1  0.33317358  0.32648123  0.49245842  1.0
  O  O40  1  0.64238642  0.50508613  0.65400460  1.0
  O  O41  1  0.00765132  0.67620181  0.50978148  1.0
  O  O42  1  0.30017657  0.55867858  0.55405432  1.0
  O  O43  1  0.69982146  0.44131742  0.44594419  1.0
  O  O44  1  0.78668952  0.56023153  0.17943038  1.0
  O  O45  1  0.21329622  0.43974033  0.82056324  1.0
