# generated using pymatgen
data_ZnH20C35(NO3)2
_symmetry_space_group_name_H-M   'P 1'
_cell_length_a   16.48911851
_cell_length_b   17.87540113
_cell_length_c   28.05332606
_cell_angle_alpha   89.91985174
_cell_angle_beta   90.14857490
_cell_angle_gamma   89.90954911
_symmetry_Int_Tables_number   1
_chemical_formula_structural   ZnH20C35(NO3)2
_chemical_formula_sum   'Zn2 H40 C70 N4 O12'
_cell_volume   8268.66060780
_cell_formula_units_Z   2
loop_
 _symmetry_equiv_pos_site_id
 _symmetry_equiv_pos_as_xyz
  1  'x, y, z'
loop_
 _atom_site_type_symbol
 _atom_site_label
 _atom_site_symmetry_multiplicity
 _atom_site_fract_x
 _atom_site_fract_y
 _atom_site_fract_z
 _atom_site_occupancy
  Zn  Zn0  1  0.41609118  0.49971968  0.49991760  1.0
  Zn  Zn1  1  0.58398076  0.50014292  0.49932580  1.0
  H  H2  1  0.64602318  0.36962302  0.12216760  1.0
  H  H3  1  0.37584147  0.65166405  0.87720362  1.0
  H  H4  1  0.41124327  0.42058407  0.65088549  1.0
  H  H5  1  0.58541838  0.58319229  0.34912743  1.0
  H  H6  1  0.41281369  0.41750131  0.74037690  1.0
  H  H7  1  0.58352481  0.58762897  0.25965266  1.0
  H  H8  1  0.62151819  0.35170847  0.87724817  1.0
  H  H9  1  0.35738667  0.63500541  0.12266730  1.0
  H  H10  1  0.62531581  0.35131414  0.96547656  1.0
  H  H11  1  0.35731007  0.63892830  0.03447351  1.0
  H  H12  1  0.64573742  0.36728156  0.03391640  1.0
  H  H13  1  0.37262174  0.65172665  0.96540033  1.0
  H  H14  1  0.36901589  0.87851495  0.51561457  1.0
  H  H15  1  0.63088166  0.12206865  0.52019819  1.0
  H  H16  1  0.36952948  0.12179428  0.51611535  1.0
  H  H17  1  0.63014970  0.87730322  0.52298158  1.0
  H  H18  1  0.36989550  0.73907606  0.50608453  1.0
  H  H19  1  0.63019919  0.26151816  0.51028984  1.0
  H  H20  1  0.37026612  0.26125265  0.50632787  1.0
  H  H21  1  0.62966166  0.73793454  0.51311469  1.0
  H  H22  1  0.13483046  0.41250911  0.44667701  1.0
  H  H23  1  0.86473200  0.58834210  0.55266670  1.0
  H  H24  1  0.13561521  0.58741877  0.55334920  1.0
  H  H25  1  0.86503471  0.41142966  0.44734962  1.0
  H  H26  1  0.28739294  0.41666031  0.44872151  1.0
  H  H27  1  0.71217881  0.58405202  0.55017528  1.0
  H  H28  1  0.28817632  0.58321371  0.55078099  1.0
  H  H29  1  0.71249010  0.41555071  0.44942455  1.0
  H  H30  1  0.41387904  0.32662704  0.33629966  1.0
  H  H31  1  0.41846289  0.37757484  0.39073873  1.0
  H  H32  1  0.33745347  0.39246672  0.35020017  1.0
  H  H33  1  0.59324524  0.67148047  0.66325880  1.0
  H  H34  1  0.66575112  0.60292529  0.64741484  1.0
  H  H35  1  0.58359304  0.62208955  0.60849070  1.0
  H  H36  1  0.33527189  0.39156114  0.26230287  1.0
  H  H37  1  0.39825138  0.40186013  0.21159187  1.0
  H  H38  1  0.41977310  0.33177504  0.25457605  1.0
  H  H39  1  0.60915900  0.59448035  0.78704326  1.0
  H  H40  1  0.66929780  0.60529841  0.73519729  1.0
  H  H41  1  0.58682990  0.66657599  0.74559141  1.0
  C  C42  1  0.49998604  0.35263463  0.50195749  1.0
  C  C43  1  0.50017183  0.64721496  0.50327000  1.0
  C  C44  1  0.50006707  0.49630138  0.40636207  1.0
  C  C45  1  0.49981169  0.50380607  0.59314683  1.0
  C  C46  1  0.55395675  0.45070229  0.17963872  1.0
  C  C47  1  0.45394718  0.55860026  0.81986004  1.0
  C  C48  1  0.44654340  0.54984372  0.17991459  1.0
  C  C49  1  0.54586728  0.44698864  0.81982546  1.0
  C  C50  1  0.54691593  0.54726923  0.27920378  1.0
  C  C51  1  0.45107782  0.45626792  0.72062560  1.0
  C  C52  1  0.54774578  0.54483865  0.32862395  1.0
  C  C53  1  0.45038476  0.45795723  0.67118818  1.0
  C  C54  1  0.45122769  0.44131117  0.32777400  1.0
  C  C55  1  0.55081985  0.55826542  0.67141804  1.0
  C  C56  1  0.45029184  0.44366494  0.27740122  1.0
  C  C57  1  0.55220052  0.55617386  0.72178780  1.0
  C  C58  1  0.49837689  0.49696501  0.25427661  1.0
  C  C59  1  0.50181113  0.50508295  0.74526886  1.0
  C  C60  1  0.50108170  0.50197526  0.10176795  1.0
  C  C61  1  0.49925063  0.50199643  0.89786945  1.0
  C  C62  1  0.55356144  0.45298088  0.12693055  1.0
  C  C63  1  0.45397039  0.55659256  0.87258212  1.0
  C  C64  1  0.60531143  0.40592095  0.10196508  1.0
  C  C65  1  0.40957083  0.60977721  0.89747024  1.0
  C  C66  1  0.44873309  0.55048784  0.12716452  1.0
  C  C67  1  0.54430022  0.44746929  0.87257842  1.0
  C  C68  1  0.49939082  0.49297363  0.35291164  1.0
  C  C69  1  0.50065197  0.50786439  0.64657290  1.0
  C  C70  1  0.54806928  0.44821003  0.97373870  1.0
  C  C71  1  0.44927824  0.55369176  0.02592724  1.0
  C  C72  1  0.45165775  0.55597614  0.97379150  1.0
  C  C73  1  0.55200024  0.45101021  0.02580458  1.0
  C  C74  1  0.49964423  0.50207409  0.94887859  1.0
  C  C75  1  0.50079257  0.50225727  0.05075558  1.0
  C  C76  1  0.59014212  0.39437436  0.94726000  1.0
  C  C77  1  0.39829712  0.60032576  0.05256022  1.0
  C  C78  1  0.58828698  0.39375791  0.89748118  1.0
  C  C79  1  0.39764922  0.59867914  0.10234952  1.0
  C  C80  1  0.60430452  0.40499927  0.05219556  1.0
  C  C81  1  0.40826973  0.60912271  0.94725341  1.0
  C  C82  1  0.42588405  0.84734421  0.51530129  1.0
  C  C83  1  0.57399590  0.15286170  0.51707533  1.0
  C  C84  1  0.42641226  0.15271101  0.51477766  1.0
  C  C85  1  0.57334677  0.84668035  0.51943176  1.0
  C  C86  1  0.42631639  0.77014684  0.50999464  1.0
  C  C87  1  0.57369556  0.23004256  0.51146869  1.0
  C  C88  1  0.42677421  0.22986751  0.50923657  1.0
  C  C89  1  0.57311194  0.76952364  0.51399217  1.0
  C  C90  1  0.49979601  0.73051856  0.50906558  1.0
  C  C91  1  0.50024755  0.26925940  0.50737542  1.0
  C  C92  1  0.49957952  0.88693082  0.51976833  1.0
  C  C93  1  0.50022066  0.11290472  0.51852922  1.0
  C  C94  1  0.49971704  0.96580136  0.52258797  1.0
  C  C95  1  0.50011255  0.03410358  0.52212987  1.0
  C  C96  1  0.16653257  0.45115979  0.47016261  1.0
  C  C97  1  0.83327668  0.54923744  0.52938097  1.0
  C  C98  1  0.16694817  0.54881602  0.52970659  1.0
  C  C99  1  0.83345984  0.45046532  0.47059061  1.0
  C  C100  1  0.25062579  0.45312927  0.47113275  1.0
  C  C101  1  0.74919325  0.54720890  0.52815707  1.0
  C  C102  1  0.25104704  0.54687052  0.52843976  1.0
  C  C103  1  0.74934705  0.45239095  0.47158010  1.0
  C  C104  1  0.12279393  0.50001396  0.50000700  1.0
  C  C105  1  0.87731857  0.49988031  0.50003421  1.0
  C  C106  1  0.03702251  0.50001607  0.50011337  1.0
  C  C107  1  0.96309655  0.49996250  0.50010711  1.0
  C  C108  1  0.40313814  0.38147681  0.35284677  1.0
  C  C109  1  0.60056083  0.61665387  0.64606657  1.0
  C  C110  1  0.39844263  0.38968734  0.24986186  1.0
  C  C111  1  0.60699129  0.60808024  0.74897555  1.0
  N  N112  1  0.49999376  0.49972839  0.20277257  1.0
  N  N113  1  0.50021563  0.50315196  0.79679212  1.0
  N  N114  1  0.29191576  0.50001466  0.49969179  1.0
  N  N115  1  0.70818291  0.49980349  0.49980655  1.0
  O  O116  1  0.43090931  0.38472474  0.49983046  1.0
  O  O117  1  0.56927468  0.61520654  0.50126527  1.0
  O  O118  1  0.43158967  0.61455659  0.50117781  1.0
  O  O119  1  0.56860172  0.38525922  0.50015147  1.0
  O  O120  1  0.43161296  0.49736634  0.42725426  1.0
  O  O121  1  0.56821702  0.50246818  0.57219624  1.0
  O  O122  1  0.43065764  0.50030022  0.57293995  1.0
  O  O123  1  0.56919838  0.49956385  0.42660683  1.0
  O  O124  1  0.59786568  0.40819356  0.20271098  1.0
  O  O125  1  0.41652544  0.60600330  0.79670688  1.0
  O  O126  1  0.58518498  0.40117080  0.79668889  1.0
  O  O127  1  0.40054147  0.58977203  0.20321568  1.0
