# generated using pymatgen
data_AlH9C21N3(O2F)3
_symmetry_space_group_name_H-M   'P 1'
_cell_length_a   3.96659383
_cell_length_b   27.91581943
_cell_length_c   27.91854590
_cell_angle_alpha   119.99094839
_cell_angle_beta   89.99648097
_cell_angle_gamma   89.99418751
_symmetry_Int_Tables_number   1
_chemical_formula_structural   AlH9C21N3(O2F)3
_chemical_formula_sum   'Al2 H18 C42 N6 O12 F6'
_cell_volume   2677.51022504
_cell_formula_units_Z   2
loop_
 _symmetry_equiv_pos_site_id
 _symmetry_equiv_pos_as_xyz
  1  'x, y, z'
loop_
 _atom_site_type_symbol
 _atom_site_label
 _atom_site_symmetry_multiplicity
 _atom_site_fract_x
 _atom_site_fract_y
 _atom_site_fract_z
 _atom_site_occupancy
  Al  Al0  1  0.99294631  0.50000126  0.00005143  1.0
  Al  Al1  1  0.99317256  0.83332942  0.66662472  1.0
  H  H2  1  0.30977961  0.69499621  0.51112084  1.0
  H  H3  1  0.33419803  0.64462005  0.40726253  1.0
  H  H4  1  0.66862976  0.79487349  0.41398675  1.0
  H  H5  1  0.66861503  0.53844299  0.25266995  1.0
  H  H6  1  0.33431426  0.68873097  0.25942236  1.0
  H  H7  1  0.30973851  0.63835267  0.15556537  1.0
  H  H8  1  0.30991471  0.81614818  0.80497729  1.0
  H  H9  1  0.33442531  0.76258274  0.85535385  1.0
  H  H10  1  0.66865367  0.61912056  0.70515166  1.0
  H  H11  1  0.66871076  0.71419584  0.96150090  1.0
  H  H12  1  0.33414107  0.57076146  0.81133559  1.0
  H  H13  1  0.30944203  0.51721570  0.86173456  1.0
  H  H14  1  0.30975194  0.98888942  0.68387614  1.0
  H  H15  1  0.33445760  0.09280853  0.73741904  1.0
  H  H16  1  0.66860005  0.08594650  0.88084586  1.0
  H  H17  1  0.66866103  0.24739667  0.78580417  1.0
  H  H18  1  0.33440634  0.24052494  0.92922448  1.0
  H  H19  1  0.30965277  0.34444323  0.98278196  1.0
  C  C20  1  0.49344894  0.41541098  0.95030137  1.0
  C  C21  1  0.49337227  0.53485429  0.08463546  1.0
  C  C22  1  0.49335664  0.54973760  0.96517712  1.0
  C  C23  1  0.49366523  0.79846622  0.58203616  1.0
  C  C24  1  0.49365057  0.78361035  0.70151639  1.0
  C  C25  1  0.49349276  0.91792391  0.71636608  1.0
  C  C26  1  0.49568876  0.77142610  0.52068101  1.0
  C  C27  1  0.39444988  0.71576948  0.48900764  1.0
  C  C28  1  0.40671168  0.68789939  0.43177671  1.0
  C  C29  1  0.50952985  0.71645781  0.40461684  1.0
  C  C30  1  0.59803112  0.77250555  0.43514539  1.0
  C  C31  1  0.59752547  0.79863223  0.49240163  1.0
  C  C32  1  0.59800183  0.56082131  0.23152031  1.0
  C  C33  1  0.50956537  0.61687787  0.26205773  1.0
  C  C34  1  0.40674867  0.64543721  0.23489760  1.0
  C  C35  1  0.39438229  0.61756921  0.17767043  1.0
  C  C36  1  0.49550344  0.56190265  0.14599355  1.0
  C  C37  1  0.59735535  0.53469163  0.17426737  1.0
  C  C38  1  0.49570252  0.74928052  0.72856415  1.0
  C  C39  1  0.39449957  0.77325751  0.78422052  1.0
  C  C40  1  0.40678206  0.74387222  0.81208130  1.0
  C  C41  1  0.50959106  0.68815801  0.78352979  1.0
  C  C42  1  0.59808996  0.66265119  0.72747916  1.0
  C  C43  1  0.59755801  0.69379234  0.70135327  1.0
  C  C44  1  0.59799453  0.67068044  0.93919066  1.0
  C  C45  1  0.50946497  0.64516997  0.88314187  1.0
  C  C46  1  0.40650294  0.58947287  0.85460954  1.0
  C  C47  1  0.39413202  0.56010124  0.88247571  1.0
  C  C48  1  0.49540644  0.58406748  0.93813024  1.0
  C  C49  1  0.59734662  0.63954773  0.96532480  1.0
  C  C50  1  0.49546273  0.97928481  0.75071413  1.0
  C  C51  1  0.39436428  0.01099395  0.72675663  1.0
  C  C52  1  0.40674586  0.06822862  0.75613897  1.0
  C  C53  1  0.50951932  0.09537265  0.81184433  1.0
  C  C54  1  0.59796106  0.06479983  0.83733659  1.0
  C  C55  1  0.59739781  0.00753422  0.80618635  1.0
  C  C56  1  0.59795458  0.26853984  0.82931046  1.0
  C  C57  1  0.50946870  0.23796481  0.85479959  1.0
  C  C58  1  0.40667536  0.26510229  0.91051050  1.0
  C  C59  1  0.39429262  0.32233706  0.93989619  1.0
  C  C60  1  0.49543703  0.35405276  0.91594799  1.0
  C  C61  1  0.59737578  0.32580081  0.86047145  1.0
  N  N62  1  0.52042998  0.69287209  0.34661253  1.0
  N  N63  1  0.52050010  0.64046242  0.32005865  1.0
  N  N64  1  0.52053898  0.65374986  0.80712806  1.0
  N  N65  1  0.52055864  0.67957771  0.85953815  1.0
  N  N66  1  0.52043490  0.15338183  0.84624215  1.0
  N  N67  1  0.52047874  0.17995096  0.82039424  1.0
  O  O68  1  0.72912780  0.55694599  0.99909238  1.0
  O  O69  1  0.72925931  0.44212019  0.94310170  1.0
  O  O70  1  0.72912306  0.50091848  0.05792493  1.0
  O  O71  1  0.25768559  0.51409675  0.95111881  1.0
  O  O72  1  0.25761526  0.54890900  0.06305907  1.0
  O  O73  1  0.25780938  0.43697869  0.98595008  1.0
  O  O74  1  0.72932131  0.89121132  0.72356635  1.0
  O  O75  1  0.72939959  0.83239323  0.60873363  1.0
  O  O76  1  0.72946792  0.77639270  0.66759429  1.0
  O  O77  1  0.25789930  0.89635401  0.68071636  1.0
  O  O78  1  0.25792726  0.81925004  0.71556788  1.0
  O  O79  1  0.25799004  0.78440950  0.60362477  1.0
  F  F80  1  0.68719684  0.85276365  0.52103186  1.0
  F  F81  1  0.68691081  0.48055142  0.14563410  1.0
  F  F82  1  0.68718538  0.66832879  0.64722303  1.0
  F  F83  1  0.68703065  0.66500980  0.01945200  1.0
  F  F84  1  0.68703287  0.97883493  0.83162929  1.0
  F  F85  1  0.68706468  0.35450747  0.83503332  1.0
