# generated using pymatgen
data_AlH7C14S2N2O11
_symmetry_space_group_name_H-M   'P 1'
_cell_length_a   6.63218256
_cell_length_b   22.70797801
_cell_length_c   26.42040394
_cell_angle_alpha   79.33195371
_cell_angle_beta   89.99970111
_cell_angle_gamma   89.99873955
_symmetry_Int_Tables_number   1
_chemical_formula_structural   AlH7C14S2N2O11
_chemical_formula_sum   'Al4 H28 C56 S8 N8 O44'
_cell_volume   3910.23178087
_cell_formula_units_Z   4
loop_
 _symmetry_equiv_pos_site_id
 _symmetry_equiv_pos_as_xyz
  1  'x, y, z'
loop_
 _atom_site_type_symbol
 _atom_site_label
 _atom_site_symmetry_multiplicity
 _atom_site_fract_x
 _atom_site_fract_y
 _atom_site_fract_z
 _atom_site_occupancy
  Al  Al0  1  0.23965541  0.75036397  0.74921153  1.0
  Al  Al1  1  0.79087183  0.25057548  0.24952341  1.0
  Al  Al2  1  0.73965523  0.74963718  0.75078872  1.0
  Al  Al3  1  0.29087206  0.24941869  0.25047884  1.0
  H  H4  1  0.31713256  0.95055326  0.53890354  1.0
  H  H5  1  0.69124964  0.04992526  0.46129754  1.0
  H  H6  1  0.81713160  0.54945073  0.96109975  1.0
  H  H7  1  0.19124763  0.45007147  0.03869974  1.0
  H  H8  1  0.33633715  0.02864662  0.45881460  1.0
  H  H9  1  0.67175858  0.97163105  0.54131536  1.0
  H  H10  1  0.83634363  0.47135437  0.04118530  1.0
  H  H11  1  0.17176569  0.52836525  0.95868071  1.0
  H  H12  1  0.46837455  0.23298622  0.01668803  1.0
  H  H13  1  0.51359238  0.78747579  0.91797102  1.0
  H  H14  1  0.96834752  0.26700420  0.48331839  1.0
  H  H15  1  0.01357450  0.71253296  0.58202084  1.0
  H  H16  1  0.37230003  0.04822378  0.97769720  1.0
  H  H17  1  0.36231746  0.94305176  0.02005311  1.0
  H  H18  1  0.87229931  0.45177192  0.52230148  1.0
  H  H19  1  0.86231558  0.55695185  0.47994868  1.0
  H  H20  1  0.77075370  0.03595175  0.11426472  1.0
  H  H21  1  0.77171632  0.97402453  0.88166051  1.0
  H  H22  1  0.27074101  0.46405514  0.38573634  1.0
  H  H23  1  0.27172706  0.52598307  0.61834162  1.0
  H  H24  1  0.79329205  0.10521020  0.17756815  1.0
  H  H25  1  0.77696668  0.90550919  0.81760051  1.0
  H  H26  1  0.29328434  0.39479968  0.32243058  1.0
  H  H27  1  0.27698756  0.59449846  0.68240123  1.0
  H  H28  1  0.49244151  0.82260359  0.71964174  1.0
  H  H29  1  0.54348522  0.17681426  0.27937471  1.0
  H  H30  1  0.99244930  0.67739754  0.78036148  1.0
  H  H31  1  0.04348340  0.32318001  0.22063035  1.0
  C  C32  1  0.49012637  0.69167627  0.68174212  1.0
  C  C33  1  0.54050798  0.30766532  0.31883775  1.0
  C  C34  1  0.99007972  0.80832556  0.81825994  1.0
  C  C35  1  0.04051538  0.19233026  0.18116538  1.0
  C  C36  1  0.48854118  0.66926289  0.82359127  1.0
  C  C37  1  0.53950878  0.33055062  0.17632859  1.0
  C  C38  1  0.98851210  0.83073186  0.67640889  1.0
  C  C39  1  0.03948659  0.16944037  0.32366917  1.0
  C  C40  1  0.19195362  0.01592167  0.47725254  1.0
  C  C41  1  0.81629439  0.98447928  0.52298658  1.0
  C  C42  1  0.69196249  0.48407213  0.02274399  1.0
  C  C43  1  0.31630515  0.51551118  0.97700983  1.0
  C  C44  1  0.01492808  0.04403905  0.45499336  1.0
  C  C45  1  0.99344658  0.95647920  0.54528066  1.0
  C  C46  1  0.51494923  0.45594861  0.04500212  1.0
  C  C47  1  0.49345262  0.54351324  0.95471566  1.0
  C  C48  1  0.82692814  0.02772788  0.47854328  1.0
  C  C49  1  0.18142240  0.97274742  0.52168783  1.0
  C  C50  1  0.32694435  0.47225907  0.02145245  1.0
  C  C51  1  0.68143035  0.52724692  0.97831094  1.0
  C  C52  1  0.02561111  0.08767479  0.40938593  1.0
  C  C53  1  0.98561027  0.91292593  0.59096933  1.0
  C  C54  1  0.52563472  0.41231507  0.09061762  1.0
  C  C55  1  0.48561536  0.58706524  0.90902700  1.0
  C  C56  1  0.98525397  0.87567513  0.63057280  1.0
  C  C57  1  0.03427388  0.12491995  0.36985329  1.0
  C  C58  1  0.48526299  0.62431508  0.86942392  1.0
  C  C59  1  0.53429506  0.37507261  0.13013716  1.0
  C  C60  1  0.16653609  0.16504764  0.09531807  1.0
  C  C61  1  0.11129637  0.83245174  0.90491488  1.0
  C  C62  1  0.66651894  0.33495509  0.40468074  1.0
  C  C63  1  0.61129938  0.66755258  0.59508464  1.0
  C  C64  1  0.16024894  0.12413485  0.06104496  1.0
  C  C65  1  0.12330861  0.87401014  0.93842836  1.0
  C  C66  1  0.66023556  0.37586391  0.43895618  1.0
  C  C67  1  0.62330789  0.62599306  0.56157193  1.0
  C  C68  1  0.01290396  0.07846707  0.06740844  1.0
  C  C69  1  0.99458103  0.92427771  0.93077407  1.0
  C  C70  1  0.51289173  0.42153201  0.43259354  1.0
  C  C71  1  0.49459193  0.57572605  0.56922913  1.0
  C  C72  1  0.88306684  0.07147426  0.10983735  1.0
  C  C73  1  0.87013181  0.93499637  0.88703412  1.0
  C  C74  1  0.38305376  0.42852700  0.39016406  1.0
  C  C75  1  0.37014571  0.56500773  0.61296914  1.0
  C  C76  1  0.89565065  0.10968896  0.14485250  1.0
  C  C77  1  0.87194145  0.89684372  0.85183016  1.0
  C  C78  1  0.39563965  0.39031430  0.35514736  1.0
  C  C79  1  0.37196082  0.60316017  0.64817195  1.0
  C  C80  1  0.03605860  0.15635363  0.13825304  1.0
  C  C81  1  0.99123138  0.84511289  0.86046546  1.0
  C  C82  1  0.53605216  0.34364835  0.36174698  1.0
  C  C83  1  0.49124394  0.65488917  0.63953545  1.0
  C  C84  1  0.96906415  0.96498615  0.96758624  1.0
  C  C85  1  0.97677257  0.03793439  0.03080427  1.0
  C  C86  1  0.46906981  0.53501914  0.53241466  1.0
  C  C87  1  0.47675844  0.46206744  0.46919787  1.0
  S  S88  1  0.30922258  0.23513693  0.08572237  1.0
  S  S89  1  0.21360776  0.75756479  0.92330657  1.0
  S  S90  1  0.80920155  0.26486490  0.41428062  1.0
  S  S91  1  0.71358731  0.74244070  0.57669060  1.0
  S  S92  1  0.35119706  0.12549153  0.01213072  1.0
  S  S93  1  0.33155511  0.86752325  0.98401037  1.0
  S  S94  1  0.85119038  0.37450536  0.48786726  1.0
  S  S95  1  0.83155174  0.63247833  0.51599138  1.0
  N  N96  1  0.95110990  0.97922365  0.05050437  1.0
  N  N97  1  0.93412083  0.02344322  0.94854793  1.0
  N  N98  1  0.45110722  0.52077905  0.44949700  1.0
  N  N99  1  0.43410599  0.47656238  0.55145414  1.0
  N  N100  1  0.94357416  0.94143456  0.01810646  1.0
  N  N101  1  0.93410400  0.06121674  0.98099709  1.0
  N  N102  1  0.44358456  0.55856943  0.48189530  1.0
  N  N103  1  0.43408512  0.43878834  0.51900537  1.0
  O  O104  1  0.66116857  0.68775034  0.80634175  1.0
  O  O105  1  0.37007034  0.31261841  0.19605820  1.0
  O  O106  1  0.16116659  0.81224909  0.69366278  1.0
  O  O107  1  0.87004525  0.18737459  0.30394094  1.0
  O  O108  1  0.31720530  0.70394219  0.69726946  1.0
  O  O109  1  0.71229209  0.29786187  0.30105782  1.0
  O  O110  1  0.81719004  0.79606096  0.80273152  1.0
  O  O111  1  0.21229540  0.20213083  0.19894756  1.0
  O  O112  1  0.31960385  0.68689275  0.80333505  1.0
  O  O113  1  0.71193668  0.31311523  0.19436596  1.0
  O  O114  1  0.81959986  0.81310523  0.69666325  1.0
  O  O115  1  0.21192103  0.18687969  0.30563517  1.0
  O  O116  1  0.16059766  0.79862440  0.79982948  1.0
  O  O117  1  0.86938067  0.20436239  0.19779557  1.0
  O  O118  1  0.66061570  0.70137340  0.70017236  1.0
  O  O119  1  0.36938845  0.29562752  0.30220782  1.0
  O  O120  1  0.48999245  0.78676712  0.74625120  1.0
  O  O121  1  0.54145759  0.21325221  0.25344962  1.0
  O  O122  1  0.98999500  0.71323223  0.75375010  1.0
  O  O123  1  0.04146107  0.28674000  0.24655275  1.0
  O  O124  1  0.16645485  0.27861971  0.09634975  1.0
  O  O125  1  0.50263564  0.22614319  0.11014341  1.0
  O  O126  1  0.34045811  0.25152367  0.02456297  1.0
  O  O127  1  0.22646618  0.74612473  0.97856845  1.0
  O  O128  1  0.09845282  0.71894675  0.89733077  1.0
  O  O129  1  0.43329719  0.76190250  0.89884527  1.0
  O  O130  1  0.66643734  0.22138109  0.40365407  1.0
  O  O131  1  0.00262834  0.27385012  0.38986744  1.0
  O  O132  1  0.84041153  0.24848153  0.47544191  1.0
  O  O133  1  0.72643083  0.75388597  0.52142869  1.0
  O  O134  1  0.59842440  0.78105536  0.60266915  1.0
  O  O135  1  0.93327661  0.73810455  0.60114833  1.0
  O  O136  1  0.28185844  0.15142104  0.96144473  1.0
  O  O137  1  0.53708214  0.14504839  0.03197852  1.0
  O  O138  1  0.37881512  0.05370285  0.01369059  1.0
  O  O139  1  0.28286321  0.84091133  0.03589523  1.0
  O  O140  1  0.50321148  0.84897139  0.95714129  1.0
  O  O141  1  0.37437691  0.93853970  0.98391291  1.0
  O  O142  1  0.78187887  0.34857722  0.53855706  1.0
  O  O143  1  0.03707470  0.35495444  0.46801535  1.0
  O  O144  1  0.87878642  0.44629748  0.48630698  1.0
  O  O145  1  0.78284327  0.65909462  0.46410620  1.0
  O  O146  1  0.00319903  0.65103196  0.54285983  1.0
  O  O147  1  0.87439404  0.56146538  0.51608765  1.0
