# generated using pymatgen
data_Al6H50C99O31
_symmetry_space_group_name_H-M   'P 1'
_cell_length_a   12.70295082
_cell_length_b   12.93105121
_cell_length_c   27.68124611
_cell_angle_alpha   88.46647152
_cell_angle_beta   89.24544365
_cell_angle_gamma   61.40979929
_symmetry_Int_Tables_number   1
_chemical_formula_structural   Al6H50C99O31
_chemical_formula_sum   'Al6 H50 C99 O31'
_cell_volume   3991.12247378
_cell_formula_units_Z   1
loop_
 _symmetry_equiv_pos_site_id
 _symmetry_equiv_pos_as_xyz
  1  'x, y, z'
loop_
 _atom_site_type_symbol
 _atom_site_label
 _atom_site_symmetry_multiplicity
 _atom_site_fract_x
 _atom_site_fract_y
 _atom_site_fract_z
 _atom_site_occupancy
  Al  Al0  1  0.39950834  0.41549437  0.50477147  1.0
  Al  Al1  1  0.42617579  0.64959147  0.50134350  1.0
  Al  Al2  1  0.65075895  0.41683711  0.50294525  1.0
  Al  Al3  1  0.92302700  0.91991784  0.01815406  1.0
  Al  Al4  1  0.67271045  0.91444730  0.01744686  1.0
  Al  Al5  1  0.89983876  0.68441071  0.01843097  1.0
  H  H6  1  0.47273506  0.83804530  0.78607041  1.0
  H  H7  1  0.53113018  0.87597111  0.14420702  1.0
  H  H8  1  0.61568291  0.86166357  0.71161890  1.0
  H  H9  1  0.48939739  0.78656375  0.38362648  1.0
  H  H10  1  0.42857738  0.94733657  0.22222889  1.0
  H  H11  1  0.41616751  0.91791231  0.31049190  1.0
  H  H12  1  0.84333262  0.53489809  0.13556471  1.0
  H  H13  1  0.91803942  0.40513510  0.20974373  1.0
  H  H14  1  0.91128162  0.37694481  0.29634892  1.0
  H  H15  1  0.86428194  0.07394094  0.14320864  1.0
  H  H16  1  0.79426211  0.23697598  0.37644150  1.0
  H  H17  1  0.50007936  0.28878023  0.79067488  1.0
  H  H18  1  0.94414758  0.11462015  0.21672583  1.0
  H  H19  1  0.50935901  0.62361079  0.74533565  1.0
  H  H20  1  0.92130248  0.17029718  0.30274244  1.0
  H  H21  1  0.35487894  0.24482046  0.30221140  1.0
  H  H22  1  0.43997143  0.27437569  0.37726598  1.0
  H  H23  1  0.05856880  0.53879177  0.15078564  1.0
  H  H24  1  0.21141570  0.49023903  0.38734298  1.0
  H  H25  1  0.09169433  0.43582499  0.23007752  1.0
  H  H26  1  0.14391617  0.41904967  0.31701486  1.0
  H  H27  1  0.11602882  0.83805385  0.13270238  1.0
  H  H28  1  0.50572689  0.12431386  0.72364756  1.0
  H  H29  1  0.71638682  0.49884979  0.80478293  1.0
  H  H30  1  0.23725964  0.89327285  0.29013792  1.0
  H  H31  1  0.26753120  0.79109014  0.37017970  1.0
  H  H32  1  0.85845473  0.52189383  0.72988798  1.0
  H  H33  1  0.82250065  0.73499399  0.77031185  1.0
  H  H34  1  0.85879636  0.13769309  0.78627131  1.0
  H  H35  1  0.86376138  0.97190274  0.71965484  1.0
  H  H36  1  0.42474446  0.46633265  0.76249775  1.0
  H  H37  1  0.89785371  0.39446590  0.36084664  1.0
  H  H38  1  0.52584850  0.07696776  0.10488282  1.0
  H  H39  1  0.69405335  0.94178688  0.77819622  1.0
  H  H40  1  0.30619075  0.26548203  0.18135026  1.0
  H  H41  1  0.34992791  0.11799478  0.19623679  1.0
  H  H42  1  0.26350579  0.22959682  0.23836826  1.0
  H  H43  1  0.21112287  0.99377454  0.21596252  1.0
  H  H44  1  0.26190386  0.89557157  0.16676706  1.0
  H  H45  1  0.10710790  0.98899464  0.17472560  1.0
  H  H46  1  0.66286851  0.40278494  0.75953775  1.0
  H  H47  1  0.75194274  0.33581005  0.70782587  1.0
  H  H48  1  0.59323641  0.40336578  0.70404320  1.0
  H  H49  1  0.19987668  0.47718427  0.78746931  1.0
  H  H50  1  0.02522080  0.61536920  0.71712295  1.0
  H  H51  1  0.28137332  0.73923311  0.80238795  1.0
  H  H52  1  0.10584178  0.87666257  0.73196755  1.0
  H  H53  1  0.94354285  0.81361783  0.77822999  1.0
  H  H54  1  0.29734027  0.31888862  0.53687772  1.0
  H  H55  1  0.00640273  0.03802955  0.99071088  1.0
  C  C56  1  0.28330375  0.62050437  0.57173930  1.0
  C  C57  1  0.64679167  0.64314141  0.66018182  1.0
  C  C58  1  0.78326528  0.04240781  0.73579530  1.0
  C  C59  1  0.60843568  0.59798847  0.57121163  1.0
  C  C60  1  0.78054333  0.13447386  0.77197064  1.0
  C  C61  1  0.69175392  0.08912199  0.89909368  1.0
  C  C62  1  0.65466571  0.20539356  0.61361348  1.0
  C  C63  1  0.68876803  0.02588286  0.76717108  1.0
  C  C64  1  0.68609875  0.11815569  0.80448460  1.0
  C  C65  1  0.58401907  0.12717057  0.73800389  1.0
  C  C66  1  0.67821907  0.14364585  0.70553399  1.0
  C  C67  1  0.63453072  0.62532980  0.61809603  1.0
  C  C68  1  0.58107518  0.21946709  0.77398147  1.0
  C  C69  1  0.67595339  0.23678709  0.74289979  1.0
  C  C70  1  0.68848419  0.10351938  0.85531085  1.0
  C  C71  1  0.61888482  0.27097298  0.56863281  1.0
  C  C72  1  0.66988580  0.16904409  0.65538701  1.0
  C  C73  1  0.08159471  0.64284610  0.73661960  1.0
  C  C74  1  0.17888004  0.56595154  0.77494643  1.0
  C  C75  1  0.08886356  0.68912110  0.90189560  1.0
  C  C76  1  0.22835109  0.65659401  0.61843287  1.0
  C  C77  1  0.03674724  0.75291340  0.76921252  1.0
  C  C78  1  0.75250439  0.71054783  0.76439715  1.0
  C  C79  1  0.13440240  0.67580870  0.80865324  1.0
  C  C80  1  0.12677232  0.78812307  0.74464216  1.0
  C  C81  1  0.17178860  0.67858536  0.71061244  1.0
  C  C82  1  0.22439158  0.71221394  0.78302165  1.0
  C  C83  1  0.28639181  0.62036264  0.43376095  1.0
  C  C84  1  0.26892486  0.60145567  0.75040019  1.0
  C  C85  1  0.11167708  0.67973883  0.85883435  1.0
  C  C86  1  0.19819488  0.67168074  0.66072542  1.0
  C  C87  1  0.56400590  0.72250133  0.36247185  1.0
  C  C88  1  0.57145185  0.74345218  0.31313720  1.0
  C  C89  1  0.67264994  0.69774701  0.80645088  1.0
  C  C90  1  0.58544619  0.77749008  0.21174829  1.0
  C  C91  1  0.49316347  0.86618551  0.24037955  1.0
  C  C92  1  0.48642479  0.84972183  0.28893248  1.0
  C  C93  1  0.59476276  0.79360328  0.16192960  1.0
  C  C94  1  0.68777798  0.70671940  0.13494849  1.0
  C  C95  1  0.62237226  0.59876478  0.43711853  1.0
  C  C96  1  0.74749901  0.53504155  0.36002295  1.0
  C  C97  1  0.75398990  0.54920789  0.30915145  1.0
  C  C98  1  0.66598292  0.65422514  0.28574320  1.0
  C  C99  1  0.84474282  0.46053912  0.28007817  1.0
  C  C100  1  0.77280744  0.59211510  0.74268232  1.0
  C  C101  1  0.84942150  0.47505907  0.23118151  1.0
  C  C102  1  0.76483312  0.58120421  0.20694567  1.0
  C  C103  1  0.67206445  0.67065722  0.23493819  1.0
  C  C104  1  0.77133927  0.60077836  0.15717647  1.0
  C  C105  1  0.64869977  0.61964075  0.38647425  1.0
  C  C106  1  0.72306506  0.23114379  0.35717861  1.0
  C  C107  1  0.59563694  0.30072556  0.43188651  1.0
  C  C108  1  0.73870398  0.19801499  0.30872828  1.0
  C  C109  1  0.76619898  0.13224250  0.21028420  1.0
  C  C110  1  0.86069542  0.13760402  0.23602406  1.0
  C  C111  1  0.65830583  0.66199827  0.70953649  1.0
  C  C112  1  0.84800875  0.16866774  0.28322416  1.0
  C  C113  1  0.78075540  0.09723700  0.16246393  1.0
  C  C114  1  0.69011245  0.08815326  0.13778771  1.0
  C  C115  1  0.52254677  0.25244231  0.35754054  1.0
  C  C116  1  0.53416197  0.22125206  0.30884626  1.0
  C  C117  1  0.64291678  0.19349254  0.28376822  1.0
  C  C118  1  0.43897173  0.21931242  0.28293834  1.0
  C  C119  1  0.63781587  0.78111306  0.73266778  1.0
  C  C120  1  0.44670933  0.19070270  0.23514900  1.0
  C  C121  1  0.55864935  0.15688799  0.20963579  1.0
  C  C122  1  0.69333465  0.57886561  0.78323375  1.0
  C  C123  1  0.65510946  0.16105726  0.23440329  1.0
  C  C124  1  0.57909611  0.11806107  0.16105470  1.0
  C  C125  1  0.61580057  0.25821787  0.38140007  1.0
  C  C126  1  0.20954491  0.56011143  0.36382505  1.0
  C  C127  1  0.17796761  0.56859849  0.31503600  1.0
  C  C128  1  0.11805362  0.58721328  0.21515643  1.0
  C  C129  1  0.11691133  0.49697458  0.24601003  1.0
  C  C130  1  0.14539698  0.48796709  0.29381099  1.0
  C  C131  1  0.55827231  0.76768351  0.77325608  1.0
  C  C132  1  0.08580532  0.59889948  0.16630105  1.0
  C  C133  1  0.57847259  0.64912275  0.75162297  1.0
  C  C134  1  0.08472489  0.68993049  0.13757159  1.0
  C  C135  1  0.24137192  0.73064460  0.35422512  1.0
  C  C136  1  0.21082388  0.74192843  0.30515614  1.0
  C  C137  1  0.17956469  0.65967623  0.28505219  1.0
  C  C138  1  0.21218185  0.83183695  0.27420697  1.0
  C  C139  1  0.18533824  0.84200057  0.22599735  1.0
  C  C140  1  0.15209046  0.76018577  0.20525432  1.0
  C  C141  1  0.15028804  0.66905041  0.23523309  1.0
  C  C142  1  0.11884329  0.76869211  0.15669036  1.0
  C  C143  1  0.69445387  0.71869994  0.89970077  1.0
  C  C144  1  0.68344723  0.71115351  0.85639546  1.0
  C  C145  1  0.24175524  0.64002686  0.38313768  1.0
  C  C146  1  0.71298567  0.04866565  0.94867580  1.0
  C  C147  1  0.71931168  0.73569601  0.94841191  1.0
  C  C148  1  0.04048529  0.71997455  0.94975438  1.0
  C  C149  1  0.71822750  0.04007377  0.08877733  1.0
  C  C150  1  0.70643361  0.73268757  0.08402036  1.0
  C  C151  1  0.03685310  0.71246960  0.08755489  1.0
  C  C152  1  0.33586961  0.20090788  0.21155320  1.0
  C  C153  1  0.19144502  0.93515294  0.19439797  1.0
  C  C154  1  0.67046108  0.35077574  0.72767441  1.0
  O  O155  1  0.51258098  0.30581256  0.55497052  1.0
  O  O156  1  0.81979877  0.65858083  0.96629196  1.0
  O  O157  1  0.02528379  0.64224774  0.97466806  1.0
  O  O158  1  0.31072429  0.51703472  0.55987816  1.0
  O  O159  1  0.02612224  0.80363391  0.06527167  1.0
  O  O160  1  0.82061503  0.00981548  0.07157275  1.0
  O  O161  1  0.63504783  0.02795784  0.06557501  1.0
  O  O162  1  0.63284773  0.83415377  0.06576798  1.0
  O  O163  1  0.79886641  0.65642057  0.06168775  1.0
  O  O164  1  0.00387614  0.64008754  0.07057545  1.0
  O  O165  1  0.83002506  0.83962379  0.01749373  1.0
  O  O166  1  0.52321298  0.67630355  0.45533667  1.0
  O  O167  1  0.30372942  0.69508284  0.54696300  1.0
  O  O168  1  0.51228429  0.67611838  0.55072053  1.0
  O  O169  1  0.67986356  0.49661364  0.55477885  1.0
  O  O170  1  0.69724032  0.29320135  0.54729576  1.0
  O  O171  1  0.49680464  0.32323769  0.45155583  1.0
  O  O172  1  0.29596668  0.53038389  0.45650727  1.0
  O  O173  1  0.31761183  0.69414122  0.45057520  1.0
  O  O174  1  0.38606861  0.52611996  0.73707100  1.0
  O  O175  1  0.83448079  0.44018171  0.38373800  1.0
  O  O176  1  0.49210037  0.10799062  0.13747279  1.0
  O  O177  1  0.69392100  0.50268837  0.45919592  1.0
  O  O178  1  0.67873969  0.31557917  0.45168632  1.0
  O  O179  1  0.49307422  0.49490395  0.50363926  1.0
  O  O180  1  0.01235931  0.82287693  0.96268029  1.0
  O  O181  1  0.81061693  0.02999503  0.96752705  1.0
  O  O182  1  0.63172480  0.02937129  0.96925302  1.0
  O  O183  1  0.64257736  0.82864958  0.96949105  1.0
  O  O184  1  0.31242186  0.34332943  0.50542327  1.0
  O  O185  1  0.00723383  0.99474464  0.01983781  1.0
