# generated using pymatgen
data_Zn2H46C65N7(ClO4)3
_symmetry_space_group_name_H-M   'P 1'
_cell_length_a   14.64693453
_cell_length_b   16.02527329
_cell_length_c   28.06316774
_cell_angle_alpha   90.04112516
_cell_angle_beta   89.54749334
_cell_angle_gamma   89.99488919
_symmetry_Int_Tables_number   1
_chemical_formula_structural   Zn2H46C65N7(ClO4)3
_chemical_formula_sum   'Zn2 H46 C65 N7 Cl3 O12'
_cell_volume   6586.81125177
_cell_formula_units_Z   1
loop_
 _symmetry_equiv_pos_site_id
 _symmetry_equiv_pos_as_xyz
  1  'x, y, z'
loop_
 _atom_site_type_symbol
 _atom_site_label
 _atom_site_symmetry_multiplicity
 _atom_site_fract_x
 _atom_site_fract_y
 _atom_site_fract_z
 _atom_site_occupancy
  Zn  Zn0  1  0.59412258  0.49875583  0.49850460  1.0
  Zn  Zn1  1  0.40525393  0.50019047  0.49749046  1.0
  H  H2  1  0.64924808  0.51784698  0.34826181  1.0
  H  H3  1  0.54443680  0.92587681  0.56933675  1.0
  H  H4  1  0.38616753  0.92789305  0.54321127  1.0
  H  H5  1  0.35473042  0.92189446  0.48326345  1.0
  H  H6  1  0.63556342  0.92907654  0.52744181  1.0
  H  H7  1  0.65431735  0.52207793  0.25872038  1.0
  H  H8  1  0.35802450  0.06876702  0.47634676  1.0
  H  H9  1  0.63207083  0.07483370  0.53000668  1.0
  H  H10  1  0.60435937  0.07387653  0.44209015  1.0
  H  H11  1  0.49258563  0.07261382  0.41938278  1.0
  H  H12  1  0.91491812  0.63110639  0.52410582  1.0
  H  H13  1  0.36177723  0.50196732  0.25545120  1.0
  H  H14  1  0.07274502  0.62338865  0.53485633  1.0
  H  H15  1  0.07001781  0.38922058  0.54504721  1.0
  H  H16  1  0.91705630  0.39981279  0.55478086  1.0
  H  H17  1  0.07523356  0.48602977  0.42657739  1.0
  H  H18  1  0.91663217  0.46718774  0.42820257  1.0
  H  H19  1  0.08478475  0.39066038  0.45765370  1.0
  H  H20  1  0.92587609  0.38105727  0.46702279  1.0
  H  H21  1  0.08422075  0.62519722  0.47205224  1.0
  H  H22  1  0.92552776  0.61402665  0.46203079  1.0
  H  H23  1  0.62841493  0.55181257  0.64507338  1.0
  H  H24  1  0.57885371  0.31562787  0.12230250  1.0
  H  H25  1  0.63678062  0.56093562  0.73407409  1.0
  H  H26  1  0.47062615  0.71405343  0.87370573  1.0
  H  H27  1  0.46987139  0.71947445  0.96163346  1.0
  H  H28  1  0.46491198  0.71907877  0.03038621  1.0
  H  H29  1  0.35774044  0.49643080  0.34493518  1.0
  H  H30  1  0.62364962  0.85602144  0.43093837  1.0
  H  H31  1  0.75038215  0.91652275  0.40046313  1.0
  H  H32  1  0.72451630  0.01461762  0.42564172  1.0
  H  H33  1  0.66879525  0.98224289  0.37259865  1.0
  H  H34  1  0.40739008  0.93219420  0.41843374  1.0
  H  H35  1  0.55669859  0.30338531  0.96587465  1.0
  H  H36  1  0.43541564  0.91132834  0.33868928  1.0
  H  H37  1  0.55397331  0.90157566  0.34847993  1.0
  H  H38  1  0.50145933  0.00199118  0.35193877  1.0
  H  H39  1  0.45560641  0.78759404  0.09214401  1.0
  H  H40  1  0.49302062  0.84825994  0.16105939  1.0
  H  H41  1  0.58891860  0.77979122  0.15554122  1.0
  H  H42  1  0.49314700  0.75099799  0.19214311  1.0
  H  H43  1  0.55200728  0.30210917  0.87780802  1.0
  H  H44  1  0.37409385  0.44109506  0.74398393  1.0
  H  H45  1  0.57356428  0.30832946  0.03415208  1.0
  H  H46  1  0.53939892  0.07207751  0.57056616  1.0
  H  H47  1  0.37525149  0.07326706  0.53846632  1.0
  C  C48  1  0.50271952  0.66135244  0.49930282  1.0
  C  C49  1  0.49659842  0.58791647  0.97154673  1.0
  C  C50  1  0.53130287  0.43564674  0.97303969  1.0
  C  C51  1  0.50084894  0.50365850  0.40508958  1.0
  C  C52  1  0.51333612  0.51085121  0.94740333  1.0
  C  C53  1  0.48179228  0.65964818  0.94426709  1.0
  C  C54  1  0.48199546  0.65763368  0.89452120  1.0
  C  C55  1  0.49657660  0.58311720  0.87035931  1.0
  C  C56  1  0.51213158  0.50891204  0.89639338  1.0
  C  C57  1  0.52645206  0.43270833  0.87186121  1.0
  C  C58  1  0.52483664  0.42878080  0.81924228  1.0
  C  C59  1  0.58954974  0.51727712  0.27791030  1.0
  C  C60  1  0.49515107  0.58289381  0.81762114  1.0
  C  C61  1  0.57762051  0.53346828  0.71676690  1.0
  C  C62  1  0.57259755  0.52884607  0.66738106  1.0
  C  C63  1  0.49992093  0.33744312  0.49613208  1.0
  C  C64  1  0.42461937  0.46377930  0.67279961  1.0
  C  C65  1  0.42937683  0.46698124  0.72245424  1.0
  C  C66  1  0.50539560  0.50220810  0.74400581  1.0
  C  C67  1  0.49596793  0.58907224  0.02381754  1.0
  C  C68  1  0.51707598  0.51427231  0.04946664  1.0
  C  C69  1  0.53570998  0.43814159  0.02510862  1.0
  C  C70  1  0.50829308  0.51251928  0.25244060  1.0
  C  C71  1  0.47865625  0.66110837  0.04938986  1.0
  C  C72  1  0.56097133  0.37025018  0.10122726  1.0
  C  C73  1  0.54433875  0.36177604  0.94723062  1.0
  C  C74  1  0.54181027  0.36007455  0.89748503  1.0
  C  C75  1  0.49651974  0.49540106  0.59072218  1.0
  C  C76  1  0.55794224  0.36712594  0.05180850  1.0
  C  C77  1  0.56648967  0.95206913  0.53496633  1.0
  C  C78  1  0.40458403  0.95029902  0.50739902  1.0
  C  C79  1  0.40230067  0.04653142  0.50516620  1.0
  C  C80  1  0.56369574  0.04842015  0.53596278  1.0
  C  C81  1  0.51815715  0.51746827  0.10044619  1.0
  C  C82  1  0.49934390  0.24726818  0.49573038  1.0
  C  C83  1  0.50208027  0.91773453  0.49607597  1.0
  C  C84  1  0.49976836  0.08084519  0.49637110  1.0
  C  C85  1  0.53591181  0.04795910  0.44792056  1.0
  C  C86  1  0.53616566  0.95074192  0.44572776  1.0
  C  C87  1  0.49927578  0.17143728  0.49594691  1.0
  C  C88  1  0.50310426  0.82716981  0.49660195  1.0
  C  C89  1  0.48010179  0.58650871  0.17771494  1.0
  C  C90  1  0.50365756  0.75142956  0.49865613  1.0
  C  C91  1  0.05195080  0.59198333  0.50192189  1.0
  C  C92  1  0.49638827  0.59215208  0.12611048  1.0
  C  C93  1  0.94701308  0.59113159  0.49705839  1.0
  C  C94  1  0.05243401  0.45556827  0.54829080  1.0
  C  C95  1  0.94561604  0.46268839  0.55067170  1.0
  C  C96  1  0.08790289  0.50121577  0.50288733  1.0
  C  C97  1  0.91161319  0.50068013  0.50300998  1.0
  C  C98  1  0.94794611  0.44584669  0.46143937  1.0
  C  C99  1  0.05295558  0.45267984  0.45878138  1.0
  C  C100  1  0.81257863  0.49981690  0.50222180  1.0
  C  C101  1  0.18698009  0.50102916  0.50172927  1.0
  C  C102  1  0.54443477  0.44188169  0.17807943  1.0
  C  C103  1  0.48120440  0.66666667  0.09999494  1.0
  C  C104  1  0.42447724  0.50505202  0.27599057  1.0
  C  C105  1  0.42219207  0.50224696  0.32557706  1.0
  C  C106  1  0.58687212  0.51454513  0.32746518  1.0
  C  C107  1  0.69424335  0.96043184  0.40745768  1.0
  C  C108  1  0.49215201  0.93475467  0.36027414  1.0
  C  C109  1  0.51389394  0.78260915  0.15921228  1.0
  C  C110  1  0.54071056  0.44370471  0.12565042  1.0
  C  C111  1  0.50323924  0.50692296  0.35163743  1.0
  C  C112  1  0.49633682  0.49498862  0.64436023  1.0
  N  N113  1  0.51254961  0.51416999  0.20107287  1.0
  N  N114  1  0.50889277  0.50488634  0.79534615  1.0
  N  N115  1  0.73378443  0.49854369  0.49964995  1.0
  N  N116  1  0.26576416  0.50104180  0.49836465  1.0
  N  N117  1  0.62792576  0.91826928  0.43790402  1.0
  N  N118  1  0.47288952  0.91596346  0.41011148  1.0
  N  N119  1  0.46932047  0.74547848  0.11809214  1.0
  Cl  Cl120  1  0.32918542  0.41661828  0.64871816  1.0
  Cl  Cl121  1  0.10990522  0.49063704  0.59993560  1.0
  Cl  Cl122  1  0.90145082  0.52087617  0.59969755  1.0
  O  O123  1  0.57873614  0.62508430  0.50708359  1.0
  O  O124  1  0.48226897  0.64630019  0.79392384  1.0
  O  O125  1  0.57100930  0.38095900  0.20089764  1.0
  O  O126  1  0.53662246  0.36366079  0.79680665  1.0
  O  O127  1  0.42597051  0.62638937  0.49180008  1.0
  O  O128  1  0.57651822  0.51416387  0.42640524  1.0
  O  O129  1  0.42359802  0.49068162  0.42492002  1.0
  O  O130  1  0.57709444  0.37253995  0.48956499  1.0
  O  O131  1  0.42328620  0.37330344  0.50312784  1.0
  O  O132  1  0.57360129  0.48281899  0.57067309  1.0
  O  O133  1  0.42148336  0.51027912  0.57009910  1.0
  O  O134  1  0.43838366  0.63976024  0.20120773  1.0
