# generated using pymatgen
data_ZnH11C27NO22
_symmetry_space_group_name_H-M   'P 1'
_cell_length_a   14.59717548
_cell_length_b   15.95807924
_cell_length_c   16.89939484
_cell_angle_alpha   89.89755232
_cell_angle_beta   83.53487064
_cell_angle_gamma   89.45033834
_symmetry_Int_Tables_number   1
_chemical_formula_structural   ZnH11C27NO22
_chemical_formula_sum   'Zn2 H22 C54 N2 O44'
_cell_volume   3911.37826611
_cell_formula_units_Z   2
loop_
 _symmetry_equiv_pos_site_id
 _symmetry_equiv_pos_as_xyz
  1  'x, y, z'
loop_
 _atom_site_type_symbol
 _atom_site_label
 _atom_site_symmetry_multiplicity
 _atom_site_fract_x
 _atom_site_fract_y
 _atom_site_fract_z
 _atom_site_occupancy
  Zn  Zn0  1  0.60007644  0.50356032  0.50792118  1.0
  Zn  Zn1  1  0.40524351  0.49925651  0.49340154  1.0
  H  H2  1  0.49204293  0.25265260  0.34719009  1.0
  H  H3  1  0.67932292  0.35800874  0.94536238  1.0
  H  H4  1  0.70369057  0.64427809  0.98953729  1.0
  H  H5  1  0.28477149  0.39353442  0.01672752  1.0
  H  H6  1  0.56371536  0.71033007  0.85164465  1.0
  H  H7  1  0.42908998  0.32025935  0.14302468  1.0
  H  H8  1  0.28268311  0.86165855  0.66448726  1.0
  H  H9  1  0.62941333  0.13678989  0.28541175  1.0
  H  H10  1  0.50899081  0.01562639  0.68778082  1.0
  H  H11  1  0.44068444  0.00681048  0.32431443  1.0
  H  H12  1  0.28217219  0.02898526  0.48709286  1.0
  H  H13  1  0.53752469  0.74551079  0.63159933  1.0
  H  H14  1  0.71306668  0.97013291  0.46235416  1.0
  H  H15  1  0.18177894  0.42106078  0.69569240  1.0
  H  H16  1  0.82668628  0.58187153  0.30805768  1.0
  H  H17  1  0.99021533  0.60608512  0.65780227  1.0
  H  H18  1  0.01565049  0.39339684  0.34695355  1.0
  H  H19  1  0.83039229  0.27318694  0.56487981  1.0
  H  H20  1  0.17772502  0.72472961  0.44105285  1.0
  H  H21  1  0.35287520  0.34147021  0.66599382  1.0
  H  H22  1  0.66376323  0.67368800  0.33710597  1.0
  H  H23  1  0.35510568  0.62656462  0.14961391  1.0
  C  C24  1  0.49570645  0.66080880  0.47414137  1.0
  C  C25  1  0.41126581  0.03312977  0.50143392  1.0
  C  C26  1  0.49629474  0.91491642  0.49279220  1.0
  C  C27  1  0.49864952  0.08711460  0.51165922  1.0
  C  C28  1  0.49397339  0.82733022  0.48303130  1.0
  C  C29  1  0.50112566  0.17491778  0.51800005  1.0
  C  C30  1  0.98297108  0.56479404  0.55470280  1.0
  C  C31  1  0.02270992  0.43493054  0.45005148  1.0
  C  C32  1  0.03946225  0.48458075  0.57163250  1.0
  C  C33  1  0.96629721  0.51516115  0.43306972  1.0
  C  C34  1  0.03835383  0.57226786  0.46756954  1.0
  C  C35  1  0.50368316  0.34156532  0.52383945  1.0
  C  C36  1  0.96738226  0.42746965  0.53719947  1.0
  C  C37  1  0.09710881  0.49230326  0.48753584  1.0
  C  C38  1  0.90852333  0.50739842  0.51716820  1.0
  C  C39  1  0.55354430  0.47171134  0.35116756  1.0
  C  C40  1  0.45691542  0.53596742  0.64929162  1.0
  C  C41  1  0.19403862  0.48707031  0.47641819  1.0
  C  C42  1  0.81151876  0.51277560  0.52716289  1.0
  C  C43  1  0.56332680  0.46667219  0.26138621  1.0
  C  C44  1  0.44250707  0.54937044  0.73836507  1.0
  C  C45  1  0.51629228  0.40490246  0.22215852  1.0
  C  C46  1  0.52906562  0.01845654  0.57487218  1.0
  C  C47  1  0.48504990  0.61607135  0.77480182  1.0
  C  C48  1  0.50450711  0.41571572  0.14076823  1.0
  C  C49  1  0.48868087  0.61460428  0.85826511  1.0
  C  C50  1  0.54720682  0.48342169  0.09719639  1.0
  C  C51  1  0.44439845  0.54997355  0.90498014  1.0
  C  C52  1  0.60287942  0.53770581  0.13470608  1.0
  C  C53  1  0.39333352  0.49058781  0.86912521  1.0
  C  C54  1  0.60901639  0.53069939  0.21725398  1.0
  C  C55  1  0.39386152  0.48920606  0.78558871  1.0
  C  C56  1  0.52872866  0.49411831  0.01307953  1.0
  C  C57  1  0.46725957  0.98228163  0.43139559  1.0
  C  C58  1  0.46053646  0.54382400  0.99018824  1.0
  C  C59  1  0.48192111  0.32659460  0.26022286  1.0
  C  C60  1  0.52661595  0.68841997  0.73101912  1.0
  C  C61  1  0.92751609  0.34977047  0.57583829  1.0
  C  C62  1  0.07896727  0.64996180  0.42960382  1.0
  C  C63  1  0.33888420  0.42568332  0.74702896  1.0
  C  C64  1  0.66912575  0.58913956  0.25716156  1.0
  C  C65  1  0.39746706  0.59932916  0.04353279  1.0
  C  C66  1  0.59159345  0.44574632  0.95238835  1.0
  C  C67  1  0.64915366  0.61045031  0.09155395  1.0
  C  C68  1  0.44171899  0.96614944  0.56411272  1.0
  C  C69  1  0.34739597  0.42007102  0.91598047  1.0
  C  C70  1  0.38392625  0.93249723  0.63375989  1.0
  C  C71  1  0.62239987  0.07039896  0.37959443  1.0
  C  C72  1  0.08043027  0.47709077  0.64860537  1.0
  C  C73  1  0.92601175  0.52334561  0.35586713  1.0
  C  C74  1  0.55607735  0.03463615  0.44216915  1.0
  C  C75  1  0.49414289  0.75148912  0.47518318  1.0
  C  C76  1  0.50392307  0.25093497  0.52346733  1.0
  C  C77  1  0.58599470  0.96948895  0.50323102  1.0
  N  N78  1  0.27406530  0.48498423  0.46948996  1.0
  N  N79  1  0.73159970  0.51539174  0.53179452  1.0
  O  O80  1  0.57358970  0.62700302  0.48230526  1.0
  O  O81  1  0.51892110  0.30573309  0.32689453  1.0
  O  O82  1  0.57702224  0.73950485  0.76046594  1.0
  O  O83  1  0.50263776  0.69861655  0.65715016  1.0
  O  O84  1  0.96559224  0.62694569  0.60826342  1.0
  O  O85  1  0.04037556  0.37277846  0.39644565  1.0
  O  O86  1  0.95495171  0.31573651  0.63332171  1.0
  O  O87  1  0.85633562  0.32331212  0.53751547  1.0
  O  O88  1  0.05220483  0.68519138  0.37245180  1.0
  O  O89  1  0.15071712  0.67492426  0.46815254  1.0
  O  O90  1  0.25388203  0.42533581  0.75724769  1.0
  O  O91  1  0.42440788  0.37645191  0.52607206  1.0
  O  O92  1  0.39115508  0.37360325  0.69905039  1.0
  O  O93  1  0.75386528  0.58398637  0.24594789  1.0
  O  O94  1  0.62160589  0.64344697  0.30622507  1.0
  O  O95  1  0.34883593  0.65288497  0.01726575  1.0
  O  O96  1  0.39835874  0.58551100  0.12285388  1.0
  O  O97  1  0.60132376  0.45716050  0.88058875  1.0
  O  O98  1  0.64007509  0.38625220  0.98828957  1.0
  O  O99  1  0.65788078  0.67882323  0.12197151  1.0
  O  O100  1  0.68064186  0.59218821  0.01498626  1.0
  O  O101  1  0.34607035  0.34813581  0.89173519  1.0
  O  O102  1  0.42012185  0.62446213  0.46712070  1.0
  O  O103  1  0.30715956  0.44447650  0.98871091  1.0
  O  O104  1  0.53545593  0.67158341  0.89517536  1.0
  O  O105  1  0.45347708  0.36342318  0.10224048  1.0
  O  O106  1  0.39508287  0.95033114  0.70280013  1.0
  O  O107  1  0.31640757  0.88133007  0.61444617  1.0
  O  O108  1  0.70618619  0.06053030  0.37580487  1.0
  O  O109  1  0.58062088  0.11544072  0.32482544  1.0
  O  O110  1  0.55761139  0.03575263  0.64696597  1.0
  O  O111  1  0.43721220  0.95892424  0.36055848  1.0
  O  O112  1  0.32634933  0.07038855  0.50123744  1.0
  O  O113  1  0.58148438  0.37695393  0.52042672  1.0
  O  O114  1  0.67298752  0.93647305  0.50059447  1.0
  O  O115  1  0.05398815  0.52512642  0.70398036  1.0
  O  O116  1  0.14638901  0.42011232  0.64680045  1.0
  O  O117  1  0.95237609  0.47550479  0.30032275  1.0
  O  O118  1  0.86095099  0.58120816  0.35746439  1.0
  O  O119  1  0.62531702  0.48090173  0.38585485  1.0
  O  O120  1  0.38638769  0.53372658  0.61176233  1.0
  O  O121  1  0.47038328  0.47128903  0.38243545  1.0
  O  O122  1  0.54028365  0.52371404  0.62191568  1.0
  O  O123  1  0.42766711  0.27923060  0.23060075  1.0
