# generated using pymatgen
data_Zn4H25C49N5O17
_symmetry_space_group_name_H-M   'P 1'
_cell_length_a   19.16619845
_cell_length_b   19.22207741
_cell_length_c   19.52459750
_cell_angle_alpha   89.93194587
_cell_angle_beta   85.22870918
_cell_angle_gamma   85.53452251
_symmetry_Int_Tables_number   1
_chemical_formula_structural   Zn4H25C49N5O17
_chemical_formula_sum   'Zn4 H25 C49 N5 O17'
_cell_volume   7146.35047409
_cell_formula_units_Z   1
loop_
 _symmetry_equiv_pos_site_id
 _symmetry_equiv_pos_as_xyz
  1  'x, y, z'
loop_
 _atom_site_type_symbol
 _atom_site_label
 _atom_site_symmetry_multiplicity
 _atom_site_fract_x
 _atom_site_fract_y
 _atom_site_fract_z
 _atom_site_occupancy
  Zn  Zn0  1  0.43939564  0.56099907  0.44214851  1.0
  Zn  Zn1  1  0.44228971  0.44728035  0.56276080  1.0
  Zn  Zn2  1  0.55288455  0.56333675  0.55299302  1.0
  Zn  Zn3  1  0.56550696  0.43814928  0.44250098  1.0
  H  H4  1  0.39720934  0.53185828  0.23528675  1.0
  H  H5  1  0.55266561  0.77542030  0.56921136  1.0
  H  H6  1  0.22188569  0.56708301  0.42414247  1.0
  H  H7  1  0.91615192  0.43491865  0.39516320  1.0
  H  H8  1  0.78443317  0.43166586  0.40078818  1.0
  H  H9  1  0.22736691  0.46408837  0.61997130  1.0
  H  H10  1  0.89596568  0.55998280  0.57912014  1.0
  H  H11  1  0.09547043  0.46478183  0.62842243  1.0
  H  H12  1  0.76429219  0.56073678  0.58205281  1.0
  H  H13  1  0.45647645  0.54880601  0.00813331  1.0
  H  H14  1  0.59740698  0.39849727  0.10410216  1.0
  H  H15  1  0.37927568  0.55410146  0.90268884  1.0
  H  H16  1  0.59293470  0.46326009  0.89100559  1.0
  H  H17  1  0.59818279  0.41460574  0.23023778  1.0
  H  H18  1  0.66099395  0.44595487  0.78866840  1.0
  H  H19  1  0.02932263  0.59826859  0.42965996  1.0
  H  H20  1  0.52200273  0.33480125  0.03644431  1.0
  H  H21  1  0.36164977  0.48337126  0.05900135  1.0
  H  H22  1  0.55902129  0.21991530  0.40635869  1.0
  H  H23  1  0.55230595  0.08964623  0.40950839  1.0
  H  H24  1  0.44615525  0.90543759  0.37819470  1.0
  H  H25  1  0.44260401  0.77488979  0.38613487  1.0
  H  H26  1  0.45907532  0.23670000  0.61176205  1.0
  H  H27  1  0.55175212  0.90618995  0.56401378  1.0
  H  H28  1  0.45871483  0.10577994  0.61727660  1.0
  C  C29  1  0.50822620  0.31322679  0.50563144  1.0
  C  C30  1  0.50072552  0.44700915  0.02205513  1.0
  C  C31  1  0.48013226  0.50148550  0.98158371  1.0
  C  C32  1  0.49687868  0.69047356  0.48353828  1.0
  C  C33  1  0.49174953  0.51183950  0.76096895  1.0
  C  C34  1  0.49712326  0.76785353  0.47836870  1.0
  C  C35  1  0.52856915  0.80462034  0.52829971  1.0
  C  C36  1  0.52828563  0.87667712  0.52548438  1.0
  C  C37  1  0.49778442  0.91278896  0.47134817  1.0
  C  C38  1  0.46840589  0.87611983  0.42010549  1.0
  C  C39  1  0.46678491  0.80402390  0.42442097  1.0
  C  C40  1  0.49573758  0.45450375  0.09782586  1.0
  C  C41  1  0.53253435  0.12258236  0.45335501  1.0
  C  C42  1  0.53591983  0.19444609  0.45171601  1.0
  C  C43  1  0.50365825  0.09106703  0.51314244  1.0
  C  C44  1  0.31084010  0.51223559  0.51526432  1.0
  C  C45  1  0.50842906  0.23570342  0.50850189  1.0
  C  C46  1  0.47993464  0.20398389  0.56813138  1.0
  C  C47  1  0.47927122  0.13184536  0.57113301  1.0
  C  C48  1  0.76711722  0.49572100  0.49201318  1.0
  C  C49  1  0.79822509  0.53242533  0.54220225  1.0
  C  C50  1  0.87067942  0.53226210  0.54058847  1.0
  C  C51  1  0.55260070  0.42653421  0.13291991  1.0
  C  C52  1  0.91278222  0.49632347  0.48752371  1.0
  C  C53  1  0.88197003  0.46126573  0.43616910  1.0
  C  C54  1  0.80935942  0.45983926  0.43924535  1.0
  C  C55  1  0.12169412  0.54177323  0.47096881  1.0
  C  C56  1  0.68894871  0.49615936  0.49469609  1.0
  C  C57  1  0.19474420  0.54311693  0.46832598  1.0
  C  C58  1  0.08663545  0.51163830  0.52925513  1.0
  C  C59  1  0.23257592  0.51407614  0.52091116  1.0
  C  C60  1  0.19707545  0.48568809  0.57906814  1.0
  C  C61  1  0.12445762  0.48609590  0.58384338  1.0
  C  C62  1  0.55397802  0.43627315  0.20330153  1.0
  C  C63  1  0.49297953  0.51191711  0.68375979  1.0
  C  C64  1  0.50099612  0.48647339  0.31624840  1.0
  C  C65  1  0.49866315  0.47544386  0.24058579  1.0
  C  C66  1  0.44136689  0.50272637  0.20674964  1.0
  C  C67  1  0.43848935  0.49122339  0.13619207  1.0
  C  C68  1  0.61651029  0.45819764  0.75595970  1.0
  C  C69  1  0.08430258  0.57710805  0.41529719  1.0
  C  C70  1  0.36974290  0.56249326  0.76783674  1.0
  C  C71  1  0.52436854  0.37547578  0.99562537  1.0
  C  C72  1  0.37210674  0.51367116  0.10534138  1.0
  C  C73  1  0.54670322  0.48328696  0.86620664  1.0
  C  C74  1  0.55056633  0.48634310  0.79459576  1.0
  C  C75  1  0.43026877  0.53642235  0.80086794  1.0
  C  C76  1  0.42756236  0.53449054  0.87305667  1.0
  C  C77  1  0.48488636  0.50544849  0.90647049  1.0
  N  N78  1  0.49663474  0.98597377  0.46409635  1.0
  N  N79  1  0.49937679  0.01848005  0.52007613  1.0
  N  N80  1  0.98674954  0.49511840  0.48103046  1.0
  N  N81  1  0.01415974  0.50538272  0.53663945  1.0
  N  N82  1  0.32036008  0.58290984  0.74033690  1.0
  O  O83  1  0.50017376  0.50243053  0.49935802  1.0
  O  O84  1  0.46064022  0.46386603  0.65920613  1.0
  O  O85  1  0.55137746  0.45332665  0.34424693  1.0
  O  O86  1  0.52270809  0.56084938  0.65244331  1.0
  O  O87  1  0.45266740  0.52786836  0.34588090  1.0
  O  O88  1  0.62344627  0.44749831  0.69396714  1.0
  O  O89  1  0.11228055  0.58644331  0.35761354  1.0
  O  O90  1  0.54262629  0.35854096  0.93596795  1.0
  O  O91  1  0.32941295  0.55994967  0.12892197  1.0
  O  O92  1  0.33967983  0.55172237  0.47057731  1.0
  O  O93  1  0.66373608  0.45426773  0.45418234  1.0
  O  O94  1  0.46559693  0.34716730  0.54955590  1.0
  O  O95  1  0.53495429  0.66113843  0.52761813  1.0
  O  O96  1  0.54963660  0.33938882  0.45953596  1.0
  O  O97  1  0.45885317  0.65976175  0.44403912  1.0
  O  O98  1  0.34214756  0.47019039  0.55551410  1.0
  O  O99  1  0.65401367  0.53869606  0.53720919  1.0
