# generated using pymatgen
data_CdCu2H72C56N4(ClO6)2
_symmetry_space_group_name_H-M   'P 1'
_cell_length_a   7.82389111
_cell_length_b   15.45240765
_cell_length_c   15.45235840
_cell_angle_alpha   90.41620126
_cell_angle_beta   101.11781267
_cell_angle_gamma   101.11817061
_symmetry_Int_Tables_number   1
_chemical_formula_structural   CdCu2H72C56N4(ClO6)2
_chemical_formula_sum   'Cd1 Cu2 H72 C56 N4 Cl2 O12'
_cell_volume   1796.77632234
_cell_formula_units_Z   1
loop_
 _symmetry_equiv_pos_site_id
 _symmetry_equiv_pos_as_xyz
  1  'x, y, z'
loop_
 _atom_site_type_symbol
 _atom_site_label
 _atom_site_symmetry_multiplicity
 _atom_site_fract_x
 _atom_site_fract_y
 _atom_site_fract_z
 _atom_site_occupancy
  Cd  Cd0  1  0.00000003  0.00000018  0.00000056  1.0
  Cu  Cu1  1  0.00000020  0.49999986  0.99999976  1.0
  Cu  Cu2  1  0.99999997  0.00000087  0.50000098  1.0
  H  H3  1  0.14072797  0.67182408  0.79229660  1.0
  H  H4  1  0.85927519  0.20770043  0.32818339  1.0
  H  H5  1  0.85927332  0.32817606  0.20770227  1.0
  H  H6  1  0.14072506  0.79230037  0.67181667  1.0
  H  H7  1  0.37434275  0.71071052  0.83513899  1.0
  H  H8  1  0.62565344  0.16486049  0.28929370  1.0
  H  H9  1  0.62565750  0.28929028  0.16486107  1.0
  H  H10  1  0.37434758  0.83513899  0.71070578  1.0
  H  H11  1  0.21528313  0.76256876  0.87088730  1.0
  H  H12  1  0.78471928  0.12911197  0.23743349  1.0
  H  H13  1  0.78471685  0.23743138  0.12911209  1.0
  H  H14  1  0.21528123  0.87088949  0.76256661  1.0
  H  H15  1  0.56054759  0.61822059  0.17262177  1.0
  H  H16  1  0.43946115  0.82737779  0.38177920  1.0
  H  H17  1  0.43945109  0.38177955  0.82737814  1.0
  H  H18  1  0.56054040  0.17262301  0.61822164  1.0
  H  H19  1  0.66630155  0.57718407  0.09410716  1.0
  H  H20  1  0.33370312  0.90589164  0.42281649  1.0
  H  H21  1  0.33369817  0.42281541  0.90589219  1.0
  H  H22  1  0.66629686  0.09410850  0.57718419  1.0
  H  H23  1  0.53181255  0.50189123  0.15342437  1.0
  H  H24  1  0.46819948  0.84657687  0.49811029  1.0
  H  H25  1  0.46818482  0.49810891  0.84657540  1.0
  H  H26  1  0.53180103  0.15342459  0.50189045  1.0
  H  H27  1  0.38288055  0.80045451  0.04473099  1.0
  H  H28  1  0.61711886  0.95527173  0.19954404  1.0
  H  H29  1  0.61711396  0.19954497  0.95526914  1.0
  H  H30  1  0.38288373  0.04472841  0.80045624  1.0
  H  H31  1  0.63120479  0.93106560  0.05163792  1.0
  H  H32  1  0.36879798  0.94836363  0.06893404  1.0
  H  H33  1  0.36879493  0.06893388  0.94836338  1.0
  H  H34  1  0.63120330  0.05163651  0.93106611  1.0
  H  H35  1  0.94288584  0.78179108  0.95549749  1.0
  H  H36  1  0.05711322  0.04449756  0.21821019  1.0
  H  H37  1  0.05711571  0.21820972  0.04450334  1.0
  H  H38  1  0.94288597  0.95550060  0.78179040  1.0
  H  H39  1  0.71496111  0.64240457  0.95031515  1.0
  H  H40  1  0.28503724  0.04968047  0.35759647  1.0
  H  H41  1  0.28503679  0.35759690  0.04968533  1.0
  H  H42  1  0.71496195  0.95031769  0.64240347  1.0
  H  H43  1  0.92833600  0.59839693  0.24725219  1.0
  H  H44  1  0.07166712  0.75274865  0.40160357  1.0
  H  H45  1  0.07166633  0.40160255  0.75274742  1.0
  H  H46  1  0.92833313  0.24725215  0.59839520  1.0
  H  H47  1  0.03889815  0.51670087  0.21235345  1.0
  H  H48  1  0.96110443  0.78764640  0.48330148  1.0
  H  H49  1  0.96110314  0.48329927  0.78764670  1.0
  H  H50  1  0.03889555  0.21235374  0.51669725  1.0
  H  H51  1  0.32564997  0.60635141  0.27117804  1.0
  H  H52  1  0.67435294  0.72882242  0.39364942  1.0
  H  H53  1  0.67435027  0.39364939  0.72882202  1.0
  H  H54  1  0.32564808  0.27117706  0.60634941  1.0
  H  H55  1  0.20905648  0.65909531  0.33649084  1.0
  H  H56  1  0.79094686  0.66351038  0.34090526  1.0
  H  H57  1  0.79094507  0.34090549  0.66350935  1.0
  H  H58  1  0.20905416  0.33648910  0.65909486  1.0
  H  H59  1  0.25784231  0.78741838  0.25205725  1.0
  H  H60  1  0.74215703  0.74794394  0.21258141  1.0
  H  H61  1  0.74215690  0.21258308  0.74794271  1.0
  H  H62  1  0.25784373  0.25205488  0.78741804  1.0
  H  H63  1  0.37308969  0.73142314  0.18920176  1.0
  H  H64  1  0.62690974  0.81079855  0.26857598  1.0
  H  H65  1  0.62691056  0.26857766  0.81079894  1.0
  H  H66  1  0.37308971  0.18920027  0.73142334  1.0
  H  H67  1  0.98605447  0.74704232  0.14962161  1.0
  H  H68  1  0.01394581  0.85037844  0.25295846  1.0
  H  H69  1  0.01394551  0.25295782  0.85037778  1.0
  H  H70  1  0.98605548  0.14962170  0.74704106  1.0
  H  H71  1  0.12252643  0.73091447  0.07323581  1.0
  H  H72  1  0.87747176  0.92676391  0.26908592  1.0
  H  H73  1  0.87747459  0.26908501  0.92676432  1.0
  H  H74  1  0.12252666  0.07323557  0.73091331  1.0
  C  C75  1  0.24117279  0.69838673  0.85087720  1.0
  C  C76  1  0.75882893  0.14912695  0.30161100  1.0
  C  C77  1  0.75882850  0.30161341  0.14912167  1.0
  C  C78  1  0.24117262  0.85087385  0.69838854  1.0
  C  C79  1  0.22580544  0.63491938  0.92373186  1.0
  C  C80  1  0.77419110  0.07626904  0.36508118  1.0
  C  C81  1  0.77419455  0.36508076  0.07626753  1.0
  C  C82  1  0.22581045  0.92373176  0.63491901  1.0
  C  C83  1  0.37558179  0.63339665  0.99196539  1.0
  C  C84  1  0.62440669  0.00803428  0.36660276  1.0
  C  C85  1  0.62441819  0.36660349  0.00803464  1.0
  C  C86  1  0.37559486  0.99196652  0.63339937  1.0
  C  C87  1  0.37893558  0.56596569  0.05343821  1.0
  C  C88  1  0.62106371  0.94656287  0.43403890  1.0
  C  C89  1  0.62106441  0.43403445  0.94656052  1.0
  C  C90  1  0.37893497  0.05343727  0.56596230  1.0
  C  C91  1  0.54530173  0.56540543  0.12184545  1.0
  C  C92  1  0.45469584  0.87814855  0.43459667  1.0
  C  C93  1  0.45469695  0.43459472  0.87815381  1.0
  C  C94  1  0.54530440  0.12185225  0.56540404  1.0
  C  C95  1  0.52826136  0.70917152  0.99873789  1.0
  C  C96  1  0.47172906  0.00126040  0.29082597  1.0
  C  C97  1  0.47173758  0.29082929  0.00126334  1.0
  C  C98  1  0.52827196  0.99873908  0.70917415  1.0
  C  C99  1  0.50739706  0.79223322  0.02727298  1.0
  C  C100  1  0.49260811  0.97272950  0.20776776  1.0
  C  C101  1  0.49260006  0.20776627  0.97272806  1.0
  C  C102  1  0.50739447  0.02727064  0.79223188  1.0
  C  C103  1  0.64334669  0.86535128  0.03040897  1.0
  C  C104  1  0.35665733  0.96959205  0.13464880  1.0
  C  C105  1  0.35665015  0.13464754  0.96959139  1.0
  C  C106  1  0.64334395  0.03040808  0.86535071  1.0
  C  C107  1  0.81819926  0.78172383  0.97728631  1.0
  C  C108  1  0.18180422  0.02271002  0.21827799  1.0
  C  C109  1  0.18180072  0.21827631  0.02271243  1.0
  C  C110  1  0.81819497  0.97728814  0.78172195  1.0
  C  C111  1  0.68974523  0.70473973  0.97367036  1.0
  C  C112  1  0.31025656  0.02632706  0.29526241  1.0
  C  C113  1  0.31025371  0.29526107  0.02633023  1.0
  C  C114  1  0.68974263  0.97367110  0.70473753  1.0
  C  C115  1  0.04099333  0.58770247  0.21757359  1.0
  C  C116  1  0.95900809  0.78242702  0.41229799  1.0
  C  C117  1  0.95900925  0.41229767  0.78242670  1.0
  C  C118  1  0.04099163  0.21757246  0.58770072  1.0
  C  C119  1  0.21753926  0.64282004  0.26830581  1.0
  C  C120  1  0.78246337  0.73169532  0.35717987  1.0
  C  C121  1  0.78246072  0.35718010  0.73169423  1.0
  C  C122  1  0.21753792  0.26830482  0.64281964  1.0
  C  C123  1  0.24925869  0.72603721  0.21381570  1.0
  C  C124  1  0.75074109  0.78618505  0.27396291  1.0
  C  C125  1  0.75074025  0.27396359  0.78618488  1.0
  C  C126  1  0.24926020  0.21381509  0.72603660  1.0
  C  C127  1  0.08878801  0.71134411  0.13686376  1.0
  C  C128  1  0.91121140  0.86313728  0.28865686  1.0
  C  C129  1  0.91121224  0.28865669  0.86313630  1.0
  C  C130  1  0.08878728  0.13686287  0.71134240  1.0
  N  N131  1  0.79729026  0.86069668  0.00607361  1.0
  N  N132  1  0.20270991  0.99392435  0.13930291  1.0
  N  N133  1  0.20270946  0.13930280  0.99392703  1.0
  N  N134  1  0.79729084  0.00607447  0.86069719  1.0
  Cl  Cl135  1  0.18481270  0.91622165  0.91622234  1.0
  Cl  Cl136  1  0.81518467  0.08377849  0.08377809  1.0
  O  O137  1  0.07223787  0.58498429  0.91684275  1.0
  O  O138  1  0.92776826  0.08316326  0.41501830  1.0
  O  O139  1  0.92776341  0.41501585  0.08315676  1.0
  O  O140  1  0.07223172  0.91683688  0.58498173  1.0
  O  O141  1  0.24776521  0.50282756  0.05718553  1.0
  O  O142  1  0.75223157  0.94280911  0.49718475  1.0
  O  O143  1  0.75223477  0.49717258  0.94281385  1.0
  O  O144  1  0.24776816  0.05719367  0.50281657  1.0
  O  O145  1  0.01889507  0.61812023  0.12926106  1.0
  O  O146  1  0.98110551  0.87073952  0.38187996  1.0
  O  O147  1  0.98110595  0.38187925  0.87073842  1.0
  O  O148  1  0.01889317  0.12926063  0.61811930  1.0
