# generated using pymatgen
data_Al2H14C27O17
_symmetry_space_group_name_H-M   'P 1'
_cell_length_a   6.89622637
_cell_length_b   17.69333600
_cell_length_c   20.80554447
_cell_angle_alpha   107.79304039
_cell_angle_beta   89.99978120
_cell_angle_gamma   89.99930078
_symmetry_Int_Tables_number   1
_chemical_formula_structural   Al2H14C27O17
_chemical_formula_sum   'Al4 H28 C54 O34'
_cell_volume   2417.20355954
_cell_formula_units_Z   2
loop_
 _symmetry_equiv_pos_site_id
 _symmetry_equiv_pos_as_xyz
  1  'x, y, z'
loop_
 _atom_site_type_symbol
 _atom_site_label
 _atom_site_symmetry_multiplicity
 _atom_site_fract_x
 _atom_site_fract_y
 _atom_site_fract_z
 _atom_site_occupancy
  Al  Al0  1  0.81948053  0.49955397  0.49823158  1.0
  Al  Al1  1  0.31947517  0.50044942  0.50177233  1.0
  Al  Al2  1  0.41611688  0.00052930  0.00168487  1.0
  Al  Al3  1  0.91611409  0.99947558  0.99831429  1.0
  H  H4  1  0.08541584  0.11173170  0.69998571  1.0
  H  H5  1  0.58542588  0.88827584  0.30001083  1.0
  H  H6  1  0.12968954  0.39399577  0.79389996  1.0
  H  H7  1  0.62971075  0.60600644  0.20610543  1.0
  H  H8  1  0.38367046  0.31992709  0.72860134  1.0
  H  H9  1  0.88367720  0.68007380  0.27139634  1.0
  H  H10  1  0.88630324  0.36045918  0.78297581  1.0
  H  H11  1  0.38631686  0.63954208  0.21702789  1.0
  H  H12  1  0.32704314  0.25819235  0.59692390  1.0
  H  H13  1  0.82702662  0.74181888  0.40307307  1.0
  H  H14  1  0.53122381  0.21653691  0.83882417  1.0
  H  H15  1  0.03124704  0.78345615  0.16117180  1.0
  H  H16  1  0.37144196  0.10598834  0.65648423  1.0
  H  H17  1  0.87145320  0.89401466  0.34350648  1.0
  H  H18  1  0.69689338  0.15960915  0.76376768  1.0
  H  H19  1  0.19690941  0.84039554  0.23622451  1.0
  H  H20  1  0.88283067  0.19871547  0.58018857  1.0
  H  H21  1  0.38284506  0.80129383  0.41980722  1.0
  H  H22  1  0.79996956  0.23770834  0.69835527  1.0
  H  H23  1  0.29997930  0.76230637  0.30164885  1.0
  H  H24  1  0.28163521  0.39321915  0.87711279  1.0
  H  H25  1  0.78162402  0.60677141  0.12288199  1.0
  H  H26  1  0.83457257  0.35503567  0.89851563  1.0
  H  H27  1  0.33458660  0.64496572  0.10149223  1.0
  H  H28  1  0.56733950  0.39737293  0.46337900  1.0
  H  H29  1  0.06734475  0.60263792  0.53661913  1.0
  H  H30  1  0.66472831  0.09465510  0.99099264  1.0
  H  H31  1  0.16473348  0.90534930  0.00900063  1.0
  C  C32  1  0.56476972  0.57736136  0.42359906  1.0
  C  C33  1  0.06475809  0.42263980  0.57640547  1.0
  C  C34  1  0.57330989  0.60630371  0.60332043  1.0
  C  C35  1  0.07328958  0.39367630  0.39668829  1.0
  C  C36  1  0.08288417  0.33182901  0.33333333  1.0
  C  C37  1  0.58294176  0.66812442  0.66666667  1.0
  C  C38  1  0.10563776  0.27942721  0.27972894  1.0
  C  C39  1  0.60574207  0.72054182  0.72027552  1.0
  C  C40  1  0.12957916  0.22184733  0.22046772  1.0
  C  C41  1  0.62969208  0.77812930  0.77953227  1.0
  C  C42  1  0.15212973  0.16971164  0.16676567  1.0
  C  C43  1  0.65217628  0.83027749  0.83324097  1.0
  C  C44  1  0.33901866  0.21177659  0.75126375  1.0
  C  C45  1  0.83902798  0.78822273  0.24873302  1.0
  C  C46  1  0.00407948  0.16269323  0.73230514  1.0
  C  C47  1  0.50409356  0.83731357  0.26769159  1.0
  C  C48  1  0.94971754  0.21603251  0.68906926  1.0
  C  C49  1  0.44973715  0.78397444  0.31093235  1.0
  C  C50  1  0.05991243  0.37927243  0.62515492  1.0
  C  C51  1  0.55991443  0.62072949  0.37484361  1.0
  C  C52  1  0.14542616  0.20630214  0.79152745  1.0
  C  C53  1  0.64543772  0.79370093  0.20847038  1.0
  C  C54  1  0.30089844  0.26424573  0.70546271  1.0
  C  C55  1  0.80090506  0.73575516  0.29453568  1.0
  C  C56  1  0.08535195  0.29021714  0.70748057  1.0
  C  C57  1  0.58535925  0.70979036  0.29252250  1.0
  C  C58  1  0.03752246  0.34053915  0.78073965  1.0
  C  C59  1  0.53753643  0.65946361  0.21926648  1.0
  C  C60  1  0.07318029  0.29276966  0.83060298  1.0
  C  C61  1  0.57319007  0.70723333  0.16939854  1.0
  C  C62  1  0.05952993  0.33864165  0.66282575  1.0
  C  C63  1  0.55953129  0.66136211  0.33717984  1.0
  C  C64  1  0.17144676  0.15990782  0.83742958  1.0
  C  C65  1  0.67145572  0.84008960  0.16256307  1.0
  C  C66  1  0.17325818  0.12023805  0.87567732  1.0
  C  C67  1  0.67326367  0.87975892  0.12431230  1.0
  C  C68  1  0.66268836  0.89170055  0.89763131  1.0
  C  C69  1  0.16266829  0.10829313  0.10237035  1.0
  C  C70  1  0.66942047  0.92471992  0.07720412  1.0
  C  C71  1  0.16943197  0.07528173  0.92279763  1.0
  C  C72  1  0.39517123  0.23699609  0.63661895  1.0
  C  C73  1  0.89517451  0.76300938  0.36337876  1.0
  C  C74  1  0.49903529  0.24705630  0.80077887  1.0
  C  C75  1  0.99904725  0.75293983  0.19921543  1.0
  C  C76  1  0.38728776  0.12250770  0.71192165  1.0
  C  C77  1  0.88729428  0.87749159  0.28806796  1.0
  C  C78  1  0.83240952  0.12373503  0.75427596  1.0
  C  C79  1  0.33242120  0.87627126  0.24572142  1.0
  C  C80  1  0.96912102  0.17332259  0.61365999  1.0
  C  C81  1  0.46912735  0.82668922  0.38633913  1.0
  C  C82  1  0.22180767  0.33821373  0.88544434  1.0
  C  C83  1  0.72181656  0.66177972  0.11455114  1.0
  C  C84  1  0.89107693  0.29404464  0.87418093  1.0
  C  C85  1  0.39109767  0.70595379  0.12582272  1.0
  O  O86  1  0.40555677  0.58197010  0.58016603  1.0
  O  O87  1  0.90554235  0.41803586  0.41983970  1.0
  O  O88  1  0.73316689  0.56070239  0.44055367  1.0
  O  O89  1  0.23317846  0.43930657  0.55945405  1.0
  O  O90  1  0.73667843  0.58196998  0.57592983  1.0
  O  O91  1  0.23665625  0.41801728  0.42407556  1.0
  O  O92  1  0.90072186  0.43752288  0.55518605  1.0
  O  O93  1  0.40070095  0.56246879  0.44481094  1.0
  O  O94  1  0.56930071  0.45233619  0.49167322  1.0
  O  O95  1  0.06930599  0.54767084  0.50833691  1.0
  O  O96  1  0.83348920  0.94062789  0.05636404  1.0
  O  O97  1  0.33347312  0.05938343  0.94364145  1.0
  O  O98  1  0.49858034  0.91479087  0.92435452  1.0
  O  O99  1  0.99856691  0.08520924  0.07564486  1.0
  O  O100  1  0.50228044  0.94297414  0.06050667  1.0
  O  O101  1  0.00226308  0.05702727  0.93949251  1.0
  O  O102  1  0.33117002  0.08557492  0.07979087  1.0
  O  O103  1  0.83118978  0.91442000  0.92021791  1.0
  O  O104  1  0.66629818  0.04685849  0.00465350  1.0
  O  O105  1  0.16630446  0.95314928  0.99534634  1.0
  O  O106  1  0.54690936  0.19945725  0.62574156  1.0
  O  O107  1  0.04691342  0.80054680  0.37425502  1.0
  O  O108  1  0.58333972  0.30891857  0.80178357  1.0
  O  O109  1  0.08335770  0.69107732  0.19821531  1.0
  O  O110  1  0.42635756  0.07451770  0.74086962  1.0
  O  O111  1  0.92634547  0.92547954  0.25911534  1.0
  O  O112  1  0.83578803  0.05718753  0.75868756  1.0
  O  O113  1  0.33580436  0.94281513  0.24130575  1.0
  O  O114  1  0.07771258  0.11701985  0.59058572  1.0
  O  O115  1  0.57771926  0.88298972  0.40941187  1.0
  O  O116  1  0.26406503  0.31891240  0.93477395  1.0
  O  O117  1  0.76408804  0.68108706  0.06522552  1.0
  O  O118  1  0.82000423  0.23645107  0.88527740  1.0
  O  O119  1  0.32001872  0.76354635  0.11472391  1.0
