# generated using pymatgen
data_Al3H26C45Cl5O14
_symmetry_space_group_name_H-M   'P 1'
_cell_length_a   12.79681684
_cell_length_b   12.89433190
_cell_length_c   30.34600004
_cell_angle_alpha   81.13299774
_cell_angle_beta   80.77577031
_cell_angle_gamma   63.07446656
_symmetry_Int_Tables_number   1
_chemical_formula_structural   Al3H26C45Cl5O14
_chemical_formula_sum   'Al6 H52 C90 Cl10 O28'
_cell_volume   4387.78022459
_cell_formula_units_Z   2
loop_
 _symmetry_equiv_pos_site_id
 _symmetry_equiv_pos_as_xyz
  1  'x, y, z'
loop_
 _atom_site_type_symbol
 _atom_site_label
 _atom_site_symmetry_multiplicity
 _atom_site_fract_x
 _atom_site_fract_y
 _atom_site_fract_z
 _atom_site_occupancy
  Al  Al0  1  0.40790484  0.40689878  0.51502427  1.0
  Al  Al1  1  0.43105748  0.64699215  0.49644316  1.0
  Al  Al2  1  0.65410332  0.42342057  0.49521366  1.0
  Al  Al3  1  0.92767067  0.91269834  0.97846698  1.0
  Al  Al4  1  0.67727602  0.90555703  0.99581573  1.0
  Al  Al5  1  0.89627106  0.67764046  0.99537938  1.0
  H  H6  1  0.78966212  0.25378188  0.71102477  1.0
  H  H7  1  0.71054840  0.01433908  0.70548041  1.0
  H  H8  1  0.82942868  0.05198090  0.69488472  1.0
  H  H9  1  0.47524465  0.31439451  0.72652830  1.0
  H  H10  1  0.49248068  0.18064079  0.71078623  1.0
  H  H11  1  0.84310789  0.54088363  0.81018677  1.0
  H  H12  1  0.21547739  0.47550443  0.78981979  1.0
  H  H13  1  0.28689783  0.47090511  0.71331984  1.0
  H  H14  1  0.06860867  0.57697942  0.71512601  1.0
  H  H15  1  0.97082580  0.77433123  0.77378762  1.0
  H  H16  1  0.26614576  0.77748199  0.70038116  1.0
  H  H17  1  0.32381762  0.51942497  0.79610009  1.0
  H  H18  1  0.12849522  0.84090482  0.78278678  1.0
  H  H19  1  0.65654308  0.48963287  0.28725382  1.0
  H  H20  1  0.82014905  0.67160697  0.28096987  1.0
  H  H21  1  0.85211009  0.55681400  0.20164433  1.0
  H  H22  1  0.51484849  0.60837462  0.28661621  1.0
  H  H23  1  0.61353978  0.86323792  0.20367423  1.0
  H  H24  1  0.87079017  0.08497158  0.08368000  1.0
  H  H25  1  0.78837514  0.27710211  0.37959428  1.0
  H  H26  1  0.49614151  0.17994682  0.32775431  1.0
  H  H27  1  0.23453261  0.47004814  0.40759953  1.0
  H  H28  1  0.26032304  0.79479741  0.38416603  1.0
  H  H29  1  0.07621510  0.85304902  0.08731288  1.0
  H  H30  1  0.52831446  0.86730131  0.89229667  1.0
  H  H31  1  0.75370265  0.26013734  0.78950778  1.0
  H  H32  1  0.86051904  0.56018779  0.88915327  1.0
  H  H33  1  0.59923405  0.33623061  0.78766546  1.0
  H  H34  1  0.54220879  0.08268286  0.78206166  1.0
  H  H35  1  0.99704756  0.62759410  0.78910365  1.0
  H  H36  1  0.11046853  0.84654943  0.70637742  1.0
  H  H37  1  0.27633321  0.73315781  0.77839465  1.0
  H  H38  1  0.36530494  0.55042049  0.71843737  1.0
  H  H39  1  0.68227298  0.50257332  0.20888212  1.0
  H  H40  1  0.83605509  0.52875524  0.27992718  1.0
  H  H41  1  0.82243543  0.70393138  0.20302269  1.0
  H  H42  1  0.48800005  0.81427468  0.28689353  1.0
  H  H43  1  0.61192503  0.84334449  0.28164217  1.0
  H  H44  1  0.49467932  0.82643730  0.20879710  1.0
  H  H45  1  0.53565276  0.61232181  0.20856645  1.0
  H  H46  1  0.85241798  0.13697865  0.16169064  1.0
  H  H47  1  0.81229412  0.23006783  0.30050472  1.0
  H  H48  1  0.47373789  0.22741274  0.40671901  1.0
  H  H49  1  0.46701738  0.76385509  0.59824628  1.0
  H  H50  1  0.51667821  0.12462580  0.18904256  1.0
  H  H51  1  0.53738998  0.07148500  0.11113985  1.0
  H  H52  1  0.17753136  0.49691054  0.32979641  1.0
  H  H53  1  0.12345502  0.84361670  0.16511270  1.0
  H  H54  1  0.50892259  0.84797620  0.81373031  1.0
  H  H55  1  0.20329500  0.82343412  0.30637084  1.0
  H  H56  1  0.33508821  0.27557806  0.50566415  1.0
  H  H57  1  0.98831268  0.05675137  0.98237025  1.0
  C  C58  1  0.29170355  0.61151321  0.57084015  1.0
  C  C59  1  0.66377123  0.67064483  0.67655464  1.0
  C  C60  1  0.76164500  0.58867463  0.65139166  1.0
  C  C61  1  0.75453510  0.57001907  0.60769706  1.0
  C  C62  1  0.77400173  0.61123452  0.82856792  1.0
  C  C63  1  0.78336015  0.62143929  0.87243845  1.0
  C  C64  1  0.59536260  0.79496426  0.87430049  1.0
  C  C65  1  0.58499399  0.78454122  0.83056113  1.0
  C  C66  1  0.67533060  0.69365781  0.80672388  1.0
  C  C67  1  0.66984896  0.68721806  0.76117565  1.0
  C  C68  1  0.66879895  0.68146939  0.72148356  1.0
  C  C69  1  0.61951070  0.60534193  0.54701670  1.0
  C  C70  1  0.69484777  0.71411800  0.89541686  1.0
  C  C71  1  0.69707532  0.27793528  0.72348443  1.0
  C  C72  1  0.74442017  0.07144766  0.71477446  1.0
  C  C73  1  0.76079980  0.04669122  0.76520222  1.0
  C  C74  1  0.69062764  0.09424339  0.87812213  1.0
  C  C75  1  0.65511242  0.20038624  0.70405704  1.0
  C  C76  1  0.67950060  0.26285552  0.77494037  1.0
  C  C77  1  0.66368846  0.15031911  0.79124771  1.0
  C  C78  1  0.54433456  0.16763087  0.77725172  1.0
  C  C79  1  0.53224621  0.22006929  0.72824985  1.0
  C  C80  1  0.61440215  0.29120074  0.57070472  1.0
  C  C81  1  0.67287898  0.12225254  0.83900319  1.0
  C  C82  1  0.65078272  0.22495795  0.65595538  1.0
  C  C83  1  0.64269868  0.24536153  0.61591483  1.0
  C  C84  1  0.27971840  0.54803628  0.72711882  1.0
  C  C85  1  0.06520296  0.66066910  0.72056892  1.0
  C  C86  1  0.03589468  0.68376369  0.77033011  1.0
  C  C87  1  0.09595474  0.67825184  0.87871027  1.0
  C  C88  1  0.18594985  0.65992654  0.70331570  1.0
  C  C89  1  0.24682165  0.54255828  0.77835252  1.0
  C  C90  1  0.14871182  0.66253358  0.79065658  1.0
  C  C91  1  0.29622251  0.60588307  0.44463387  1.0
  C  C92  1  0.18808907  0.75779116  0.76894377  1.0
  C  C93  1  0.18804187  0.76889139  0.71762920  1.0
  C  C94  1  0.12220901  0.66803990  0.83875643  1.0
  C  C95  1  0.21217404  0.65254653  0.65531521  1.0
  C  C96  1  0.24118204  0.63971776  0.61566821  1.0
  C  C97  1  0.60751043  0.57991532  0.27298057  1.0
  C  C98  1  0.78398710  0.62074182  0.26817355  1.0
  C  C99  1  0.79044750  0.63813699  0.21639433  1.0
  C  C100  1  0.68315715  0.69640950  0.11178503  1.0
  C  C101  1  0.65444684  0.65885498  0.28859526  1.0
  C  C102  1  0.61425555  0.60911632  0.42508006  1.0
  C  C103  1  0.62048523  0.58737621  0.22114077  1.0
  C  C104  1  0.66678817  0.67871086  0.20106667  1.0
  C  C105  1  0.58263781  0.79796318  0.21928576  1.0
  C  C106  1  0.57871354  0.78708505  0.27097407  1.0
  C  C107  1  0.67471469  0.68844086  0.15255177  1.0
  C  C108  1  0.64651144  0.64623237  0.33716017  1.0
  C  C109  1  0.63824085  0.63431639  0.37794694  1.0
  C  C110  1  0.63018217  0.25401107  0.39776214  1.0
  C  C111  1  0.54785832  0.22650380  0.38314027  1.0
  C  C112  1  0.56011640  0.20081933  0.33932552  1.0
  C  C113  1  0.60979396  0.29239659  0.44342931  1.0
  C  C114  1  0.65536726  0.20252877  0.30883029  1.0
  C  C115  1  0.73860201  0.22908915  0.32393877  1.0
  C  C116  1  0.72586341  0.25447693  0.36786856  1.0
  C  C117  1  0.78337126  0.12328243  0.15037426  1.0
  C  C118  1  0.79355326  0.09492575  0.10711423  1.0
  C  C119  1  0.60498904  0.08724546  0.12254439  1.0
  C  C120  1  0.59399904  0.11592201  0.16584091  1.0
  C  C121  1  0.68363104  0.13348029  0.18059457  1.0
  C  C122  1  0.67424139  0.15891959  0.22513778  1.0
  C  C123  1  0.66619228  0.17904485  0.26389943  1.0
  C  C124  1  0.64568685  0.63199515  0.58898862  1.0
  C  C125  1  0.70499178  0.07598874  0.09291442  1.0
  C  C126  1  0.25085405  0.63058521  0.40012203  1.0
  C  C127  1  0.24115654  0.73082976  0.37188531  1.0
  C  C128  1  0.21011589  0.74630189  0.32868483  1.0
  C  C129  1  0.18810806  0.66127742  0.31291151  1.0
  C  C130  1  0.19538871  0.56190031  0.34197234  1.0
  C  C131  1  0.22659990  0.54698224  0.38498102  1.0
  C  C132  1  0.09932995  0.58872591  0.17222745  1.0
  C  C133  1  0.07220610  0.59446057  0.12841905  1.0
  C  C134  1  0.08331414  0.77948248  0.11175495  1.0
  C  C135  1  0.54999170  0.71665344  0.61308818  1.0
  C  C136  1  0.10914459  0.77429826  0.15472986  1.0
  C  C137  1  0.11663528  0.67916398  0.18618644  1.0
  C  C138  1  0.14066745  0.67479635  0.23035448  1.0
  C  C139  1  0.16134684  0.67228304  0.26851258  1.0
  C  C140  1  0.06304712  0.69182593  0.09761390  1.0
  C  C141  1  0.72370650  0.03973868  0.92208745  1.0
  C  C142  1  0.71329604  0.73305550  0.93992693  1.0
  C  C143  1  0.04487228  0.70554337  0.92363825  1.0
  C  C144  1  0.72300931  0.03432586  0.04802634  1.0
  C  C145  1  0.70935445  0.71841809  0.06457466  1.0
  C  C146  1  0.55913232  0.73721205  0.65542986  1.0
  C  C147  1  0.02484939  0.71578926  0.05133671  1.0
  Cl  Cl148  1  0.90386447  0.02889099  0.77390741  1.0
  Cl  Cl149  1  0.74888398  0.91492738  0.78740094  1.0
  Cl  Cl150  1  0.42296940  0.25667272  0.81400449  1.0
  Cl  Cl151  1  0.61935174  0.42920848  0.70369651  1.0
  Cl  Cl152  1  0.95020655  0.76769453  0.68791337  1.0
  Cl  Cl153  1  0.88925664  0.50800452  0.67629139  1.0
  Cl  Cl154  1  0.87914104  0.47376539  0.57927881  1.0
  Cl  Cl155  1  0.05024731  0.48152483  0.11520124  1.0
  Cl  Cl156  1  0.11199395  0.47105025  0.21034518  1.0
  Cl  Cl157  1  0.44019127  0.84321990  0.68356460  1.0
  O  O158  1  0.51206720  0.31501896  0.56251419  1.0
  O  O159  1  0.51777230  0.68193704  0.44448998  1.0
  O  O160  1  0.68749117  0.51306170  0.44379753  1.0
  O  O161  1  0.68988063  0.31472221  0.45505295  1.0
  O  O162  1  0.49902221  0.49308403  0.50179829  1.0
  O  O163  1  0.03027782  0.80130446  0.93545706  1.0
  O  O164  1  0.82975595  0.00497033  0.92858954  1.0
  O  O165  1  0.64254422  0.02701276  0.95038667  1.0
  O  O166  1  0.64126670  0.82929289  0.95632362  1.0
  O  O167  1  0.80384472  0.65540446  0.95821392  1.0
  O  O168  1  0.01290870  0.63100820  0.94795945  1.0
  O  O169  1  0.30981730  0.51353231  0.56014879  1.0
  O  O170  1  0.00847657  0.81434798  0.03108747  1.0
  O  O171  1  0.81616188  0.02189032  0.02292748  1.0
  O  O172  1  0.64340445  0.00820649  0.03853589  1.0
  O  O173  1  0.63829270  0.81412178  0.04489607  1.0
  O  O174  1  0.80594945  0.64354350  0.04601539  1.0
  O  O175  1  0.00721822  0.63865796  0.03559181  1.0
  O  O176  1  0.83241829  0.83155249  0.99024377  1.0
  O  O177  1  0.31893283  0.68797708  0.54547250  1.0
  O  O178  1  0.52292126  0.67840034  0.53127508  1.0
  O  O179  1  0.68911316  0.50865225  0.53101105  1.0
  O  O180  1  0.69420623  0.30848300  0.54314534  1.0
  O  O181  1  0.51463533  0.30582531  0.46716816  1.0
  O  O182  1  0.31596835  0.50757859  0.46576204  1.0
  O  O183  1  0.31723395  0.68473122  0.45775885  1.0
  O  O184  1  0.32475667  0.32731034  0.52756683  1.0
  O  O185  1  0.01707152  0.98582847  0.96785103  1.0
