# generated using pymatgen
data_ZnH6C13N(OF)4
_symmetry_space_group_name_H-M   'P 1'
_cell_length_a   10.21121815
_cell_length_b   10.98952052
_cell_length_c   11.25741526
_cell_angle_alpha   88.19540281
_cell_angle_beta   84.04165417
_cell_angle_gamma   81.69374621
_symmetry_Int_Tables_number   1
_chemical_formula_structural   ZnH6C13N(OF)4
_chemical_formula_sum   'Zn2 H12 C26 N2 O8 F8'
_cell_volume   1243.08720481
_cell_formula_units_Z   2
loop_
 _symmetry_equiv_pos_site_id
 _symmetry_equiv_pos_as_xyz
  1  'x, y, z'
loop_
 _atom_site_type_symbol
 _atom_site_label
 _atom_site_symmetry_multiplicity
 _atom_site_fract_x
 _atom_site_fract_y
 _atom_site_fract_z
 _atom_site_occupancy
  Zn  Zn0  1  0.36088529  0.51552748  0.49280471  1.0
  Zn  Zn1  1  0.63912089  0.48447108  0.50720422  1.0
  H  H2  1  0.39892482  0.77554477  0.32254614  1.0
  H  H3  1  0.94789928  0.71531355  0.46099748  1.0
  H  H4  1  0.93053058  0.63339938  0.33092808  1.0
  H  H5  1  0.78981377  0.67525786  0.43695731  1.0
  H  H6  1  0.60106358  0.22446122  0.67745084  1.0
  H  H7  1  0.32395306  0.47008322  0.90005688  1.0
  H  H8  1  0.67604894  0.52991721  0.09994703  1.0
  H  H9  1  0.13094781  0.61809859  0.42462613  1.0
  H  H10  1  0.86906005  0.38190181  0.57538704  1.0
  H  H11  1  0.05209952  0.28468230  0.53899885  1.0
  H  H12  1  0.21018669  0.32472695  0.56304096  1.0
  H  H13  1  0.06947498  0.36659095  0.66906514  1.0
  C  C14  1  0.55172460  0.52834151  0.27084371  1.0
  C  C15  1  0.52516403  0.26109515  0.47475678  1.0
  C  C16  1  0.41717142  0.87061531  0.31114436  1.0
  C  C17  1  0.58282544  0.12938699  0.68884663  1.0
  C  C18  1  0.39728867  0.92967295  0.20469363  1.0
  C  C19  1  0.60272227  0.07032749  0.79529527  1.0
  C  C20  1  0.42080805  0.05298786  0.18392775  1.0
  C  C21  1  0.57920456  0.94700797  0.81606291  1.0
  C  C22  1  0.46284747  0.11533764  0.27347617  1.0
  C  C23  1  0.53715292  0.88466098  0.72651283  1.0
  C  C24  1  0.48031929  0.06129892  0.38892701  1.0
  C  C25  1  0.44828314  0.47165981  0.72916500  1.0
  C  C26  1  0.51967631  0.93870522  0.61106582  1.0
  C  C27  1  0.45859147  0.93436820  0.40626421  1.0
  C  C28  1  0.54140481  0.06563134  0.59373046  1.0
  C  C29  1  0.51947124  0.12486277  0.48285829  1.0
  C  C30  1  0.48052660  0.87513953  0.51713528  1.0
  C  C31  1  0.10289057  0.35598043  0.57329316  1.0
  C  C32  1  0.89711327  0.64400805  0.42670382  1.0
  C  C33  1  0.57509715  0.52480651  0.13934967  1.0
  C  C34  1  0.42490723  0.47520402  0.86065819  1.0
  C  C35  1  0.48554095  0.50613766  0.06445262  1.0
  C  C36  1  0.51445457  0.49387931  0.93555674  1.0
  C  C37  1  0.92863179  0.52438922  0.49162450  1.0
  C  C38  1  0.07137020  0.47559834  0.50837711  1.0
  C  C39  1  0.47483842  0.73890253  0.52524096  1.0
  N  N40  1  0.83576981  0.46253330  0.53273845  1.0
  N  N41  1  0.16424287  0.53746802  0.46726627  1.0
  O  O42  1  0.43228204  0.54714065  0.31975284  1.0
  O  O43  1  0.56772582  0.45285332  0.68025606  1.0
  O  O44  1  0.65647165  0.51116354  0.32549209  1.0
  O  O45  1  0.34353554  0.48883503  0.67451407  1.0
  O  O46  1  0.36309551  0.70191423  0.52435489  1.0
  O  O47  1  0.63690539  0.29808713  0.47564377  1.0
  O  O48  1  0.58768719  0.67228302  0.52498086  1.0
  O  O49  1  0.41231188  0.32771742  0.47501887  1.0
  F  F50  1  0.59624709  0.89304321  0.92372481  1.0
  F  F51  1  0.40377372  0.10695078  0.07625806  1.0
  F  F52  1  0.35476647  0.87228453  0.11415440  1.0
  F  F53  1  0.64525084  0.12771315  0.88582691  1.0
  F  F54  1  0.49118823  0.23041058  0.24775345  1.0
  F  F55  1  0.50881073  0.76959079  0.75224005  1.0
  F  F56  1  0.64196883  0.50571935  0.89681927  1.0
  F  F57  1  0.35802598  0.49430865  0.10319605  1.0
