# generated using pymatgen
data_ZnH11C21BrNO4
_symmetry_space_group_name_H-M   'P 1'
_cell_length_a   9.58671455
_cell_length_b   11.01789581
_cell_length_c   15.29375528
_cell_angle_alpha   89.57785096
_cell_angle_beta   90.81128207
_cell_angle_gamma   89.92958503
_symmetry_Int_Tables_number   1
_chemical_formula_structural   ZnH11C21BrNO4
_chemical_formula_sum   'Zn2 H22 C42 Br2 N2 O8'
_cell_volume   1615.20214203
_cell_formula_units_Z   2
loop_
 _symmetry_equiv_pos_site_id
 _symmetry_equiv_pos_as_xyz
  1  'x, y, z'
loop_
 _atom_site_type_symbol
 _atom_site_label
 _atom_site_symmetry_multiplicity
 _atom_site_fract_x
 _atom_site_fract_y
 _atom_site_fract_z
 _atom_site_occupancy
  Zn  Zn0  1  0.64212649  0.50123302  0.50220730  1.0
  Zn  Zn1  1  0.35788908  0.49876131  0.49778987  1.0
  H  H2  1  0.58684426  0.66833935  0.77368107  1.0
  H  H3  1  0.41326211  0.33162052  0.22631459  1.0
  H  H4  1  0.63123486  0.79015239  0.07374495  1.0
  H  H5  1  0.36883503  0.20982109  0.92625445  1.0
  H  H6  1  0.28625951  0.88636196  0.45686056  1.0
  H  H7  1  0.71371737  0.11362797  0.54319278  1.0
  H  H8  1  0.28771572  0.11483421  0.45362449  1.0
  H  H9  1  0.71225710  0.88515847  0.54643667  1.0
  H  H10  1  0.13543766  0.33212685  0.56293803  1.0
  H  H11  1  0.86457786  0.66787383  0.43705648  1.0
  H  H12  1  0.13328023  0.66534409  0.43530195  1.0
  H  H13  1  0.86673636  0.33465478  0.56469454  1.0
  H  H14  1  0.19094778  0.34290219  0.74922368  1.0
  H  H15  1  0.10484785  0.15009984  0.68352537  1.0
  H  H16  1  0.26657219  0.97431115  0.66792354  1.0
  H  H17  1  0.51288088  0.99180778  0.71884480  1.0
  H  H18  1  0.59781892  0.18402932  0.78530925  1.0
  H  H19  1  0.40196009  0.81582478  0.21455818  1.0
  H  H20  1  0.48656749  0.00815787  0.28103744  1.0
  H  H21  1  0.73279957  0.02588628  0.33208511  1.0
  H  H22  1  0.89476634  0.85023322  0.31658821  1.0
  H  H23  1  0.80896701  0.65733114  0.25088868  1.0
  C  C24  1  0.49938533  0.73774119  0.50264461  1.0
  C  C25  1  0.50061279  0.26225228  0.49736953  1.0
  C  C26  1  0.59509389  0.70913189  0.04009987  1.0
  C  C27  1  0.40496972  0.29084976  0.95989881  1.0
  C  C28  1  0.37905237  0.93725210  0.47594073  1.0
  C  C29  1  0.62092025  0.06274508  0.52410863  1.0
  C  C30  1  0.37995281  0.06335450  0.47379342  1.0
  C  C31  1  0.62001691  0.93663545  0.52626907  1.0
  C  C32  1  0.50096364  0.12671810  0.49786654  1.0
  C  C33  1  0.49900793  0.87327363  0.50218155  1.0
  C  C34  1  0.07334059  0.40635556  0.53519447  1.0
  C  C35  1  0.92667381  0.59363966  0.46479484  1.0
  C  C36  1  0.07179718  0.59220271  0.46362604  1.0
  C  C37  1  0.92821831  0.40779705  0.53636651  1.0
  C  C38  1  0.50062426  0.50962281  0.32877570  1.0
  C  C39  1  0.49941218  0.49036518  0.67122091  1.0
  C  C40  1  0.44950769  0.38823870  0.81632967  1.0
  C  C41  1  0.55049743  0.61174655  0.18366492  1.0
  C  C42  1  0.49812094  0.48921791  0.76941755  1.0
  C  C43  1  0.50191240  0.51076463  0.23058040  1.0
  C  C44  1  0.54785696  0.59231157  0.81213666  1.0
  C  C45  1  0.45221282  0.40765917  0.18785492  1.0
  C  C46  1  0.54807497  0.60016674  0.90343938  1.0
  C  C47  1  0.45200736  0.39980673  0.09655482  1.0
  C  C48  1  0.50002553  0.49836047  0.95344289  1.0
  C  C49  1  0.50004546  0.50162574  0.04656101  1.0
  C  C50  1  0.45172973  0.39220813  0.90895038  1.0
  C  C51  1  0.54831510  0.60777896  0.09104887  1.0
  C  C52  1  0.59464872  0.70477323  0.95104035  1.0
  C  C53  1  0.40542011  0.29520389  0.04895837  1.0
  C  C54  1  0.39994082  0.27620853  0.77141951  1.0
  C  C55  1  0.26122549  0.26583104  0.74199109  1.0
  C  C56  1  0.21363700  0.15782550  0.70492346  1.0
  C  C57  1  0.30367428  0.05884175  0.69658527  1.0
  C  C58  1  0.44212961  0.06872541  0.72505518  1.0
  C  C59  1  0.48998281  0.17673283  0.76210839  1.0
  C  C60  1  0.59991806  0.72382928  0.22856850  1.0
  C  C61  1  0.50975730  0.82324305  0.23781893  1.0
  C  C62  1  0.55743611  0.93130575  0.27486678  1.0
  C  C63  1  0.69585170  0.94131757  0.30340896  1.0
  C  C64  1  0.78600953  0.84240752  0.29511503  1.0
  C  C65  1  0.73857473  0.73433672  0.25806128  1.0
  Br  Br66  1  0.65849616  0.84452204  0.88875427  1.0
  Br  Br67  1  0.34163521  0.15544056  0.11123947  1.0
  N  N68  1  0.85677901  0.50126916  0.50124729  1.0
  N  N69  1  0.14323649  0.49872788  0.49874594  1.0
  O  O70  1  0.61807800  0.68570521  0.50658202  1.0
  O  O71  1  0.38190655  0.31429823  0.49343202  1.0
  O  O72  1  0.61855857  0.31556721  0.50083699  1.0
  O  O73  1  0.38142801  0.68442261  0.49917191  1.0
  O  O74  1  0.61821869  0.50970109  0.36822816  1.0
  O  O75  1  0.38180836  0.49029870  0.63176965  1.0
  O  O76  1  0.61854322  0.49431679  0.63586578  1.0
  O  O77  1  0.38148183  0.50566576  0.36413542  1.0
