# generated using pymatgen
data_Zn2H11C27Br2N8Cl
_symmetry_space_group_name_H-M   'P 1'
_cell_length_a   18.54520526
_cell_length_b   18.63620784
_cell_length_c   18.64528982
_cell_angle_alpha   102.47115017
_cell_angle_beta   110.29910241
_cell_angle_gamma   109.93151827
_symmetry_Int_Tables_number   1
_chemical_formula_structural   Zn2H11C27Br2N8Cl
_chemical_formula_sum   'Zn4 H22 C54 Br4 N16 Cl2'
_cell_volume   5257.81611503
_cell_formula_units_Z   2
loop_
 _symmetry_equiv_pos_site_id
 _symmetry_equiv_pos_as_xyz
  1  'x, y, z'
loop_
 _atom_site_type_symbol
 _atom_site_label
 _atom_site_symmetry_multiplicity
 _atom_site_fract_x
 _atom_site_fract_y
 _atom_site_fract_z
 _atom_site_occupancy
  Zn  Zn98  1  0.12140956  0.59969723  0.48458500  1.0
  Zn  Zn99  1  0.12135872  0.48466389  0.59968362  1.0
  Zn  Zn100  1  0.90215611  0.39175180  0.50282070  1.0
  Zn  Zn101  1  0.90232004  0.50279626  0.39188544  1.0
  H  H60  1  0.37683163  0.90095400  0.98940495  1.0
  H  H61  1  0.37653253  0.98963995  0.90054860  1.0
  H  H62  1  0.44480798  0.00083602  0.85284572  1.0
  H  H63  1  0.44534035  0.85319212  0.00095235  1.0
  H  H64  1  0.55438532  0.11750959  0.96974913  1.0
  H  H65  1  0.55484093  0.96990511  0.11787544  1.0
  H  H66  1  0.54190896  0.87126235  0.93198380  1.0
  H  H67  1  0.54159379  0.93181709  0.87125683  1.0
  H  H68  1  0.65133212  0.98784532  0.04878273  1.0
  H  H69  1  0.65093155  0.04843528  0.98797093  1.0
  H  H70  1  0.85640798  0.63511819  0.48578717  1.0
  H  H71  1  0.85665170  0.48579365  0.63490006  1.0
  H  H72  1  0.19718657  0.61964878  0.76859014  1.0
  H  H73  1  0.19679083  0.76814306  0.61940404  1.0
  H  H74  1  0.32324871  0.65867171  0.50984877  1.0
  H  H75  1  0.32372054  0.50971738  0.65893886  1.0
  H  H76  1  0.73543039  0.21555908  0.36416749  1.0
  H  H77  1  0.73531813  0.36407355  0.21517918  1.0
  H  H78  1  0.86656930  0.36706418  0.22854490  1.0
  H  H79  1  0.86659903  0.22886714  0.36709752  1.0
  H  H80  1  0.48604853  0.01738023  0.10600226  1.0
  H  H81  1  0.48583742  0.10609053  0.01711588  1.0
  C  C4  1  0.07782004  0.73521063  0.43103797  1.0
  C  C5  1  0.07791679  0.43118410  0.73554382  1.0
  C  C6  1  0.93460839  0.40962144  0.26579677  1.0
  C  C7  1  0.93469394  0.26608081  0.40967069  1.0
  C  C8  1  0.07496194  0.31558702  0.48701422  1.0
  C  C9  1  0.07468791  0.48686609  0.31554262  1.0
  C  C10  1  0.36221430  0.59254391  0.59283918  1.0
  C  C11  1  0.71426372  0.25741303  0.25725080  1.0
  C  C12  1  0.00022807  0.42902962  0.24105090  1.0
  C  C13  1  0.00051551  0.24126475  0.42916325  1.0
  C  C14  1  0.44083597  0.90950708  0.99641400  1.0
  C  C15  1  0.44051248  0.99643630  0.90921865  1.0
  C  C16  1  0.51271608  0.07337982  0.98624723  1.0
  C  C17  1  0.51300482  0.98642541  0.07349402  1.0
  C  C18  1  0.66766195  0.18510489  0.18501849  1.0
  C  C19  1  0.44671655  0.91745274  0.91734034  1.0
  C  C20  1  0.56987521  0.04869434  0.04882689  1.0
  C  C21  1  0.93632897  0.36952376  0.66893906  1.0
  C  C22  1  0.93623790  0.66900246  0.36955129  1.0
  C  C23  1  0.60948906  0.00498183  0.00518389  1.0
  C  C24  1  0.53647882  0.92716802  0.92724992  1.0
  C  C25  1  0.63135004  0.12278045  0.12293224  1.0
  C  C26  1  0.37347660  0.84632934  0.84619992  1.0
  C  C27  1  0.30434941  0.79108264  0.79119559  1.0
  C  C28  1  0.00086028  0.38992732  0.82014363  1.0
  C  C29  1  0.00043957  0.81989517  0.38969566  1.0
  C  C30  1  0.99683181  0.38695586  0.88401694  1.0
  C  C31  1  0.99668814  0.88394311  0.38683799  1.0
  C  C32  1  0.99362967  0.38622162  0.95449822  1.0
  C  C33  1  0.99362794  0.95452667  0.38616906  1.0
  C  C34  1  0.99206360  0.38826978  0.02067051  1.0
  C  C35  1  0.99210109  0.02074790  0.38823627  1.0
  C  C36  1  0.99258588  0.39534181  0.09387936  1.0
  C  C37  1  0.99268081  0.09400262  0.39533319  1.0
  C  C38  1  0.86454816  0.59323823  0.51665790  1.0
  C  C39  1  0.86471048  0.51670926  0.59310396  1.0
  C  C40  1  0.99416344  0.40606995  0.16200834  1.0
  C  C41  1  0.99444918  0.16222990  0.40619314  1.0
  C  C42  1  0.44587908  0.60652595  0.60686003  1.0
  C  C43  1  0.51740332  0.61486358  0.61499518  1.0
  C  C44  1  0.59266210  0.61936660  0.61943353  1.0
  C  C45  1  0.65928079  0.61921504  0.61925102  1.0
  C  C46  1  0.72673175  0.61263612  0.61262167  1.0
  C  C47  1  0.78359515  0.60064322  0.60049753  1.0
  C  C48  1  0.18510544  0.64384955  0.71997308  1.0
  C  C49  1  0.18484430  0.71968672  0.64371064  1.0
  C  C50  1  0.00456811  0.74808628  0.39556362  1.0
  C  C51  1  0.00488237  0.39573254  0.74831771  1.0
  C  C52  1  0.83726412  0.57571279  0.57556678  1.0
  C  C53  1  0.22876258  0.72428538  0.72441756  1.0
  C  C54  1  0.30876429  0.61966132  0.54353312  1.0
  C  C55  1  0.30899196  0.54337633  0.61983065  1.0
  C  C56  1  0.74601385  0.26432598  0.34016053  1.0
  C  C57  1  0.74603308  0.34015417  0.26408030  1.0
  Br  Br0  1  0.19395271  0.81169868  0.47812327  1.0
  Br  Br1  1  0.19422986  0.47832868  0.81232367  1.0
  Br  Br2  1  0.18606211  0.32752222  0.54334692  1.0
  Br  Br3  1  0.18551385  0.54307860  0.32753843  1.0
  N  N82  1  0.05510714  0.65757275  0.42678656  1.0
  N  N83  1  0.05492698  0.42677693  0.65771810  1.0
  N  N84  1  0.96597499  0.38769789  0.61575499  1.0
  N  N85  1  0.96617367  0.61583592  0.38789418  1.0
  N  N86  1  0.90280647  0.54674614  0.49977987  1.0
  N  N87  1  0.90291937  0.49978593  0.54672720  1.0
  N  N88  1  0.12277436  0.59472350  0.64186493  1.0
  N  N89  1  0.12259652  0.64175578  0.59457382  1.0
  N  N90  1  0.23097729  0.58864865  0.54121513  1.0
  N  N91  1  0.23107652  0.54122591  0.58861290  1.0
  N  N92  1  0.79502942  0.34412599  0.39153299  1.0
  N  N93  1  0.79508543  0.39150899  0.34401787  1.0
  N  N94  1  0.96750382  0.45334684  0.34698498  1.0
  N  N95  1  0.96746104  0.34716200  0.45336263  1.0
  N  N96  1  0.05455024  0.37804165  0.50051066  1.0
  N  N97  1  0.05449077  0.50040242  0.37801356  1.0
  Cl  Cl58  1  0.82843858  0.32138322  0.63814386  1.0
  Cl  Cl59  1  0.82825663  0.63843401  0.32135338  1.0
