# generated using pymatgen
data_Al2H5C20(SO9)2
_symmetry_space_group_name_H-M   'P 1'
_cell_length_a   6.84904583
_cell_length_b   18.73545042
_cell_length_c   21.82829500
_cell_angle_alpha   86.89939522
_cell_angle_beta   86.41536221
_cell_angle_gamma   86.26990651
_symmetry_Int_Tables_number   1
_chemical_formula_structural   Al2H5C20(SO9)2
_chemical_formula_sum   'Al4 H10 C40 S4 O36'
_cell_volume   2786.08287898
_cell_formula_units_Z   2
loop_
 _symmetry_equiv_pos_site_id
 _symmetry_equiv_pos_as_xyz
  1  'x, y, z'
loop_
 _atom_site_type_symbol
 _atom_site_label
 _atom_site_symmetry_multiplicity
 _atom_site_fract_x
 _atom_site_fract_y
 _atom_site_fract_z
 _atom_site_occupancy
  Al  Al0  1  0.78338376  0.26679321  0.25947713  1.0
  Al  Al1  1  0.22565495  0.73723748  0.73981958  1.0
  Al  Al2  1  0.28421695  0.26589862  0.25987115  1.0
  Al  Al3  1  0.72500454  0.73612882  0.73889248  1.0
  H  H4  1  0.01835238  0.15411976  0.86153534  1.0
  H  H5  1  0.87306257  0.90174823  0.14893091  1.0
  H  H6  1  0.66874544  0.06170908  0.82528947  1.0
  H  H7  1  0.19407127  0.92606153  0.18119785  1.0
  H  H8  1  0.27775862  0.90844752  0.84963638  1.0
  H  H9  1  0.44034687  0.08537610  0.99860591  1.0
  H  H10  1  0.55520559  0.17860966  0.23731123  1.0
  H  H11  1  0.46764919  0.82365115  0.70804769  1.0
  H  H12  1  0.02271801  0.35895160  0.24379170  1.0
  H  H13  1  0.99599307  0.64422091  0.73089035  1.0
  C  C14  1  0.53572702  0.35366479  0.17489040  1.0
  C  C15  1  0.46978615  0.65502921  0.82656009  1.0
  C  C16  1  0.50148881  0.34617442  0.34176920  1.0
  C  C17  1  0.50696063  0.65209437  0.65973002  1.0
  C  C18  1  0.02962272  0.17861874  0.34322416  1.0
  C  C19  1  0.97977857  0.82487059  0.65477762  1.0
  C  C20  1  0.06593949  0.18491561  0.17838535  1.0
  C  C21  1  0.93920240  0.81849627  0.81989948  1.0
  C  C22  1  0.88298438  0.03602679  0.95274069  1.0
  C  C23  1  0.10710881  0.97097682  0.04207441  1.0
  C  C24  1  0.09247829  0.05783450  0.96807960  1.0
  C  C25  1  0.89778705  0.94899235  0.02793599  1.0
  C  C26  1  0.07483975  0.13911836  0.12720766  1.0
  C  C27  1  0.92614840  0.86387414  0.87125255  1.0
  C  C28  1  0.82145731  0.03088089  0.02478255  1.0
  C  C29  1  0.16826819  0.97580694  0.97189141  1.0
  C  C30  1  0.03218801  0.05251201  0.03924194  1.0
  C  C31  1  0.95726562  0.95454886  0.95692249  1.0
  C  C32  1  0.06411250  0.10075934  0.08470499  1.0
  C  C33  1  0.92946678  0.90445172  0.91258989  1.0
  C  C34  1  0.98133453  0.87837793  0.60503245  1.0
  C  C35  1  0.02682397  0.12514947  0.39330956  1.0
  C  C36  1  0.98888195  0.92586960  0.56416179  1.0
  C  C37  1  0.01866316  0.07801137  0.43443036  1.0
  C  C38  1  0.99833228  0.97793809  0.51970005  1.0
  C  C39  1  0.00862048  0.02608993  0.47901058  1.0
  C  C40  1  0.53197422  0.40044423  0.12045589  1.0
  C  C41  1  0.47284179  0.60845439  0.88092849  1.0
  C  C42  1  0.52112732  0.44029543  0.07417869  1.0
  C  C43  1  0.48330004  0.56845487  0.92713034  1.0
  C  C44  1  0.50844839  0.48411166  0.02377159  1.0
  C  C45  1  0.49546416  0.52464833  0.97754817  1.0
  C  C46  1  0.48952497  0.39344322  0.39197471  1.0
  C  C47  1  0.51616335  0.60494791  0.60965396  1.0
  C  C48  1  0.49230115  0.43434149  0.43387496  1.0
  C  C49  1  0.51190108  0.56449976  0.56745894  1.0
  C  C50  1  0.49781357  0.47901230  0.47960230  1.0
  C  C51  1  0.50579911  0.52014913  0.52151875  1.0
  C  C52  1  0.78875610  0.07412642  0.89853966  1.0
  C  C53  1  0.22092917  0.93960225  0.09422092  1.0
  S  S54  1  0.20106437  0.13687695  0.93446316  1.0
  S  S55  1  0.83463908  0.86239520  0.06223163  1.0
  S  S56  1  0.37545719  0.92699976  0.93778076  1.0
  S  S57  1  0.63378471  0.07909450  0.06915865  1.0
  O  O58  1  0.34116150  0.32587504  0.32439268  1.0
  O  O59  1  0.66922249  0.67267851  0.67591434  1.0
  O  O60  1  0.70392850  0.33448241  0.19432099  1.0
  O  O61  1  0.30223872  0.67702004  0.80822864  1.0
  O  O62  1  0.89321426  0.20089015  0.20063402  1.0
  O  O63  1  0.11322296  0.80608172  0.79650036  1.0
  O  O64  1  0.67433673  0.33038175  0.31966202  1.0
  O  O65  1  0.33479531  0.66793182  0.68295975  1.0
  O  O66  1  0.86260668  0.20109035  0.32526871  1.0
  O  O67  1  0.14767333  0.80227260  0.67258880  1.0
  O  O68  1  0.36832836  0.33706333  0.19846118  1.0
  O  O69  1  0.63654023  0.66929901  0.80124123  1.0
  O  O70  1  0.54203807  0.22316651  0.25844601  1.0
  O  O71  1  0.46881863  0.78090006  0.73527209  1.0
  O  O72  1  0.19762233  0.19641035  0.32193537  1.0
  O  O73  1  0.81194863  0.80666225  0.67651316  1.0
  O  O74  1  0.22754194  0.20340146  0.19646406  1.0
  O  O75  1  0.78073417  0.79755772  0.80223742  1.0
  O  O76  1  0.02709657  0.30909148  0.25842208  1.0
  O  O77  1  0.98329762  0.69449876  0.73986629  1.0
  O  O78  1  0.10716622  0.19701290  0.96418414  1.0
  O  O79  1  0.41176166  0.12260703  0.93508574  1.0
  O  O80  1  0.16160617  0.13895721  0.86391416  1.0
  O  O81  1  0.67804536  0.83364429  0.03378668  1.0
  O  O82  1  0.02528099  0.82472445  0.06255080  1.0
  O  O83  1  0.76171701  0.88122608  0.13021630  1.0
  O  O84  1  0.78919267  0.13950337  0.88914752  1.0
  O  O85  1  0.72496513  0.03100929  0.85845952  1.0
  O  O86  1  0.38916996  0.91683690  0.09193113  1.0
  O  O87  1  0.10708795  0.94366638  0.14889094  1.0
  O  O88  1  0.54767928  0.95949135  0.95283368  1.0
  O  O89  1  0.34538416  0.85273119  0.94978998  1.0
  O  O90  1  0.34704265  0.94729624  0.86597110  1.0
  O  O91  1  0.63437377  0.04851375  0.13077424  1.0
  O  O92  1  0.66397942  0.15339143  0.05482564  1.0
  O  O93  1  0.44269418  0.05894069  0.04068285  1.0
