# generated using pymatgen
data_AlH18(C9O2)3
_symmetry_space_group_name_H-M   'P 1'
_cell_length_a   3.95537433
_cell_length_b   28.99914166
_cell_length_c   28.99955710
_cell_angle_alpha   60.00190466
_cell_angle_beta   89.99352650
_cell_angle_gamma   89.99371943
_symmetry_Int_Tables_number   1
_chemical_formula_structural   AlH18(C9O2)3
_chemical_formula_sum   'Al2 H36 C54 O12'
_cell_volume   2880.73336285
_cell_formula_units_Z   2
loop_
 _symmetry_equiv_pos_site_id
 _symmetry_equiv_pos_as_xyz
  1  'x, y, z'
loop_
 _atom_site_type_symbol
 _atom_site_label
 _atom_site_symmetry_multiplicity
 _atom_site_fract_x
 _atom_site_fract_y
 _atom_site_fract_z
 _atom_site_occupancy
  Al  Al0  1  0.01963663  0.00000192  0.49999980  1.0
  Al  Al1  1  0.01933532  0.66666925  0.16665979  1.0
  H  H2  1  0.43125984  0.52081460  0.31156879  1.0
  H  H3  1  0.42823413  0.42143341  0.36297713  1.0
  H  H4  1  0.51023631  0.41958476  0.21583870  1.0
  H  H5  1  0.51026854  0.24709018  0.45082153  1.0
  H  H6  1  0.43177824  0.14584709  0.35510006  1.0
  H  H7  1  0.42868317  0.24522869  0.30368675  1.0
  H  H8  1  0.43104386  0.81157366  0.16762147  1.0
  H  H9  1  0.42804177  0.86297841  0.21559535  1.0
  H  H10  1  0.51030039  0.71583693  0.36457357  1.0
  H  H11  1  0.51016853  0.95082780  0.30208812  1.0
  H  H12  1  0.43200686  0.85510117  0.49905667  1.0
  H  H13  1  0.42883706  0.80368624  0.45108947  1.0
  H  H14  1  0.43115045  0.66762480  0.02079979  1.0
  H  H15  1  0.42816402  0.71560363  0.92142103  1.0
  H  H16  1  0.51042604  0.86458135  0.91958418  1.0
  H  H17  1  0.51011103  0.80208705  0.74708271  1.0
  H  H18  1  0.43204943  0.99906317  0.64584384  1.0
  H  H19  1  0.42900292  0.95109294  0.74522520  1.0
  H  H20  1  0.80786307  0.53241902  0.13485876  1.0
  H  H21  1  0.41844587  0.56468352  0.12866465  1.0
  H  H22  1  0.42599977  0.50127435  0.13267100  1.0
  H  H23  1  0.80786481  0.13428271  0.53182187  1.0
  H  H24  1  0.41864523  0.10198379  0.53800510  1.0
  H  H25  1  0.42577010  0.16539652  0.53398855  1.0
  H  H26  1  0.80790809  0.63486426  0.33271614  1.0
  H  H27  1  0.41857418  0.62866578  0.30664333  1.0
  H  H28  1  0.42598432  0.63266835  0.36604831  1.0
  H  H29  1  0.80780465  0.03183108  0.33388872  1.0
  H  H30  1  0.41854726  0.03800392  0.36001799  1.0
  H  H31  1  0.42571729  0.03399217  0.30061951  1.0
  H  H32  1  0.80792747  0.83272054  0.03241454  1.0
  H  H33  1  0.41854641  0.80665347  0.06468485  1.0
  H  H34  1  0.42603284  0.86605526  0.00127638  1.0
  H  H35  1  0.80763359  0.83388323  0.63426785  1.0
  H  H36  1  0.41840312  0.86002300  0.60197825  1.0
  H  H37  1  0.42553730  0.80062158  0.66538570  1.0
  C  C38  1  0.51478204  0.95925179  0.58203599  1.0
  C  C39  1  0.51475992  0.08203967  0.45871186  1.0
  C  C40  1  0.51485818  0.95871554  0.45924958  1.0
  C  C41  1  0.51455067  0.58463088  0.20795772  1.0
  C  C42  1  0.51448780  0.70796456  0.20740281  1.0
  C  C43  1  0.51453108  0.70741040  0.08462363  1.0
  C  C44  1  0.49435933  0.52556280  0.23562920  1.0
  C  C45  1  0.45451989  0.49802171  0.29112421  1.0
  C  C46  1  0.45114416  0.44284948  0.31975272  1.0
  C  C47  1  0.47518238  0.41390968  0.29267197  1.0
  C  C48  1  0.50110893  0.44212208  0.23671270  1.0
  C  C49  1  0.51584895  0.49760594  0.20751542  1.0
  C  C50  1  0.47163783  0.35763663  0.32104076  1.0
  C  C51  1  0.47171377  0.30903208  0.34561443  1.0
  C  C52  1  0.47539735  0.25275862  0.37398886  1.0
  C  C53  1  0.50124846  0.22455050  0.42994856  1.0
  C  C54  1  0.51603029  0.16906699  0.45915018  1.0
  C  C55  1  0.49463144  0.14110742  0.43103890  1.0
  C  C56  1  0.45487790  0.16864229  0.37554369  1.0
  C  C57  1  0.45150838  0.22381374  0.34691219  1.0
  C  C58  1  0.49430450  0.73563093  0.23880468  1.0
  C  C59  1  0.45435856  0.79112578  0.21085643  1.0
  C  C60  1  0.45099629  0.81975355  0.23740131  1.0
  C  C61  1  0.47510747  0.79267367  0.29341979  1.0
  C  C62  1  0.50109239  0.73671378  0.32116335  1.0
  C  C63  1  0.51583683  0.70751818  0.29487341  1.0
  C  C64  1  0.47162107  0.82104380  0.32132390  1.0
  C  C65  1  0.47170724  0.84561869  0.34535385  1.0
  C  C66  1  0.47541358  0.87399200  0.37325423  1.0
  C  C67  1  0.50120632  0.92995338  0.34550008  1.0
  C  C68  1  0.51602671  0.95915409  0.37178301  1.0
  C  C69  1  0.49476716  0.93104247  0.42785458  1.0
  C  C70  1  0.45505891  0.87554473  0.45581732  1.0
  C  C71  1  0.45162790  0.84691300  0.42927691  1.0
  C  C72  1  0.49437289  0.73881062  0.02555579  1.0
  C  C73  1  0.45445665  0.71086104  0.99801137  1.0
  C  C74  1  0.45110711  0.73740671  0.94284196  1.0
  C  C75  1  0.47523405  0.79342706  0.91390279  1.0
  C  C76  1  0.50121661  0.82117001  0.94211928  1.0
  C  C77  1  0.51592771  0.79487968  0.99760258  1.0
  C  C78  1  0.47172745  0.82132760  0.85763257  1.0
  C  C79  1  0.47178530  0.84535686  0.80902226  1.0
  C  C80  1  0.47542593  0.87325580  0.75275207  1.0
  C  C81  1  0.50115277  0.84549961  0.72454443  1.0
  C  C82  1  0.51592055  0.87178392  0.66906142  1.0
  C  C83  1  0.49466844  0.92785642  0.64110355  1.0
  C  C84  1  0.45504920  0.95582190  0.66863871  1.0
  C  C85  1  0.45168130  0.92927982  0.72380985  1.0
  C  C86  1  0.54222159  0.52559413  0.14771479  1.0
  C  C87  1  0.54226203  0.14108349  0.51895275  1.0
  C  C88  1  0.54226535  0.64771762  0.32668485  1.0
  C  C89  1  0.54220310  0.01895801  0.33996403  1.0
  C  C90  1  0.54229597  0.82669075  0.02559360  1.0
  C  C91  1  0.54204861  0.83996536  0.64107505  1.0
  O  O92  1  0.75846414  0.99122104  0.44929620  1.0
  O  O93  1  0.75842816  0.94929985  0.55948236  1.0
  O  O94  1  0.75838177  0.05948835  0.49121531  1.0
  O  O95  1  0.28916571  0.94769868  0.49487646  1.0
  O  O96  1  0.28909617  0.05742944  0.44769869  1.0
  O  O97  1  0.28907465  0.99487415  0.55742998  1.0
  O  O98  1  0.75817639  0.71736501  0.10716740  1.0
  O  O99  1  0.75824806  0.60716936  0.17546251  1.0
  O  O100  1  0.75815809  0.67546374  0.21735532  1.0
  O  O101  1  0.28890824  0.67177971  0.10924231  1.0
  O  O102  1  0.28887279  0.71897826  0.17177221  1.0
  O  O103  1  0.28890693  0.60925468  0.21896673  1.0
