# generated using pymatgen
data_ZnH6C11NO5
_symmetry_space_group_name_H-M   'P 1'
_cell_length_a   9.75903751
_cell_length_b   11.05001532
_cell_length_c   11.90386902
_cell_angle_alpha   90.18750996
_cell_angle_beta   91.84157383
_cell_angle_gamma   91.11480564
_symmetry_Int_Tables_number   1
_chemical_formula_structural   ZnH6C11NO5
_chemical_formula_sum   'Zn2 H12 C22 N2 O10'
_cell_volume   1282.76801509
_cell_formula_units_Z   2
loop_
 _symmetry_equiv_pos_site_id
 _symmetry_equiv_pos_as_xyz
  1  'x, y, z'
loop_
 _atom_site_type_symbol
 _atom_site_label
 _atom_site_symmetry_multiplicity
 _atom_site_fract_x
 _atom_site_fract_y
 _atom_site_fract_z
 _atom_site_occupancy
  Zn  Zn0  1  0.63712226  0.50571152  0.50611377  1.0
  Zn  Zn1  1  0.34897572  0.50053524  0.49668808  1.0
  H  H2  1  0.27329550  0.11074127  0.47042028  1.0
  H  H3  1  0.86650114  0.29469335  0.68292298  1.0
  H  H4  1  0.13971355  0.42521481  0.75472686  1.0
  H  H5  1  0.12345686  0.28719343  0.67575051  1.0
  H  H6  1  0.27363537  0.88620027  0.47404280  1.0
  H  H7  1  0.81587082  0.92381474  0.44742538  1.0
  H  H8  1  0.77741790  0.09315761  0.64618347  1.0
  H  H9  1  0.11595038  0.59592763  0.34755911  1.0
  H  H10  1  0.85801343  0.59970189  0.35244944  1.0
  H  H11  1  0.87913895  0.43301940  0.76174390  1.0
  H  H12  1  0.76682137  0.78898216  0.61109938  1.0
  H  H13  1  0.78299470  0.22344326  0.46766722  1.0
  C  C14  1  0.49240257  0.26750886  0.49983241  1.0
  C  C15  1  0.49097857  0.13303826  0.50240592  1.0
  C  C16  1  0.36937375  0.06366795  0.48481523  1.0
  C  C17  1  0.36970734  0.93721771  0.48608728  1.0
  C  C18  1  0.49197199  0.87255653  0.50177948  1.0
  C  C19  1  0.61174243  0.94238529  0.51562077  1.0
  C  C20  1  0.76680966  0.93763672  0.52882768  1.0
  C  C21  1  0.76124350  0.07910421  0.55455574  1.0
  C  C22  1  0.06788815  0.44917411  0.57875346  1.0
  C  C23  1  0.06124039  0.55414891  0.41628285  1.0
  C  C24  1  0.91863872  0.55684696  0.41919018  1.0
  C  C25  1  0.49728990  0.49908466  0.72079250  1.0
  C  C26  1  0.92515534  0.45270268  0.58229306  1.0
  C  C27  1  0.91960854  0.38279111  0.69086750  1.0
  C  C28  1  0.08228876  0.37808297  0.68640666  1.0
  C  C29  1  0.49280983  0.73803436  0.50384866  1.0
  C  C30  1  0.49202729  0.50841420  0.28226882  1.0
  C  C31  1  0.49816710  0.50009787  0.84215941  1.0
  C  C32  1  0.49811937  0.50277065  0.94498168  1.0
  C  C33  1  0.49728266  0.50568614  0.05833413  1.0
  C  C34  1  0.49575246  0.50817268  0.16106855  1.0
  C  C35  1  0.61016186  0.06791471  0.52156631  1.0
  N  N36  1  0.13920140  0.49938604  0.49738239  1.0
  N  N37  1  0.84735149  0.50563163  0.50393343  1.0
  O  O38  1  0.60850681  0.32036275  0.48452849  1.0
  O  O39  1  0.37941557  0.32028818  0.51261528  1.0
  O  O40  1  0.61163252  0.47949103  0.67575198  1.0
  O  O41  1  0.38268269  0.51797017  0.67070548  1.0
  O  O42  1  0.60725804  0.68856683  0.53029479  1.0
  O  O43  1  0.38085078  0.68169607  0.47981648  1.0
  O  O44  1  0.60548171  0.53055178  0.33538139  1.0
  O  O45  1  0.37612980  0.48603048  0.32424807  1.0
  O  O46  1  0.82359429  0.86323816  0.61417066  1.0
  O  O47  1  0.84503189  0.15910930  0.49239294  1.0
