# generated using pymatgen
data_Zn4H27C24N3O13
_symmetry_space_group_name_H-M   'P 1'
_cell_length_a   15.97634577
_cell_length_b   16.65165785
_cell_length_c   16.65845212
_cell_angle_alpha   63.46287795
_cell_angle_beta   62.74217682
_cell_angle_gamma   62.93276434
_symmetry_Int_Tables_number   1
_chemical_formula_structural   Zn4H27C24N3O13
_chemical_formula_sum   'Zn8 H54 C48 N6 O26'
_cell_volume   3345.24727434
_cell_formula_units_Z   2
loop_
 _symmetry_equiv_pos_site_id
 _symmetry_equiv_pos_as_xyz
  1  'x, y, z'
loop_
 _atom_site_type_symbol
 _atom_site_label
 _atom_site_symmetry_multiplicity
 _atom_site_fract_x
 _atom_site_fract_y
 _atom_site_fract_z
 _atom_site_occupancy
  Zn  Zn0  1  0.03927650  0.03910562  0.05685721  1.0
  Zn  Zn1  1  0.84773733  0.04304731  0.03637557  1.0
  Zn  Zn2  1  0.03284106  0.85272712  0.05163491  1.0
  Zn  Zn3  1  0.04801141  0.03190389  0.86425811  1.0
  Zn  Zn4  1  0.42526540  0.43932092  0.46618593  1.0
  Zn  Zn5  1  0.63656340  0.43944627  0.44470735  1.0
  Zn  Zn6  1  0.45583615  0.44639579  0.63786424  1.0
  Zn  Zn7  1  0.44535945  0.62682306  0.45644982  1.0
  H  H8  1  0.81718503  0.37652419  0.02398120  1.0
  H  H9  1  0.88959507  0.31179451  0.10152887  1.0
  H  H10  1  0.70159605  0.47249305  0.12886998  1.0
  H  H11  1  0.77800648  0.40619617  0.20307031  1.0
  H  H12  1  0.56845912  0.43065734  0.14827779  1.0
  H  H13  1  0.53893353  0.32842334  0.23554929  1.0
  H  H14  1  0.68378799  0.33723771  0.04081434  1.0
  H  H15  1  0.65039140  0.23712440  0.13027544  1.0
  H  H16  1  0.69789163  0.19837004  0.27979736  1.0
  H  H17  1  0.99119500  0.86520286  0.39606021  1.0
  H  H18  1  0.09258591  0.91010536  0.32145565  1.0
  H  H19  1  0.08679125  0.74984024  0.50090073  1.0
  H  H20  1  0.18439452  0.80048915  0.42541102  1.0
  H  H21  1  0.07660933  0.62025307  0.48437834  1.0
  H  H22  1  0.16111525  0.57137438  0.39049391  1.0
  H  H23  1  0.97548405  0.73561070  0.38441575  1.0
  H  H24  1  0.06040731  0.68167313  0.29374779  1.0
  H  H25  1  0.23762107  0.69567578  0.24396965  1.0
  H  H26  1  0.39625434  0.00652679  0.88400327  1.0
  H  H27  1  0.31598462  0.10260991  0.93132011  1.0
  H  H28  1  0.50305579  0.10187944  0.76606653  1.0
  H  H29  1  0.42366061  0.19245050  0.82115826  1.0
  H  H30  1  0.48499107  0.09520551  0.63448994  1.0
  H  H31  1  0.38216434  0.17400482  0.59339708  1.0
  H  H32  1  0.38679396  0.99226311  0.75185160  1.0
  H  H33  1  0.28894427  0.06999583  0.70326569  1.0
  H  H34  1  0.23152941  0.23928386  0.72271090  1.0
  H  H35  1  0.68554362  0.86318026  0.02503710  1.0
  H  H36  1  0.63341384  0.91216457  0.11930831  1.0
  H  H37  1  0.59925604  0.74667098  0.12606917  1.0
  H  H38  1  0.54601856  0.80175310  0.21609202  1.0
  H  H39  1  0.74920733  0.61761930  0.11263451  1.0
  H  H40  1  0.82162156  0.57392409  0.18686917  1.0
  H  H41  1  0.83440270  0.73371249  0.00657965  1.0
  H  H42  1  0.90840388  0.68470944  0.08083848  1.0
  H  H43  1  0.79249990  0.70420395  0.25142612  1.0
  H  H44  1  0.79447534  0.37776203  0.82858348  1.0
  H  H45  1  0.70325321  0.31863956  0.89145228  1.0
  H  H46  1  0.70422174  0.48496898  0.71714142  1.0
  H  H47  1  0.61336511  0.42558626  0.78561142  1.0
  H  H48  1  0.84238670  0.44256572  0.58667130  1.0
  H  H49  1  0.86722169  0.34395405  0.55432741  1.0
  H  H50  1  0.93460259  0.33949436  0.69695766  1.0
  H  H51  1  0.96065194  0.24385194  0.65956409  1.0
  H  H52  1  0.79249314  0.21807273  0.69866969  1.0
  H  H53  1  0.00768442  0.73483001  0.85315842  1.0
  H  H54  1  0.09496198  0.66888535  0.91591169  1.0
  H  H55  1  0.10577197  0.63617002  0.74901892  1.0
  H  H56  1  0.18956676  0.57218417  0.81534573  1.0
  H  H57  1  0.12231928  0.77144868  0.61569501  1.0
  H  H58  1  0.21991579  0.81810155  0.57417874  1.0
  H  H59  1  0.02333010  0.87035994  0.71910531  1.0
  H  H60  1  0.12274074  0.91539114  0.67503269  1.0
  H  H61  1  0.28027694  0.77874110  0.71301888  1.0
  C  C62  1  0.84270901  0.16599739  0.11646798  1.0
  C  C63  1  0.77114120  0.25769942  0.13950731  1.0
  C  C64  1  0.81429117  0.33906803  0.09819423  1.0
  C  C65  1  0.74083552  0.40081450  0.16521277  1.0
  C  C66  1  0.66760924  0.34375087  0.23574063  1.0
  C  C67  1  0.60072226  0.35603327  0.18440655  1.0
  C  C68  1  0.67374273  0.29614180  0.11575959  1.0
  C  C69  1  0.61357350  0.36658096  0.32931959  1.0
  C  C70  1  0.08675334  0.85170343  0.19534582  1.0
  C  C71  1  0.10176685  0.79164155  0.29119473  1.0
  C  C72  1  0.07151931  0.84546574  0.35980931  1.0
  C  C73  1  0.13297249  0.77278260  0.42722215  1.0
  C  C74  1  0.19159958  0.68941379  0.38457854  1.0
  C  C75  1  0.11953224  0.63779728  0.40870274  1.0
  C  C76  1  0.05439189  0.71056484  0.34451149  1.0
  C  C77  1  0.28803880  0.62751614  0.40772183  1.0
  C  C78  1  0.18601298  0.09180620  0.87443184  1.0
  C  C79  1  0.28508676  0.10955675  0.81411749  1.0
  C  C80  1  0.35685944  0.08273700  0.86585649  1.0
  C  C81  1  0.42548406  0.14382443  0.79248468  1.0
  C  C82  1  0.37883383  0.19984867  0.71215999  1.0
  C  C83  1  0.40509812  0.13299579  0.65695349  1.0
  C  C84  1  0.34195405  0.06661220  0.73016879  1.0
  C  C85  1  0.39669195  0.29501252  0.65210166  1.0
  C  C86  1  0.82881293  0.85676226  0.10272542  1.0
  C  C87  1  0.77007102  0.79518707  0.12375196  1.0
  C  C88  1  0.67241226  0.84613183  0.10062527  1.0
  C  C89  1  0.61563087  0.77296816  0.16533678  1.0
  C  C90  1  0.68872601  0.69257563  0.21806631  1.0
  C  C91  1  0.77548386  0.63855048  0.14861523  1.0
  C  C92  1  0.83190848  0.71169043  0.08021304  1.0
  C  C93  1  0.63845884  0.63217276  0.31389879  1.0
  C  C94  1  0.86171585  0.17136591  0.84277194  1.0
  C  C95  1  0.82127161  0.26641684  0.77553083  1.0
  C  C96  1  0.75201659  0.34635240  0.82121723  1.0
  C  C97  1  0.69292987  0.41545824  0.75103937  1.0
  C  C98  1  0.73530466  0.36296472  0.67741712  1.0
  C  C99  1  0.84068512  0.36960250  0.61471913  1.0
  C  C100  1  0.90108516  0.30315988  0.68439939  1.0
  C  C101  1  0.66425200  0.38937781  0.62558104  1.0
  C  C102  1  0.11676713  0.84011762  0.85752268  1.0
  C  C103  1  0.13396934  0.78644840  0.79460612  1.0
  C  C104  1  0.08702053  0.70656206  0.84531386  1.0
  C  C105  1  0.14963757  0.64315008  0.77914171  1.0
  C  C106  1  0.22337286  0.69614660  0.70108432  1.0
  C  C107  1  0.16698047  0.78667759  0.63805503  1.0
  C  C108  1  0.10350459  0.85028695  0.70416559  1.0
  C  C109  1  0.31949623  0.63505371  0.64730101  1.0
  N  N110  1  0.73729248  0.24548891  0.24285885  1.0
  N  N111  1  0.20918161  0.74221649  0.28165566  1.0
  N  N112  1  0.27148356  0.21281837  0.76779484  1.0
  N  N113  1  0.73296455  0.74856309  0.22755387  1.0
  N  N114  1  0.75289573  0.26264104  0.73999523  1.0
  N  N115  1  0.24072583  0.73218239  0.75806971  1.0
  O  O116  1  0.99291081  0.99032834  0.00169463  1.0
  O  O117  1  0.80456056  0.10532005  0.13231674  1.0
  O  O118  1  0.93516260  0.15600927  0.08284536  1.0
  O  O119  1  0.66613167  0.35519275  0.37480418  1.0
  O  O120  1  0.51901877  0.39864769  0.35308988  1.0
  O  O121  1  0.10231473  0.80637304  0.14216826  1.0
  O  O122  1  0.05992413  0.94100844  0.17552399  1.0
  O  O123  1  0.34208697  0.67019595  0.39861949  1.0
  O  O124  1  0.30619333  0.53803731  0.43521644  1.0
  O  O125  1  0.13105419  0.10789026  0.82876799  1.0
  O  O126  1  0.16488649  0.06269534  0.96408994  1.0
  O  O127  1  0.41786903  0.33220895  0.68948874  1.0
  O  O128  1  0.38804679  0.32989256  0.56965365  1.0
  O  O129  1  0.91059900  0.81406345  0.12061210  1.0
  O  O130  1  0.79179630  0.94594736  0.06891499  1.0
  O  O131  1  0.55393247  0.67557218  0.36189706  1.0
  O  O132  1  0.68423145  0.54378549  0.33806092  1.0
  O  O133  1  0.94294970  0.11441760  0.80565928  1.0
  O  O134  1  0.81241596  0.15568694  0.93054210  1.0
  O  O135  1  0.57236980  0.41240155  0.67203273  1.0
  O  O136  1  0.70256314  0.38623871  0.54031362  1.0
  O  O137  1  0.12660214  0.92245732  0.81590857  1.0
  O  O138  1  0.09276174  0.79945698  0.94641040  1.0
  O  O139  1  0.34331148  0.54623879  0.68795097  1.0
  O  O140  1  0.36825410  0.67743022  0.56549290  1.0
  O  O141  1  0.49213755  0.48849115  0.49947974  1.0
