# generated using pymatgen
data_AlH17(C8O3)2
_symmetry_space_group_name_H-M   'P 1'
_cell_length_a   6.73382921
_cell_length_b   20.64851648
_cell_length_c   23.50118980
_cell_angle_alpha   90.00010678
_cell_angle_beta   89.99935993
_cell_angle_gamma   89.99981332
_symmetry_Int_Tables_number   1
_chemical_formula_structural   AlH17(C8O3)2
_chemical_formula_sum   'Al4 H68 C64 O24'
_cell_volume   3267.68964411
_cell_formula_units_Z   4
loop_
 _symmetry_equiv_pos_site_id
 _symmetry_equiv_pos_as_xyz
  1  'x, y, z'
loop_
 _atom_site_type_symbol
 _atom_site_label
 _atom_site_symmetry_multiplicity
 _atom_site_fract_x
 _atom_site_fract_y
 _atom_site_fract_z
 _atom_site_occupancy
  Al  Al0  1  0.96138127  0.74998902  0.50037826  1.0
  Al  Al1  1  0.53862537  0.25001236  0.00037862  1.0
  Al  Al2  1  0.46138048  0.75001156  0.49962534  1.0
  Al  Al3  1  0.03861966  0.24999091  0.99962274  1.0
  H  H4  1  0.06935277  0.48785814  0.80500253  1.0
  H  H5  1  0.43064434  0.51214343  0.30500568  1.0
  H  H6  1  0.56935506  0.01213686  0.19499363  1.0
  H  H7  1  0.93064273  0.98786057  0.69499800  1.0
  H  H8  1  0.98779523  0.57966857  0.75363377  1.0
  H  H9  1  0.51218949  0.42033141  0.25363746  1.0
  H  H10  1  0.48780272  0.92032811  0.24636551  1.0
  H  H11  1  0.01219558  0.07967091  0.74636737  1.0
  H  H12  1  0.46008814  0.56971267  0.75215199  1.0
  H  H13  1  0.03990989  0.43028733  0.25215307  1.0
  H  H14  1  0.96008667  0.93028549  0.24784736  1.0
  H  H15  1  0.53991317  0.06971351  0.74784573  1.0
  H  H16  1  0.66802555  0.61479380  0.77449189  1.0
  H  H17  1  0.83196713  0.38520768  0.27449637  1.0
  H  H18  1  0.16802544  0.88520321  0.22550568  1.0
  H  H19  1  0.33197529  0.11479480  0.72550547  1.0
  H  H20  1  0.73936707  0.53961071  0.84652553  1.0
  H  H21  1  0.76063125  0.46039237  0.34652863  1.0
  H  H22  1  0.23936500  0.96038768  0.15347185  1.0
  H  H23  1  0.26062416  0.03961115  0.65347298  1.0
  H  H24  1  0.51055873  0.50207882  0.83082916  1.0
  H  H25  1  0.98944179  0.49792472  0.33082915  1.0
  H  H26  1  0.01055556  0.99792126  0.16917096  1.0
  H  H27  1  0.48943585  0.00207760  0.66916972  1.0
  H  H28  1  0.73638394  0.45684815  0.65577087  1.0
  H  H29  1  0.76360969  0.54314872  0.15577026  1.0
  H  H30  1  0.23638197  0.04314862  0.34422868  1.0
  H  H31  1  0.26361337  0.95685206  0.84423003  1.0
  H  H32  1  0.49835835  0.48442799  0.67323288  1.0
  H  H33  1  0.00163585  0.51556942  0.17323335  1.0
  H  H34  1  0.99835609  0.01557093  0.32676554  1.0
  H  H35  1  0.50163867  0.98443163  0.82676679  1.0
  H  H36  1  0.04174452  0.43519184  0.74699950  1.0
  H  H37  1  0.45824930  0.56480913  0.24700352  1.0
  H  H38  1  0.54174659  0.06480465  0.25299631  1.0
  H  H39  1  0.95825153  0.93519437  0.75300222  1.0
  H  H40  1  0.49081431  0.42013049  0.75525635  1.0
  H  H41  1  0.00918210  0.57987049  0.25525520  1.0
  H  H42  1  0.99081957  0.07986941  0.24474337  1.0
  H  H43  1  0.50918189  0.92013200  0.74474365  1.0
  H  H44  1  0.08764331  0.43465463  0.65143194  1.0
  H  H45  1  0.97033646  0.49237837  0.60616459  1.0
  H  H46  1  0.23168988  0.48562573  0.60734934  1.0
  H  H47  1  0.11330085  0.58371134  0.66036349  1.0
  H  H48  1  0.25742025  0.53117582  0.70189477  1.0
  H  H49  1  0.41234594  0.56534516  0.15143395  1.0
  H  H50  1  0.52965645  0.50762323  0.10616540  1.0
  H  H51  1  0.26829989  0.51437446  0.10735420  1.0
  H  H52  1  0.38669542  0.41628702  0.16036490  1.0
  H  H53  1  0.24257858  0.46882408  0.20189750  1.0
  H  H54  1  0.58763955  0.06534520  0.34856630  1.0
  H  H55  1  0.47032963  0.00762155  0.39383476  1.0
  H  H56  1  0.73168167  0.01437395  0.39264894  1.0
  H  H57  1  0.61329980  0.91628815  0.33963636  1.0
  H  H58  1  0.75741906  0.96882207  0.29810512  1.0
  H  H59  1  0.91236165  0.93465644  0.84856978  1.0
  H  H60  1  0.02966641  0.99238021  0.89383765  1.0
  H  H61  1  0.76832049  0.98562729  0.89265289  1.0
  H  H62  1  0.88669735  0.08371153  0.83963765  1.0
  H  H63  1  0.74258146  0.03117800  0.79810969  1.0
  H  H64  1  0.84091662  0.36924137  0.70676936  1.0
  H  H65  1  0.65907766  0.63075754  0.20676960  1.0
  H  H66  1  0.34092200  0.13075529  0.29323034  1.0
  H  H67  1  0.15907713  0.86924432  0.79323098  1.0
  H  H68  1  0.21155891  0.66538816  0.49158346  1.0
  H  H69  1  0.28845348  0.33461332  0.99158628  1.0
  H  H70  1  0.71155994  0.83461510  0.50841102  1.0
  H  H71  1  0.78845524  0.16538824  0.00841610  1.0
  C  C72  1  0.21227489  0.82750402  0.57677673  1.0
  C  C73  1  0.28772518  0.17249562  0.07676694  1.0
  C  C74  1  0.71228741  0.67249827  0.42323307  1.0
  C  C75  1  0.78772821  0.32750642  0.92323290  1.0
  C  C76  1  0.21009093  0.82715613  0.42276155  1.0
  C  C77  1  0.28989934  0.17284520  0.92276112  1.0
  C  C78  1  0.71013505  0.67284423  0.57723761  1.0
  C  C79  1  0.78987699  0.32715926  0.07723913  1.0
  C  C80  1  0.95651814  0.53581698  0.72840526  1.0
  C  C81  1  0.54347515  0.46418246  0.22840682  1.0
  C  C82  1  0.45651660  0.96418070  0.27159409  1.0
  C  C83  1  0.04348500  0.03581886  0.77159665  1.0
  C  C84  1  0.61833518  0.56591427  0.76276953  1.0
  C  C85  1  0.88166101  0.43408622  0.26277226  1.0
  C  C86  1  0.11833700  0.93408279  0.23723073  1.0
  C  C87  1  0.38166320  0.06591573  0.73722988  1.0
  C  C88  1  0.65229270  0.51760672  0.81205163  1.0
  C  C89  1  0.84770125  0.48239678  0.31205325  1.0
  C  C90  1  0.15229626  0.98239322  0.18794726  1.0
  C  C91  1  0.34769579  0.01760666  0.68794812  1.0
  C  C92  1  0.78499063  0.37219627  0.87623830  1.0
  C  C93  1  0.71501227  0.62780494  0.37623200  1.0
  C  C94  1  0.28499039  0.12780384  0.12376410  1.0
  C  C95  1  0.21501200  0.87219783  0.62376459  1.0
  C  C96  1  0.73514672  0.54325490  0.70948823  1.0
  C  C97  1  0.76484744  0.45674402  0.20949003  1.0
  C  C98  1  0.23514588  0.95674253  0.29051045  1.0
  C  C99  1  0.26485338  0.04325756  0.79051115  1.0
  C  C100  1  0.97241487  0.47682149  0.76864954  1.0
  C  C101  1  0.52757807  0.52317803  0.26865166  1.0
  C  C102  1  0.47241973  0.02317310  0.23134725  1.0
  C  C103  1  0.02758074  0.97682590  0.73135225  1.0
  C  C104  1  0.76509707  0.45658191  0.79074613  1.0
  C  C105  1  0.73489636  0.54342008  0.29074390  1.0
  C  C106  1  0.26510421  0.04341579  0.20925292  1.0
  C  C107  1  0.23489727  0.95658654  0.70925818  1.0
  C  C108  1  0.64352119  0.42808786  0.74011351  1.0
  C  C109  1  0.85647603  0.57191209  0.24011228  1.0
  C  C110  1  0.14352721  0.07190997  0.25988543  1.0
  C  C111  1  0.35647493  0.92809054  0.75988820  1.0
  C  C112  1  0.64774848  0.47715380  0.69056116  1.0
  C  C113  1  0.85224505  0.52284556  0.19056028  1.0
  C  C114  1  0.14774830  0.02284451  0.30943777  1.0
  C  C115  1  0.35224862  0.97715659  0.80943935  1.0
  C  C116  1  0.77825372  0.40986286  0.83658673  1.0
  C  C117  1  0.72174802  0.59014505  0.33658716  1.0
  C  C118  1  0.27824909  0.09014307  0.16340888  1.0
  C  C119  1  0.22175150  0.90986256  0.66341112  1.0
  C  C120  1  0.71716369  0.58999187  0.66373146  1.0
  C  C121  1  0.78283106  0.41000405  0.16373313  1.0
  C  C122  1  0.21715829  0.91000363  0.33627152  1.0
  C  C123  1  0.28285226  0.08999897  0.83626927  1.0
  C  C124  1  0.71039112  0.62835149  0.62457263  1.0
  C  C125  1  0.78962769  0.37164338  0.12458103  1.0
  C  C126  1  0.21036948  0.87164548  0.37542100  1.0
  C  C127  1  0.28963186  0.12835431  0.87542306  1.0
  C  C128  1  0.11251653  0.53575828  0.68069264  1.0
  C  C129  1  0.09820356  0.48416567  0.63424773  1.0
  C  C130  1  0.38748327  0.46424351  0.18069497  1.0
  C  C131  1  0.40179390  0.51583409  0.13425011  1.0
  C  C132  1  0.61250997  0.96424121  0.31930636  1.0
  C  C133  1  0.59819359  0.01583366  0.36575006  1.0
  C  C134  1  0.88748810  0.03575891  0.81930928  1.0
  C  C135  1  0.90180237  0.98416656  0.86575280  1.0
  O  O136  1  0.38028945  0.81003667  0.44113272  1.0
  O  O137  1  0.11973414  0.18997003  0.94112554  1.0
  O  O138  1  0.88028671  0.68997562  0.55888429  1.0
  O  O139  1  0.61972469  0.31002831  0.05888326  1.0
  O  O140  1  0.04237207  0.81000113  0.55847489  1.0
  O  O141  1  0.45762141  0.19000234  0.05847488  1.0
  O  O142  1  0.54238209  0.69000666  0.44151536  1.0
  O  O143  1  0.95762676  0.30999711  0.94151812  1.0
  O  O144  1  0.04110500  0.81041460  0.44205695  1.0
  O  O145  1  0.45890815  0.18958193  0.94205993  1.0
  O  O146  1  0.54112013  0.68956753  0.55792819  1.0
  O  O147  1  0.95890319  0.31042768  0.05793051  1.0
  O  O148  1  0.88102445  0.68959532  0.44267102  1.0
  O  O149  1  0.61898286  0.31040312  0.94266830  1.0
  O  O150  1  0.38102636  0.81039808  0.55733364  1.0
  O  O151  1  0.11896123  0.18960006  0.05733284  1.0
  O  O152  1  0.21140107  0.71131060  0.49993031  1.0
  O  O153  1  0.28860501  0.28868896  0.99993093  1.0
  O  O154  1  0.71140146  0.78868830  0.50007013  1.0
  O  O155  1  0.78860370  0.21131308  0.00006933  1.0
  O  O156  1  0.70800676  0.36529153  0.72282999  1.0
  O  O157  1  0.79198827  0.63470838  0.22282776  1.0
  O  O158  1  0.20801283  0.13470575  0.27717048  1.0
  O  O159  1  0.29199001  0.86529383  0.77717119  1.0
