# generated using pymatgen
data_ZnH16C12N2O5
_symmetry_space_group_name_H-M   'P 1'
_cell_length_a   10.42477009
_cell_length_b   17.45241463
_cell_length_c   17.45218077
_cell_angle_alpha   120.00043429
_cell_angle_beta   90.00000193
_cell_angle_gamma   89.99999316
_symmetry_Int_Tables_number   1
_chemical_formula_structural   ZnH16C12N2O5
_chemical_formula_sum   'Zn6 H96 C72 N12 O30'
_cell_volume   2749.79578513
_cell_formula_units_Z   6
loop_
 _symmetry_equiv_pos_site_id
 _symmetry_equiv_pos_as_xyz
  1  'x, y, z'
loop_
 _atom_site_type_symbol
 _atom_site_label
 _atom_site_symmetry_multiplicity
 _atom_site_fract_x
 _atom_site_fract_y
 _atom_site_fract_z
 _atom_site_occupancy
  Zn  Zn0  1  0.09186202  0.53602207  0.46069163  1.0
  Zn  Zn1  1  0.25861480  0.07530969  0.53601373  1.0
  Zn  Zn2  1  0.42518734  0.53930231  0.07532512  1.0
  Zn  Zn3  1  0.59186240  0.46397774  0.53930831  1.0
  Zn  Zn4  1  0.75861529  0.92469076  0.46398653  1.0
  Zn  Zn5  1  0.92518775  0.46069814  0.92467571  1.0
  H  H6  1  0.09405191  0.33136248  0.40065067  1.0
  H  H7  1  0.26075011  0.93071506  0.33138128  1.0
  H  H8  1  0.42733119  0.59934896  0.93071482  1.0
  H  H9  1  0.59405246  0.66863733  0.59934927  1.0
  H  H10  1  0.76075058  0.06928541  0.66861899  1.0
  H  H11  1  0.92733081  0.40065083  0.06928454  1.0
  H  H12  1  0.97975489  0.46768749  0.54131792  1.0
  H  H13  1  0.14648093  0.92638923  0.46766808  1.0
  H  H14  1  0.31304475  0.45870270  0.92636016  1.0
  H  H15  1  0.47975451  0.53231229  0.45868201  1.0
  H  H16  1  0.64648043  0.07361124  0.53233276  1.0
  H  H17  1  0.81304434  0.54129775  0.07364010  1.0
  H  H18  1  0.78512806  0.46545065  0.77916618  1.0
  H  H19  1  0.95184548  0.68628704  0.46541672  1.0
  H  H20  1  0.11850331  0.22081095  0.68621524  1.0
  H  H21  1  0.28512862  0.53454980  0.22083408  1.0
  H  H22  1  0.45184590  0.31371274  0.53458320  1.0
  H  H23  1  0.61850382  0.77918886  0.31378412  1.0
  H  H24  1  0.81978397  0.51563879  0.66954218  1.0
  H  H25  1  0.98648124  0.84609974  0.51559776  1.0
  H  H26  1  0.15309879  0.33043352  0.84605654  1.0
  H  H27  1  0.31978455  0.48436166  0.33045808  1.0
  H  H28  1  0.48648169  0.15390071  0.48440250  1.0
  H  H29  1  0.65309931  0.66956695  0.15394373  1.0
  H  H30  1  0.19424116  0.60879309  0.78658162  1.0
  H  H31  1  0.36092308  0.82220921  0.60878418  1.0
  H  H32  1  0.52752241  0.21343763  0.82223715  1.0
  H  H33  1  0.69424078  0.39120671  0.21341831  1.0
  H  H34  1  0.86092256  0.17779058  0.39121575  1.0
  H  H35  1  0.02752196  0.78656284  0.17776311  1.0
  H  H36  1  0.14694324  0.55177754  0.88787100  1.0
  H  H37  1  0.31363956  0.66390364  0.55173704  1.0
  H  H38  1  0.48033768  0.11215753  0.66393596  1.0
  H  H39  1  0.64694284  0.44822293  0.11212927  1.0
  H  H40  1  0.81363901  0.33609616  0.44826290  1.0
  H  H41  1  0.98033721  0.88784290  0.33606429  1.0
  H  H42  1  0.95599320  0.62052636  0.63592922  1.0
  H  H43  1  0.12270582  0.98458273  0.62049932  1.0
  H  H44  1  0.28925143  0.36408183  0.98458032  1.0
  H  H45  1  0.45599284  0.37947342  0.36407071  1.0
  H  H46  1  0.62270629  0.01541707  0.37950061  1.0
  H  H47  1  0.78925196  0.63591863  0.01541937  1.0
  H  H48  1  0.12287171  0.63046495  0.66274111  1.0
  H  H49  1  0.28957473  0.96769543  0.63044295  1.0
  H  H50  1  0.45610979  0.33727449  0.96770986  1.0
  H  H51  1  0.62287134  0.36953486  0.33725882  1.0
  H  H52  1  0.78957424  0.03230437  0.36955699  1.0
  H  H53  1  0.95611031  0.66272595  0.03229040  1.0
  H  H54  1  0.19626519  0.47326057  0.63355807  1.0
  H  H55  1  0.36296053  0.83965117  0.47323620  1.0
  H  H56  1  0.52953107  0.36641675  0.83966061  1.0
  H  H57  1  0.69626575  0.52673923  0.36644129  1.0
  H  H58  1  0.86296098  0.16034862  0.52676373  1.0
  H  H59  1  0.02953161  0.63358373  0.16033966  1.0
  H  H60  1  0.22438093  0.31421395  0.49948980  1.0
  H  H61  1  0.39106283  0.81468587  0.31416769  1.0
  H  H62  1  0.55766021  0.50052189  0.81473015  1.0
  H  H63  1  0.72438051  0.68578585  0.50051013  1.0
  H  H64  1  0.89106232  0.18531458  0.68583257  1.0
  H  H65  1  0.05766078  0.49947858  0.18526954  1.0
  H  H66  1  0.12734666  0.35167993  0.64557446  1.0
  H  H67  1  0.29400363  0.70608527  0.35164546  1.0
  H  H68  1  0.46068926  0.35444407  0.70608727  1.0
  H  H69  1  0.62734623  0.64831988  0.35442548  1.0
  H  H70  1  0.79400405  0.29391518  0.64835423  1.0
  H  H71  1  0.96068884  0.64555637  0.29391241  1.0
  H  H72  1  0.05514267  0.25830358  0.55450439  1.0
  H  H73  1  0.22177949  0.70376413  0.25825571  1.0
  H  H74  1  0.38846512  0.44550060  0.70375908  1.0
  H  H75  1  0.55514224  0.74169624  0.44549555  1.0
  H  H76  1  0.72177896  0.29623568  0.74174308  1.0
  H  H77  1  0.88846471  0.55449919  0.29624085  1.0
  H  H78  1  0.97446366  0.36273403  0.60615363  1.0
  H  H79  1  0.14112927  0.75657487  0.36272102  1.0
  H  H80  1  0.30779380  0.39382594  0.75653050  1.0
  H  H81  1  0.47446325  0.63726575  0.39384630  1.0
  H  H82  1  0.64112874  0.24342494  0.63727835  1.0
  H  H83  1  0.80779338  0.60617385  0.24346943  1.0
  H  H84  1  0.00652393  0.35367618  0.17082712  1.0
  H  H85  1  0.17327286  0.18287953  0.35375608  1.0
  H  H86  1  0.33990006  0.82914327  0.18283615  1.0
  H  H87  1  0.50652430  0.64632364  0.82917225  1.0
  H  H88  1  0.67327338  0.81712028  0.64624443  1.0
  H  H89  1  0.83990052  0.17085719  0.81716411  1.0
  H  H90  1  0.11220877  0.26559086  0.15542786  1.0
  H  H91  1  0.27890781  0.11021347  0.26566457  1.0
  H  H92  1  0.44561654  0.84457047  0.11019944  1.0
  H  H93  1  0.61220912  0.73440894  0.84457150  1.0
  H  H94  1  0.77890832  0.88978632  0.73433536  1.0
  H  H95  1  0.94561605  0.15542932  0.88980049  1.0
  H  H96  1  0.17290650  0.36341061  0.16021037  1.0
  H  H97  1  0.33965063  0.20323922  0.36346277  1.0
  H  H98  1  0.50626728  0.83974801  0.20323814  1.0
  H  H99  1  0.67290687  0.63658853  0.83978923  1.0
  H  H100  1  0.83965115  0.79675991  0.63653626  1.0
  H  H101  1  0.00626775  0.16025180  0.79676179  1.0
  C  C102  1  0.87414585  0.49734309  0.77778068  1.0
  C  C103  1  0.04087191  0.71955798  0.49729978  1.0
  C  C104  1  0.20752014  0.22219669  0.71949316  1.0
  C  C105  1  0.37414546  0.50265670  0.22221925  1.0
  C  C106  1  0.54087233  0.28044249  0.50270048  1.0
  C  C107  1  0.70752065  0.77780311  0.28050677  1.0
  C  C108  1  0.89393141  0.52629142  0.71787236  1.0
  C  C109  1  0.06061526  0.80843008  0.52627761  1.0
  C  C110  1  0.22723952  0.28210259  0.80836981  1.0
  C  C111  1  0.39393103  0.47370836  0.28212757  1.0
  C  C112  1  0.56061570  0.19156973  0.47372232  1.0
  C  C113  1  0.72723907  0.71789787  0.19163046  1.0
  C  C114  1  0.01010185  0.56692866  0.71880398  1.0
  C  C115  1  0.17678377  0.84812017  0.56690714  1.0
  C  C116  1  0.34336294  0.28118790  0.84810686  1.0
  C  C117  1  0.51010242  0.43307116  0.28119596  1.0
  C  C118  1  0.67678325  0.15187963  0.43309279  1.0
  C  C119  1  0.84336250  0.71881255  0.15189340  1.0
  C  C120  1  0.10135278  0.57805317  0.78228285  1.0
  C  C121  1  0.26802991  0.79577227  0.57805196  1.0
  C  C122  1  0.43461484  0.21769035  0.79578373  1.0
  C  C123  1  0.60135240  0.42194664  0.21771651  1.0
  C  C124  1  0.76803034  0.20422753  0.42194797  1.0
  C  C125  1  0.93461534  0.78231010  0.20421653  1.0
  C  C126  1  0.07542703  0.54664355  0.84001507  1.0
  C  C127  1  0.24213678  0.70663682  0.54661496  1.0
  C  C128  1  0.40876871  0.15997707  0.70664198  1.0
  C  C129  1  0.57542760  0.45335692  0.15998519  1.0
  C  C130  1  0.74213719  0.29336299  0.45338498  1.0
  C  C131  1  0.90876825  0.84002271  0.29335795  1.0
  C  C132  1  0.03825210  0.58754235  0.64644851  1.0
  C  C133  1  0.20495129  0.94107511  0.58751683  1.0
  C  C134  1  0.37148538  0.35355031  0.94106483  1.0
  C  C135  1  0.53825173  0.41245745  0.35355142  1.0
  C  C136  1  0.70495078  0.05892470  0.41248311  1.0
  C  C137  1  0.87148590  0.64645014  0.05893543  1.0
  C  C138  1  0.17035671  0.45179609  0.56456592  1.0
  C  C139  1  0.33706451  0.88716645  0.45175167  1.0
  C  C140  1  0.50362833  0.43540974  0.88718688  1.0
  C  C141  1  0.67035727  0.54820372  0.43543345  1.0
  C  C142  1  0.83706401  0.11283334  0.54824826  1.0
  C  C143  1  0.00362888  0.56459074  0.11281339  1.0
  C  C144  1  0.29226922  0.46725864  0.52506652  1.0
  C  C145  1  0.45895401  0.94216043  0.46726084  1.0
  C  C146  1  0.62556100  0.47489618  0.94212654  1.0
  C  C147  1  0.79226883  0.53274115  0.47493341  1.0
  C  C148  1  0.95895447  0.05784001  0.53273942  1.0
  C  C149  1  0.12556059  0.52510363  0.05787340  1.0
  C  C150  1  0.13379476  0.35177080  0.52115866  1.0
  C  C151  1  0.30048145  0.83056263  0.35172941  1.0
  C  C152  1  0.46707884  0.47883784  0.83059696  1.0
  C  C153  1  0.63379530  0.64822901  0.47884185  1.0
  C  C154  1  0.80048190  0.16943782  0.64827085  1.0
  C  C155  1  0.96707844  0.52116261  0.16940330  1.0
  C  C156  1  0.06845039  0.33014672  0.58604074  1.0
  C  C157  1  0.23509393  0.74406651  0.33009813  1.0
  C  C158  1  0.40176518  0.41396313  0.74406107  1.0
  C  C159  1  0.56844997  0.66985308  0.41395919  1.0
  C  C160  1  0.73509340  0.25593330  0.66990066  1.0
  C  C161  1  0.90176476  0.58603731  0.25593976  1.0
  C  C162  1  0.11698680  0.38054590  0.28634338  1.0
  C  C163  1  0.28372998  0.09422823  0.38060204  1.0
  C  C164  1  0.45032169  0.71364407  0.09416186  1.0
  C  C165  1  0.61698717  0.61945390  0.71365655  1.0
  C  C166  1  0.78372952  0.90577156  0.61939789  1.0
  C  C167  1  0.95032213  0.28635571  0.90583807  1.0
  C  C168  1  0.10059124  0.33735395  0.18710238  1.0
  C  C169  1  0.26734784  0.15028627  0.33743288  1.0
  C  C170  1  0.43399327  0.81287752  0.15026554  1.0
  C  C171  1  0.60059160  0.66264585  0.81289755  1.0
  C  C172  1  0.76734835  0.84971354  0.66256706  1.0
  C  C173  1  0.93399277  0.18712293  0.84973472  1.0
  N  N174  1  0.96384471  0.50647540  0.83775029  1.0
  N  N175  1  0.13056790  0.66872121  0.50642345  1.0
  N  N176  1  0.29722956  0.16223819  0.66869148  1.0
  N  N177  1  0.46384432  0.49352504  0.16225054  1.0
  N  N178  1  0.63056830  0.33127859  0.49357648  1.0
  N  N179  1  0.79723006  0.83776161  0.33130846  1.0
  N  N180  1  0.06271788  0.50469917  0.56145646  1.0
  N  N181  1  0.22944583  0.94320945  0.50466843  1.0
  N  N182  1  0.39599719  0.43854305  0.94321781  1.0
  N  N183  1  0.56271845  0.49530064  0.43854348  1.0
  N  N184  1  0.72944629  0.05679035  0.49533208  1.0
  N  N185  1  0.89599772  0.56145674  0.05678212  1.0
  O  O186  1  0.28687447  0.51202967  0.48571357  1.0
  O  O187  1  0.45348433  0.02628219  0.51202853  1.0
  O  O188  1  0.62015184  0.51426918  0.02625938  1.0
  O  O189  1  0.78687389  0.48797013  0.51428637  1.0
  O  O190  1  0.95348481  0.97371760  0.48797140  1.0
  O  O191  1  0.12015129  0.48572997  0.97374080  1.0
  O  O192  1  0.39300238  0.43414095  0.53707638  1.0
  O  O193  1  0.55974760  0.89709732  0.43421569  1.0
  O  O194  1  0.72630567  0.46288922  0.89702185  1.0
  O  O195  1  0.89300199  0.56585883  0.46292355  1.0
  O  O196  1  0.05974807  0.10290250  0.56578425  1.0
  O  O197  1  0.22630622  0.53711125  0.10297899  1.0
  O  O198  1  0.04867825  0.32607716  0.44870250  1.0
  O  O199  1  0.21536398  0.87737589  0.32609033  1.0
  O  O200  1  0.38196329  0.55129445  0.87736827  1.0
  O  O201  1  0.54867880  0.67392332  0.55129777  1.0
  O  O202  1  0.71536444  0.12262457  0.67390993  1.0
  O  O203  1  0.88196289  0.44870534  0.12263166  1.0
  O  O204  1  0.08684321  0.46384525  0.33081274  1.0
  O  O205  1  0.25359502  0.13306256  0.46390088  1.0
  O  O206  1  0.42018578  0.66916185  0.13297758  1.0
  O  O207  1  0.58684262  0.53615456  0.66918662  1.0
  O  O208  1  0.75359457  0.86693724  0.53609906  1.0
  O  O209  1  0.92018621  0.33083859  0.86702325  1.0
  O  O210  1  0.15886015  0.33597761  0.31950817  1.0
  O  O211  1  0.32550645  0.01647134  0.33600574  1.0
  O  O212  1  0.49207705  0.68049318  0.01639957  1.0
  O  O213  1  0.65886051  0.66402219  0.68049119  1.0
  O  O214  1  0.82550598  0.98352845  0.66399476  1.0
  O  O215  1  0.99207749  0.31950726  0.98360069  1.0
