# generated using pymatgen
data_AlH15(C4O3)6
_symmetry_space_group_name_H-M   'P 1'
_cell_length_a   3.98059168
_cell_length_b   28.62423253
_cell_length_c   28.62434762
_cell_angle_alpha   60.00043144
_cell_angle_beta   89.99932969
_cell_angle_gamma   89.99956315
_symmetry_Int_Tables_number   1
_chemical_formula_structural   AlH15(C4O3)6
_chemical_formula_sum   'Al2 H30 C48 O36'
_cell_volume   2824.55216159
_cell_formula_units_Z   2
loop_
 _symmetry_equiv_pos_site_id
 _symmetry_equiv_pos_as_xyz
  1  'x, y, z'
loop_
 _atom_site_type_symbol
 _atom_site_label
 _atom_site_symmetry_multiplicity
 _atom_site_fract_x
 _atom_site_fract_y
 _atom_site_fract_z
 _atom_site_occupancy
  Al  Al0  1  0.99826456  0.99999742  0.50000096  1.0
  Al  Al1  1  0.99828968  0.66666368  0.16666788  1.0
  H  H2  1  0.51512001  0.33779452  0.27751944  1.0
  H  H3  1  0.51491209  0.32886268  0.38915458  1.0
  H  H4  1  0.51506870  0.77751944  0.38468017  1.0
  H  H5  1  0.51494673  0.88915390  0.28198060  1.0
  H  H6  1  0.51509936  0.88468053  0.83779984  1.0
  H  H7  1  0.51492682  0.78197993  0.82886501  1.0
  H  H8  1  0.86433076  0.56198923  0.15263574  1.0
  H  H9  1  0.94821000  0.44388785  0.17898852  1.0
  H  H10  1  0.13373574  0.55389262  0.28033808  1.0
  H  H11  1  0.04218909  0.43365154  0.36111472  1.0
  H  H12  1  0.04206903  0.23301063  0.30556317  1.0
  H  H13  1  0.13371123  0.11276266  0.38633682  1.0
  H  H14  1  0.94813049  0.22277328  0.48768248  1.0
  H  H15  1  0.86431105  0.10467232  0.51403204  1.0
  H  H16  1  0.86432259  0.65263335  0.28537228  1.0
  H  H17  1  0.94817830  0.67898629  0.37712092  1.0
  H  H18  1  0.13373660  0.78033518  0.16576612  1.0
  H  H19  1  0.04215421  0.86111043  0.20523512  1.0
  H  H20  1  0.04211489  0.80556020  0.46142708  1.0
  H  H21  1  0.13373047  0.88633543  0.50089832  1.0
  H  H22  1  0.94815809  0.98768328  0.28954068  1.0
  H  H23  1  0.86432675  0.01403223  0.38129454  1.0
  H  H24  1  0.86433070  0.78537214  0.06199131  1.0
  H  H25  1  0.94820410  0.87711936  0.94389189  1.0
  H  H26  1  0.13373452  0.66576680  0.05389872  1.0
  H  H27  1  0.04215821  0.70523391  0.93365531  1.0
  H  H28  1  0.04207893  0.96142385  0.73301620  1.0
  H  H29  1  0.13371496  0.00089656  0.61276970  1.0
  H  H30  1  0.94815560  0.78954259  0.72277465  1.0
  H  H31  1  0.86431864  0.88129262  0.60467487  1.0
  C  C32  1  0.49845975  0.95439936  0.58422064  1.0
  C  C33  1  0.49846874  0.08421610  0.46138207  1.0
  C  C34  1  0.49847002  0.96137864  0.45440361  1.0
  C  C35  1  0.49848285  0.58244635  0.20528795  1.0
  C  C36  1  0.49848659  0.70528543  0.21226316  1.0
  C  C37  1  0.49848933  0.71226229  0.08244839  1.0
  C  C38  1  0.50065644  0.52456156  0.23175773  1.0
  C  C39  1  0.32378961  0.49285026  0.28088856  1.0
  C  C40  1  0.33425338  0.43666378  0.30718448  1.0
  C  C41  1  0.49982349  0.40968551  0.28367584  1.0
  C  C42  1  0.66755099  0.44142061  0.23395284  1.0
  C  C43  1  0.67926477  0.49739006  0.20929384  1.0
  C  C44  1  0.49682212  0.35164419  0.30661786  1.0
  C  C45  1  0.49675058  0.31501383  0.36005648  1.0
  C  C46  1  0.66746591  0.22523736  0.43271880  1.0
  C  C47  1  0.49974077  0.25697573  0.38299689  1.0
  C  C48  1  0.33419428  0.22999590  0.35948790  1.0
  C  C49  1  0.32372397  0.17380860  0.38578774  1.0
  C  C50  1  0.50061360  0.14209686  0.43491326  1.0
  C  C51  1  0.67921096  0.16926871  0.45737529  1.0
  C  C52  1  0.50064499  0.73175584  0.24367607  1.0
  C  C53  1  0.32376953  0.78088533  0.22626020  1.0
  C  C54  1  0.33424084  0.80718268  0.25614946  1.0
  C  C55  1  0.49979769  0.78367487  0.30663694  1.0
  C  C56  1  0.66750961  0.73395077  0.32462303  1.0
  C  C57  1  0.67925360  0.70929322  0.29331017  1.0
  C  C58  1  0.49680606  0.80661799  0.34173423  1.0
  C  C59  1  0.49676756  0.86005575  0.32492637  1.0
  C  C60  1  0.66748310  0.93271970  0.34203928  1.0
  C  C61  1  0.49976498  0.88299726  0.36002306  1.0
  C  C62  1  0.33422533  0.85948788  0.41051474  1.0
  C  C63  1  0.32374749  0.88578643  0.44040342  1.0
  C  C64  1  0.50063007  0.93491346  0.42298913  1.0
  C  C65  1  0.67923562  0.95737562  0.37335363  1.0
  C  C66  1  0.50063125  0.74367747  0.02456739  1.0
  C  C67  1  0.32376903  0.72626059  0.99285521  1.0
  C  C68  1  0.33423381  0.75615052  0.93666890  1.0
  C  C69  1  0.49980436  0.80663775  0.90968803  1.0
  C  C70  1  0.66751879  0.82462346  0.94142653  1.0
  C  C71  1  0.67923418  0.79331154  0.99739523  1.0
  C  C72  1  0.49680876  0.84173476  0.85164723  1.0
  C  C73  1  0.49676304  0.82492693  0.81501773  1.0
  C  C74  1  0.66746959  0.84204060  0.72524221  1.0
  C  C75  1  0.49975650  0.86002513  0.75698052  1.0
  C  C76  1  0.33420542  0.91051442  0.73000064  1.0
  C  C77  1  0.32372859  0.94040235  0.67381395  1.0
  C  C78  1  0.50061367  0.92298740  0.64210142  1.0
  C  C79  1  0.67923061  0.87335291  0.66927225  1.0
  O  O80  1  0.72897279  0.99718385  0.44577280  1.0
  O  O81  1  0.72895702  0.94577007  0.55704299  1.0
  O  O82  1  0.72895384  0.05704009  0.49718792  1.0
  O  O83  1  0.26595567  0.94926198  0.49075587  1.0
  O  O84  1  0.26595425  0.05998146  0.44926347  1.0
  O  O85  1  0.26594153  0.99075156  0.55998571  1.0
  O  O86  1  0.72898634  0.72089193  0.10962339  1.0
  O  O87  1  0.72899202  0.60962149  0.16948286  1.0
  O  O88  1  0.72898816  0.66948016  0.22089188  1.0
  O  O89  1  0.26597366  0.67591096  0.10668326  1.0
  O  O90  1  0.26595952  0.71740256  0.17591244  1.0
  O  O91  1  0.26594336  0.60668186  0.21740615  1.0
  O  O92  1  0.85512930  0.52366194  0.16208897  1.0
  O  O93  1  0.83080480  0.41603656  0.21078250  1.0
  O  O94  1  0.14741213  0.51469852  0.30627920  1.0
  O  O95  1  0.16875669  0.40775367  0.35518616  1.0
  O  O96  1  0.16868239  0.25890684  0.31148782  1.0
  O  O97  1  0.14736746  0.15195958  0.36039392  1.0
  O  O98  1  0.83070628  0.25062338  0.45588964  1.0
  O  O99  1  0.85508057  0.14300082  0.50457962  1.0
  O  O100  1  0.85509133  0.66208677  0.31424568  1.0
  O  O101  1  0.83075280  0.71077857  0.37317847  1.0
  O  O102  1  0.14741920  0.80627745  0.17901961  1.0
  O  O103  1  0.16873724  0.85518506  0.23705842  1.0
  O  O104  1  0.16872035  0.81148473  0.42960574  1.0
  O  O105  1  0.14738551  0.86038953  0.48764732  1.0
  O  O106  1  0.83072654  0.95589064  0.29348315  1.0
  O  O107  1  0.85510096  0.00458043  0.35241755  1.0
  O  O108  1  0.85509919  0.81424683  0.02366464  1.0
  O  O109  1  0.83077812  0.87317761  0.91604173  1.0
  O  O110  1  0.14739959  0.67902025  0.01470256  1.0
  O  O111  1  0.16875263  0.73705669  0.90775840  1.0
  O  O112  1  0.16869560  0.92960547  0.75891210  1.0
  O  O113  1  0.14737498  0.98764551  0.65196603  1.0
  O  O114  1  0.83073710  0.79348438  0.75062743  1.0
  O  O115  1  0.85508808  0.85241593  0.64300290  1.0
