# generated using pymatgen
data_ZnH13C26I(NO4)2
_symmetry_space_group_name_H-M   'P 1'
_cell_length_a   13.99723004
_cell_length_b   15.24834097
_cell_length_c   23.57129812
_cell_angle_alpha   90.63563017
_cell_angle_beta   90.59602444
_cell_angle_gamma   90.05860861
_symmetry_Int_Tables_number   1
_chemical_formula_structural   ZnH13C26I(NO4)2
_chemical_formula_sum   'Zn2 H26 C52 I2 N4 O16'
_cell_volume   5030.34405190
_cell_formula_units_Z   2
loop_
 _symmetry_equiv_pos_site_id
 _symmetry_equiv_pos_as_xyz
  1  'x, y, z'
loop_
 _atom_site_type_symbol
 _atom_site_label
 _atom_site_symmetry_multiplicity
 _atom_site_fract_x
 _atom_site_fract_y
 _atom_site_fract_z
 _atom_site_occupancy
  Zn  Zn0  1  0.59440218  0.50173136  0.49472553  1.0
  Zn  Zn1  1  0.39195538  0.50451922  0.49518539  1.0
  H  H2  1  0.61400016  0.67640958  0.93356935  1.0
  H  H3  1  0.41708344  0.28751195  0.05675594  1.0
  H  H4  1  0.23561187  0.62290950  0.45556810  1.0
  H  H5  1  0.74592778  0.36316498  0.49221011  1.0
  H  H6  1  0.24489758  0.37864432  0.53077712  1.0
  H  H7  1  0.74955916  0.63518618  0.49987739  1.0
  H  H8  1  0.61784527  0.68776392  0.04080547  1.0
  H  H9  1  0.41167621  0.27696237  0.94960180  1.0
  H  H10  1  0.65341472  0.45972006  0.22124362  1.0
  H  H11  1  0.40278818  0.57610901  0.78052027  1.0
  H  H12  1  0.63877107  0.47695330  0.32671403  1.0
  H  H13  1  0.39800936  0.57491893  0.67436320  1.0
  H  H14  1  0.36979051  0.56323775  0.20111395  1.0
  H  H15  1  0.59111776  0.35312674  0.77651068  1.0
  H  H16  1  0.36248916  0.95488047  0.49686886  1.0
  H  H17  1  0.39221939  0.06973575  0.57086931  1.0
  H  H18  1  0.64039030  0.06116798  0.46387877  1.0
  H  H19  1  0.66220923  0.94005828  0.54291340  1.0
  H  H20  1  0.05831471  0.62508188  0.45509104  1.0
  H  H21  1  0.92311184  0.35572133  0.48955850  1.0
  H  H22  1  0.06643564  0.37042125  0.53471703  1.0
  H  H23  1  0.92610363  0.63938922  0.50356255  1.0
  H  H24  1  0.34839502  0.72313456  0.49088078  1.0
  H  H25  1  0.33823945  0.20013960  0.59157233  1.0
  H  H26  1  0.62804940  0.29139643  0.44618864  1.0
  H  H27  1  0.64707653  0.70756650  0.54322141  1.0
  C  C28  1  0.49736598  0.67749125  0.51267832  1.0
  C  C29  1  0.49288041  0.33247072  0.48943191  1.0
  C  C30  1  0.58827796  0.48532293  0.24008607  1.0
  C  C31  1  0.44288437  0.52753584  0.75633455  1.0
  C  C32  1  0.57998537  0.49489128  0.29852773  1.0
  C  C33  1  0.44074911  0.52717524  0.69746269  1.0
  C  C34  1  0.49596175  0.52643322  0.32363816  1.0
  C  C35  1  0.49445586  0.46681042  0.66559355  1.0
  C  C36  1  0.42011057  0.55146569  0.28779971  1.0
  C  C37  1  0.54789613  0.40317376  0.69467816  1.0
  C  C38  1  0.42813593  0.54328423  0.22897923  1.0
  C  C39  1  0.55006310  0.40257362  0.75397424  1.0
  C  C40  1  0.51142111  0.50922009  0.20566450  1.0
  C  C41  1  0.49898173  0.46566505  0.78424564  1.0
  C  C42  1  0.42542726  0.91647003  0.50777340  1.0
  C  C43  1  0.44350160  0.10328268  0.54406289  1.0
  C  C44  1  0.58443927  0.09769368  0.48550287  1.0
  C  C45  1  0.59459531  0.90840494  0.53201008  1.0
  C  C46  1  0.41954958  0.82523997  0.50572426  1.0
  C  C47  1  0.43681929  0.19355014  0.53686267  1.0
  C  C48  1  0.57812886  0.18838255  0.47765896  1.0
  C  C49  1  0.58909744  0.81695593  0.53187347  1.0
  C  C50  1  0.50181423  0.77313452  0.51748647  1.0
  C  C51  1  0.50179394  0.23815791  0.50152137  1.0
  C  C52  1  0.51279415  0.95781849  0.51987273  1.0
  C  C53  1  0.51551582  0.05469454  0.51731207  1.0
  C  C54  1  0.49282085  0.52614647  0.38731624  1.0
  C  C55  1  0.49245513  0.47838781  0.60247695  1.0
  C  C56  1  0.09603516  0.56945221  0.47325074  1.0
  C  C57  1  0.88812448  0.41926637  0.49342649  1.0
  C  C58  1  0.10064845  0.42759720  0.51641105  1.0
  C  C59  1  0.88981443  0.57638732  0.49965557  1.0
  C  C60  1  0.19509837  0.56874694  0.47318081  1.0
  C  C61  1  0.78897617  0.42277072  0.49391840  1.0
  C  C62  1  0.19981777  0.43173723  0.51509898  1.0
  C  C63  1  0.79076379  0.57465943  0.49866972  1.0
  C  C64  1  0.04643779  0.49781124  0.49549340  1.0
  C  C65  1  0.94103776  0.49744440  0.49640616  1.0
  C  C66  1  0.46869007  0.39654786  0.87561809  1.0
  C  C67  1  0.55555806  0.57054119  0.11462149  1.0
  C  C68  1  0.54751824  0.54454946  0.86988959  1.0
  C  C69  1  0.48026511  0.42102294  0.12066570  1.0
  C  C70  1  0.54951668  0.54939501  0.93271979  1.0
  C  C71  1  0.48039636  0.41505188  0.05777131  1.0
  C  C72  1  0.51361942  0.47916642  0.96501761  1.0
  C  C73  1  0.51618121  0.48534685  0.02541428  1.0
  C  C74  1  0.47491000  0.40312884  0.93843117  1.0
  C  C75  1  0.55419888  0.56179985  0.05186266  1.0
  C  C76  1  0.58692861  0.62352957  0.95968934  1.0
  C  C77  1  0.44388794  0.34064135  0.03071374  1.0
  C  C78  1  0.58914850  0.62976716  0.01917393  1.0
  C  C79  1  0.44098601  0.33475962  0.97117409  1.0
  I  I80  1  0.29220347  0.60876160  0.31687236  1.0
  I  I81  1  0.62172591  0.30036639  0.65344812  1.0
  N  N82  1  0.50529228  0.46848955  0.84531888  1.0
  N  N83  1  0.51655377  0.49968861  0.14472826  1.0
  N  N84  1  0.24606439  0.50152180  0.49406746  1.0
  N  N85  1  0.74088896  0.49917609  0.49602042  1.0
  O  O86  1  0.57322513  0.63219974  0.52347156  1.0
  O  O87  1  0.41502669  0.37174074  0.49892306  1.0
  O  O88  1  0.56727582  0.37171674  0.46849106  1.0
  O  O89  1  0.41797544  0.64105057  0.49717046  1.0
  O  O90  1  0.57148759  0.54079152  0.41354074  1.0
  O  O91  1  0.41459755  0.50636187  0.58112190  1.0
  O  O92  1  0.56903138  0.46265717  0.57560634  1.0
  O  O93  1  0.41345828  0.50794008  0.40990147  1.0
  O  O94  1  0.43325420  0.33313656  0.85061671  1.0
  O  O95  1  0.58736158  0.63531736  0.13983150  1.0
  O  O96  1  0.57998185  0.60276477  0.84010422  1.0
  O  O97  1  0.44997843  0.36241372  0.15091765  1.0
  O  O98  1  0.33475727  0.78801467  0.49163950  1.0
  O  O99  1  0.36781506  0.24018767  0.56497569  1.0
  O  O100  1  0.64517305  0.22692533  0.44534186  1.0
  O  O101  1  0.66830796  0.77064559  0.54577744  1.0
