# generated using pymatgen
data_Zn4H68C80N28O5
_symmetry_space_group_name_H-M   'P 1'
_cell_length_a   19.75500656
_cell_length_b   19.80254579
_cell_length_c   20.63852480
_cell_angle_alpha   106.03110739
_cell_angle_beta   106.45210509
_cell_angle_gamma   111.26094747
_symmetry_Int_Tables_number   1
_chemical_formula_structural   Zn4H68C80N28O5
_chemical_formula_sum   'Zn4 H68 C80 N28 O5'
_cell_volume   6535.84101522
_cell_formula_units_Z   1
loop_
 _symmetry_equiv_pos_site_id
 _symmetry_equiv_pos_as_xyz
  1  'x, y, z'
loop_
 _atom_site_type_symbol
 _atom_site_label
 _atom_site_symmetry_multiplicity
 _atom_site_fract_x
 _atom_site_fract_y
 _atom_site_fract_z
 _atom_site_occupancy
  Zn  Zn0  1  0.38803359  0.40011778  0.49529005  1.0
  Zn  Zn1  1  0.62063981  0.60860247  0.50240698  1.0
  Zn  Zn2  1  0.41992926  0.52701371  0.42056223  1.0
  Zn  Zn3  1  0.58510183  0.48157310  0.58092109  1.0
  H  H4  1  0.35459516  0.24042273  0.36530989  1.0
  H  H5  1  0.95860048  0.33194725  0.44306391  1.0
  H  H6  1  0.93098306  0.46635400  0.46641097  1.0
  H  H7  1  0.96903659  0.48302007  0.34653675  1.0
  H  H8  1  0.80421145  0.38125527  0.24618991  1.0
  H  H9  1  0.41688485  0.60000120  0.18169453  1.0
  H  H10  1  0.39876809  0.53466520  0.26139475  1.0
  H  H11  1  0.41472534  0.61872749  0.06661189  1.0
  H  H12  1  0.35947958  0.59551770  0.85610448  1.0
  H  H13  1  0.36083366  0.57510436  0.73220769  1.0
  H  H14  1  0.61640676  0.69713187  0.95871061  1.0
  H  H15  1  0.65685580  0.77979144  0.62076958  1.0
  H  H16  1  0.61922068  0.67897103  0.83624378  1.0
  H  H17  1  0.90325754  0.68655962  0.83042396  1.0
  H  H18  1  0.19162377  0.02958044  0.09384720  1.0
  H  H19  1  0.59726331  0.34366432  0.63487608  1.0
  H  H20  1  0.30634079  0.15181920  0.20431807  1.0
  H  H21  1  0.83145064  0.85649814  0.78551184  1.0
  H  H22  1  0.03555524  0.13200856  0.10926578  1.0
  H  H23  1  0.94275088  0.96321579  0.90717171  1.0
  H  H24  1  0.14937601  0.25334078  0.22204681  1.0
  H  H25  1  0.65812342  0.64414225  0.36105071  1.0
  H  H26  1  0.75021112  0.58605357  0.74129637  1.0
  H  H27  1  0.33804648  0.23107964  0.52152702  1.0
  H  H28  1  0.35973415  0.51326121  0.61635867  1.0
  H  H29  1  0.28885432  0.57987334  0.38596751  1.0
  H  H30  1  0.17867095  0.58349068  0.31185366  1.0
  H  H31  1  0.14648795  0.55399190  0.37704395  1.0
  H  H32  1  0.11504909  0.48093348  0.28655184  1.0
  H  H33  1  0.83897628  0.81596738  0.68711829  1.0
  H  H34  1  0.67680988  0.02002834  0.64358731  1.0
  H  H35  1  0.71941169  0.07155214  0.56212682  1.0
  H  H36  1  0.70198166  0.14430755  0.61886286  1.0
  H  H37  1  0.18540922  0.31750675  0.42775296  1.0
  H  H38  1  0.62803267  0.07456919  0.52681688  1.0
  H  H39  1  0.40373769  0.83059227  0.54362445  1.0
  H  H40  1  0.72682922  0.51732478  0.37643624  1.0
  H  H41  1  0.33562572  0.01762061  0.61643111  1.0
  H  H42  1  0.28770688  0.96228833  0.69374926  1.0
  H  H43  1  0.37724042  0.95613878  0.72919061  1.0
  H  H44  1  0.30450936  0.89021607  0.63554580  1.0
  H  H45  1  0.60744725  0.20884762  0.73776499  1.0
  H  H46  1  0.74085781  0.24810514  0.81599359  1.0
  H  H47  1  0.72899470  0.15338099  0.76431739  1.0
  H  H48  1  0.62024359  0.62829331  0.72304107  1.0
  H  H49  1  0.68021909  0.16151310  0.82455365  1.0
  H  H50  1  0.79650386  0.17752442  0.33090406  1.0
  H  H51  1  0.68101335  0.57598545  0.19148450  1.0
  H  H52  1  0.66540583  0.48195591  0.23769463  1.0
  H  H53  1  0.56734976  0.44826064  0.16923876  1.0
  H  H54  1  0.59309689  0.49695730  0.26602121  1.0
  H  H55  1  0.64626111  0.62887219  0.06173412  1.0
  H  H56  1  0.78517878  0.69945090  0.15034032  1.0
  H  H57  1  0.75345053  0.69949140  0.22299745  1.0
  H  H58  1  0.73468636  0.75542319  0.17258456  1.0
  H  H59  1  0.39642072  0.66081212  0.52943577  1.0
  H  H60  1  0.00210977  0.72435230  0.93645931  1.0
  H  H61  1  0.08938705  0.87301017  0.07155447  1.0
  H  H62  1  0.14152739  0.86820124  0.01484831  1.0
  H  H63  1  0.11065937  0.79136071  0.04623810  1.0
  H  H64  1  0.63371368  0.30239269  0.46231074  1.0
  H  H65  1  0.27143250  0.43141783  0.27875374  1.0
  H  H66  1  0.26105073  0.41041562  0.15483843  1.0
  H  H67  1  0.19782519  0.31554604  0.14898586  1.0
  H  H68  1  0.29598958  0.33950100  0.15505028  1.0
  H  H69  1  0.47906762  0.99948721  0.50090251  1.0
  H  H70  1  0.52980488  0.03379782  0.75927565  1.0
  H  H71  1  0.83103701  0.24715983  0.22234796  1.0
  C  C72  1  0.35384711  0.28873028  0.35029635  1.0
  C  C73  1  0.21242948  0.37089335  0.41925134  1.0
  C  C74  1  0.55640872  0.59370189  0.68648626  1.0
  C  C75  1  0.66031420  0.48722167  0.42462542  1.0
  C  C76  1  0.45946503  0.67794950  0.54443210  1.0
  C  C77  1  0.49006438  0.59053558  0.70109103  1.0
  C  C78  1  0.52785139  0.75306488  0.59231871  1.0
  C  C79  1  0.17276620  0.40411561  0.38045344  1.0
  C  C80  1  0.79721494  0.70021079  0.72683163  1.0
  C  C81  1  0.57184192  0.02359506  0.61832656  1.0
  C  C82  1  0.49114185  0.00666880  0.55813289  1.0
  C  C83  1  0.66474826  0.41718499  0.42321298  1.0
  C  C84  1  0.46369375  0.18970779  0.59461674  1.0
  C  C85  1  0.52947906  0.82694280  0.62280863  1.0
  C  C86  1  0.56819404  0.09181589  0.67857021  1.0
  C  C87  1  0.46247437  0.56411530  0.29757164  1.0
  C  C88  1  0.48719979  0.07383646  0.61705760  1.0
  C  C89  1  0.51913036  0.02686650  0.70226052  1.0
  C  C90  1  0.52345451  0.96043141  0.64348985  1.0
  C  C91  1  0.43867847  0.01100773  0.64214842  1.0
  C  C92  1  0.44253409  0.94343511  0.58154446  1.0
  C  C93  1  0.47164778  0.13457874  0.60469808  1.0
  C  C94  1  0.52875905  0.59058958  0.28054054  1.0
  C  C95  1  0.53271267  0.89278478  0.64341707  1.0
  C  C96  1  0.85364228  0.29613984  0.27665517  1.0
  C  C97  1  0.83317388  0.28714364  0.34323906  1.0
  C  C98  1  0.71065894  0.38841902  0.39553607  1.0
  C  C99  1  0.53502250  0.32873027  0.60614175  1.0
  C  C100  1  0.08991312  0.37842966  0.35121241  1.0
  C  C101  1  0.83925158  0.37055186  0.28988853  1.0
  C  C102  1  0.81779473  0.36189018  0.35666408  1.0
  C  C103  1  0.92940802  0.42724648  0.34609229  1.0
  C  C104  1  0.94541436  0.35288642  0.33347976  1.0
  C  C105  1  0.46520283  0.25734417  0.58402604  1.0
  C  C106  1  0.91012947  0.41794280  0.41238666  1.0
  C  C107  1  0.92386667  0.34350510  0.39989734  1.0
  C  C108  1  0.75550833  0.37094737  0.37245053  1.0
  C  C109  1  0.01820102  0.35727418  0.33173971  1.0
  C  C110  1  0.48972676  0.62098650  0.77391663  1.0
  C  C111  1  0.59478038  0.61899133  0.34864787  1.0
  C  C112  1  0.56176307  0.66002899  0.83991530  1.0
  C  C113  1  0.56079648  0.67044259  0.90871406  1.0
  C  C114  1  0.48699809  0.64298053  0.91426311  1.0
  C  C115  1  0.41597916  0.61383591  0.85066011  1.0
  C  C116  1  0.42360706  0.53521332  0.63210596  1.0
  C  C117  1  0.41733123  0.60254955  0.78159342  1.0
  C  C118  1  0.46423835  0.61479602  0.10234351  1.0
  C  C119  1  0.46526249  0.60257342  0.16520405  1.0
  C  C120  1  0.53064420  0.62575628  0.08531871  1.0
  C  C121  1  0.52836389  0.59512605  0.21101306  1.0
  C  C122  1  0.59019764  0.59632983  0.18877442  1.0
  C  C123  1  0.40248100  0.27053668  0.54765964  1.0
  C  C124  1  0.59467862  0.61857703  0.12991323  1.0
  C  C125  1  0.23617102  0.21164119  0.21992426  1.0
  C  C126  1  0.15893191  0.20490328  0.19306417  1.0
  C  C127  1  0.59274758  0.73874101  0.59179833  1.0
  C  C128  1  0.09535586  0.13737936  0.13105692  1.0
  C  C129  1  0.10659194  0.07357302  0.09493767  1.0
  C  C130  1  0.18304499  0.07870702  0.12277989  1.0
  C  C131  1  0.24654589  0.14679183  0.18420400  1.0
  C  C132  1  0.97340876  0.80670958  0.91785247  1.0
  C  C133  1  0.91090449  0.74722835  0.84760316  1.0
  C  C134  1  0.98420155  0.88640965  0.93883121  1.0
  C  C135  1  0.62020252  0.39263733  0.46286258  1.0
  C  C136  1  0.86060389  0.76322014  0.79878586  1.0
  C  C137  1  0.87249770  0.84276205  0.82063087  1.0
  C  C138  1  0.23732431  0.47300912  0.38773974  1.0
  C  C139  1  0.93278798  0.90189418  0.88892133  1.0
  C  C140  1  0.32656295  0.36523979  0.29747512  1.0
  C  C141  1  0.30334018  0.28410743  0.28397765  1.0
  C  C142  1  0.16538970  0.53691139  0.33237292  1.0
  C  C143  1  0.67383498  0.08188743  0.57717783  1.0
  C  C144  1  0.33345828  0.95174318  0.67924365  1.0
  C  C145  1  0.69775607  0.18396279  0.78514385  1.0
  C  C146  1  0.61594084  0.49632205  0.22346046  1.0
  C  C147  1  0.73744526  0.69954287  0.16753777  1.0
  C  C148  1  0.09370915  0.83173565  0.02692004  1.0
  C  C149  1  0.74979721  0.61845408  0.70651460  1.0
  C  C150  1  0.26028052  0.36415816  0.17472608  1.0
  C  C151  1  0.76740650  0.70711051  0.65948813  1.0
  N  N152  1  0.40314895  0.36608560  0.40046959  1.0
  N  N153  1  0.53825355  0.63914231  0.02425624  1.0
  N  N154  1  0.03977608  0.00983250  0.03058705  1.0
  N  N155  1  0.61570476  0.50118145  0.45889951  1.0
  N  N156  1  0.04621220  0.94666969  0.00712923  1.0
  N  N157  1  0.48694769  0.57624063  0.36944238  1.0
  N  N158  1  0.51541175  0.37965787  0.58471652  1.0
  N  N159  1  0.56964382  0.61082731  0.40146610  1.0
  N  N160  1  0.43303265  0.34364342  0.54830595  1.0
  N  N161  1  0.59115198  0.44212710  0.48404214  1.0
  N  N162  1  0.38883052  0.41250264  0.36593842  1.0
  N  N163  1  0.56414651  0.66194275  0.54615149  1.0
  N  N164  1  0.44911653  0.50704126  0.58216873  1.0
  N  N165  1  0.23674881  0.52707554  0.35710707  1.0
  N  N166  1  0.63596374  0.02188397  0.60186576  1.0
  N  N167  1  0.37461917  0.01374435  0.65800788  1.0
  N  N168  1  0.63035171  0.17163975  0.72234628  1.0
  N  N169  1  0.64750217  0.57489332  0.22127220  1.0
  N  N170  1  0.66089693  0.62768601  0.11297971  1.0
  N  N171  1  0.01726762  0.78275142  0.96143214  1.0
  N  N172  1  0.29709902  0.40118613  0.25586793  1.0
  N  N173  1  0.30810368  0.47942520  0.42805339  1.0
  N  N174  1  0.69660327  0.58086760  0.63446179  1.0
  N  N175  1  0.70815173  0.63670317  0.60473045  1.0
  N  N176  1  0.29200720  0.41529544  0.44735369  1.0
  N  N177  1  0.53070605  0.54283962  0.61546193  1.0
  N  N178  1  0.48258153  0.62469233  0.51690702  1.0
  N  N179  1  0.47769905  0.63630721  0.97765037  1.0
  O  O180  1  0.79128595  0.77163403  0.64335726  1.0
  O  O181  1  0.38168443  0.86598439  0.53427350  1.0
  O  O182  1  0.69767254  0.53876229  0.39927222  1.0
  O  O183  1  0.77959076  0.21812068  0.34278363  1.0
  O  O184  1  0.60702834  0.33028642  0.48172711  1.0
