# generated using pymatgen
data_ZnH30C26N7O8
_symmetry_space_group_name_H-M   'P 1'
_cell_length_a   9.23405424
_cell_length_b   18.32437449
_cell_length_c   19.39179829
_cell_angle_alpha   91.18544558
_cell_angle_beta   90.94383055
_cell_angle_gamma   91.00232525
_symmetry_Int_Tables_number   1
_chemical_formula_structural   ZnH30C26N7O8
_chemical_formula_sum   'Zn2 H60 C52 N14 O16'
_cell_volume   3279.58321206
_cell_formula_units_Z   2
loop_
 _symmetry_equiv_pos_site_id
 _symmetry_equiv_pos_as_xyz
  1  'x, y, z'
loop_
 _atom_site_type_symbol
 _atom_site_label
 _atom_site_symmetry_multiplicity
 _atom_site_fract_x
 _atom_site_fract_y
 _atom_site_fract_z
 _atom_site_occupancy
  Zn  Zn0  1  0.52023959  0.42306039  0.49689765  1.0
  Zn  Zn1  1  0.53255589  0.58352032  0.50372556  1.0
  H  H2  1  0.31731842  0.48047554  0.07375928  1.0
  H  H3  1  0.51189294  0.29157054  0.73337502  1.0
  H  H4  1  0.61761734  0.27810026  0.65757751  1.0
  H  H5  1  0.45433272  0.32790504  0.65293436  1.0
  H  H6  1  0.22634116  0.60445772  0.72497182  1.0
  H  H7  1  0.32315265  0.71260158  0.68318115  1.0
  H  H8  1  0.49511965  0.67174729  0.67428139  1.0
  H  H9  1  0.43483629  0.69833725  0.75790029  1.0
  H  H10  1  0.37769262  0.35721160  0.28125336  1.0
  H  H11  1  0.63461883  0.30078200  0.26250752  1.0
  H  H12  1  0.52945330  0.27517970  0.33509895  1.0
  H  H13  1  0.74920115  0.50766499  0.92681887  1.0
  H  H14  1  0.66739023  0.34367537  0.34500913  1.0
  H  H15  1  0.69353900  0.66464276  0.18199137  1.0
  H  H16  1  0.60068180  0.71273431  0.08484532  1.0
  H  H17  1  0.44463811  0.67211603  0.12315248  1.0
  H  H18  1  0.53282875  0.62693212  0.05390373  1.0
  H  H19  1  0.68418138  0.34762617  0.80322739  1.0
  H  H20  1  0.58357273  0.36207808  0.94503640  1.0
  H  H21  1  0.63568385  0.28395673  0.89677161  1.0
  H  H22  1  0.46161231  0.32254333  0.88217871  1.0
  H  H23  1  0.28541491  0.62937675  0.82323804  1.0
  H  H24  1  0.28874453  0.47863588  0.94594888  1.0
  H  H25  1  0.48538381  0.62364325  0.94296610  1.0
  H  H26  1  0.35859624  0.69190688  0.92288267  1.0
  H  H27  1  0.51770325  0.68180114  0.87223338  1.0
  H  H28  1  0.44941562  0.33490008  0.19065012  1.0
  H  H29  1  0.52749029  0.28079304  0.09242731  1.0
  H  H30  1  0.68453374  0.33054310  0.12362212  1.0
  H  H31  1  0.57539620  0.36545740  0.05567134  1.0
  H  H32  1  0.28591785  0.36218398  0.43557845  1.0
  H  H33  1  0.67551890  0.66344121  0.39506036  1.0
  H  H34  1  0.75354893  0.35586725  0.53521320  1.0
  H  H35  1  0.77719854  0.51232494  0.05469456  1.0
  H  H36  1  0.26767404  0.63362353  0.53931485  1.0
  H  H37  1  0.22684516  0.21009034  0.39964444  1.0
  H  H38  1  0.75765650  0.81461016  0.41241464  1.0
  H  H39  1  0.80414178  0.20252182  0.54740116  1.0
  H  H40  1  0.18977137  0.78779679  0.57237728  1.0
  H  H41  1  0.57396705  0.12423404  0.62580264  1.0
  H  H42  1  0.77552862  0.10795781  0.68512950  1.0
  H  H43  1  0.83250149  0.05586862  0.61280030  1.0
  H  H44  1  0.74942946  0.01204658  0.68475613  1.0
  H  H45  1  0.21112377  0.87482753  0.45125837  1.0
  H  H46  1  0.74118100  0.65623610  0.27733170  1.0
  H  H47  1  0.12365829  0.91371077  0.34222018  1.0
  H  H48  1  0.31766365  0.91971267  0.33955267  1.0
  H  H49  1  0.21436158  0.99932202  0.35602800  1.0
  H  H50  1  0.11537211  0.02185324  0.47365072  1.0
  H  H51  1  0.01351267  0.12749418  0.51933223  1.0
  H  H52  1  0.18609014  0.16978189  0.53431422  1.0
  H  H53  1  0.12601636  0.09961984  0.58977643  1.0
  H  H54  1  0.75463998  0.94011709  0.59501295  1.0
  H  H55  1  0.68459533  0.84973546  0.67330220  1.0
  H  H56  1  0.50469855  0.85129903  0.63985082  1.0
  H  H57  1  0.48720877  0.69683750  0.23794050  1.0
  H  H58  1  0.57216576  0.92643447  0.69118520  1.0
  H  H59  1  0.57043007  0.74201039  0.31134504  1.0
  H  H60  1  0.44040441  0.67034816  0.32290067  1.0
  H  H61  1  0.73711547  0.37752188  0.71069249  1.0
  C  C62  1  0.48912039  0.50089100  0.62862961  1.0
  C  C63  1  0.36498913  0.80081346  0.52479480  1.0
  C  C64  1  0.47565618  0.15535623  0.50421992  1.0
  C  C65  1  0.46998716  0.84588293  0.49546692  1.0
  C  C66  1  0.54550213  0.03694729  0.56333645  1.0
  C  C67  1  0.33937228  0.96262049  0.47750570  1.0
  C  C68  1  0.32232878  0.03778791  0.49509842  1.0
  C  C69  1  0.55872255  0.96166449  0.55039146  1.0
  C  C70  1  0.46008601  0.92630140  0.50321925  1.0
  C  C71  1  0.44765466  0.07930886  0.52042676  1.0
  C  C72  1  0.80368522  0.49877733  0.51377655  1.0
  C  C73  1  0.55932629  0.50802926  0.37234115  1.0
  C  C74  1  0.24083080  0.49778729  0.48686133  1.0
  C  C75  1  0.95772546  0.49293616  0.50494982  1.0
  C  C76  1  0.08710079  0.49217527  0.49506456  1.0
  C  C77  1  0.60878279  0.56712897  0.25850143  1.0
  C  C78  1  0.56301420  0.43980314  0.73784087  1.0
  C  C79  1  0.41196937  0.54801843  0.74479394  1.0
  C  C80  1  0.52203173  0.43998433  0.26041511  1.0
  C  C81  1  0.60686060  0.56407828  0.18524693  1.0
  C  C82  1  0.56892225  0.43753008  0.81099938  1.0
  C  C83  1  0.42173396  0.54691779  0.81776767  1.0
  C  C84  1  0.39704929  0.27470544  0.46085249  1.0
  C  C85  1  0.52173593  0.43702609  0.18723389  1.0
  C  C86  1  0.56156519  0.49924244  0.14960526  1.0
  C  C87  1  0.50171308  0.49219497  0.85108505  1.0
  C  C88  1  0.56593426  0.50510124  0.29535228  1.0
  C  C89  1  0.48590382  0.49549448  0.70580238  1.0
  C  C90  1  0.41196216  0.48699836  0.04140216  1.0
  C  C91  1  0.65422787  0.50229833  0.95917719  1.0
  C  C92  1  0.39600863  0.48533514  0.96982811  1.0
  C  C93  1  0.67014669  0.50436281  0.03083979  1.0
  C  C94  1  0.51699057  0.49296155  0.92751020  1.0
  C  C95  1  0.59029982  0.73447679  0.46096218  1.0
  C  C96  1  0.54905558  0.49684422  0.07306414  1.0
  C  C97  1  0.52970053  0.68913349  0.29072493  1.0
  C  C98  1  0.54979873  0.31713685  0.68539120  1.0
  C  C99  1  0.39956539  0.67509188  0.70704293  1.0
  C  C100  1  0.58239432  0.32144041  0.30996697  1.0
  C  C101  1  0.55122174  0.66083788  0.10037881  1.0
  C  C102  1  0.57684547  0.33538785  0.89401021  1.0
  C  C103  1  0.43281089  0.65202430  0.90053536  1.0
  C  C104  1  0.57214930  0.33568559  0.10395529  1.0
  C  C105  1  0.74774781  0.06032116  0.65195248  1.0
  C  C106  1  0.61819745  0.27104440  0.51540597  1.0
  C  C107  1  0.22050492  0.94052399  0.36554354  1.0
  C  C108  1  0.12568734  0.11779432  0.53573500  1.0
  C  C109  1  0.60160216  0.88523319  0.65140965  1.0
  C  C110  1  0.37752922  0.72463582  0.52242714  1.0
  C  C111  1  0.38329337  0.19853507  0.46161133  1.0
  C  C112  1  0.58417566  0.81072953  0.46187149  1.0
  C  C113  1  0.60754592  0.19539892  0.52099746  1.0
  N  N114  1  0.51029739  0.31227861  0.49004747  1.0
  N  N115  1  0.47796324  0.37119949  0.15407190  1.0
  N  N116  1  0.60508839  0.07167188  0.62161240  1.0
  N  N117  1  0.22216061  0.92857524  0.44016043  1.0
  N  N118  1  0.18478385  0.06309196  0.48977532  1.0
  N  N119  1  0.65543767  0.91633359  0.58770737  1.0
  N  N120  1  0.49198606  0.69243341  0.49355041  1.0
  N  N121  1  0.64605413  0.63486147  0.29482083  1.0
  N  N122  1  0.63197433  0.38548382  0.69673597  1.0
  N  N123  1  0.33124072  0.60245540  0.70975667  1.0
  N  N124  1  0.47537162  0.37796031  0.29784348  1.0
  N  N125  1  0.65122466  0.62615072  0.14867572  1.0
  N  N126  1  0.64438773  0.38013598  0.84126785  1.0
  N  N127  1  0.34846514  0.60072172  0.85620919  1.0
  O  O128  1  0.44478500  0.44597619  0.59220004  1.0
  O  O129  1  0.70478810  0.70350992  0.42864188  1.0
  O  O130  1  0.74765016  0.30090842  0.53662286  1.0
  O  O131  1  0.26941181  0.68726684  0.55249328  1.0
  O  O132  1  0.27974845  0.16838602  0.41773862  1.0
  O  O133  1  0.68794819  0.85032402  0.42909648  1.0
  O  O134  1  0.73325906  0.16208833  0.54178334  1.0
  O  O135  1  0.24834925  0.82979919  0.55798508  1.0
  O  O136  1  0.50712999  0.56508908  0.40059032  1.0
  O  O137  1  0.60367337  0.45334218  0.40553317  1.0
  O  O138  1  0.53975366  0.56024174  0.60479501  1.0
  O  O139  1  0.73436960  0.44234811  0.53438107  1.0
  O  O140  1  0.30242715  0.55630597  0.50904835  1.0
  O  O141  1  0.30785216  0.44504449  0.45871789  1.0
  O  O142  1  0.75149197  0.56000440  0.49966392  1.0
  O  O143  1  0.29033894  0.30823824  0.42521887  1.0
