# generated using pymatgen
data_ZnH10C13IN4
_symmetry_space_group_name_H-M   'P 1'
_cell_length_a   14.79201524
_cell_length_b   17.54574485
_cell_length_c   19.49079598
_cell_angle_alpha   88.57487156
_cell_angle_beta   87.34285476
_cell_angle_gamma   88.50966732
_symmetry_Int_Tables_number   1
_chemical_formula_structural   ZnH10C13IN4
_chemical_formula_sum   'Zn8 H80 C104 I8 N32'
_cell_volume   5050.01440527
_cell_formula_units_Z   8
loop_
 _symmetry_equiv_pos_site_id
 _symmetry_equiv_pos_as_xyz
  1  'x, y, z'
loop_
 _atom_site_type_symbol
 _atom_site_label
 _atom_site_symmetry_multiplicity
 _atom_site_fract_x
 _atom_site_fract_y
 _atom_site_fract_z
 _atom_site_occupancy
  Zn  Zn0  1  0.02149509  0.91951810  0.45059305  1.0
  Zn  Zn1  1  0.02442080  0.06495115  0.59731482  1.0
  Zn  Zn2  1  0.47474222  0.55838960  0.92976652  1.0
  Zn  Zn3  1  0.48429269  0.42465054  0.06995025  1.0
  Zn  Zn4  1  0.85023459  0.03542592  0.50952200  1.0
  Zn  Zn5  1  0.19987496  0.97973692  0.49535569  1.0
  Zn  Zn6  1  0.28150259  0.46128922  0.01192333  1.0
  Zn  Zn7  1  0.67202944  0.53169946  0.99551291  1.0
  H  H8  1  0.92152445  0.17916169  0.39935391  1.0
  H  H9  1  0.35406483  0.90768371  0.37596535  1.0
  H  H10  1  0.03606629  0.21028566  0.49323811  1.0
  H  H11  1  0.81466421  0.86634367  0.54738645  1.0
  H  H12  1  0.45401599  0.71251423  0.02351442  1.0
  H  H13  1  0.52946727  0.27294113  0.97888016  1.0
  H  H14  1  0.79955134  0.59411650  0.87849871  1.0
  H  H15  1  0.15865456  0.40955335  0.14457815  1.0
  H  H16  1  0.93614215  0.18445515  0.71962912  1.0
  H  H17  1  0.10006549  0.82703296  0.30720739  1.0
  H  H18  1  0.13183386  0.03697606  0.35183712  1.0
  H  H19  1  0.01318785  0.75205939  0.55026433  1.0
  H  H20  1  0.99761141  0.91463955  0.70727102  1.0
  H  H21  1  0.40031612  0.53655022  0.17865697  1.0
  H  H22  1  0.57879163  0.45255019  0.82665256  1.0
  H  H23  1  0.54577341  0.68016805  0.80096416  1.0
  H  H24  1  0.41743191  0.31472671  0.20424057  1.0
  H  H25  1  0.74604717  0.89076902  0.75708835  1.0
  H  H26  1  0.25304751  0.12326987  0.29827954  1.0
  H  H27  1  0.41438464  0.87229152  0.21997033  1.0
  H  H28  1  0.63705158  0.11328569  0.79669133  1.0
  H  H29  1  0.11157353  0.37900554  0.30723679  1.0
  H  H30  1  0.14622175  0.15689104  0.68900867  1.0
  H  H31  1  0.84074178  0.62771161  0.70603011  1.0
  H  H32  1  0.72401983  0.38129139  0.78338784  1.0
  H  H33  1  0.25448487  0.63083851  0.22041412  1.0
  H  H34  1  0.19817631  0.30308232  0.41718475  1.0
  H  H35  1  0.76741188  0.73481111  0.61054239  1.0
  H  H36  1  0.66019976  0.29727255  0.67273709  1.0
  H  H37  1  0.33905716  0.69133701  0.33498478  1.0
  H  H38  1  0.81879448  0.78220979  0.85274893  1.0
  H  H39  1  0.16599621  0.20003091  0.18811339  1.0
  H  H40  1  0.32980080  0.81301037  0.10569348  1.0
  H  H41  1  0.93872042  0.85475952  0.31837977  1.0
  H  H42  1  0.70076164  0.19646566  0.90692247  1.0
  H  H43  1  0.34290488  0.25849038  0.32629230  1.0
  H  H44  1  0.63126246  0.77657366  0.71097219  1.0
  H  H45  1  0.52038135  0.23872168  0.76289633  1.0
  H  H46  1  0.49277580  0.72560076  0.24784813  1.0
  H  H47  1  0.95572396  0.74209222  0.75150955  1.0
  H  H48  1  0.02051572  0.24284611  0.28015434  1.0
  H  H49  1  0.17649155  0.77665076  0.19161675  1.0
  H  H50  1  0.83934273  0.25719681  0.81847867  1.0
  H  H51  1  0.76559898  0.78885003  0.27875038  1.0
  H  H52  1  0.35628889  0.63007246  0.80825353  1.0
  H  H53  1  0.35065706  0.19625829  0.70250844  1.0
  H  H54  1  0.20067616  0.74034945  0.70172875  1.0
  H  H55  1  0.73314613  0.26022867  0.27539407  1.0
  H  H56  1  0.22033384  0.26122572  0.76082830  1.0
  H  H57  1  0.81580777  0.78849546  0.17332285  1.0
  H  H58  1  0.82744444  0.28220706  0.17987041  1.0
  H  H59  1  0.14406551  0.70800600  0.80986945  1.0
  H  H60  1  0.59918047  0.97136014  0.23996659  1.0
  H  H61  1  0.70600565  0.99686988  0.26810939  1.0
  H  H62  1  0.68771234  0.99170908  0.17847214  1.0
  H  H63  1  0.61543039  0.36382335  0.19305824  1.0
  H  H64  1  0.30789911  0.37688411  0.56771980  1.0
  H  H65  1  0.25189689  0.29204128  0.54894292  1.0
  H  H66  1  0.19739843  0.36197949  0.60312106  1.0
  H  H67  1  0.99045227  0.58501055  0.67664781  1.0
  H  H68  1  0.98288282  0.67166818  0.62884698  1.0
  H  H69  1  0.05858256  0.59786782  0.60027828  1.0
  H  H70  1  0.88440393  0.41438790  0.37192235  1.0
  H  H71  1  0.88556721  0.32067026  0.40924230  1.0
  H  H72  1  0.96929251  0.34764795  0.34541942  1.0
  H  H73  1  0.35425255  0.44326161  0.66423577  1.0
  H  H74  1  0.60824458  0.67058945  0.10762550  1.0
  H  H75  1  0.33869025  0.44841004  0.75516746  1.0
  H  H76  1  0.43455919  0.39929129  0.71772067  1.0
  H  H77  1  0.57927895  0.90482147  0.12839535  1.0
  H  H78  1  0.59867352  0.81586173  0.08734261  1.0
  H  H79  1  0.53914082  0.82034811  0.16852720  1.0
  H  H80  1  0.87222241  0.48646597  0.26768172  1.0
  H  H81  1  0.78703603  0.49001650  0.20663326  1.0
  H  H82  1  0.75803768  0.47497896  0.29587512  1.0
  H  H83  1  0.08049770  0.50275590  0.73419242  1.0
  H  H84  1  0.18603580  0.51406416  0.68957808  1.0
  H  H85  1  0.37142023  0.40216965  0.86694662  1.0
  H  H86  1  0.18034481  0.50040421  0.78075483  1.0
  H  H87  1  0.69684957  0.11189729  0.62163732  1.0
  C  C88  1  0.84899081  0.17181093  0.40440962  1.0
  C  C89  1  0.70350531  0.76903811  0.72007838  1.0
  C  C90  1  0.89714885  0.35365817  0.36119548  1.0
  C  C91  1  0.36149892  0.41120166  0.71297607  1.0
  C  C92  1  0.59586075  0.84394085  0.13714590  1.0
  C  C93  1  0.80812213  0.46137274  0.25412246  1.0
  C  C94  1  0.14733170  0.52834886  0.73730698  1.0
  C  C95  1  0.59190035  0.24221291  0.77446853  1.0
  C  C96  1  0.42210225  0.73743843  0.23593963  1.0
  C  C97  1  0.88336285  0.74954355  0.74301310  1.0
  C  C98  1  0.09247985  0.24670821  0.29003199  1.0
  C  C99  1  0.24701620  0.76541811  0.20437449  1.0
  C  C100  1  0.76840869  0.25254884  0.80558122  1.0
  C  C101  1  0.31768245  0.21762398  0.65647674  1.0
  C  C102  1  0.75019459  0.84995236  0.28221919  1.0
  C  C103  1  0.78398645  0.26571617  0.31382233  1.0
  C  C104  1  0.06711665  0.78923271  0.56275604  1.0
  C  C105  1  0.14443691  0.72606402  0.67028271  1.0
  C  C106  1  0.74987751  0.78304591  0.15100805  1.0
  C  C107  1  0.26083367  0.31092685  0.76983998  1.0
  C  C108  1  0.16044502  0.64723969  0.80421471  1.0
  C  C109  1  0.80777932  0.34238072  0.18495041  1.0
  C  C110  1  0.30155897  0.29388302  0.65140744  1.0
  C  C111  1  0.70281115  0.88228336  0.23054751  1.0
  C  C112  1  0.83686342  0.32824189  0.30659243  1.0
  C  C113  1  0.10319463  0.65927084  0.68742155  1.0
  C  C114  1  0.68398938  0.83390898  0.17210588  1.0
  C  C115  1  0.18600885  0.13533457  0.64502062  1.0
  C  C116  1  0.30974049  0.33863518  0.71417638  1.0
  C  C117  1  0.13741930  0.61330745  0.74595366  1.0
  C  C118  1  0.82050556  0.37656399  0.24552195  1.0
  C  C119  1  0.76451763  0.12243846  0.63810482  1.0
  C  C120  1  0.28402029  0.89462270  0.36771270  1.0
  C  C121  1  0.05393339  0.15836457  0.46594163  1.0
  C  C122  1  0.86559759  0.88766711  0.57980772  1.0
  C  C123  1  0.44752186  0.66033274  0.05431628  1.0
  C  C124  1  0.53266141  0.32538766  0.94815012  1.0
  C  C125  1  0.72967736  0.60593277  0.86595424  1.0
  C  C126  1  0.88515416  0.88162060  0.35002623  1.0
  C  C127  1  0.22928604  0.39330075  0.15054927  1.0
  C  C128  1  0.88646126  0.15994152  0.68780681  1.0
  C  C129  1  0.15409333  0.85388754  0.33291116  1.0
  C  C130  1  0.10320842  0.06986563  0.39423969  1.0
  C  C131  1  0.95885871  0.91294031  0.66135488  1.0
  C  C132  1  0.41962815  0.57046659  0.13319006  1.0
  C  C133  1  0.55786507  0.41701684  0.87065085  1.0
  C  C134  1  0.59992116  0.65061745  0.82742409  1.0
  C  C135  1  0.36124340  0.34460294  0.18049197  1.0
  C  C136  1  0.28843784  0.11282776  0.56243038  1.0
  C  C137  1  0.31269789  0.60868101  0.85043294  1.0
  C  C138  1  0.75761989  0.92721354  0.39624696  1.0
  C  C139  1  0.70190254  0.17037931  0.39408122  1.0
  C  C140  1  0.18120644  0.84824989  0.60493250  1.0
  C  C141  1  0.82313035  0.69040611  0.06533579  1.0
  C  C142  1  0.17416184  0.32228886  0.88548266  1.0
  C  C143  1  0.19994591  0.57648104  0.92126282  1.0
  C  C144  1  0.75947591  0.40728368  0.06741336  1.0
  C  C145  1  0.78027912  0.20817497  0.36754431  1.0
  C  C146  1  0.12947670  0.78176263  0.61580951  1.0
  C  C147  1  0.27089791  0.15954875  0.61922691  1.0
  C  C148  1  0.65406069  0.38311797  0.14738418  1.0
  C  C149  1  0.79229132  0.88650291  0.33880618  1.0
  C  C150  1  0.21771401  0.61142156  0.85645490  1.0
  C  C151  1  0.74812984  0.37631607  0.13405362  1.0
  C  C152  1  0.74719504  0.72167580  0.10336222  1.0
  C  C153  1  0.24881920  0.33811756  0.83873305  1.0
  C  C154  1  0.79167295  0.16449135  0.69394620  1.0
  C  C155  1  0.24788613  0.84793114  0.31881160  1.0
  C  C156  1  0.10055515  0.14888566  0.40187619  1.0
  C  C157  1  0.88856302  0.86445275  0.64584124  1.0
  C  C158  1  0.41320504  0.64977471  0.12215126  1.0
  C  C159  1  0.67852876  0.67141652  0.08889246  1.0
  C  C160  1  0.57419826  0.33888655  0.88283503  1.0
  C  C161  1  0.69382659  0.65754989  0.81772975  1.0
  C  C162  1  0.26864455  0.34468462  0.19989170  1.0
  C  C163  1  0.19072923  0.27980604  0.36616887  1.0
  C  C164  1  0.77865416  0.74554142  0.66459253  1.0
  C  C165  1  0.66838716  0.27568992  0.72535157  1.0
  C  C166  1  0.33746267  0.71738395  0.28340704  1.0
  C  C167  1  0.80833821  0.77286269  0.79838013  1.0
  C  C168  1  0.17254459  0.22196076  0.23968920  1.0
  C  C169  1  0.33190345  0.78561672  0.15672410  1.0
  C  C170  1  0.30507803  0.37922701  0.87938972  1.0
  C  C171  1  0.69155884  0.21908948  0.85475927  1.0
  C  C172  1  0.76609523  0.83153509  0.74656453  1.0
  C  C173  1  0.22123521  0.18032683  0.29997422  1.0
  C  C174  1  0.37921657  0.81817847  0.21973590  1.0
  C  C175  1  0.65583551  0.17330033  0.79396100  1.0
  C  C176  1  0.14249565  0.32163483  0.30540664  1.0
  C  C177  1  0.82060619  0.68683939  0.71680800  1.0
  C  C178  1  0.70458860  0.32140595  0.78579272  1.0
  C  C179  1  0.28978542  0.68492885  0.22089250  1.0
  C  C180  1  0.84174961  0.80847199  0.69021862  1.0
  C  C181  1  0.27107875  0.25518805  0.31551397  1.0
  C  C182  1  0.14089450  0.20380066  0.35168918  1.0
  C  C183  1  0.29377217  0.79903170  0.26749746  1.0
  C  C184  1  0.73393689  0.20629944  0.74427775  1.0
  C  C185  1  0.22362768  0.29783434  0.25432029  1.0
  C  C186  1  0.74470543  0.70984816  0.77225259  1.0
  C  C187  1  0.62756474  0.28905437  0.83597436  1.0
  C  C188  1  0.37447051  0.70423647  0.17207340  1.0
  C  C189  1  0.67270695  0.96483478  0.22920870  1.0
  C  C190  1  0.26241562  0.33286164  0.58942343  1.0
  C  C191  1  0.03013266  0.62685067  0.64627504  1.0
  I  I192  1  0.39941096  0.11284751  0.49303293  1.0
  I  I193  1  0.62189334  0.94424620  0.42585140  1.0
  I  I194  1  0.56958280  0.19011933  0.36333158  1.0
  I  I195  1  0.28901187  0.88496247  0.65906876  1.0
  I  I196  1  0.95285445  0.73469553  0.06069770  1.0
  I  I197  1  0.05647125  0.26549799  0.86435239  1.0
  I  I198  1  0.07816913  0.54883311  0.97154387  1.0
  I  I199  1  0.87700990  0.41506502  0.00542809  1.0
  N  N200  1  0.81209695  0.11897058  0.44785388  1.0
  N  N201  1  0.21590821  0.92547309  0.40751039  1.0
  N  N202  1  0.03105288  0.08999269  0.49400240  1.0
  N  N203  1  0.91823807  0.94655175  0.55735632  1.0
  N  N204  1  0.47307130  0.59210996  0.02747662  1.0
  N  N205  1  0.49491244  0.39095199  0.97275397  1.0
  N  N206  1  0.66161835  0.57097105  0.90139752  1.0
  N  N207  1  0.29410693  0.41988313  0.10560589  1.0
  N  N208  1  0.91306753  0.11829752  0.63262336  1.0
  N  N209  1  0.13533211  0.90005437  0.38592714  1.0
  N  N210  1  0.06362264  0.03420213  0.45038159  1.0
  N  N211  1  0.08141700  0.85343296  0.52523042  1.0
  N  N212  1  0.97541294  0.96135643  0.60819165  1.0
  N  N213  1  0.45452787  0.53673672  0.07632242  1.0
  N  N214  1  0.51120339  0.44769698  0.92469851  1.0
  N  N215  1  0.58120950  0.59884936  0.87810687  1.0
  N  N216  1  0.37589726  0.38915589  0.12388769  1.0
  N  N217  1  0.21854680  0.06537815  0.55509560  1.0
  N  N218  1  0.82414505  0.94594016  0.43752847  1.0
  N  N219  1  0.71996139  0.11831730  0.44273869  1.0
  N  N220  1  0.15217946  0.89014841  0.55135702  1.0
  N  N221  1  0.80382711  0.62853126  0.03096361  1.0
  N  N222  1  0.15521746  0.07928742  0.60747176  1.0
  N  N223  1  0.18343804  0.35027593  0.94755241  1.0
  N  N224  1  0.27820134  0.55532325  0.95113877  1.0
  N  N225  1  0.67850788  0.43223032  0.04362217  1.0
  N  N226  1  0.90348712  0.91696909  0.40830429  1.0
  N  N227  1  0.34798387  0.57522637  0.90630962  1.0
  N  N228  1  0.61315143  0.41629342  0.09406394  1.0
  N  N229  1  0.71359559  0.61684458  0.04684795  1.0
  N  N230  1  0.26595338  0.38477000  0.94331529  1.0
  N  N231  1  0.83733123  0.09461024  0.60225415  1.0
