# generated using pymatgen
data_Zn2H12C27(NO5)2
_symmetry_space_group_name_H-M   'P 1'
_cell_length_a   9.88031204
_cell_length_b   10.96353289
_cell_length_c   11.86654496
_cell_angle_alpha   90.12037316
_cell_angle_beta   89.63368555
_cell_angle_gamma   89.70316358
_symmetry_Int_Tables_number   1
_chemical_formula_structural   Zn2H12C27(NO5)2
_chemical_formula_sum   'Zn2 H12 C27 N2 O10'
_cell_volume   1285.37479676
_cell_formula_units_Z   1
loop_
 _symmetry_equiv_pos_site_id
 _symmetry_equiv_pos_as_xyz
  1  'x, y, z'
loop_
 _atom_site_type_symbol
 _atom_site_label
 _atom_site_symmetry_multiplicity
 _atom_site_fract_x
 _atom_site_fract_y
 _atom_site_fract_z
 _atom_site_occupancy
  Zn  Zn0  1  0.35584004  0.49501574  0.50119615  1.0
  Zn  Zn1  1  0.65024235  0.49220186  0.50406767  1.0
  H  H2  1  0.54408721  0.86553923  0.66432531  1.0
  H  H3  1  0.12638146  0.82974479  0.74826930  1.0
  H  H4  1  0.25429365  0.67781337  0.63515225  1.0
  H  H5  1  0.13312165  0.35711122  0.40060858  1.0
  H  H6  1  0.43786291  0.78398856  0.27738550  1.0
  H  H7  1  0.39791897  0.91232682  0.11025144  1.0
  H  H8  1  0.39649340  0.14004069  0.12761393  1.0
  H  H9  1  0.43748869  0.23758015  0.31109521  1.0
  H  H10  1  0.87658402  0.35735007  0.40051796  1.0
  H  H11  1  0.74884730  0.67259002  0.64218070  1.0
  H  H12  1  0.87353241  0.82609213  0.75286948  1.0
  H  H13  1  0.59469519  0.07462547  0.86211610  1.0
  C  C14  1  0.49234527  0.72882379  0.48583492  1.0
  C  C15  1  0.41618487  0.95503722  0.19182507  1.0
  C  C16  1  0.41576029  0.08364095  0.20150431  1.0
  C  C17  1  0.43929282  0.13843678  0.30414927  1.0
  C  C18  1  0.46478987  0.06705001  0.40179083  1.0
  C  C19  1  0.46383466  0.93646738  0.39191191  1.0
  C  C20  1  0.49269568  0.86547427  0.48948000  1.0
  C  C21  1  0.52115765  0.92095328  0.59078665  1.0
  C  C22  1  0.51896485  0.04970741  0.60184805  1.0
  C  C23  1  0.49195762  0.12204254  0.50826868  1.0
  C  C24  1  0.85853759  0.67391537  0.64122236  1.0
  C  C25  1  0.51062224  0.50459854  0.72085083  1.0
  C  C26  1  0.92914032  0.75929346  0.70219249  1.0
  C  C27  1  0.07228003  0.76137839  0.69948481  1.0
  C  C28  1  0.14454286  0.67773296  0.63627301  1.0
  C  C29  1  0.07513282  0.58903753  0.57239678  1.0
  C  C30  1  0.92943644  0.58761887  0.57419874  1.0
  C  C31  1  0.93270184  0.42361312  0.45028013  1.0
  C  C32  1  0.07551778  0.42373505  0.44997335  1.0
  C  C33  1  0.49382382  0.25949968  0.51330013  1.0
  C  C34  1  0.51190770  0.48320957  0.28346305  1.0
  C  C35  1  0.50577005  0.50435767  0.84243760  1.0
  C  C36  1  0.50675416  0.50158862  0.94548458  1.0
  C  C37  1  0.50861848  0.49595015  0.05901499  1.0
  C  C38  1  0.51145560  0.48947306  0.16193532  1.0
  C  C39  1  0.43902134  0.88303034  0.28503747  1.0
  C  C40  1  0.54318363  0.10788657  0.71262663  1.0
  N  N41  1  0.86145995  0.50328638  0.51085788  1.0
  N  N42  1  0.14485664  0.50453106  0.50925705  1.0
  O  O43  1  0.38116754  0.67650974  0.46314008  1.0
  O  O44  1  0.60313057  0.67583110  0.50944047  1.0
  O  O45  1  0.39952785  0.52460041  0.66991686  1.0
  O  O46  1  0.62633355  0.48652562  0.67654613  1.0
  O  O47  1  0.37965144  0.31219863  0.52399657  1.0
  O  O48  1  0.60834456  0.30916303  0.49755781  1.0
  O  O49  1  0.39815149  0.46186813  0.33054620  1.0
  O  O50  1  0.62559717  0.49979544  0.33103621  1.0
  O  O51  1  0.52924626  0.21636470  0.73396848  1.0
  O  O52  1  0.58313148  0.02609254  0.79347835  1.0
