# generated using pymatgen
data_Zn2H21C24N9O8
_symmetry_space_group_name_H-M   'P 1'
_cell_length_a   10.03604868
_cell_length_b   10.92358848
_cell_length_c   13.98537445
_cell_angle_alpha   90.10122830
_cell_angle_beta   98.67126283
_cell_angle_gamma   90.97031065
_symmetry_Int_Tables_number   1
_chemical_formula_structural   Zn2H21C24N9O8
_chemical_formula_sum   'Zn2 H21 C24 N9 O8'
_cell_volume   1515.45492824
_cell_formula_units_Z   1
loop_
 _symmetry_equiv_pos_site_id
 _symmetry_equiv_pos_as_xyz
  1  'x, y, z'
loop_
 _atom_site_type_symbol
 _atom_site_label
 _atom_site_symmetry_multiplicity
 _atom_site_fract_x
 _atom_site_fract_y
 _atom_site_fract_z
 _atom_site_occupancy
  Zn  Zn0  1  0.64301876  0.48718524  0.50363026  1.0
  Zn  Zn1  1  0.34314190  0.48081771  0.49605202  1.0
  H  H2  1  0.17472814  0.58334515  0.70310073  1.0
  H  H3  1  0.34819164  0.49868531  0.96587175  1.0
  H  H4  1  0.29977420  0.09115016  0.40268011  1.0
  H  H5  1  0.30047641  0.86402411  0.40829213  1.0
  H  H6  1  0.81634733  0.87330118  0.59143542  1.0
  H  H7  1  0.73327947  0.11621908  0.67164214  1.0
  H  H8  1  0.82147859  0.10119739  0.57053210  1.0
  H  H9  1  0.76745088  0.53685118  0.00259806  1.0
  H  H10  1  0.69001918  0.54025002  0.10598731  1.0
  H  H11  1  0.71716142  0.45935158  0.32617710  1.0
  H  H12  1  0.84125436  0.37419432  0.28335631  1.0
  H  H13  1  0.83075448  0.66205002  0.66212216  1.0
  H  H14  1  0.92718756  0.66388520  0.76881640  1.0
  H  H15  1  0.80325627  0.42767872  0.73512975  1.0
  H  H16  1  0.94551168  0.35006214  0.74974695  1.0
  H  H17  1  0.14935239  0.31320939  0.70996709  1.0
  H  H18  1  0.18376390  0.40212890  0.80736693  1.0
  H  H19  1  0.69081867  0.79209897  0.71317995  1.0
  H  H20  1  0.64450353  0.92919221  0.73806777  1.0
  H  H21  1  0.01921829  0.46028356  0.26679493  1.0
  H  H22  1  0.18636581  0.44211868  0.31922330  1.0
  C  C23  1  0.49476978  0.25162947  0.48739988  1.0
  C  C24  1  0.54445066  0.49654720  0.78950997  1.0
  C  C25  1  0.60393414  0.05102528  0.53676022  1.0
  C  C26  1  0.49683960  0.11534232  0.48695919  1.0
  C  C27  1  0.38670873  0.04421441  0.44128346  1.0
  C  C28  1  0.38654384  0.91658825  0.44497696  1.0
  C  C29  1  0.49500597  0.85210873  0.49655960  1.0
  C  C30  1  0.60197979  0.92365020  0.54266446  1.0
  C  C31  1  0.73201480  0.92123648  0.61577382  1.0
  C  C32  1  0.73681664  0.06529888  0.60420155  1.0
  C  C33  1  0.07921229  0.47791536  0.57526968  1.0
  C  C34  1  0.52717622  0.48593827  0.68523113  1.0
  C  C35  1  0.04519942  0.45201639  0.41225528  1.0
  C  C36  1  0.89992847  0.45642813  0.41367012  1.0
  C  C37  1  0.94345480  0.48780043  0.57579681  1.0
  C  C38  1  0.95790163  0.51697088  0.68458040  1.0
  C  C39  1  0.11895246  0.49720751  0.68321573  1.0
  C  C40  1  0.49329890  0.71601851  0.50103217  1.0
  C  C41  1  0.45804158  0.49696996  0.30685072  1.0
  C  C42  1  0.44672247  0.50329969  0.20392552  1.0
  C  C43  1  0.44169018  0.50611105  0.01650648  1.0
  C  C44  1  0.56163958  0.51199710  0.97874743  1.0
  C  C45  1  0.55687142  0.50453263  0.87725591  1.0
  C  C46  1  0.44021182  0.50531006  0.11563391  1.0
  N  N47  1  0.13581664  0.46496741  0.49367180  1.0
  N  N48  1  0.84904769  0.47997451  0.49552689  1.0
  N  N49  1  0.68553008  0.51926705  0.03481025  1.0
  N  N50  1  0.81840060  0.44296189  0.32678043  1.0
  N  N51  1  0.92510688  0.64405822  0.69720842  1.0
  N  N52  1  0.90612935  0.43546849  0.75221642  1.0
  N  N53  1  0.18693967  0.39650220  0.73496433  1.0
  N  N54  1  0.72069794  0.88218425  0.71426174  1.0
  N  N55  1  0.08500867  0.43380673  0.32505459  1.0
  O  O56  1  0.60326145  0.30729915  0.47435987  1.0
  O  O57  1  0.38571201  0.30066309  0.50278613  1.0
  O  O58  1  0.62974687  0.45054900  0.64904451  1.0
  O  O59  1  0.41279892  0.51334790  0.64023487  1.0
  O  O60  1  0.60557340  0.66482118  0.53242151  1.0
  O  O61  1  0.38145604  0.66082236  0.47310397  1.0
  O  O62  1  0.57330776  0.52481813  0.35544538  1.0
  O  O63  1  0.35487874  0.46340062  0.34391906  1.0
