# generated using pymatgen
data_AlH24C33N7O6
_symmetry_space_group_name_H-M   'P 1'
_cell_length_a   3.92965014
_cell_length_b   17.37903178
_cell_length_c   17.77296030
_cell_angle_alpha   117.90684107
_cell_angle_beta   92.19230295
_cell_angle_gamma   91.55276972
_symmetry_Int_Tables_number   1
_chemical_formula_structural   AlH24C33N7O6
_chemical_formula_sum   'Al1 H24 C33 N7 O6'
_cell_volume   1070.44959946
_cell_formula_units_Z   1
loop_
 _symmetry_equiv_pos_site_id
 _symmetry_equiv_pos_as_xyz
  1  'x, y, z'
loop_
 _atom_site_type_symbol
 _atom_site_label
 _atom_site_symmetry_multiplicity
 _atom_site_fract_x
 _atom_site_fract_y
 _atom_site_fract_z
 _atom_site_occupancy
  Al  Al0  1  0.48237327  0.99870844  0.49881761  1.0
  H  H1  1  0.02931004  0.69079961  0.10132446  1.0
  H  H2  1  0.25674638  0.91335706  0.81592385  1.0
  H  H3  1  0.77801498  0.40065673  0.57736383  1.0
  H  H4  1  0.18137526  0.67261503  0.58271535  1.0
  H  H5  1  0.07145284  0.40296940  0.81293320  1.0
  H  H6  1  0.63895056  0.91935179  0.10227038  1.0
  H  H7  1  0.93495423  0.07076352  0.29802769  1.0
  H  H8  1  0.54941958  0.04008559  0.32772366  1.0
  H  H9  1  0.55881071  0.04613005  0.23055743  1.0
  H  H10  1  0.91911225  0.73707150  0.30273371  1.0
  H  H11  1  0.32130935  0.79398648  0.32432007  1.0
  H  H12  1  0.24346337  0.69328634  0.22923932  1.0
  H  H13  1  0.20999534  0.28075824  0.82112674  1.0
  H  H14  1  0.43756260  0.20475620  0.73461015  1.0
  H  H15  1  0.00978239  0.17992998  0.74411126  1.0
  H  H16  1  0.58679095  0.20212442  0.45032863  1.0
  H  H17  1  0.01968492  0.17848714  0.43884042  1.0
  H  H18  1  0.88479492  0.27917420  0.44701708  1.0
  H  H19  1  0.22222482  0.73473750  0.44041066  1.0
  H  H20  1  0.79515305  0.76460711  0.45188768  1.0
  H  H21  1  0.91179025  0.66837172  0.45638928  1.0
  H  H22  1  0.81739682  0.04128016  0.75305116  1.0
  H  H23  1  0.22705643  0.05460741  0.72228449  1.0
  H  H24  1  0.18363399  0.04711892  0.81809114  1.0
  C  C25  1  0.94875781  0.93570020  0.36566123  1.0
  C  C26  1  0.99376762  0.92712604  0.56488826  1.0
  C  C27  1  0.00812284  0.13410104  0.56558399  1.0
  C  C28  1  0.96140292  0.75844196  0.13730542  1.0
  C  C29  1  0.82956962  0.80054770  0.09268303  1.0
  C  C30  1  0.19943487  0.87901435  0.74722524  1.0
  C  C31  1  0.23521408  0.78875934  0.70361696  1.0
  C  C32  1  0.91027389  0.41051498  0.69992290  1.0
  C  C33  1  0.85887853  0.36503480  0.61108125  1.0
  C  C34  1  0.15980199  0.74307675  0.61537143  1.0
  C  C35  1  0.06586931  0.78673069  0.56965583  1.0
  C  C36  1  0.04443742  0.87820156  0.61435048  1.0
  C  C37  1  0.10314996  0.92485608  0.70382682  1.0
  C  C38  1  0.90363251  0.27580000  0.56612143  1.0
  C  C39  1  0.00383692  0.23113219  0.61205187  1.0
  C  C40  1  0.07677004  0.27719972  0.70144201  1.0
  C  C41  1  0.02664047  0.36645398  0.74392437  1.0
  C  C42  1  0.74458025  0.88779223  0.13777312  1.0
  C  C43  1  0.79016530  0.93362481  0.22636545  1.0
  C  C44  1  0.91670310  0.88936759  0.27001988  1.0
  C  C45  1  0.00226513  0.80142209  0.22609098  1.0
  C  C46  1  0.82645508  0.62695342  0.87514119  1.0
  C  C47  1  0.55741499  0.75271191  0.87768760  1.0
  C  C48  1  0.77474157  0.75321024  0.99932897  1.0
  C  C49  1  0.83193477  0.50313151  0.74668622  1.0
  C  C50  1  0.58929568  0.61970075  0.74297664  1.0
  C  C51  1  0.36779775  0.74337063  0.74990347  1.0
  C  C52  1  0.70299951  0.02769601  0.27324792  1.0
  C  C53  1  0.12937887  0.75397711  0.27315215  1.0
  C  C54  1  0.18967567  0.23338334  0.75312621  1.0
  C  C55  1  0.84711655  0.23143764  0.47045776  1.0
  C  C56  1  0.99358116  0.73596831  0.47461308  1.0
  C  C57  1  0.08204452  0.02223074  0.75205286  1.0
  N  N58  1  0.65775530  0.66639191  0.83185028  1.0
  N  N59  1  0.61295820  0.79495767  0.96201766  1.0
  N  N60  1  0.88908959  0.67195070  0.95919749  1.0
  N  N61  1  0.92116165  0.54510738  0.83076836  1.0
  N  N62  1  0.67223522  0.53681328  0.70122301  1.0
  N  N63  1  0.40786956  0.79024803  0.83541673  1.0
  N  N64  1  0.44388540  0.65948706  0.70248972  1.0
  O  O65  1  0.24568441  0.09477408  0.58234606  1.0
  O  O66  1  0.19887937  0.99052233  0.40334184  1.0
  O  O67  1  0.20547695  0.91297399  0.50736189  1.0
  O  O68  1  0.76254397  0.09395258  0.51009201  1.0
  O  O69  1  0.75640313  0.98031395  0.58178604  1.0
  O  O70  1  0.71923889  0.91695431  0.40416904  1.0
