# generated using pymatgen
data_ZnH21C35(NO3)3
_symmetry_space_group_name_H-M   'P 1'
_cell_length_a   14.61935090
_cell_length_b   15.71097951
_cell_length_c   23.77066151
_cell_angle_alpha   90.56516913
_cell_angle_beta   105.73281631
_cell_angle_gamma   98.44229991
_symmetry_Int_Tables_number   1
_chemical_formula_structural   ZnH21C35(NO3)3
_chemical_formula_sum   'Zn2 H42 C70 N6 O18'
_cell_volume   5191.18401394
_cell_formula_units_Z   2
loop_
 _symmetry_equiv_pos_site_id
 _symmetry_equiv_pos_as_xyz
  1  'x, y, z'
loop_
 _atom_site_type_symbol
 _atom_site_label
 _atom_site_symmetry_multiplicity
 _atom_site_fract_x
 _atom_site_fract_y
 _atom_site_fract_z
 _atom_site_occupancy
  Zn  Zn0  1  0.59372508  0.48296318  0.51481452  1.0
  Zn  Zn1  1  0.40778322  0.51812450  0.48426441  1.0
  H  H2  1  0.61534361  0.70524782  0.96644347  1.0
  H  H3  1  0.38307522  0.29800591  0.03248721  1.0
  H  H4  1  0.61268900  0.70687561  0.07242864  1.0
  H  H5  1  0.38658120  0.29612526  0.92664885  1.0
  H  H6  1  0.35679010  0.54051976  0.19161168  1.0
  H  H7  1  0.38810769  0.57509695  0.76766402  1.0
  H  H8  1  0.35819144  0.53824948  0.29745684  1.0
  H  H9  1  0.38664315  0.57522874  0.66167113  1.0
  H  H10  1  0.63942635  0.46456195  0.34169548  1.0
  H  H11  1  0.61881742  0.42779081  0.69782154  1.0
  H  H12  1  0.63758386  0.46521719  0.23563271  1.0
  H  H13  1  0.61919216  0.42546868  0.80351431  1.0
  H  H14  1  0.76307146  0.05585633  0.57576064  1.0
  H  H15  1  0.24556255  0.94779678  0.50709827  1.0
  H  H16  1  0.54185353  0.22180447  0.52271534  1.0
  H  H17  1  0.46265550  0.77943669  0.51271228  1.0
  H  H18  1  0.24493921  0.25013737  0.48025193  1.0
  H  H19  1  0.75935210  0.75139709  0.55207147  1.0
  H  H20  1  0.80732434  0.91091110  0.57106432  1.0
  H  H21  1  0.19944301  0.09204294  0.48957955  1.0
  H  H22  1  0.64069604  0.14998747  0.55917239  1.0
  H  H23  1  0.36822220  0.85313073  0.52249363  1.0
  H  H24  1  0.96216729  0.63699087  0.37322139  1.0
  H  H25  1  0.01610489  0.31466644  0.59115936  1.0
  H  H26  1  0.75680303  0.51877056  0.47048517  1.0
  H  H27  1  0.23414297  0.46103910  0.51332303  1.0
  H  H28  1  0.69604244  0.35432620  0.59391260  1.0
  H  H29  1  0.30174852  0.63908282  0.39888651  1.0
  H  H30  1  0.71663812  0.62034436  0.36962701  1.0
  H  H31  1  0.82224175  0.64616606  0.34581101  1.0
  H  H32  1  0.80231411  0.69442077  0.46727208  1.0
  H  H33  1  0.90680780  0.72578030  0.44342539  1.0
  H  H34  1  0.81179785  0.81219838  0.36496956  1.0
  H  H35  1  0.81073353  0.84654585  0.43608978  1.0
  H  H36  1  0.70828001  0.78105748  0.39017538  1.0
  H  H37  1  0.25051263  0.30852364  0.58067744  1.0
  H  H38  1  0.13700362  0.26857474  0.59207903  1.0
  H  H39  1  0.26131206  0.44349168  0.63934760  1.0
  H  H40  1  0.14935902  0.40611295  0.65309452  1.0
  H  H41  1  0.21962329  0.28103541  0.70615221  1.0
  H  H42  1  0.28534323  0.38152168  0.73848193  1.0
  H  H43  1  0.33236727  0.32084826  0.69342393  1.0
  C  C44  1  0.57550625  0.66327146  0.51631235  1.0
  C  C45  1  0.42718769  0.33769591  0.49499101  1.0
  C  C46  1  0.50009201  0.50112534  0.38894095  1.0
  C  C47  1  0.50078168  0.50102000  0.61036439  1.0
  C  C48  1  0.45974113  0.42355173  0.87097524  1.0
  C  C49  1  0.54036944  0.57923740  0.12826599  1.0
  C  C50  1  0.54609416  0.57612940  0.88610750  1.0
  C  C51  1  0.45293053  0.42707999  0.11296378  1.0
  C  C52  1  0.54328285  0.57564288  0.94797859  1.0
  C  C53  1  0.45546030  0.42756794  0.05100789  1.0
  C  C54  1  0.50039037  0.50109263  0.96968462  1.0
  C  C55  1  0.49859683  0.50202295  0.02933497  1.0
  C  C56  1  0.45929404  0.42564107  0.93328408  1.0
  C  C57  1  0.54008715  0.57736034  0.06581579  1.0
  C  C58  1  0.58303496  0.64891087  0.98456537  1.0
  C  C59  1  0.41562366  0.35429074  0.01441858  1.0
  C  C60  1  0.58150608  0.64975811  0.04337554  1.0
  C  C61  1  0.41761401  0.35329848  0.95569156  1.0
  C  C62  1  0.41838400  0.52408274  0.22481292  1.0
  C  C63  1  0.43765861  0.54225973  0.75177413  1.0
  C  C64  1  0.41924740  0.52296822  0.28349714  1.0
  C  C65  1  0.43692120  0.54240504  0.69313411  1.0
  C  C66  1  0.49915383  0.50197401  0.32566415  1.0
  C  C67  1  0.50196341  0.50076877  0.67365665  1.0
  C  C68  1  0.57808758  0.48144341  0.30850108  1.0
  C  C69  1  0.56809062  0.45913769  0.71353536  1.0
  C  C70  1  0.57714759  0.48172287  0.24979793  1.0
  C  C71  1  0.56855159  0.45815019  0.77215778  1.0
  C  C72  1  0.49731567  0.50326919  0.20846658  1.0
  C  C73  1  0.50323017  0.49974622  0.79079081  1.0
  C  C74  1  0.60706128  0.75782175  0.53034001  1.0
  C  C75  1  0.39728972  0.24390718  0.50166990  1.0
  C  C76  1  0.73158570  0.88187054  0.55850499  1.0
  C  C77  1  0.27480741  0.12085984  0.49758714  1.0
  C  C78  1  0.70555414  0.79394904  0.54775799  1.0
  C  C79  1  0.29947154  0.20812336  0.49249716  1.0
  C  C80  1  0.53734634  0.81041830  0.52624600  1.0
  C  C81  1  0.46784477  0.19152694  0.51693282  1.0
  C  C82  1  0.56158673  0.90022933  0.53765272  1.0
  C  C83  1  0.44503833  0.10230293  0.52248631  1.0
  C  C84  1  0.66123592  0.93685271  0.55297382  1.0
  C  C85  1  0.34583847  0.06606580  0.51164098  1.0
  C  C86  1  0.48942131  0.95607381  0.53185480  1.0
  C  C87  1  0.51789770  0.04660633  0.53566027  1.0
  C  C88  1  0.61805904  0.08064186  0.55232074  1.0
  C  C89  1  0.38987909  0.92246677  0.52225679  1.0
  C  C90  1  0.68699520  0.02802973  0.56172797  1.0
  C  C91  1  0.32104272  0.97519458  0.51370246  1.0
  C  C92  1  0.15245916  0.62184542  0.39919258  1.0
  C  C93  1  0.83643008  0.35261357  0.58085506  1.0
  C  C94  1  0.24603392  0.60601798  0.41692971  1.0
  C  C95  1  0.74800393  0.37955059  0.57058279  1.0
  C  C96  1  0.20653271  0.50555860  0.48098674  1.0
  C  C97  1  0.78373650  0.47219603  0.50132975  1.0
  C  C98  1  0.10833065  0.51438949  0.46460830  1.0
  C  C99  1  0.87505671  0.44836613  0.50743498  1.0
  C  C100  1  0.07981008  0.57759410  0.42273508  1.0
  C  C101  1  0.90437776  0.38687383  0.55045350  1.0
  C  C102  1  0.03716337  0.46655495  0.48959411  1.0
  C  C103  1  0.94170272  0.48605539  0.47548200  1.0
  C  C104  1  0.91607488  0.54639233  0.43003056  1.0
  C  C105  1  0.05970888  0.39939617  0.53041256  1.0
  C  C106  1  0.98331567  0.59043739  0.40565570  1.0
  C  C107  1  0.99538872  0.36218119  0.55942874  1.0
  C  C108  1  0.79535322  0.63560231  0.38459405  1.0
  C  C109  1  0.82766026  0.71222999  0.42876611  1.0
  C  C110  1  0.78735478  0.79233051  0.40337076  1.0
  C  C111  1  0.18671667  0.32767416  0.59004795  1.0
  C  C112  1  0.21403632  0.38523963  0.64569536  1.0
  C  C113  1  0.26541750  0.33941373  0.69864968  1.0
  N  N114  1  0.50341779  0.49948209  0.85156436  1.0
  N  N115  1  0.49650496  0.50338972  0.14756834  1.0
  N  N116  1  0.27213892  0.54986097  0.45845296  1.0
  N  N117  1  0.72384773  0.44012555  0.53213754  1.0
  N  N118  1  0.13343251  0.68715389  0.35539929  1.0
  N  N119  1  0.85630801  0.28914397  0.62579132  1.0
  O  O120  1  0.63927806  0.61379501  0.52884957  1.0
  O  O121  1  0.36377780  0.38732798  0.48847388  1.0
  O  O122  1  0.48586395  0.63885763  0.49281493  1.0
  O  O123  1  0.51516235  0.36161888  0.49679599  1.0
  O  O124  1  0.58040351  0.49713849  0.42618877  1.0
  O  O125  1  0.42835426  0.52521430  0.57468718  1.0
  O  O126  1  0.42066207  0.50457464  0.40060666  1.0
  O  O127  1  0.57226859  0.47677586  0.59726447  1.0
  O  O128  1  0.42396921  0.36013330  0.83731045  1.0
  O  O129  1  0.57670693  0.64237434  0.16205797  1.0
  O  O130  1  0.58287390  0.63880162  0.86510121  1.0
  O  O131  1  0.41600583  0.36449120  0.13396068  1.0
  O  O132  1  0.18274176  0.69400332  0.32022917  1.0
  O  O133  1  0.07095394  0.73242572  0.35676056  1.0
  O  O134  1  0.78629446  0.23889771  0.63207259  1.0
  O  O135  1  0.94073453  0.29001404  0.65561407  1.0
  O  O136  1  0.82295902  0.55695409  0.41176345  1.0
  O  O137  1  0.14613597  0.37402144  0.53865409  1.0
