# generated using pymatgen
data_Al2H9C16S2NO10
_symmetry_space_group_name_H-M   'P 1'
_cell_length_a   6.65427236
_cell_length_b   11.05644403
_cell_length_c   12.69586183
_cell_angle_alpha   100.87583297
_cell_angle_beta   104.49018173
_cell_angle_gamma   106.84803997
_symmetry_Int_Tables_number   1
_chemical_formula_structural   Al2H9C16S2NO10
_chemical_formula_sum   'Al2 H9 C16 S2 N1 O10'
_cell_volume   830.43888519
_cell_formula_units_Z   1
loop_
 _symmetry_equiv_pos_site_id
 _symmetry_equiv_pos_as_xyz
  1  'x, y, z'
loop_
 _atom_site_type_symbol
 _atom_site_label
 _atom_site_symmetry_multiplicity
 _atom_site_fract_x
 _atom_site_fract_y
 _atom_site_fract_z
 _atom_site_occupancy
  Al  Al0  1  0.00169995  0.50223304  0.50020664  1.0
  Al  Al1  1  0.49564479  0.49856185  0.49477496  1.0
  H  H2  1  0.37287568  0.60111050  0.63809837  1.0
  H  H3  1  0.63359586  0.33876430  0.40891097  1.0
  H  H4  1  0.59337382  0.86666704  0.44403488  1.0
  H  H5  1  0.39725004  0.12980869  0.54967020  1.0
  H  H6  1  0.71536864  0.10039618  0.43433923  1.0
  H  H7  1  0.27466149  0.89555818  0.55904909  1.0
  H  H8  1  0.17681566  0.43462958  0.83201365  1.0
  H  H9  1  0.62845869  0.57049693  0.12479285  1.0
  H  H10  1  0.78027317  0.55759712  0.25171750  1.0
  C  C11  1  0.85465666  0.51311488  0.69740819  1.0
  C  C12  1  0.85512000  0.72918353  0.50709924  1.0
  C  C13  1  0.13769464  0.48595570  0.29891690  1.0
  C  C14  1  0.13650948  0.26764216  0.48609300  1.0
  C  C15  1  0.92742744  0.86842998  0.50248252  1.0
  C  C16  1  0.06325891  0.12836971  0.49104616  1.0
  C  C17  1  0.76878083  0.92545072  0.46719874  1.0
  C  C18  1  0.22174291  0.07108727  0.52627655  1.0
  C  C19  1  0.83657658  0.05477717  0.46164449  1.0
  C  C20  1  0.15416369  0.94177521  0.53194455  1.0
  C  C21  1  0.90711976  0.52513895  0.12512588  1.0
  C  C22  1  0.06494310  0.46476907  0.87139006  1.0
  C  C23  1  0.07839585  0.48648613  0.18169002  1.0
  C  C24  1  0.90067087  0.50463400  0.81460314  1.0
  C  C25  1  0.06463160  0.46945392  0.98309545  1.0
  C  C26  1  0.90188379  0.51427569  0.01043716  1.0
  S  S27  1  0.22453775  0.43637487  0.09580400  1.0
  S  S28  1  0.74440816  0.54730021  0.89672964  1.0
  N  N29  1  0.77525987  0.57190040  0.17422840  1.0
  O  O30  1  0.99662491  0.49668288  0.64998356  1.0
  O  O31  1  0.64854070  0.66994209  0.48669557  1.0
  O  O32  1  0.31065810  0.45980486  0.34169513  1.0
  O  O33  1  0.98913815  0.32073223  0.46853492  1.0
  O  O34  1  0.00931554  0.51185899  0.35360938  1.0
  O  O35  1  0.34174824  0.32333616  0.49973024  1.0
  O  O36  1  0.67989618  0.53623959  0.65299796  1.0
  O  O37  1  0.00474595  0.67896836  0.53084075  1.0
  O  O38  1  0.30994584  0.56492682  0.55642205  1.0
  O  O39  1  0.69158334  0.43333016  0.44255134  1.0
