# generated using pymatgen
data_Zr3H23C44Cl5O16
_symmetry_space_group_name_H-M   'P 1'
_cell_length_a   19.05510550
_cell_length_b   19.23220965
_cell_length_c   19.23248279
_cell_angle_alpha   89.62017223
_cell_angle_beta   60.30655941
_cell_angle_gamma   119.69291708
_symmetry_Int_Tables_number   1
_chemical_formula_structural   Zr3H23C44Cl5O16
_chemical_formula_sum   'Zr6 H46 C88 Cl10 O32'
_cell_volume   5013.36480416
_cell_formula_units_Z   2
loop_
 _symmetry_equiv_pos_site_id
 _symmetry_equiv_pos_as_xyz
  1  'x, y, z'
loop_
 _atom_site_type_symbol
 _atom_site_label
 _atom_site_symmetry_multiplicity
 _atom_site_fract_x
 _atom_site_fract_y
 _atom_site_fract_z
 _atom_site_occupancy
  Zr  Zr0  1  0.31576527  0.90817690  0.09188709  1.0
  Zr  Zr1  1  0.68513150  0.09188219  0.90819855  1.0
  Zr  Zr2  1  0.49871186  0.09150091  0.90848026  1.0
  Zr  Zr3  1  0.50219162  0.90851457  0.09148794  1.0
  Zr  Zr4  1  0.50040471  0.90857479  0.90855537  1.0
  Zr  Zr5  1  0.50038078  0.09147723  0.09146296  1.0
  H  H6  1  0.35384100  0.92778666  0.92837221  1.0
  H  H7  1  0.64709731  0.92842249  0.92780307  1.0
  H  H8  1  0.64450346  0.21648475  0.92780071  1.0
  H  H9  1  0.35634348  0.92780315  0.21647590  1.0
  H  H10  1  0.93111168  0.31769321  0.89025059  1.0
  H  H11  1  0.06975296  0.67944534  0.11282922  1.0
  H  H12  1  0.29051931  0.67779052  0.88996859  1.0
  H  H13  1  0.16173032  0.55397264  0.89087054  1.0
  H  H14  1  0.71023524  0.31992598  0.11242337  1.0
  H  H15  1  0.83889077  0.44778725  0.10755220  1.0
  H  H16  1  0.93092756  0.11292978  0.67908134  1.0
  H  H17  1  0.06947898  0.89027205  0.31738206  1.0
  H  H18  1  0.29023441  0.11250324  0.31968024  1.0
  H  H19  1  0.16151144  0.10775698  0.44733157  1.0
  H  H20  1  0.70997295  0.89012205  0.67757007  1.0
  H  H21  1  0.83866517  0.89108530  0.55354308  1.0
  H  H22  1  0.49670485  0.31622266  0.11335686  1.0
  H  H23  1  0.49703709  0.68044359  0.88994766  1.0
  H  H24  1  0.49739767  0.67624886  0.11239919  1.0
  H  H25  1  0.50070409  0.55200426  0.10809335  1.0
  H  H26  1  0.49726830  0.32072279  0.89043603  1.0
  H  H27  1  0.50142831  0.44865363  0.89098827  1.0
  H  H28  1  0.50310302  0.88980667  0.68066959  1.0
  H  H29  1  0.50353427  0.11330108  0.31642771  1.0
  H  H30  1  0.50294012  0.89036142  0.32102862  1.0
  H  H31  1  0.49830830  0.89072964  0.44917167  1.0
  H  H32  1  0.50269490  0.11223553  0.67661427  1.0
  H  H33  1  0.49908022  0.10784046  0.55251637  1.0
  H  H34  1  0.71234469  0.87926546  0.09967331  1.0
  H  H35  1  0.93303004  0.12328810  0.90296895  1.0
  H  H36  1  0.28873341  0.09956123  0.87925239  1.0
  H  H37  1  0.06810525  0.90310748  0.12340957  1.0
  H  H38  1  0.84974596  0.81414327  0.07663001  1.0
  H  H39  1  0.76056078  0.81878160  0.16668077  1.0
  H  H40  1  0.11320040  0.18638425  0.92255389  1.0
  H  H41  1  0.10876591  0.18089378  0.83288211  1.0
  H  H42  1  0.15148861  0.07659742  0.81406029  1.0
  H  H43  1  0.24057204  0.16661594  0.81883513  1.0
  H  H44  1  0.88791191  0.92251885  0.18653364  1.0
  H  H45  1  0.89243736  0.83289222  0.18089107  1.0
  H  H46  1  0.70638926  0.31747106  0.67938107  1.0
  H  H47  1  0.29414120  0.67923887  0.31758885  1.0
  H  H48  1  0.06708352  0.67715820  0.32019629  1.0
  H  H49  1  0.94397900  0.55351287  0.44748608  1.0
  H  H50  1  0.93370904  0.32033222  0.67703496  1.0
  H  H51  1  0.05661967  0.44759538  0.55342142  1.0
  C  C52  1  0.26648346  0.76442982  0.00270888  1.0
  C  C53  1  0.73423103  0.00273008  0.76434276  1.0
  C  C54  1  0.73445889  0.23097697  0.00202115  1.0
  C  C55  1  0.26619322  0.00192515  0.23092379  1.0
  C  C56  1  0.26410248  0.00195042  0.00195477  1.0
  C  C57  1  0.26789580  0.76440866  0.23117373  1.0
  C  C58  1  0.73693188  0.00190737  0.00189967  1.0
  C  C59  1  0.73290352  0.23116977  0.76442450  1.0
  C  C60  1  0.50406404  0.00159093  0.76475729  1.0
  C  C61  1  0.49444486  0.23052009  0.00313419  1.0
  C  C62  1  0.50625664  0.00322349  0.23055713  1.0
  C  C63  1  0.49648619  0.76467395  0.00163686  1.0
  C  C64  1  0.81168851  0.30909797  0.00153357  1.0
  C  C65  1  0.18914410  0.68741804  0.00213443  1.0
  C  C66  1  0.91112399  0.34671792  0.93849177  1.0
  C  C67  1  0.98562759  0.42045320  0.93526148  1.0
  C  C68  1  0.08968134  0.65107511  0.06393318  1.0
  C  C69  1  0.01510797  0.57978478  0.06472377  1.0
  C  C70  1  0.21339935  0.65068973  0.93954334  1.0
  C  C71  1  0.13903063  0.57985125  0.94080109  1.0
  C  C72  1  0.78736021  0.34748974  0.06244273  1.0
  C  C73  1  0.86165862  0.42059496  0.05893710  1.0
  C  C74  1  0.96414183  0.46169533  0.99700401  1.0
  C  C75  1  0.03655228  0.53935260  0.00217140  1.0
  C  C76  1  0.81145021  0.00222416  0.68716572  1.0
  C  C77  1  0.18886279  0.00154826  0.30885608  1.0
  C  C78  1  0.91092463  0.06404769  0.65070964  1.0
  C  C79  1  0.98544817  0.06489259  0.57931317  1.0
  C  C80  1  0.08942516  0.93855565  0.34637052  1.0
  C  C81  1  0.01487502  0.93541065  0.41998885  1.0
  C  C82  1  0.21312533  0.06254331  0.34718003  1.0
  C  C83  1  0.13878542  0.05910260  0.42017244  1.0
  C  C84  1  0.78711091  0.93969121  0.65039041  1.0
  C  C85  1  0.86143094  0.94099538  0.57943887  1.0
  C  C86  1  0.96393385  0.00235885  0.53886978  1.0
  C  C87  1  0.03632503  0.99718304  0.46120587  1.0
  C  C88  1  0.49592916  0.30870096  0.00253492  1.0
  C  C89  1  0.49666434  0.68731389  0.00133936  1.0
  C  C90  1  0.49734971  0.34563308  0.06429754  1.0
  C  C91  1  0.49983911  0.41937667  0.06500091  1.0
  C  C92  1  0.49762425  0.65159672  0.93837379  1.0
  C  C93  1  0.49972019  0.58010840  0.93535474  1.0
  C  C94  1  0.49786459  0.64958528  0.06249996  1.0
  C  C95  1  0.49974232  0.57859752  0.05923627  1.0
  C  C96  1  0.49770379  0.34785210  0.93987416  1.0
  C  C97  1  0.50001839  0.42092056  0.94102541  1.0
  C  C98  1  0.50052695  0.46124839  0.00240136  1.0
  C  C99  1  0.50044171  0.53890654  0.99723979  1.0
  C  C100  1  0.50352323  0.00120567  0.68757642  1.0
  C  C101  1  0.50443068  0.00252915  0.30889836  1.0
  C  C102  1  0.50243599  0.93820820  0.65188208  1.0
  C  C103  1  0.50016736  0.93514039  0.58048200  1.0
  C  C104  1  0.50283150  0.06422082  0.34588785  1.0
  C  C105  1  0.50009806  0.06482696  0.41974842  1.0
  C  C106  1  0.50245484  0.93978557  0.34816640  1.0
  C  C107  1  0.49987073  0.94083400  0.42134935  1.0
  C  C108  1  0.50216902  0.06231925  0.64996363  1.0
  C  C109  1  0.50011297  0.05901039  0.57905064  1.0
  C  C110  1  0.49937968  0.99701430  0.53934439  1.0
  C  C111  1  0.49932466  0.00219789  0.46167867  1.0
  C  C112  1  0.83865138  0.85644533  0.11275094  1.0
  C  C113  1  0.09541598  0.14361034  0.88695612  1.0
  C  C114  1  0.16248104  0.11267724  0.85642114  1.0
  C  C115  1  0.90572138  0.88698333  0.14368450  1.0
  C  C116  1  0.78981602  0.93212878  0.05658147  1.0
  C  C117  1  0.86233864  0.93053687  0.05608343  1.0
  C  C118  1  0.91445642  0.06985173  0.94539241  1.0
  C  C119  1  0.98817643  0.07000983  0.94429377  1.0
  C  C120  1  0.21125629  0.05654137  0.93213906  1.0
  C  C121  1  0.13874623  0.05602346  0.93053430  1.0
  C  C122  1  0.08664748  0.94547770  0.06994912  1.0
  C  C123  1  0.01293378  0.94434162  0.07008620  1.0
  C  C124  1  0.81511045  0.00141217  0.00144968  1.0
  C  C125  1  0.96214708  0.00000746  0.99992856  1.0
  C  C126  1  0.18594541  0.00147925  0.00146476  1.0
  C  C127  1  0.03895083  0.99990052  0.00003714  1.0
  C  C128  1  0.81035088  0.30898769  0.68732622  1.0
  C  C129  1  0.19031726  0.68730284  0.30897971  1.0
  C  C130  1  0.78424884  0.34637390  0.65107815  1.0
  C  C131  1  0.85483690  0.41992957  0.57979727  1.0
  C  C132  1  0.21630179  0.65099210  0.34643441  1.0
  C  C133  1  0.14562139  0.57971362  0.41999200  1.0
  C  C134  1  0.09008853  0.65021421  0.34752587  1.0
  C  C135  1  0.02036609  0.57939648  0.42038805  1.0
  C  C136  1  0.91059681  0.34759438  0.65016622  1.0
  C  C137  1  0.98022002  0.42045264  0.57935860  1.0
  C  C138  1  0.95874398  0.46135658  0.53903814  1.0
  C  C139  1  0.04172441  0.53900657  0.46137437  1.0
  Cl  Cl140  1  0.10183325  0.45131669  0.84799203  1.0
  Cl  Cl141  1  0.89886900  0.55115333  0.14974470  1.0
  Cl  Cl142  1  0.10171846  0.14996191  0.55060052  1.0
  Cl  Cl143  1  0.89867095  0.84824580  0.45076455  1.0
  Cl  Cl144  1  0.50231124  0.44954199  0.15003220  1.0
  Cl  Cl145  1  0.50171990  0.55215995  0.84811891  1.0
  Cl  Cl146  1  0.49806463  0.84785226  0.55258076  1.0
  Cl  Cl147  1  0.49742397  0.14975546  0.45000981  1.0
  Cl  Cl148  1  0.79762513  0.45079855  0.55125304  1.0
  Cl  Cl149  1  0.20284064  0.55117670  0.45090053  1.0
  O  O150  1  0.23744893  0.79477189  0.06149630  1.0
  O  O151  1  0.76334447  0.06145145  0.79472521  1.0
  O  O152  1  0.76359886  0.20111241  0.94278084  1.0
  O  O153  1  0.23711250  0.94255301  0.20117789  1.0
  O  O154  1  0.35414775  0.06022210  0.94228429  1.0
  O  O155  1  0.35791525  0.79519192  0.20122284  1.0
  O  O156  1  0.64686629  0.94227531  0.06020436  1.0
  O  O157  1  0.64286396  0.20114281  0.79521197  1.0
  O  O158  1  0.50324268  0.94206652  0.79585885  1.0
  O  O159  1  0.49550035  0.20033126  0.06173323  1.0
  O  O160  1  0.50524151  0.06182454  0.20031630  1.0
  O  O161  1  0.49744120  0.79587705  0.94206733  1.0
  O  O162  1  0.49398914  0.20051353  0.94418886  1.0
  O  O163  1  0.50693202  0.94437034  0.20048311  1.0
  O  O164  1  0.49709770  0.79469757  0.06052125  1.0
  O  O165  1  0.50361610  0.06053274  0.79475585  1.0
  O  O166  1  0.23643821  0.94341703  0.06113667  1.0
  O  O167  1  0.76259315  0.20130086  0.79468372  1.0
  O  O168  1  0.76459747  0.06109048  0.94335385  1.0
  O  O169  1  0.23827562  0.79469877  0.20124707  1.0
  O  O170  1  0.35585939  0.06091586  0.20066544  1.0
  O  O171  1  0.35612845  0.79509067  0.94329101  1.0
  O  O172  1  0.64456731  0.94329876  0.79508074  1.0
  O  O173  1  0.64478178  0.20069431  0.06097982  1.0
  O  O174  1  0.39732826  0.94827280  0.15493247  1.0
  O  O175  1  0.60354615  0.15494369  0.94826440  1.0
  O  O176  1  0.60521561  0.94858697  0.94807314  1.0
  O  O177  1  0.39568640  0.94807301  0.94856939  1.0
  O  O178  1  0.57642474  0.03830910  0.88598841  1.0
  O  O179  1  0.42450615  0.88601033  0.03829818  1.0
  O  O180  1  0.57772276  0.03815457  0.03787994  1.0
  O  O181  1  0.42311587  0.03788900  0.03814804  1.0
