# generated using pymatgen
data_Hf3H24(C7O4)4
_symmetry_space_group_name_H-M   'P 1'
_cell_length_a   17.51494676
_cell_length_b   19.60788141
_cell_length_c   27.58295479
_cell_angle_alpha   90.07004683
_cell_angle_beta   89.96171256
_cell_angle_gamma   89.95200654
_symmetry_Int_Tables_number   1
_chemical_formula_structural   Hf3H24(C7O4)4
_chemical_formula_sum   'Hf12 H96 C112 O64'
_cell_volume   9472.82919416
_cell_formula_units_Z   4
loop_
 _symmetry_equiv_pos_site_id
 _symmetry_equiv_pos_as_xyz
  1  'x, y, z'
loop_
 _atom_site_type_symbol
 _atom_site_label
 _atom_site_symmetry_multiplicity
 _atom_site_fract_x
 _atom_site_fract_y
 _atom_site_fract_z
 _atom_site_occupancy
  Hf  Hf0  1  0.90208210  0.08805230  0.00463462  1.0
  Hf  Hf1  1  0.10388964  0.08352479  0.00445856  1.0
  Hf  Hf2  1  0.89674408  0.90804701  0.00388634  1.0
  Hf  Hf3  1  0.09828861  0.90392086  0.00376804  1.0
  Hf  Hf4  1  0.00011972  0.99600006  0.91502251  1.0
  Hf  Hf5  1  0.00017365  0.99560823  0.09346512  1.0
  Hf  Hf6  1  0.40405036  0.40345630  0.50487467  1.0
  Hf  Hf7  1  0.60558992  0.40927003  0.50416994  1.0
  Hf  Hf8  1  0.39654221  0.58354684  0.50464114  1.0
  Hf  Hf9  1  0.59753955  0.58857563  0.50470344  1.0
  Hf  Hf10  1  0.50041539  0.49599100  0.59390691  1.0
  Hf  Hf11  1  0.50049498  0.49555748  0.41517582  1.0
  H  H12  1  0.99905732  0.13815100  0.07497350  1.0
  H  H13  1  0.15937121  0.99253004  0.93336578  1.0
  H  H14  1  0.00176649  0.85321031  0.07424726  1.0
  H  H15  1  0.84163869  0.99640488  0.93321788  1.0
  H  H16  1  0.25136445  0.07912109  0.97829939  1.0
  H  H17  1  0.22799755  0.98660230  0.00645790  1.0
  H  H18  1  0.09278758  0.77439278  0.97818748  1.0
  H  H19  1  0.98873832  0.79217293  0.00303556  1.0
  H  H20  1  0.75258668  0.91675260  0.03256927  1.0
  H  H21  1  0.77213568  0.00779520  0.00555615  1.0
  H  H22  1  0.91028232  0.21721401  0.97742713  1.0
  H  H23  1  0.01270710  0.19895583  0.00281975  1.0
  H  H24  1  0.90865808  0.77074342  0.03099290  1.0
  H  H25  1  0.74966693  0.07852680  0.97573022  1.0
  H  H26  1  0.09303023  0.21894952  0.03152065  1.0
  H  H27  1  0.24098759  0.91735787  0.03852885  1.0
  H  H28  1  0.50040062  0.35306047  0.43422353  1.0
  H  H29  1  0.66021021  0.50078970  0.57494483  1.0
  H  H30  1  0.50169014  0.63844452  0.43402857  1.0
  H  H31  1  0.34018785  0.49311919  0.57503704  1.0
  H  H32  1  0.75357928  0.41528763  0.52922416  1.0
  H  H33  1  0.72824322  0.50758066  0.50188174  1.0
  H  H34  1  0.59086280  0.71797892  0.52984845  1.0
  H  H35  1  0.48713202  0.70006269  0.50456916  1.0
  H  H36  1  0.25146501  0.57832698  0.47799845  1.0
  H  H37  1  0.27353193  0.48350856  0.50275798  1.0
  H  H38  1  0.41182743  0.27388389  0.53006882  1.0
  H  H39  1  0.51496610  0.29310804  0.50567067  1.0
  H  H40  1  0.40759185  0.71980817  0.47570457  1.0
  H  H41  1  0.26085847  0.41323848  0.47140962  1.0
  H  H42  1  0.59620388  0.27312403  0.47814732  1.0
  H  H43  1  0.74046367  0.57742746  0.47023847  1.0
  H  H44  1  0.31251253  0.73580243  0.18048131  1.0
  H  H45  1  0.25113721  0.80136999  0.11447059  1.0
  H  H46  1  0.08455030  0.87878215  0.21462326  1.0
  H  H47  1  0.14094639  0.80902494  0.28038111  1.0
  H  H48  1  0.22558701  0.79111614  0.33319401  1.0
  H  H49  1  0.28148169  0.72089638  0.39861449  1.0
  H  H50  1  0.37656451  0.58409789  0.29295098  1.0
  H  H51  1  0.31585806  0.65055846  0.22695818  1.0
  H  H52  1  0.81743255  0.83770711  0.28091524  1.0
  H  H53  1  0.87852419  0.90437669  0.21512965  1.0
  H  H54  1  0.77795206  0.77212522  0.10877461  1.0
  H  H55  1  0.72114306  0.70180206  0.17392825  1.0
  H  H56  1  0.63696593  0.68471063  0.22807661  1.0
  H  H57  1  0.58100539  0.61496270  0.29403634  1.0
  H  H58  1  0.75370165  0.68597313  0.39216459  1.0
  H  H59  1  0.81480293  0.75089395  0.32574406  1.0
  H  H60  1  0.18850203  0.23361520  0.33065773  1.0
  H  H61  1  0.25151374  0.29933433  0.39600833  1.0
  H  H62  1  0.41199228  0.38036946  0.29352473  1.0
  H  H63  1  0.35400929  0.31054842  0.22834014  1.0
  H  H64  1  0.26856425  0.29272094  0.17711933  1.0
  H  H65  1  0.21334065  0.22225937  0.11143811  1.0
  H  H66  1  0.12252442  0.08304561  0.21656593  1.0
  H  H67  1  0.18306736  0.14941086  0.28275528  1.0
  H  H68  1  0.14333691  0.80679370  0.72821951  1.0
  H  H69  1  0.08242257  0.87358999  0.79414988  1.0
  H  H70  1  0.24282965  0.79234893  0.89653455  1.0
  H  H71  1  0.30842827  0.72949087  0.83059665  1.0
  H  H72  1  0.23188331  0.79198805  0.67734413  1.0
  H  H73  1  0.29303251  0.72498011  0.61150737  1.0
  H  H74  1  0.38132920  0.58378974  0.71610238  1.0
  H  H75  1  0.31592629  0.64677733  0.78216685  1.0
  H  H76  1  0.83412009  0.16397998  0.72675282  1.0
  H  H77  1  0.89727808  0.10003981  0.79311772  1.0
  H  H78  1  0.77423354  0.21794018  0.89862325  1.0
  H  H79  1  0.71316494  0.28459350  0.83302450  1.0
  H  H80  1  0.62988929  0.29292525  0.77613940  1.0
  H  H81  1  0.57099392  0.36114481  0.71028372  1.0
  H  H82  1  0.76101239  0.31574602  0.61722622  1.0
  H  H83  1  0.82485055  0.25404115  0.68422765  1.0
  H  H84  1  0.85302483  0.81384342  0.72734669  1.0
  H  H85  1  0.91403439  0.88062638  0.79313524  1.0
  H  H86  1  0.75875310  0.79478751  0.89670681  1.0
  H  H87  1  0.69266948  0.73175354  0.83094410  1.0
  H  H88  1  0.68589451  0.64966832  0.78159323  1.0
  H  H89  1  0.62017768  0.58696332  0.71566425  1.0
  H  H90  1  0.70321473  0.73174567  0.61166756  1.0
  H  H91  1  0.76360481  0.79854290  0.67743971  1.0
  H  H92  1  0.68278280  0.24831040  0.18086379  1.0
  H  H93  1  0.74528118  0.18246322  0.11498689  1.0
  H  H94  1  0.92104884  0.11876133  0.21333983  1.0
  H  H95  1  0.86374793  0.18923936  0.27852548  1.0
  H  H96  1  0.78189838  0.20559525  0.33270033  1.0
  H  H97  1  0.72527294  0.27602992  0.39800855  1.0
  H  H98  1  0.61390742  0.40141437  0.29203846  1.0
  H  H99  1  0.67447618  0.33478435  0.22594307  1.0
  H  H100  1  0.14216345  0.18161072  0.72771091  1.0
  H  H101  1  0.08216129  0.11481771  0.79385774  1.0
  H  H102  1  0.24676893  0.19262215  0.89490315  1.0
  H  H103  1  0.31192824  0.25473952  0.82857770  1.0
  H  H104  1  0.31702604  0.33910686  0.78140614  1.0
  H  H105  1  0.38264839  0.40244615  0.71577622  1.0
  H  H106  1  0.29214447  0.26329896  0.61029709  1.0
  H  H107  1  0.23099166  0.19609799  0.67559063  1.0
  C  C108  1  0.87757720  0.11502316  0.88918335  1.0
  C  C109  1  0.12751252  0.10822571  0.12034834  1.0
  C  C110  1  0.12356296  0.10994251  0.88795317  1.0
  C  C111  1  0.87383044  0.10607203  0.12091550  1.0
  C  C112  1  0.87026452  0.88257099  0.11895024  1.0
  C  C113  1  0.12081635  0.87677326  0.88866241  1.0
  C  C114  1  0.12749676  0.88470005  0.12111365  1.0
  C  C115  1  0.87786493  0.88145622  0.88812137  1.0
  C  C116  1  0.38059041  0.37626618  0.61995240  1.0
  C  C117  1  0.62851432  0.38317339  0.38849932  1.0
  C  C118  1  0.62553233  0.38270832  0.62031436  1.0
  C  C119  1  0.37279572  0.38478871  0.38784214  1.0
  C  C120  1  0.37033800  0.60799607  0.38909860  1.0
  C  C121  1  0.61972366  0.61569499  0.62022005  1.0
  C  C122  1  0.62700078  0.60652269  0.38689250  1.0
  C  C123  1  0.37845724  0.61070072  0.62045093  1.0
  C  C124  1  0.16697643  0.80834979  0.24445260  1.0
  C  C125  1  0.23151721  0.76720120  0.23566304  1.0
  C  C126  1  0.26165838  0.76600551  0.18828900  1.0
  C  C127  1  0.22828535  0.80353429  0.15120102  1.0
  C  C128  1  0.16465224  0.84481953  0.16061389  1.0
  C  C129  1  0.13451520  0.84707247  0.20770319  1.0
  C  C130  1  0.26617920  0.72630478  0.27485635  1.0
  C  C131  1  0.25714297  0.74495417  0.32388078  1.0
  C  C132  1  0.28924679  0.70622485  0.36080037  1.0
  C  C133  1  0.33295262  0.64827947  0.34985768  1.0
  C  C134  1  0.34278958  0.62935160  0.30120680  1.0
  C  C135  1  0.30929676  0.66736232  0.26443726  1.0
  C  C136  1  0.75426541  0.74694424  0.18344668  1.0
  C  C137  1  0.76497765  0.76418610  0.23257413  1.0
  C  C138  1  0.80978102  0.82191811  0.24330794  1.0
  C  C139  1  0.84349359  0.86002646  0.20669639  1.0
  C  C140  1  0.83229990  0.84233731  0.15794832  1.0
  C  C141  1  0.78677324  0.78572121  0.14669050  1.0
  C  C142  1  0.73047141  0.72314765  0.27172301  1.0
  C  C143  1  0.66435851  0.68392739  0.26357414  1.0
  C  C144  1  0.63214976  0.64526108  0.30046008  1.0
  C  C145  1  0.66407159  0.64584402  0.34707427  1.0
  C  C146  1  0.72937939  0.68514330  0.35581486  1.0
  C  C147  1  0.76259834  0.72238316  0.31854219  1.0
  C  C148  1  0.32956558  0.30914784  0.26469173  1.0
  C  C149  1  0.26611958  0.26706956  0.27422798  1.0
  C  C150  1  0.23827289  0.26476817  0.32213953  1.0
  C  C151  1  0.27259591  0.30236132  0.35889177  1.0
  C  C152  1  0.33492312  0.34477471  0.34868487  1.0
  C  C153  1  0.36294944  0.34791708  0.30111189  1.0
  C  C154  1  0.23057187  0.22644203  0.23515690  1.0
  C  C155  1  0.23813216  0.24598293  0.18624824  1.0
  C  C156  1  0.20631890  0.20727494  0.14921042  1.0
  C  C157  1  0.16413680  0.14849621  0.15993853  1.0
  C  C158  1  0.15531424  0.12885996  0.20847713  1.0
  C  C159  1  0.18864230  0.16686060  0.24538895  1.0
  C  C160  1  0.25772250  0.75958624  0.82230438  1.0
  C  C161  1  0.23088399  0.76298956  0.77420843  1.0
  C  C162  1  0.16668373  0.80428505  0.76481827  1.0
  C  C163  1  0.13162603  0.84123281  0.80163591  1.0
  C  C164  1  0.15855515  0.83680747  0.84939737  1.0
  C  C165  1  0.22173083  0.79524062  0.85942761  1.0
  C  C166  1  0.26884467  0.72446146  0.73493153  1.0
  C  C167  1  0.26316624  0.74555168  0.68624419  1.0
  C  C168  1  0.29793425  0.70882731  0.64917491  1.0
  C  C169  1  0.34085740  0.65043394  0.65985275  1.0
  C  C170  1  0.34786959  0.62929836  0.70817149  1.0
  C  C171  1  0.31177476  0.66535872  0.74501163  1.0
  C  C172  1  0.75257228  0.24348565  0.82377046  1.0
  C  C173  1  0.76896123  0.22952522  0.77473222  1.0
  C  C174  1  0.82160507  0.17710926  0.76436203  1.0
  C  C175  1  0.85674358  0.14065353  0.80127439  1.0
  C  C176  1  0.83987354  0.15499495  0.84994265  1.0
  C  C177  1  0.78719155  0.20669434  0.86078968  1.0
  C  C178  1  0.73220912  0.26849641  0.73534991  1.0
  C  C179  1  0.66024499  0.29930689  0.74190664  1.0
  C  C180  1  0.62637068  0.33682292  0.70500158  1.0
  C  C181  1  0.66241156  0.34273855  0.65981354  1.0
  C  C182  1  0.73327444  0.31122124  0.65245689  1.0
  C  C183  1  0.76819169  0.27570184  0.68995460  1.0
  C  C184  1  0.74229807  0.76302177  0.82232238  1.0
  C  C185  1  0.76775021  0.76776149  0.77396123  1.0
  C  C186  1  0.83064991  0.81034979  0.76416500  1.0
  C  C187  1  0.86578884  0.84730392  0.80088550  1.0
  C  C188  1  0.84019257  0.84161715  0.84886084  1.0
  C  C189  1  0.77840478  0.79873201  0.85931797  1.0
  C  C190  1  0.72972202  0.72927596  0.73474775  1.0
  C  C191  1  0.68849462  0.66918659  0.74461650  1.0
  C  C192  1  0.65225966  0.63324481  0.70780566  1.0
  C  C193  1  0.65750976  0.65540298  0.65959207  1.0
  C  C194  1  0.69900340  0.71468760  0.64916272  1.0
  C  C195  1  0.73371095  0.75138008  0.68621562  1.0
  C  C196  1  0.83589260  0.18670097  0.24322565  1.0
  C  C197  1  0.76830878  0.22394086  0.23496117  1.0
  C  C198  1  0.73595500  0.22127815  0.18821514  1.0
  C  C199  1  0.76997182  0.18377143  0.15123756  1.0
  C  C200  1  0.83644498  0.14612247  0.16030808  1.0
  C  C201  1  0.86891969  0.14768462  0.20673222  1.0
  C  C202  1  0.73284958  0.26468441  0.27407511  1.0
  C  C203  1  0.74632460  0.24924449  0.32321845  1.0
  C  C204  1  0.71392125  0.28796807  0.36011268  1.0
  C  C205  1  0.66560261  0.34282357  0.34910624  1.0
  C  C206  1  0.65124525  0.35852051  0.30037319  1.0
  C  C207  1  0.68480303  0.32042423  0.26355841  1.0
  C  C208  1  0.26046769  0.22551630  0.82069800  1.0
  C  C209  1  0.23197815  0.22331980  0.77295846  1.0
  C  C210  1  0.16678476  0.18317444  0.76401368  1.0
  C  C211  1  0.13223925  0.14621662  0.80096269  1.0
  C  C212  1  0.16078821  0.14956727  0.84838421  1.0
  C  C213  1  0.22493765  0.19000890  0.85795763  1.0
  C  C214  1  0.26947249  0.26215557  0.73372729  1.0
  C  C215  1  0.31281330  0.32089383  0.74412800  1.0
  C  C216  1  0.34903175  0.35715548  0.70752278  1.0
  C  C217  1  0.34196981  0.33660574  0.65902415  1.0
  C  C218  1  0.29808736  0.27888599  0.64804597  1.0
  C  C219  1  0.26305995  0.24194960  0.68485201  1.0
  O  O220  1  0.85923199  0.12915370  0.93319991  1.0
  O  O221  1  0.92476186  0.06907617  0.87614574  1.0
  O  O222  1  0.14325439  0.12481854  0.07665631  1.0
  O  O223  1  0.08157417  0.06100957  0.13318684  1.0
  O  O224  1  0.14312073  0.12294458  0.93153990  1.0
  O  O225  1  0.07514236  0.06464033  0.87491216  1.0
  O  O226  1  0.85449814  0.11855005  0.07738708  1.0
  O  O227  1  0.92466233  0.06278319  0.13421418  1.0
  O  O228  1  0.93196362  0.19320053  0.00497399  1.0
  O  O229  1  0.77615726  0.06301343  0.00464617  1.0
  O  O230  1  0.07459947  0.19524426  0.00284753  1.0
  O  O231  1  0.22195983  0.06097808  0.00517407  1.0
  O  O232  1  0.00211467  0.07146068  0.96661090  1.0
  O  O233  1  0.00072597  0.09776075  0.05472555  1.0
  O  O234  1  0.85311155  0.86774418  0.07485473  1.0
  O  O235  1  0.91816806  0.92765488  0.13211852  1.0
  O  O236  1  0.13841945  0.86229550  0.93256392  1.0
  O  O237  1  0.07415105  0.92323837  0.87554280  1.0
  O  O238  1  0.14919483  0.87389367  0.07753115  1.0
  O  O239  1  0.07473721  0.92604479  0.13397078  1.0
  O  O240  1  0.86061634  0.86729302  0.93180462  1.0
  O  O241  1  0.92441575  0.92822411  0.87469706  1.0
  O  O242  1  0.92726806  0.79568763  0.00295811  1.0
  O  O243  1  0.77911757  0.93538967  0.00462838  1.0
  O  O244  1  0.07054038  0.79851700  0.00558285  1.0
  O  O245  1  0.22352358  0.93219653  0.00667563  1.0
  O  O246  1  0.99968801  0.89364875  0.05412376  1.0
  O  O247  1  0.99858736  0.92069003  0.96642895  1.0
  O  O248  1  0.91644529  0.99651608  0.04176220  1.0
  O  O249  1  0.11461559  0.99288265  0.95403390  1.0
  O  O250  1  0.88594028  0.99786958  0.95421391  1.0
  O  O251  1  0.08491067  0.99538604  0.04207551  1.0
  O  O252  1  0.36544925  0.36043162  0.57596208  1.0
  O  O253  1  0.42574032  0.42375368  0.63332379  1.0
  O  O254  1  0.64478028  0.36747877  0.43229771  1.0
  O  O255  1  0.58164401  0.42969102  0.37556511  1.0
  O  O256  1  0.64642076  0.37073608  0.57679787  1.0
  O  O257  1  0.57602038  0.42698913  0.63347183  1.0
  O  O258  1  0.35236086  0.37349374  0.43160039  1.0
  O  O259  1  0.42456710  0.42684727  0.37471119  1.0
  O  O260  1  0.43358277  0.29818446  0.50265931  1.0
  O  O261  1  0.27830606  0.42911609  0.50303048  1.0
  O  O262  1  0.57655637  0.29735499  0.50629848  1.0
  O  O263  1  0.72325177  0.43342971  0.50277731  1.0
  O  O264  1  0.50387149  0.42073739  0.54228501  1.0
  O  O265  1  0.50138549  0.39384707  0.45408864  1.0
  O  O266  1  0.35319117  0.62336439  0.43307443  1.0
  O  O267  1  0.41774631  0.56220871  0.37614696  1.0
  O  O268  1  0.63530164  0.63170031  0.57629808  1.0
  O  O269  1  0.57492671  0.56776789  0.63334637  1.0
  O  O270  1  0.64850800  0.61803762  0.43038171  1.0
  O  O271  1  0.57431683  0.56499600  0.37432258  1.0
  O  O272  1  0.36247841  0.62585524  0.57679260  1.0
  O  O273  1  0.42389621  0.56297385  0.63380922  1.0
  O  O274  1  0.42582557  0.69636192  0.50449350  1.0
  O  O275  1  0.27953674  0.55776187  0.50459092  1.0
  O  O276  1  0.56933115  0.69379827  0.50228453  1.0
  O  O277  1  0.72296947  0.56203534  0.50196262  1.0
  O  O278  1  0.49937733  0.59803253  0.45416624  1.0
  O  O279  1  0.49817582  0.57083791  0.54217279  1.0
  O  O280  1  0.41747838  0.49498558  0.46704688  1.0
  O  O281  1  0.61531525  0.50011700  0.55444138  1.0
  O  O282  1  0.38495865  0.49301190  0.55430641  1.0
  O  O283  1  0.58529051  0.49680589  0.46637623  1.0
