# generated using pymatgen
data_Zr3H5C24S6Cl3O16
_symmetry_space_group_name_H-M   'P 1'
_cell_length_a   16.49653755
_cell_length_b   16.49672543
_cell_length_c   23.26225087
_cell_angle_alpha   89.99893235
_cell_angle_beta   89.99823830
_cell_angle_gamma   89.98682221
_symmetry_Int_Tables_number   1
_chemical_formula_structural   Zr3H5C24S6Cl3O16
_chemical_formula_sum   'Zr12 H20 C96 S24 Cl12 O64'
_cell_volume   6330.56204046
_cell_formula_units_Z   4
loop_
 _symmetry_equiv_pos_site_id
 _symmetry_equiv_pos_as_xyz
  1  'x, y, z'
loop_
 _atom_site_type_symbol
 _atom_site_label
 _atom_site_symmetry_multiplicity
 _atom_site_fract_x
 _atom_site_fract_y
 _atom_site_fract_z
 _atom_site_occupancy
  Zr  Zr0  1  0.60759445  0.60749950  0.50119041  1.0
  Zr  Zr1  1  0.39276319  0.39275373  0.49881235  1.0
  Zr  Zr2  1  0.50130058  0.50120349  0.39261472  1.0
  Zr  Zr3  1  0.49908133  0.49888122  0.60739621  1.0
  Zr  Zr4  1  0.39300093  0.60776242  0.49999474  1.0
  Zr  Zr5  1  0.60784466  0.39285507  0.50002778  1.0
  Zr  Zr6  1  0.10793295  0.89319835  0.99999574  1.0
  Zr  Zr7  1  0.89162727  0.10629206  0.99996229  1.0
  Zr  Zr8  1  0.89345736  0.89179624  0.99954069  1.0
  Zr  Zr9  1  0.10651539  0.10811819  0.00049088  1.0
  Zr  Zr10  1  0.00063290  0.00040635  0.89252859  1.0
  Zr  Zr11  1  0.99960232  0.99954562  0.10746858  1.0
  H  H12  1  0.50099947  0.66944269  0.41593589  1.0
  H  H13  1  0.33078706  0.49932701  0.58389736  1.0
  H  H14  1  0.50099708  0.33194966  0.41470533  1.0
  H  H15  1  0.66826694  0.49931061  0.58546607  1.0
  H  H16  1  0.00137706  0.83134181  0.91509415  1.0
  H  H17  1  0.99937473  0.16909561  0.91571901  1.0
  H  H18  1  0.83088749  0.99881486  0.08427367  1.0
  H  H19  1  0.16862204  0.00056925  0.08490365  1.0
  H  H20  1  0.37175475  0.89101074  0.50309203  1.0
  H  H21  1  0.89111085  0.37144131  0.49760021  1.0
  H  H22  1  0.86903160  0.13068266  0.26021152  1.0
  H  H23  1  0.13557189  0.87379820  0.73987370  1.0
  H  H24  1  0.12541492  0.86375668  0.26012753  1.0
  H  H25  1  0.86844392  0.13001480  0.73990630  1.0
  H  H26  1  0.26227387  0.25773430  0.86896896  1.0
  H  H27  1  0.74285077  0.73777684  0.13079347  1.0
  H  H28  1  0.12802969  0.13366603  0.26047261  1.0
  H  H29  1  0.86664855  0.87210108  0.73938015  1.0
  H  H30  1  0.12956935  0.60820263  0.00297315  1.0
  H  H31  1  0.39108272  0.12872621  0.99816786  1.0
  C  C32  1  0.49941391  0.77274167  0.50351871  1.0
  C  C33  1  0.22782512  0.50235569  0.49642202  1.0
  C  C34  1  0.50244147  0.22774955  0.50209096  1.0
  C  C35  1  0.77282528  0.49911721  0.49807266  1.0
  C  C36  1  0.64058163  0.63531504  0.36539344  1.0
  C  C37  1  0.63232604  0.63759547  0.63774592  1.0
  C  C38  1  0.36486075  0.35943955  0.63439221  1.0
  C  C39  1  0.36247893  0.36779760  0.36246836  1.0
  C  C40  1  0.36324607  0.63385334  0.36280439  1.0
  C  C41  1  0.63940783  0.36879383  0.36275885  1.0
  C  C42  1  0.63171530  0.36097398  0.63731281  1.0
  C  C43  1  0.36649337  0.63698774  0.63714107  1.0
  C  C44  1  0.13936775  0.86792415  0.86318249  1.0
  C  C45  1  0.86146204  0.13228967  0.86317861  1.0
  C  C46  1  0.86645288  0.13737612  0.13688981  1.0
  C  C47  1  0.13289749  0.86172847  0.13683802  1.0
  C  C48  1  0.00216349  0.72725364  0.00229067  1.0
  C  C49  1  0.27243126  0.00138065  0.99768646  1.0
  C  C50  1  0.99693180  0.27224955  0.00308136  1.0
  C  C51  1  0.72744926  0.99709080  0.99693288  1.0
  C  C52  1  0.86272995  0.86711718  0.86276553  1.0
  C  C53  1  0.86663473  0.85988618  0.13561665  1.0
  C  C54  1  0.13205437  0.13869052  0.13710527  1.0
  C  C55  1  0.13938537  0.13456768  0.86442865  1.0
  C  C56  1  0.56941004  0.08563121  0.50235557  1.0
  C  C57  1  0.43379066  0.91332198  0.50298800  1.0
  C  C58  1  0.50366346  0.13877235  0.50261430  1.0
  C  C59  1  0.50011715  0.86187141  0.50324984  1.0
  C  C60  1  0.45889379  0.99518079  0.50268667  1.0
  C  C61  1  0.54391773  0.00379790  0.50246390  1.0
  C  C62  1  0.08565425  0.56919863  0.49719221  1.0
  C  C63  1  0.91342174  0.43347045  0.49749808  1.0
  C  C64  1  0.13885480  0.50350797  0.49669125  1.0
  C  C65  1  0.86195180  0.49977922  0.49752098  1.0
  C  C66  1  0.99527785  0.45861148  0.49736587  1.0
  C  C67  1  0.00384850  0.54364357  0.49745081  1.0
  C  C68  1  0.67803753  0.33183063  0.25812004  1.0
  C  C69  1  0.82827181  0.17413319  0.24018438  1.0
  C  C70  1  0.68315455  0.32459453  0.31769982  1.0
  C  C71  1  0.82222896  0.18286726  0.18114281  1.0
  C  C72  1  0.77530236  0.22823390  0.26852021  1.0
  C  C73  1  0.73047909  0.27679524  0.23007396  1.0
  C  C74  1  0.32666355  0.67276358  0.74171971  1.0
  C  C75  1  0.17654869  0.83047070  0.75982217  1.0
  C  C76  1  0.32216113  0.68068823  0.68215883  1.0
  C  C77  1  0.18356438  0.82253667  0.81885942  1.0
  C  C78  1  0.22891443  0.77590451  0.73139865  1.0
  C  C79  1  0.27391652  0.72744802  0.76979245  1.0
  C  C80  1  0.32738404  0.67365273  0.25821404  1.0
  C  C81  1  0.16911826  0.82318204  0.24017224  1.0
  C  C82  1  0.31910726  0.67773011  0.31776423  1.0
  C  C83  1  0.17776203  0.81697873  0.18113663  1.0
  C  C84  1  0.22362120  0.77070803  0.26855618  1.0
  C  C85  1  0.27263921  0.72634195  0.23015337  1.0
  C  C86  1  0.66864953  0.32241229  0.74198697  1.0
  C  C87  1  0.82533700  0.17114524  0.75993809  1.0
  C  C88  1  0.67569227  0.31704692  0.68240972  1.0
  C  C89  1  0.81661566  0.17721884  0.81897113  1.0
  C  C90  1  0.77157594  0.22443993  0.73160702  1.0
  C  C91  1  0.72339801  0.26967518  0.77004377  1.0
  C  C92  1  0.26027725  0.25528498  0.67227307  1.0
  C  C93  1  0.24246686  0.23753673  0.82674039  1.0
  C  C94  1  0.31993072  0.31440796  0.67845884  1.0
  C  C95  1  0.18386454  0.17842698  0.81945068  1.0
  C  C96  1  0.27060458  0.26583311  0.77301464  1.0
  C  C97  1  0.23226375  0.22746504  0.72619528  1.0
  C  C98  1  0.74468680  0.73984732  0.32754052  1.0
  C  C99  1  0.76285545  0.75756703  0.17308308  1.0
  C  C100  1  0.68552136  0.68025086  0.32129586  1.0
  C  C101  1  0.82215981  0.81595413  0.18051336  1.0
  C  C102  1  0.73425275  0.72958834  0.22677187  1.0
  C  C103  1  0.77257298  0.76785034  0.27364153  1.0
  C  C104  1  0.32487890  0.32898946  0.25798819  1.0
  C  C105  1  0.17025294  0.17565157  0.24040714  1.0
  C  C106  1  0.31842663  0.32349928  0.31757626  1.0
  C  C107  1  0.17717596  0.18329667  0.18134136  1.0
  C  C108  1  0.22417755  0.22883558  0.26867858  1.0
  C  C109  1  0.27099557  0.27522594  0.23013847  1.0
  C  C110  1  0.67118705  0.67539963  0.74218654  1.0
  C  C111  1  0.82467690  0.82989788  0.75947570  1.0
  C  C112  1  0.67649656  0.68181679  0.68258515  1.0
  C  C113  1  0.81745497  0.82267230  0.81855825  1.0
  C  C114  1  0.77126822  0.77611067  0.73129067  1.0
  C  C115  1  0.72503036  0.72928803  0.76993996  1.0
  C  C116  1  0.93069427  0.41471394  0.00246509  1.0
  C  C117  1  0.06738246  0.58630059  0.00278829  1.0
  C  C118  1  0.99610868  0.36120488  0.00312288  1.0
  C  C119  1  0.00135113  0.63811786  0.00259437  1.0
  C  C120  1  0.04180588  0.50457216  0.00275046  1.0
  C  C121  1  0.95672610  0.49638958  0.00235504  1.0
  C  C122  1  0.58518100  0.93050667  0.99707680  1.0
  C  C123  1  0.41321633  0.06662711  0.99777728  1.0
  C  C124  1  0.63848283  0.99610932  0.99692787  1.0
  C  C125  1  0.36157796  0.00048053  0.99740303  1.0
  C  C126  1  0.49501338  0.04128843  0.99767809  1.0
  C  C127  1  0.50342330  0.95623329  0.99741887  1.0
  S  S128  1  0.41094376  0.08813053  0.50286073  1.0
  S  S129  1  0.59306122  0.91191126  0.50281427  1.0
  S  S130  1  0.08826878  0.41075234  0.49686743  1.0
  S  S131  1  0.91192554  0.59273495  0.49749441  1.0
  S  S132  1  0.75214559  0.25044434  0.33906938  1.0
  S  S133  1  0.75279005  0.25619007  0.15943796  1.0
  S  S134  1  0.25241486  0.75412866  0.66084002  1.0
  S  S135  1  0.25285662  0.74901809  0.84045165  1.0
  S  S136  1  0.24489422  0.74664054  0.33909657  1.0
  S  S137  1  0.25179198  0.74825442  0.15950423  1.0
  S  S138  1  0.74917009  0.24733278  0.66104773  1.0
  S  S139  1  0.74391856  0.24730811  0.84068131  1.0
  S  S140  1  0.34116878  0.33592586  0.75024901  1.0
  S  S141  1  0.16212882  0.15678668  0.74781828  1.0
  S  S142  1  0.66402200  0.65909972  0.24947775  1.0
  S  S143  1  0.84348330  0.83781391  0.25216339  1.0
  S  S144  1  0.24677572  0.25202458  0.33917393  1.0
  S  S145  1  0.24893241  0.25425792  0.15954252  1.0
  S  S146  1  0.74785830  0.75350127  0.66083531  1.0
  S  S147  1  0.74649635  0.75100536  0.84050540  1.0
  S  S148  1  0.08916349  0.41134214  0.00342204  1.0
  S  S149  1  0.90814350  0.58855043  0.00212926  1.0
  S  S150  1  0.58804500  0.08899145  0.99740675  1.0
  S  S151  1  0.41140658  0.90738085  0.99713437  1.0
  Cl  Cl152  1  0.66971421  0.11130902  0.50175673  1.0
  Cl  Cl153  1  0.11119777  0.66954045  0.49754072  1.0
  Cl  Cl154  1  0.61826610  0.39754737  0.22050782  1.0
  Cl  Cl155  1  0.38596221  0.60656012  0.77927262  1.0
  Cl  Cl156  1  0.39422681  0.61504539  0.22067992  1.0
  Cl  Cl157  1  0.60341296  0.38274645  0.77957222  1.0
  Cl  Cl158  1  0.22258584  0.21819425  0.60916593  1.0
  Cl  Cl159  1  0.78188107  0.77748609  0.39062445  1.0
  Cl  Cl160  1  0.38826832  0.39076339  0.22014935  1.0
  Cl  Cl161  1  0.60952787  0.61206944  0.78016336  1.0
  Cl  Cl162  1  0.83035795  0.38945805  0.00174807  1.0
  Cl  Cl163  1  0.61076336  0.83019837  0.99685711  1.0
  O  O164  1  0.56867430  0.73759704  0.50377869  1.0
  O  O165  1  0.26172877  0.43238821  0.49629702  1.0
  O  O166  1  0.43249323  0.26159341  0.50100735  1.0
  O  O167  1  0.73776691  0.56838892  0.49906044  1.0
  O  O168  1  0.58814113  0.58413902  0.34710553  1.0
  O  O169  1  0.58031902  0.58504113  0.65363399  1.0
  O  O170  1  0.41602508  0.41176685  0.65277685  1.0
  O  O171  1  0.41488670  0.41987180  0.34654204  1.0
  O  O172  1  0.34532762  0.65195592  0.41488885  1.0
  O  O173  1  0.65658827  0.34996141  0.41483887  1.0
  O  O174  1  0.65104662  0.34420423  0.58526874  1.0
  O  O175  1  0.34905958  0.65552014  0.58504042  1.0
  O  O176  1  0.58727483  0.42127589  0.34670602  1.0
  O  O177  1  0.57890459  0.41281924  0.65332225  1.0
  O  O178  1  0.41786871  0.58385473  0.65327300  1.0
  O  O179  1  0.41615375  0.58222024  0.34669823  1.0
  O  O180  1  0.65627411  0.65120846  0.41795385  1.0
  O  O181  1  0.34471988  0.34920803  0.41460122  1.0
  O  O182  1  0.34893788  0.34386319  0.58181246  1.0
  O  O183  1  0.65094840  0.65527143  0.58561822  1.0
  O  O184  1  0.73792894  0.42992203  0.49827902  1.0
  O  O185  1  0.43021675  0.73787120  0.50275799  1.0
  O  O186  1  0.26422732  0.57068203  0.49704231  1.0
  O  O187  1  0.57077648  0.26417377  0.50202847  1.0
  O  O188  1  0.62060895  0.49946066  0.56107559  1.0
  O  O189  1  0.50076194  0.37975888  0.43895201  1.0
  O  O190  1  0.37881761  0.49959275  0.55987206  1.0
  O  O191  1  0.50069592  0.62156807  0.44011789  1.0
  O  O192  1  0.41157081  0.50054866  0.45517460  1.0
  O  O193  1  0.49981610  0.58877187  0.54491624  1.0
  O  O194  1  0.49978810  0.41065836  0.54394509  1.0
  O  O195  1  0.58971728  0.50052452  0.45598550  1.0
  O  O196  1  0.15634736  0.85060114  0.91552516  1.0
  O  O197  1  0.84373352  0.14866279  0.91554422  1.0
  O  O198  1  0.84865805  0.15380208  0.08454802  1.0
  O  O199  1  0.15074482  0.84531715  0.08448100  1.0
  O  O200  1  0.93271719  0.76219359  0.00160848  1.0
  O  O201  1  0.23736322  0.07043656  0.99837118  1.0
  O  O202  1  0.06702783  0.23840128  0.00287884  1.0
  O  O203  1  0.76411267  0.92894094  0.99694197  1.0
  O  O204  1  0.91507473  0.91891984  0.84571206  1.0
  O  O205  1  0.91820398  0.91262262  0.15298031  1.0
  O  O206  1  0.08066443  0.08602092  0.15417851  1.0
  O  O207  1  0.08707891  0.08261814  0.84707874  1.0
  O  O208  1  0.84980516  0.84289206  0.08338770  1.0
  O  O209  1  0.14916191  0.15601931  0.08475534  1.0
  O  O210  1  0.15546924  0.15238871  0.91666619  1.0
  O  O211  1  0.84637236  0.84899663  0.91507334  1.0
  O  O212  1  0.07115089  0.76244118  0.00200593  1.0
  O  O213  1  0.76127719  0.06717932  0.99769039  1.0
  O  O214  1  0.92875566  0.23565559  0.00250806  1.0
  O  O215  1  0.23741268  0.93197785  0.99796669  1.0
  O  O216  1  0.08090084  0.91381003  0.15397588  1.0
  O  O217  1  0.08715179  0.91980369  0.84606485  1.0
  O  O218  1  0.91478305  0.08159369  0.84596206  1.0
  O  O219  1  0.91794331  0.08478864  0.15407624  1.0
  O  O220  1  0.12062339  0.00052415  0.06084160  1.0
  O  O221  1  0.87898595  0.99893147  0.06031070  1.0
  O  O222  1  0.99956647  0.12097483  0.93966371  1.0
  O  O223  1  0.00120434  0.87931650  0.93917317  1.0
  O  O224  1  0.91136664  0.99947792  0.95524351  1.0
  O  O225  1  0.08933318  0.00075907  0.95573171  1.0
  O  O226  1  0.99921918  0.08871720  0.04466371  1.0
  O  O227  1  0.00046661  0.91073276  0.04435542  1.0
