# generated using pymatgen
data_AlH9(C5O2)3
_symmetry_space_group_name_H-M   'P 1'
_cell_length_a   3.98690261
_cell_length_b   17.23451584
_cell_length_c   17.23449968
_cell_angle_alpha   120.00003473
_cell_angle_beta   90.00003899
_cell_angle_gamma   89.99980805
_symmetry_Int_Tables_number   1
_chemical_formula_structural   AlH9(C5O2)3
_chemical_formula_sum   'Al2 H18 C30 O12'
_cell_volume   1025.56661390
_cell_formula_units_Z   2
loop_
 _symmetry_equiv_pos_site_id
 _symmetry_equiv_pos_as_xyz
  1  'x, y, z'
loop_
 _atom_site_type_symbol
 _atom_site_label
 _atom_site_symmetry_multiplicity
 _atom_site_fract_x
 _atom_site_fract_y
 _atom_site_fract_z
 _atom_site_occupancy
  Al  Al0  1  0.99984526  0.50000023  0.99999984  1.0
  Al  Al1  1  0.00000772  0.83333350  0.66666672  1.0
  H  H2  1  0.48788756  0.75222689  0.25060981  1.0
  H  H3  1  0.51200122  0.83482353  0.41603867  1.0
  H  H4  1  0.27277510  0.52822052  0.41680852  1.0
  H  H5  1  0.71941003  0.53011959  0.41841374  1.0
  H  H6  1  0.72757207  0.44473284  0.24986138  1.0
  H  H7  1  0.28059351  0.44505965  0.24834459  1.0
  H  H8  1  0.48789102  0.49838295  0.74777270  1.0
  H  H9  1  0.51200173  0.58121565  0.66517585  1.0
  H  H10  1  0.27277927  0.88858831  0.97178118  1.0
  H  H11  1  0.71941170  0.88829279  0.96988033  1.0
  H  H12  1  0.72757166  0.80512708  0.05526703  1.0
  H  H13  1  0.28059812  0.80328438  0.05494082  1.0
  H  H14  1  0.48789074  0.24938943  0.00161528  1.0
  H  H15  1  0.51200574  0.08396039  0.91878393  1.0
  H  H16  1  0.27277690  0.08319208  0.61141087  1.0
  H  H17  1  0.71940934  0.08158389  0.61170292  1.0
  H  H18  1  0.72758003  0.25013669  0.69486927  1.0
  H  H19  1  0.28059895  0.25165446  0.69671383  1.0
  C  C20  1  0.49982640  0.36254683  0.93346752  1.0
  C  C21  1  0.49982275  0.57092121  0.13745253  1.0
  C  C22  1  0.49982492  0.56653130  0.92907907  1.0
  C  C23  1  0.50008037  0.76671173  0.52912291  1.0
  C  C24  1  0.50007824  0.76241199  0.73328948  1.0
  C  C25  1  0.50007675  0.97087663  0.73758749  1.0
  C  C26  1  0.50005296  0.71702196  0.42959599  1.0
  C  C27  1  0.49974230  0.62076000  0.23696068  1.0
  C  C28  1  0.49448029  0.62391978  0.37995480  1.0
  C  C29  1  0.49427882  0.71505488  0.28650272  1.0
  C  C30  1  0.50541878  0.57725337  0.28657441  1.0
  C  C31  1  0.50554554  0.76178163  0.38006067  1.0
  C  C32  1  0.49639217  0.53923548  0.38635324  1.0
  C  C33  1  0.50383674  0.48616329  0.28028315  1.0
  C  C34  1  0.50004936  0.71257434  0.78297820  1.0
  C  C35  1  0.49974171  0.61620024  0.87923957  1.0
  C  C36  1  0.49447847  0.75603521  0.87608056  1.0
  C  C37  1  0.49428149  0.57144796  0.78494463  1.0
  C  C38  1  0.50541720  0.70932061  0.92274697  1.0
  C  C39  1  0.50554295  0.61827954  0.73821859  1.0
  C  C40  1  0.49639173  0.84711805  0.96076511  1.0
  C  C41  1  0.50383658  0.79411900  0.01383733  1.0
  C  C42  1  0.50005398  0.07040329  0.78742426  1.0
  C  C43  1  0.49974425  0.26303851  0.88379886  1.0
  C  C44  1  0.49448281  0.12004493  0.74396377  1.0
  C  C45  1  0.49427929  0.21349525  0.92855043  1.0
  C  C46  1  0.50542555  0.21342386  0.79067708  1.0
  C  C47  1  0.50554677  0.11993783  0.88171920  1.0
  C  C48  1  0.49639144  0.11364457  0.65287944  1.0
  C  C49  1  0.50384017  0.21971613  0.70587797  1.0
  O  O50  1  0.73478925  0.58497614  0.98601243  1.0
  O  O51  1  0.73478793  0.40103616  0.91502390  1.0
  O  O52  1  0.73478744  0.51398762  0.09896335  1.0
  O  O53  1  0.26569618  0.50984176  0.91235004  1.0
  O  O54  1  0.26569344  0.58765023  0.09749145  1.0
  O  O55  1  0.26569709  0.40250769  0.99015776  1.0
  O  O56  1  0.73445199  0.93096637  0.75430715  1.0
  O  O57  1  0.73445997  0.82334138  0.56903307  1.0
  O  O58  1  0.73445821  0.74569318  0.67666021  1.0
  O  O59  1  0.26519033  0.93230450  0.68062465  1.0
  O  O60  1  0.26519377  0.81937578  0.75167951  1.0
  O  O61  1  0.26519898  0.74832157  0.56769584  1.0
