# generated using pymatgen
data_Zn2H21C15O8
_symmetry_space_group_name_H-M   'P 1'
_cell_length_a   17.99547585
_cell_length_b   19.14636658
_cell_length_c   19.66818824
_cell_angle_alpha   64.03421983
_cell_angle_beta   63.83882064
_cell_angle_gamma   62.76068092
_symmetry_Int_Tables_number   1
_chemical_formula_structural   Zn2H21C15O8
_chemical_formula_sum   'Zn8 H84 C60 O32'
_cell_volume   5165.93663057
_cell_formula_units_Z   4
loop_
 _symmetry_equiv_pos_site_id
 _symmetry_equiv_pos_as_xyz
  1  'x, y, z'
loop_
 _atom_site_type_symbol
 _atom_site_label
 _atom_site_symmetry_multiplicity
 _atom_site_fract_x
 _atom_site_fract_y
 _atom_site_fract_z
 _atom_site_occupancy
  Zn  Zn0  1  0.99915360  0.04900026  0.89424807  1.0
  Zn  Zn1  1  0.00255900  0.89097402  0.05197594  1.0
  Zn  Zn2  1  0.83349774  0.05922504  0.04963133  1.0
  Zn  Zn3  1  0.01295273  0.05375438  0.04666087  1.0
  Zn  Zn4  1  0.42416505  0.49975505  0.60434694  1.0
  Zn  Zn5  1  0.43128719  0.64193224  0.43601699  1.0
  Zn  Zn6  1  0.39770549  0.48185997  0.46331089  1.0
  Zn  Zn7  1  0.58526061  0.46992468  0.44907033  1.0
  H  H8  1  0.09052096  0.80969474  0.82593723  1.0
  H  H9  1  0.17166340  0.75813795  0.87400622  1.0
  H  H10  1  0.18820303  0.91741382  0.75062155  1.0
  H  H11  1  0.27119828  0.82109361  0.76499771  1.0
  H  H12  1  0.25387126  0.94715763  0.60686035  1.0
  H  H13  1  0.33787600  0.85067951  0.62159893  1.0
  H  H14  1  0.27843615  0.87725343  0.55716257  1.0
  H  H15  1  0.19829417  0.71881989  0.74962201  1.0
  H  H16  1  0.30533473  0.72249570  0.69526322  1.0
  H  H17  1  0.22012735  0.79056416  0.57614199  1.0
  H  H18  1  0.17691509  0.71126229  0.64706121  1.0
  H  H19  1  0.01113638  0.99978788  0.65465718  1.0
  H  H20  1  0.09809147  0.00759413  0.67004064  1.0
  H  H21  1  0.11494902  0.99535490  0.57961365  1.0
  H  H22  1  0.75603052  0.26251855  0.83102996  1.0
  H  H23  1  0.69080769  0.19988803  0.87099832  1.0
  H  H24  1  0.85655570  0.14913626  0.74361198  1.0
  H  H25  1  0.74926812  0.16107308  0.75415798  1.0
  H  H26  1  0.88099247  0.20534393  0.59785391  1.0
  H  H27  1  0.77074429  0.22001248  0.61316439  1.0
  H  H28  1  0.81164337  0.30345551  0.55567749  1.0
  H  H29  1  0.66335867  0.33792227  0.75822348  1.0
  H  H30  1  0.64798758  0.30109406  0.69922416  1.0
  H  H31  1  0.73878988  0.42062137  0.59142509  1.0
  H  H32  1  0.65358833  0.46365760  0.66695271  1.0
  H  H33  1  0.97467766  0.30271980  0.65702762  1.0
  H  H34  1  0.96608994  0.20959106  0.66432070  1.0
  H  H35  1  0.95470211  0.29540471  0.57915898  1.0
  H  H36  1  0.20858127  0.15725147  0.83143626  1.0
  H  H37  1  0.13663447  0.23662956  0.87576090  1.0
  H  H38  1  0.10137362  0.24444282  0.73522187  1.0
  H  H39  1  0.09538206  0.32584828  0.75931229  1.0
  H  H40  1  0.16120409  0.33236981  0.59857785  1.0
  H  H41  1  0.17899885  0.39601708  0.62954298  1.0
  H  H42  1  0.26813816  0.33800451  0.56735757  1.0
  H  H43  1  0.28488636  0.23042381  0.78155187  1.0
  H  H44  1  0.24397267  0.33763617  0.73999970  1.0
  H  H45  1  0.40133029  0.23492328  0.63639114  1.0
  H  H46  1  0.41556185  0.25137284  0.71127052  1.0
  H  H47  1  0.27214632  0.10251804  0.62613668  1.0
  H  H48  1  0.17807576  0.19457100  0.62590753  1.0
  H  H49  1  0.28148416  0.20008304  0.55816054  1.0
  H  H50  1  0.70407862  0.87596798  0.23414584  1.0
  H  H51  1  0.75404127  0.89554890  0.27961709  1.0
  H  H52  1  0.87648181  0.75409659  0.26995853  1.0
  H  H53  1  0.77604444  0.75556068  0.34587347  1.0
  H  H54  1  0.91343015  0.60974523  0.28231162  1.0
  H  H55  1  0.81680395  0.60972054  0.36410805  1.0
  H  H56  1  0.83591928  0.57313927  0.28728675  1.0
  H  H57  1  0.65790630  0.78520247  0.26502616  1.0
  H  H58  1  0.67405769  0.70355421  0.35116558  1.0
  H  H59  1  0.72992663  0.62158909  0.23739384  1.0
  H  H60  1  0.64124973  0.71003165  0.21223844  1.0
  H  H61  1  0.94274392  0.71957101  0.06463628  1.0
  H  H62  1  0.96645750  0.69058149  0.15477768  1.0
  H  H63  1  0.93821794  0.62314999  0.13849937  1.0
  H  H64  1  0.19396342  0.87269420  0.18386389  1.0
  H  H65  1  0.26383562  0.86545811  0.09015736  1.0
  H  H66  1  0.22694608  0.72770213  0.13433915  1.0
  H  H67  1  0.31073723  0.72817610  0.15764734  1.0
  H  H68  1  0.25496722  0.59251635  0.23581799  1.0
  H  H69  1  0.32209913  0.60963977  0.26696567  1.0
  H  H70  1  0.22820748  0.58292442  0.33729351  1.0
  H  H71  1  0.15821608  0.81205204  0.30367877  1.0
  H  H72  1  0.27266742  0.75888868  0.28272197  1.0
  H  H73  1  0.14682732  0.67090748  0.42000825  1.0
  H  H74  1  0.16969523  0.74560935  0.43049530  1.0
  H  H75  1  0.00993377  0.69550366  0.26486089  1.0
  H  H76  1  0.11921091  0.66162998  0.20112511  1.0
  H  H77  1  0.09303749  0.60872431  0.30383713  1.0
  H  H78  1  0.79869724  0.25259483  0.15302282  1.0
  H  H79  1  0.84537373  0.17803068  0.22865265  1.0
  H  H80  1  0.68697262  0.15605591  0.23738333  1.0
  H  H81  1  0.71000049  0.16043399  0.31365692  1.0
  H  H82  1  0.53244546  0.22714178  0.30662688  1.0
  H  H83  1  0.56243764  0.24396076  0.37145158  1.0
  H  H84  1  0.49975739  0.32849936  0.31055259  1.0
  H  H85  1  0.73386788  0.33705738  0.21404925  1.0
  H  H86  1  0.68978615  0.29877514  0.31770159  1.0
  H  H87  1  0.56481403  0.44055264  0.22731739  1.0
  H  H88  1  0.64516831  0.46072816  0.23747469  1.0
  H  H89  1  0.58596667  0.31225825  0.08176992  1.0
  H  H90  1  0.58817141  0.22438342  0.16833577  1.0
  H  H91  1  0.50468362  0.31962697  0.17534118  1.0
  C  C92  1  0.08609192  0.87545569  0.88996308  1.0
  C  C93  1  0.13955196  0.81847104  0.83806608  1.0
  C  C94  1  0.20418649  0.85182509  0.76010214  1.0
  C  C95  1  0.20730850  0.84173659  0.68444103  1.0
  C  C96  1  0.27253712  0.88191571  0.61317550  1.0
  C  C97  1  0.23744789  0.74975311  0.69288823  1.0
  C  C98  1  0.23206052  0.73376033  0.62482086  1.0
  C  C99  1  0.31417210  0.67129156  0.59024582  1.0
  C  C100  1  0.11340479  0.88521046  0.67827677  1.0
  C  C101  1  0.08207178  0.97785124  0.64389311  1.0
  C  C102  1  0.81677511  0.14112311  0.88842896  1.0
  C  C103  1  0.75756473  0.20177852  0.83699483  1.0
  C  C104  1  0.78854259  0.19093398  0.75488768  1.0
  C  C105  1  0.78319643  0.27165771  0.68452611  1.0
  C  C106  1  0.81399673  0.24915666  0.60816344  1.0
  C  C107  1  0.68811594  0.33069751  0.69902168  1.0
  C  C108  1  0.67642192  0.41730271  0.63744322  1.0
  C  C109  1  0.61102238  0.43838654  0.59729069  1.0
  C  C110  1  0.84332444  0.30959924  0.68296238  1.0
  C  C111  1  0.94092635  0.27715332  0.64378176  1.0
  C  C112  1  0.08208652  0.15442976  0.88447261  1.0
  C  C113  1  0.14302969  0.20474008  0.83787033  1.0
  C  C114  1  0.13558515  0.26286441  0.75578643  1.0
  C  C115  1  0.22560649  0.26646071  0.69186656  1.0
  C  C116  1  0.20787478  0.33669081  0.61717372  1.0
  C  C117  1  0.27992859  0.27896115  0.72557316  1.0
  C  C118  1  0.37459517  0.27602962  0.67263530  1.0
  C  C119  1  0.38224509  0.35965761  0.61952007  1.0
  C  C120  1  0.27022574  0.18161913  0.67760825  1.0
  C  C121  1  0.24869339  0.16844618  0.61883442  1.0
  C  C122  1  0.82445933  0.89764707  0.16177360  1.0
  C  C123  1  0.76746940  0.86004249  0.24158775  1.0
  C  C124  1  0.80633938  0.76855577  0.28117246  1.0
  C  C125  1  0.79371820  0.70786456  0.25757770  1.0
  C  C126  1  0.84316457  0.62003914  0.29958786  1.0
  C  C127  1  0.69515344  0.72017401  0.28598886  1.0
  C  C128  1  0.67153527  0.66940624  0.25984427  1.0
  C  C129  1  0.60881324  0.62788224  0.32898112  1.0
  C  C130  1  0.82907687  0.72816453  0.16651228  1.0
  C  C131  1  0.92518887  0.68844891  0.12847066  1.0
  C  C132  1  0.13283261  0.88940879  0.10552993  1.0
  C  C133  1  0.20976913  0.84500124  0.13859046  1.0
  C  C134  1  0.23927370  0.75126061  0.16896521  1.0
  C  C135  1  0.20056918  0.71108300  0.25921421  1.0
  C  C136  1  0.25377479  0.61868920  0.27620841  1.0
  C  C137  1  0.20803751  0.75089380  0.30810364  1.0
  C  C138  1  0.19486500  0.70229741  0.39654626  1.0
  C  C139  1  0.28004751  0.64155635  0.41334021  1.0
  C  C140  1  0.10277985  0.72632478  0.27664308  1.0
  C  C141  1  0.07965959  0.66988940  0.26008678  1.0
  C  C142  1  0.84614518  0.13469234  0.14560790  1.0
  C  C143  1  0.80137197  0.19130806  0.19673413  1.0
  C  C144  1  0.70886077  0.19153348  0.25177927  1.0
  C  C145  1  0.63953915  0.27874327  0.24840634  1.0
  C  C146  1  0.55331740  0.26940651  0.31245808  1.0
  C  C147  1  0.67325946  0.33107189  0.26163484  1.0
  C  C148  1  0.60815117  0.41782262  0.26319441  1.0
  C  C149  1  0.55418558  0.42535819  0.34557089  1.0
  C  C150  1  0.63067569  0.31599496  0.16401413  1.0
  C  C151  1  0.57429396  0.29129038  0.14594753  1.0
  O  O152  1  0.96136325  0.01121050  0.00990508  1.0
  O  O153  1  0.05877657  0.84160398  0.96437831  1.0
  O  O154  1  0.07080862  0.95241759  0.85492747  1.0
  O  O155  1  0.35984340  0.69783507  0.51917563  1.0
  O  O156  1  0.33171811  0.59699551  0.63502167  1.0
  O  O157  1  0.06362100  0.84595440  0.70359944  1.0
  O  O158  1  0.78076371  0.12739413  0.96318772  1.0
  O  O159  1  0.89777997  0.11113431  0.85314880  1.0
  O  O160  1  0.64268918  0.42438594  0.53018914  1.0
  O  O161  1  0.53012009  0.46637749  0.63392975  1.0
  O  O162  1  0.81314924  0.36336566  0.71512334  1.0
  O  O163  1  0.05495498  0.14158967  0.95924795  1.0
  O  O164  1  0.06640675  0.12521253  0.84674270  1.0
  O  O165  1  0.38710770  0.37908750  0.54703152  1.0
  O  O166  1  0.38241511  0.40455771  0.65198495  1.0
  O  O167  1  0.31978655  0.12475348  0.71505688  1.0
  O  O168  1  0.78582896  0.97008254  0.12446020  1.0
  O  O169  1  0.90554905  0.85606786  0.13976805  1.0
  O  O170  1  0.63921197  0.55018503  0.35816702  1.0
  O  O171  1  0.53090676  0.67464770  0.35432492  1.0
  O  O172  1  0.77964755  0.77683616  0.12602439  1.0
  O  O173  1  0.11157920  0.96757228  0.08294891  1.0
  O  O174  1  0.09730052  0.84805852  0.10078814  1.0
  O  O175  1  0.28401785  0.56684400  0.45326820  1.0
  O  O176  1  0.34255015  0.67018679  0.38605252  1.0
  O  O177  1  0.04489258  0.78265634  0.30325524  1.0
  O  O178  1  0.92889028  0.10114342  0.13234001  1.0
  O  O179  1  0.79926499  0.12768527  0.11715873  1.0
  O  O180  1  0.47125687  0.46029002  0.35971961  1.0
  O  O181  1  0.59572607  0.39790978  0.39568026  1.0
  O  O182  1  0.67094549  0.36262793  0.11180486  1.0
  O  O183  1  0.46007202  0.52414907  0.48931841  1.0
