# generated using pymatgen
data_Al3H23C48NO17
_symmetry_space_group_name_H-M   'P 1'
_cell_length_a   12.15929363
_cell_length_b   12.41018929
_cell_length_c   27.85532053
_cell_angle_alpha   88.89537060
_cell_angle_beta   89.37798871
_cell_angle_gamma   62.10922623
_symmetry_Int_Tables_number   1
_chemical_formula_structural   Al3H23C48NO17
_chemical_formula_sum   'Al6 H46 C96 N2 O34'
_cell_volume   3714.38899358
_cell_formula_units_Z   2
loop_
 _symmetry_equiv_pos_site_id
 _symmetry_equiv_pos_as_xyz
  1  'x, y, z'
loop_
 _atom_site_type_symbol
 _atom_site_label
 _atom_site_symmetry_multiplicity
 _atom_site_fract_x
 _atom_site_fract_y
 _atom_site_fract_z
 _atom_site_occupancy
  Al  Al0  1  0.39785283  0.40324429  0.50106243  1.0
  Al  Al1  1  0.41377479  0.65357327  0.50148344  1.0
  Al  Al2  1  0.65246230  0.41960714  0.50147243  1.0
  Al  Al3  1  0.93280285  0.90861906  0.01566287  1.0
  Al  Al4  1  0.66779120  0.91204430  0.01639447  1.0
  Al  Al5  1  0.89649049  0.66868858  0.01875436  1.0
  H  H6  1  0.48199221  0.86483926  0.78121100  1.0
  H  H7  1  0.45149946  0.27939585  0.79044956  1.0
  H  H8  1  0.09968526  0.49528754  0.78041978  1.0
  H  H9  1  0.98020296  0.70292030  0.71800810  1.0
  H  H10  1  0.33042411  0.44297520  0.73638283  1.0
  H  H11  1  0.36730982  0.58780039  0.80603055  1.0
  H  H12  1  0.24702240  0.79506298  0.74376334  1.0
  H  H13  1  0.01530613  0.84659875  0.78748304  1.0
  H  H14  1  0.66252212  0.84454130  0.71274193  1.0
  H  H15  1  0.46925418  0.80735946  0.38348960  1.0
  H  H16  1  0.40665571  0.97040973  0.22229173  1.0
  H  H17  1  0.83054654  0.53584706  0.13607128  1.0
  H  H18  1  0.91104436  0.40727360  0.21017383  1.0
  H  H19  1  0.90271269  0.38445877  0.29809882  1.0
  H  H20  1  0.79409596  0.45912156  0.37514392  1.0
  H  H21  1  0.88552106  0.07035666  0.13911728  1.0
  H  H22  1  0.97113043  0.11318102  0.21336634  1.0
  H  H23  1  0.46689902  0.66607171  0.73831318  1.0
  H  H24  1  0.95209891  0.16405193  0.29788098  1.0
  H  H25  1  0.51877239  0.10219538  0.14054413  1.0
  H  H26  1  0.38452147  0.17639424  0.21406837  1.0
  H  H27  1  0.36254516  0.23153263  0.29964041  1.0
  H  H28  1  0.45265250  0.26346099  0.37430977  1.0
  H  H29  1  0.07838209  0.51142315  0.14618231  1.0
  H  H30  1  0.21314345  0.47592901  0.38708374  1.0
  H  H31  1  0.10802910  0.84049201  0.13531395  1.0
  H  H32  1  0.16516832  0.92143586  0.20626464  1.0
  H  H33  1  0.21177145  0.90984545  0.29347852  1.0
  H  H34  1  0.24284413  0.80435548  0.37203241  1.0
  H  H35  1  0.84008019  0.48150755  0.73169785  1.0
  H  H36  1  0.85274540  0.68082001  0.77490170  1.0
  H  H37  1  0.79609841  0.24611825  0.79573761  1.0
  H  H38  1  0.87921237  0.05575998  0.72871662  1.0
  H  H39  1  0.57726412  0.38343483  0.73589922  1.0
  H  H40  1  0.50100867  0.10837295  0.68598477  1.0
  H  H41  1  0.73174292  0.91481414  0.81361006  1.0
  H  H42  1  0.40883991  0.94081082  0.15888212  1.0
  H  H43  1  0.40509742  0.97283249  0.34919495  1.0
  H  H44  1  0.34357349  0.05180752  0.29846596  1.0
  H  H45  1  0.83499350  0.23511733  0.41617961  1.0
  H  H46  1  0.93357913  0.17495281  0.36677574  1.0
  H  H47  1  0.13452958  0.37596968  0.18783111  1.0
  H  H48  1  0.16580208  0.38041450  0.35177792  1.0
  H  H49  1  0.66722827  0.41998554  0.79010614  1.0
  H  H50  1  0.28806260  0.30225172  0.52975791  1.0
  H  H51  1  0.06147072  0.98809853  0.98561057  1.0
  C  C52  1  0.27742384  0.60542549  0.57177624  1.0
  C  C53  1  0.63100024  0.63482930  0.61567490  1.0
  C  C54  1  0.76764883  0.67661987  0.76619061  1.0
  C  C55  1  0.66640207  0.68906545  0.80532557  1.0
  C  C56  1  0.76064919  0.56643894  0.74305404  1.0
  C  C57  1  0.65432852  0.65737146  0.70827808  1.0
  C  C58  1  0.65892271  0.57854390  0.78098206  1.0
  C  C59  1  0.55236508  0.67004612  0.74692033  1.0
  C  C60  1  0.67699629  0.70019962  0.85523563  1.0
  C  C61  1  0.64350062  0.64457074  0.65851912  1.0
  C  C62  1  0.78449087  0.10553626  0.74268487  1.0
  C  C63  1  0.60302144  0.61158548  0.56836366  1.0
  C  C64  1  0.73711241  0.21284526  0.77890900  1.0
  C  C65  1  0.68278050  0.10323362  0.90066193  1.0
  C  C66  1  0.64812412  0.22127783  0.61695770  1.0
  C  C67  1  0.71414265  0.04721879  0.77126325  1.0
  C  C68  1  0.66419592  0.15667468  0.80846395  1.0
  C  C69  1  0.59327710  0.12229213  0.73944622  1.0
  C  C70  1  0.66624922  0.18009778  0.71025003  1.0
  C  C71  1  0.54587940  0.23029704  0.77607495  1.0
  C  C72  1  0.61724108  0.28774183  0.74746870  1.0
  C  C73  1  0.66939402  0.13404001  0.85843665  1.0
  C  C74  1  0.62014354  0.27259546  0.56901722  1.0
  C  C75  1  0.66053262  0.19878201  0.65996623  1.0
  C  C76  1  0.06565335  0.67666016  0.73828839  1.0
  C  C77  1  0.13244601  0.56183212  0.77188136  1.0
  C  C78  1  0.10412763  0.65704382  0.90312446  1.0
  C  C79  1  0.23342982  0.63401859  0.62030417  1.0
  C  C80  1  0.08640607  0.75757256  0.77556717  1.0
  C  C81  1  0.15256977  0.64279728  0.81052845  1.0
  C  C82  1  0.21451208  0.72823185  0.75221576  1.0
  C  C83  1  0.19458131  0.64702247  0.71357816  1.0
  C  C84  1  0.28163120  0.61339110  0.78589431  1.0
  C  C85  1  0.27225244  0.62048261  0.43373854  1.0
  C  C86  1  0.26061745  0.53251389  0.74851187  1.0
  C  C87  1  0.12919822  0.64607597  0.86042487  1.0
  C  C88  1  0.21473780  0.64399687  0.66347828  1.0
  C  C89  1  0.54474518  0.74176438  0.36157327  1.0
  C  C90  1  0.55211385  0.76147417  0.31221343  1.0
  C  C91  1  0.56125687  0.78773921  0.21031918  1.0
  C  C92  1  0.47108535  0.88300246  0.23879921  1.0
  C  C93  1  0.46658468  0.87371608  0.28809097  1.0
  C  C94  1  0.56580109  0.79818091  0.15948834  1.0
  C  C95  1  0.66630147  0.70856689  0.13308009  1.0
  C  C96  1  0.61175993  0.60711638  0.43442556  1.0
  C  C97  1  0.72848078  0.54360951  0.35738501  1.0
  C  C98  1  0.73751746  0.55855691  0.30776465  1.0
  C  C99  1  0.64709874  0.66754389  0.28436848  1.0
  C  C100  1  0.83334582  0.46581048  0.27965819  1.0
  C  C101  1  0.83803189  0.47878968  0.23109773  1.0
  C  C102  1  0.74866090  0.58606091  0.20656917  1.0
  C  C103  1  0.65241786  0.68043237  0.23368171  1.0
  C  C104  1  0.75457777  0.60360454  0.15716258  1.0
  C  C105  1  0.63146804  0.63321741  0.38388420  1.0
  C  C106  1  0.75081255  0.21549228  0.35673741  1.0
  C  C107  1  0.60700380  0.28854601  0.43021825  1.0
  C  C108  1  0.76407077  0.18436513  0.30696303  1.0
  C  C109  1  0.78870737  0.12365699  0.20748989  1.0
  C  C110  1  0.88634162  0.13086261  0.23290433  1.0
  C  C111  1  0.87473944  0.15910935  0.28049928  1.0
  C  C112  1  0.80034135  0.09134227  0.15900186  1.0
  C  C113  1  0.70366086  0.08302189  0.13557684  1.0
  C  C114  1  0.53887714  0.24035343  0.35485310  1.0
  C  C115  1  0.55004995  0.20813605  0.30675500  1.0
  C  C116  1  0.66418181  0.18029114  0.28227561  1.0
  C  C117  1  0.45032387  0.20543872  0.28081798  1.0
  C  C118  1  0.66212816  0.76813209  0.73258785  1.0
  C  C119  1  0.46257179  0.17497605  0.23355746  1.0
  C  C120  1  0.57622707  0.14443765  0.20797221  1.0
  C  C121  1  0.67637363  0.14943298  0.23275724  1.0
  C  C122  1  0.59227951  0.11008672  0.15972736  1.0
  C  C123  1  0.63523187  0.24568581  0.38024426  1.0
  C  C124  1  0.20434572  0.54998841  0.36293513  1.0
  C  C125  1  0.17723086  0.55435364  0.31399062  1.0
  C  C126  1  0.13241704  0.56351164  0.21322298  1.0
  C  C127  1  0.14286474  0.46249442  0.24252246  1.0
  C  C128  1  0.15795274  0.46132572  0.29151080  1.0
  C  C129  1  0.56095660  0.77956897  0.77005978  1.0
  C  C130  1  0.10116788  0.57565508  0.16434993  1.0
  C  C131  1  0.09115142  0.67593091  0.13713473  1.0
  C  C132  1  0.22281235  0.73657330  0.35555029  1.0
  C  C133  1  0.19613110  0.74444822  0.30637228  1.0
  C  C134  1  0.17453146  0.65217718  0.28498674  1.0
  C  C135  1  0.19268289  0.84160419  0.27671495  1.0
  C  C136  1  0.16814299  0.84727685  0.22883263  1.0
  C  C137  1  0.14533947  0.75665011  0.20647702  1.0
  C  C138  1  0.15098526  0.65729927  0.23507711  1.0
  C  C139  1  0.11575376  0.76422200  0.15768978  1.0
  C  C140  1  0.68831119  0.70782397  0.89832613  1.0
  C  C141  1  0.22813280  0.63937750  0.38330770  1.0
  C  C142  1  0.71348290  0.04904580  0.94806580  1.0
  C  C143  1  0.71078558  0.72755146  0.94712898  1.0
  C  C144  1  0.05173748  0.69282819  0.95029198  1.0
  C  C145  1  0.72492830  0.03668440  0.08564978  1.0
  C  C146  1  0.69214193  0.72693412  0.08233358  1.0
  C  C147  1  0.04288259  0.69768527  0.08705754  1.0
  N  N148  1  0.37879842  0.96871250  0.31507333  1.0
  N  N149  1  0.84662242  0.21899143  0.38037316  1.0
  O  O150  1  0.51873402  0.28999527  0.55069545  1.0
  O  O151  1  0.51391518  0.68437118  0.45613580  1.0
  O  O152  1  0.69020844  0.50437813  0.45308334  1.0
  O  O153  1  0.69163342  0.29974735  0.45502546  1.0
  O  O154  1  0.48909648  0.49273335  0.50219581  1.0
  O  O155  1  0.02980471  0.79810947  0.96316928  1.0
  O  O156  1  0.82299726  0.01474126  0.96232370  1.0
  O  O157  1  0.62733006  0.03575302  0.97068055  1.0
  O  O158  1  0.63507393  0.82974288  0.96527825  1.0
  O  O159  1  0.80783306  0.64433201  0.96766801  1.0
  O  O160  1  0.02672632  0.61731979  0.97455028  1.0
  O  O161  1  0.30534804  0.49936727  0.55769261  1.0
  O  O162  1  0.03333366  0.79178569  0.06536676  1.0
  O  O163  1  0.82879185  0.01081849  0.06638441  1.0
  O  O164  1  0.63778017  0.02146777  0.06591149  1.0
  O  O165  1  0.62023266  0.82677204  0.06055250  1.0
  O  O166  1  0.79223316  0.64396936  0.06333724  1.0
  O  O167  1  0.00853100  0.62195729  0.06997977  1.0
  O  O168  1  0.83158739  0.82883387  0.01633516  1.0
  O  O169  1  0.28929390  0.68866248  0.54722952  1.0
  O  O170  1  0.49760126  0.68827228  0.55074609  1.0
  O  O171  1  0.68182358  0.51348605  0.54829221  1.0
  O  O172  1  0.70017683  0.30187085  0.55013774  1.0
  O  O173  1  0.50008558  0.31589708  0.44682272  1.0
  O  O174  1  0.28585621  0.52480141  0.45550389  1.0
  O  O175  1  0.30020421  0.70012278  0.45154396  1.0
  O  O176  1  0.52471052  0.07346417  0.71830878  1.0
  O  O177  1  0.77101234  0.92554761  0.78435844  1.0
  O  O178  1  0.47471280  0.89509612  0.13590554  1.0
  O  O179  1  0.13661315  0.36518605  0.22262503  1.0
  O  O180  1  0.15902088  0.36605710  0.31788751  1.0
  O  O181  1  0.65719929  0.48796420  0.80997544  1.0
  O  O182  1  0.31527412  0.31913050  0.49910994  1.0
  O  O183  1  0.02337825  0.98464507  0.01583146  1.0
