# generated using pymatgen
data_Zn4H8C40N8O29F4
_symmetry_space_group_name_H-M   'P 1'
_cell_length_a   23.86269812
_cell_length_b   23.86251275
_cell_length_c   23.86077366
_cell_angle_alpha   72.43701295
_cell_angle_beta   66.63751584
_cell_angle_gamma   107.56316109
_symmetry_Int_Tables_number   1
_chemical_formula_structural   Zn4H8C40N8O29F4
_chemical_formula_sum   'Zn8 H16 C80 N16 O58 F8'
_cell_volume   10422.32277427
_cell_formula_units_Z   2
loop_
 _symmetry_equiv_pos_site_id
 _symmetry_equiv_pos_as_xyz
  1  'x, y, z'
loop_
 _atom_site_type_symbol
 _atom_site_label
 _atom_site_symmetry_multiplicity
 _atom_site_fract_x
 _atom_site_fract_y
 _atom_site_fract_z
 _atom_site_occupancy
  Zn  Zn0  1  0.48608253  0.44297680  0.45681714  1.0
  Zn  Zn1  1  0.45683304  0.55702217  0.48607547  1.0
  Zn  Zn2  1  0.45689710  0.44299356  0.60020094  1.0
  Zn  Zn3  1  0.60021139  0.55701009  0.45687057  1.0
  Zn  Zn4  1  0.01390028  0.55708516  0.04311547  1.0
  Zn  Zn5  1  0.04318237  0.55709013  0.89978747  1.0
  Zn  Zn6  1  0.04312104  0.44291536  0.01390252  1.0
  Zn  Zn7  1  0.89981332  0.44289480  0.04318214  1.0
  H  H8  1  0.11281547  0.76486107  0.96400403  1.0
  H  H9  1  0.15206533  0.76488017  0.77109647  1.0
  H  H10  1  0.34730753  0.23522676  0.72900667  1.0
  H  H11  1  0.38801171  0.23526744  0.53577239  1.0
  H  H12  1  0.77114774  0.23513406  0.15204469  1.0
  H  H13  1  0.96401837  0.23510981  0.11282297  1.0
  H  H14  1  0.53577723  0.76473502  0.38799889  1.0
  H  H15  1  0.72898872  0.76476151  0.34731634  1.0
  H  H16  1  0.11204706  0.57628193  0.15270458  1.0
  H  H17  1  0.15270844  0.42375012  0.11204339  1.0
  H  H18  1  0.34794615  0.57682421  0.38719003  1.0
  H  H19  1  0.38715930  0.42316867  0.34796603  1.0
  H  H20  1  0.96423122  0.57622257  0.77103290  1.0
  H  H21  1  0.77099392  0.42369714  0.96424100  1.0
  H  H22  1  0.72890503  0.57684715  0.53596926  1.0
  H  H23  1  0.53600617  0.42319500  0.72887524  1.0
  C  C24  1  0.40928265  0.49999715  0.40930169  1.0
  C  C25  1  0.36247862  0.50001557  0.63752260  1.0
  C  C26  1  0.40937419  0.31869947  0.59065750  1.0
  C  C27  1  0.59072728  0.50000641  0.59068885  1.0
  C  C28  1  0.63750506  0.49997697  0.36243847  1.0
  C  C29  1  0.59066232  0.68130198  0.40936364  1.0
  C  C30  1  0.09072374  0.68141188  0.90927863  1.0
  C  C31  1  0.13754202  0.50002299  0.86243672  1.0
  C  C32  1  0.09064130  0.50000718  0.09066160  1.0
  C  C33  1  0.90932005  0.31858175  0.09069512  1.0
  C  C34  1  0.86243791  0.49995542  0.13754369  1.0
  C  C35  1  0.90933353  0.49996813  0.90936502  1.0
  C  C36  1  0.69480882  0.49996237  0.30513542  1.0
  C  C37  1  0.80511553  0.49994204  0.19485807  1.0
  C  C38  1  0.76565577  0.54225586  0.27665086  1.0
  C  C39  1  0.73426760  0.45762094  0.22336075  1.0
  C  C40  1  0.81892039  0.54226224  0.22338512  1.0
  C  C41  1  0.68099999  0.45765375  0.27659303  1.0
  C  C42  1  0.30517388  0.50003083  0.69482968  1.0
  C  C43  1  0.19486391  0.50003184  0.80512427  1.0
  C  C44  1  0.27663387  0.45769306  0.76568432  1.0
  C  C45  1  0.22343138  0.54240134  0.73426641  1.0
  C  C46  1  0.22334387  0.45766944  0.81894231  1.0
  C  C47  1  0.27667981  0.54238118  0.68100378  1.0
  C  C48  1  0.12820243  0.75637413  0.87179194  1.0
  C  C49  1  0.13447596  0.79159374  0.90831364  1.0
  C  C50  1  0.16772026  0.86102238  0.87327169  1.0
  C  C51  1  0.19954696  0.89906555  0.80045028  1.0
  C  C52  1  0.19332554  0.86103187  0.76566857  1.0
  C  C53  1  0.15714804  0.79160609  0.80004766  1.0
  C  C54  1  0.23478111  0.96952915  0.76522242  1.0
  C  C55  1  0.26531134  0.03059298  0.73470294  1.0
  C  C56  1  0.30055621  0.10105882  0.69947503  1.0
  C  C57  1  0.31026380  0.13907384  0.73354341  1.0
  C  C58  1  0.34324527  0.20850342  0.69983608  1.0
  C  C59  1  0.37190822  0.24373260  0.62814268  1.0
  C  C60  1  0.36535041  0.20852001  0.59166779  1.0
  C  C61  1  0.32888609  0.13909077  0.62738226  1.0
  C  C62  1  0.87183616  0.24361926  0.12818061  1.0
  C  C63  1  0.80009439  0.20839808  0.15712812  1.0
  C  C64  1  0.76569712  0.13896811  0.19331900  1.0
  C  C65  1  0.80046813  0.10092579  0.19954465  1.0
  C  C66  1  0.87328685  0.13895832  0.16772063  1.0
  C  C67  1  0.90833955  0.20838438  0.13446801  1.0
  C  C68  1  0.76522621  0.03046400  0.23478778  1.0
  C  C69  1  0.73469654  0.96939971  0.26532386  1.0
  C  C70  1  0.69946933  0.89893964  0.30056317  1.0
  C  C71  1  0.62738662  0.86091188  0.32888375  1.0
  C  C72  1  0.59167093  0.79148043  0.36534156  1.0
  C  C73  1  0.62813802  0.75626186  0.37190264  1.0
  C  C74  1  0.69982450  0.79149099  0.34324630  1.0
  C  C75  1  0.73353365  0.86092224  0.31027063  1.0
  C  C76  1  0.12812602  0.50000998  0.12814395  1.0
  C  C77  1  0.13469313  0.54304110  0.15679731  1.0
  C  C78  1  0.17114337  0.54377395  0.18977543  1.0
  C  C79  1  0.19945993  0.50000977  0.19948161  1.0
  C  C80  1  0.18975691  0.45624473  0.17116168  1.0
  C  C81  1  0.15678149  0.45697964  0.13470833  1.0
  C  C82  1  0.23469020  0.50000527  0.23471816  1.0
  C  C83  1  0.26521208  0.49999485  0.26525403  1.0
  C  C84  1  0.30044198  0.49998894  0.30049251  1.0
  C  C85  1  0.30667643  0.54099464  0.33230168  1.0
  C  C86  1  0.34285480  0.54279162  0.36554707  1.0
  C  C87  1  0.37179280  0.49999440  0.37182814  1.0
  C  C88  1  0.36550347  0.45719402  0.34289334  1.0
  C  C89  1  0.33224722  0.45898322  0.30672283  1.0
  C  C90  1  0.87186052  0.49995846  0.87187703  1.0
  C  C91  1  0.90833527  0.54298882  0.80018063  1.0
  C  C92  1  0.87262490  0.54373831  0.76645976  1.0
  C  C93  1  0.80053975  0.49998187  0.80051773  1.0
  C  C94  1  0.76647058  0.45620908  0.87260756  1.0
  C  C95  1  0.80017034  0.45693261  0.90833790  1.0
  C  C96  1  0.76531514  0.49999577  0.76528532  1.0
  C  C97  1  0.73478055  0.49999353  0.73475481  1.0
  C  C98  1  0.69955087  0.49999905  0.69952297  1.0
  C  C99  1  0.73433045  0.54100257  0.62669944  1.0
  C  C100  1  0.69994933  0.54280859  0.59165345  1.0
  C  C101  1  0.62820843  0.50001392  0.62816963  1.0
  C  C102  1  0.59169107  0.45721944  0.69991766  1.0
  C  C103  1  0.62673177  0.45900532  0.73430612  1.0
  N  N104  1  0.22688434  0.89539042  0.68916564  1.0
  N  N105  1  0.16849351  0.89534804  0.91544150  1.0
  N  N106  1  0.31943813  0.10466189  0.58709590  1.0
  N  N107  1  0.28526187  0.10462625  0.80827036  1.0
  N  N108  1  0.91542365  0.10460795  0.16851417  1.0
  N  N109  1  0.68921065  0.10463494  0.22685430  1.0
  N  N110  1  0.80825032  0.89535982  0.28527506  1.0
  N  N111  1  0.58711132  0.89534658  0.31942887  1.0
  N  N112  1  0.21473507  0.40651469  0.18061478  1.0
  N  N113  1  0.18058784  0.59349723  0.21477005  1.0
  N  N114  1  0.33144408  0.41602428  0.27318995  1.0
  N  N115  1  0.27313123  0.58394192  0.33150782  1.0
  N  N116  1  0.69174798  0.40648179  0.91289437  1.0
  N  N117  1  0.91291324  0.59347267  0.69173899  1.0
  N  N118  1  0.58456952  0.41605431  0.81080336  1.0
  N  N119  1  0.81082454  0.58394424  0.58454318  1.0
  O  O120  1  0.50000721  0.50000153  0.49998824  1.0
  O  O121  1  0.43376392  0.45928446  0.41339548  1.0
  O  O122  1  0.38435579  0.54034165  0.57540980  1.0
  O  O123  1  0.41427089  0.34728454  0.62709155  1.0
  O  O124  1  0.41338592  0.54071405  0.43377737  1.0
  O  O125  1  0.43303825  0.34727257  0.52563509  1.0
  O  O126  1  0.38423933  0.45967755  0.65599033  1.0
  O  O127  1  0.52553315  0.45928876  0.62731106  1.0
  O  O128  1  0.65596568  0.54033303  0.38418309  1.0
  O  O129  1  0.62734863  0.54071604  0.52548586  1.0
  O  O130  1  0.57539660  0.45962783  0.38434006  1.0
  O  O131  1  0.52565230  0.65272473  0.43301114  1.0
  O  O132  1  0.62709127  0.65271856  0.41427707  1.0
  O  O133  1  0.00000898  0.50000071  0.99999521  1.0
  O  O134  1  0.06624745  0.65283203  0.97447773  1.0
  O  O135  1  0.11560372  0.54018637  0.84397853  1.0
  O  O136  1  0.08572484  0.45865486  0.06700000  1.0
  O  O137  1  0.08662315  0.65283563  0.87266036  1.0
  O  O138  1  0.06697856  0.54135839  0.08574645  1.0
  O  O139  1  0.11582405  0.45984891  0.92454572  1.0
  O  O140  1  0.97451478  0.34716032  0.06620989  1.0
  O  O141  1  0.84399075  0.45972512  0.11566641  1.0
  O  O142  1  0.87270032  0.34715482  0.08660321  1.0
  O  O143  1  0.92453965  0.54019384  0.11576624  1.0
  O  O144  1  0.97434311  0.54133570  0.87292893  1.0
  O  O145  1  0.87289605  0.45861114  0.97438455  1.0
  O  O146  1  0.28777145  0.94083852  0.65441774  1.0
  O  O147  1  0.19136753  0.87457561  0.66650090  1.0
  O  O148  1  0.15307820  0.94081012  0.90473087  1.0
  O  O149  1  0.18314294  0.87449009  0.95895760  1.0
  O  O150  1  0.26031690  0.05918138  0.61331959  1.0
  O  O151  1  0.37144415  0.12540381  0.52981631  1.0
  O  O152  1  0.29892667  0.05916681  0.82752455  1.0
  O  O153  1  0.25395917  0.12533815  0.84481503  1.0
  O  O154  1  0.90471313  0.05915555  0.15308502  1.0
  O  O155  1  0.95891441  0.12542872  0.18320018  1.0
  O  O156  1  0.65443969  0.05917895  0.28774437  1.0
  O  O157  1  0.66657125  0.12546962  0.19131706  1.0
  O  O158  1  0.82750890  0.94083114  0.29892495  1.0
  O  O159  1  0.84478965  0.87463609  0.25398906  1.0
  O  O160  1  0.61333354  0.94082027  0.26030019  1.0
  O  O161  1  0.52984074  0.87462091  0.37143601  1.0
  O  O162  1  0.20106697  0.37359397  0.23974473  1.0
  O  O163  1  0.24603038  0.40126536  0.12860080  1.0
  O  O164  1  0.23970717  0.62639589  0.20112869  1.0
  O  O165  1  0.12858138  0.59875854  0.24604959  1.0
  O  O166  1  0.34686776  0.44214039  0.21230381  1.0
  O  O167  1  0.31676077  0.35785318  0.30872408  1.0
  O  O168  1  0.21224435  0.55781021  0.34695084  1.0
  O  O169  1  0.30865734  0.64211927  0.31680959  1.0
  O  O170  1  0.67249070  0.37358117  0.88667329  1.0
  O  O171  1  0.65521025  0.40122002  0.97016737  1.0
  O  O172  1  0.88669386  0.62637027  0.67247834  1.0
  O  O173  1  0.97018654  0.59874613  0.65519341  1.0
  O  O174  1  0.59527301  0.44216867  0.84556739  1.0
  O  O175  1  0.54106611  0.35788666  0.83345583  1.0
  O  O176  1  0.84557406  0.55780915  0.59523933  1.0
  O  O177  1  0.83348673  0.64212156  0.54105087  1.0
  F  F178  1  0.78599084  0.58501860  0.29916205  1.0
  F  F179  1  0.71393064  0.41479271  0.20091036  1.0
  F  F180  1  0.88419092  0.58506998  0.20092172  1.0
  F  F181  1  0.61572300  0.41490359  0.29899781  1.0
  F  F182  1  0.29910566  0.41489839  0.78603492  1.0
  F  F183  1  0.20103444  0.58527665  0.71391324  1.0
  F  F184  1  0.20080013  0.41479274  0.88422490  1.0
  F  F185  1  0.29915080  0.58518773  0.61571743  1.0
