# generated using pymatgen
data_CuH12C17N2O3
_symmetry_space_group_name_H-M   'P 1'
_cell_length_a   10.54278108
_cell_length_b   19.13820347
_cell_length_c   19.13945034
_cell_angle_alpha   116.70751005
_cell_angle_beta   100.56523027
_cell_angle_gamma   100.57614583
_symmetry_Int_Tables_number   1
_chemical_formula_structural   CuH12C17N2O3
_chemical_formula_sum   'Cu6 H72 C102 N12 O18'
_cell_volume   3232.02364315
_cell_formula_units_Z   6
loop_
 _symmetry_equiv_pos_site_id
 _symmetry_equiv_pos_as_xyz
  1  'x, y, z'
loop_
 _atom_site_type_symbol
 _atom_site_label
 _atom_site_symmetry_multiplicity
 _atom_site_fract_x
 _atom_site_fract_y
 _atom_site_fract_z
 _atom_site_occupancy
  Cu  Cu0  1  0.95106656  0.76890242  0.40213239  1.0
  Cu  Cu1  1  0.54875452  0.59760786  0.36657086  1.0
  Cu  Cu2  1  0.18233313  0.63331817  0.23112617  1.0
  Cu  Cu3  1  0.45124728  0.40239323  0.63343201  1.0
  Cu  Cu4  1  0.81766481  0.36668292  0.76887683  1.0
  Cu  Cu5  1  0.04893590  0.23109806  0.59786714  1.0
  H  H6  1  0.59028577  0.28190881  0.61552655  1.0
  H  H7  1  0.97452330  0.38431664  0.66636709  1.0
  H  H8  1  0.30865683  0.33379905  0.71801399  1.0
  H  H9  1  0.02548403  0.61568199  0.33363159  1.0
  H  H10  1  0.69133726  0.66620204  0.28198392  1.0
  H  H11  1  0.40970867  0.71809106  0.38447345  1.0
  H  H12  1  0.40969724  0.14803177  0.53148007  1.0
  H  H13  1  0.87783682  0.46833410  0.61651285  1.0
  H  H14  1  0.26108303  0.38351705  0.85169489  1.0
  H  H15  1  0.12216919  0.53166576  0.38348885  1.0
  H  H16  1  0.73891080  0.61648159  0.14830241  1.0
  H  H17  1  0.59030045  0.85196687  0.46851710  1.0
  H  H18  1  0.58082824  0.07574420  0.70231035  1.0
  H  H19  1  0.87901408  0.29767626  0.37349951  1.0
  H  H20  1  0.50571398  0.62656325  0.92454222  1.0
  H  H21  1  0.12098356  0.70232422  0.62649952  1.0
  H  H22  1  0.49428431  0.37343662  0.07545818  1.0
  H  H23  1  0.41917173  0.92425321  0.29768493  1.0
  H  H24  1  0.75741441  0.21261546  0.77803717  1.0
  H  H25  1  0.97980599  0.22192913  0.43466803  1.0
  H  H26  1  0.54608022  0.56551618  0.78781009  1.0
  H  H27  1  0.02019236  0.77806890  0.56532789  1.0
  H  H28  1  0.45391549  0.43448430  0.21218980  1.0
  H  H29  1  0.24258328  0.78738318  0.22196053  1.0
  H  H30  1  0.27206901  0.82135044  0.51027629  1.0
  H  H31  1  0.76216288  0.48948898  0.31095540  1.0
  H  H32  1  0.45121095  0.68877324  0.17859090  1.0
  H  H33  1  0.23783804  0.51050843  0.68904312  1.0
  H  H34  1  0.54879051  0.31122908  0.82140779  1.0
  H  H35  1  0.72792771  0.17864820  0.48972287  1.0
  H  H36  1  0.47163123  0.94575817  0.58869355  1.0
  H  H37  1  0.88329023  0.41111852  0.35710805  1.0
  H  H38  1  0.52585424  0.64268192  0.05392932  1.0
  H  H39  1  0.11671227  0.58888012  0.64289275  1.0
  H  H40  1  0.47414831  0.35731487  0.94607013  1.0
  H  H41  1  0.52836615  0.05423985  0.41130541  1.0
  H  H42  1  0.21890640  0.07766174  0.52727112  1.0
  H  H43  1  0.69137089  0.47252971  0.55018804  1.0
  H  H44  1  0.14058386  0.45002889  0.92233472  1.0
  H  H45  1  0.30863056  0.52747261  0.44981274  1.0
  H  H46  1  0.85941473  0.54997159  0.07766702  1.0
  H  H47  1  0.78109225  0.92233689  0.47272615  1.0
  H  H48  1  0.03233583  0.94487462  0.44694801  1.0
  H  H49  1  0.58545260  0.55298502  0.49772932  1.0
  H  H50  1  0.08750764  0.50236666  0.05540859  1.0
  H  H51  1  0.41454890  0.44701546  0.50226907  1.0
  H  H52  1  0.91249446  0.49763505  0.94459458  1.0
  H  H53  1  0.96766343  0.05512525  0.55305144  1.0
  H  H54  1  0.39160221  0.71491177  0.57815460  1.0
  H  H55  1  0.81377593  0.42145604  0.13656882  1.0
  H  H56  1  0.67684889  0.86325699  0.28482693  1.0
  H  H57  1  0.18622166  0.57854628  0.86343313  1.0
  H  H58  1  0.32315230  0.13674288  0.71517272  1.0
  H  H59  1  0.60840151  0.28508932  0.42184847  1.0
  H  H60  1  0.48119105  0.85604419  0.69786720  1.0
  H  H61  1  0.78377875  0.30184139  0.15815942  1.0
  H  H62  1  0.62520828  0.84168091  0.14361964  1.0
  H  H63  1  0.21622077  0.69816093  0.84184325  1.0
  H  H64  1  0.37479327  0.15831772  0.85637949  1.0
  H  H65  1  0.51881202  0.14395752  0.30213450  1.0
  H  H66  1  0.70077107  0.95087275  0.71736827  1.0
  H  H67  1  0.98382965  0.28244758  0.23363588  1.0
  H  H68  1  0.75002338  0.76635507  0.04878789  1.0
  H  H69  1  0.01617053  0.71755413  0.76636449  1.0
  H  H70  1  0.24998106  0.23364356  0.95121205  1.0
  H  H71  1  0.29923266  0.04912834  0.28263323  1.0
  H  H72  1  0.82255804  0.90096381  0.61292269  1.0
  H  H73  1  0.21000509  0.38683507  0.28796950  1.0
  H  H74  1  0.92178467  0.71192477  0.09873316  1.0
  H  H75  1  0.78999443  0.61316725  0.71203108  1.0
  H  H76  1  0.07821910  0.28807448  0.90126909  1.0
  H  H77  1  0.17744472  0.09903728  0.38707924  1.0
  C  C78  1  0.58442590  0.23424932  0.63220032  1.0
  C  C79  1  0.95205940  0.36766421  0.60205051  1.0
  C  C80  1  0.35036016  0.39809645  0.76573197  1.0
  C  C81  1  0.04794600  0.63233443  0.39794849  1.0
  C  C82  1  0.64963525  0.60190342  0.23426604  1.0
  C  C83  1  0.41556950  0.76575055  0.36779821  1.0
  C  C84  1  0.48290623  0.15968779  0.58646462  1.0
  C  C85  1  0.89621927  0.41337239  0.57320639  1.0
  C  C86  1  0.32294714  0.42686076  0.84016799  1.0
  C  C87  1  0.10378644  0.58662686  0.42679396  1.0
  C  C88  1  0.67704893  0.57313850  0.15982982  1.0
  C  C89  1  0.51709080  0.84031146  0.41353223  1.0
  C  C90  1  0.47642252  0.10026663  0.61041908  1.0
  C  C91  1  0.86603167  0.38946434  0.48985685  1.0
  C  C92  1  0.37595656  0.51020346  0.89964660  1.0
  C  C93  1  0.13397048  0.61053553  0.51014341  1.0
  C  C94  1  0.62404143  0.48979580  0.10035297  1.0
  C  C95  1  0.52357517  0.89973201  0.38957810  1.0
  C  C96  1  0.57890575  0.11905843  0.68007016  1.0
  C  C97  1  0.89909098  0.31987064  0.43903239  1.0
  C  C98  1  0.46025165  0.56105550  0.88109966  1.0
  C  C99  1  0.10090955  0.68012984  0.56096590  1.0
  C  C100  1  0.53974472  0.43894437  0.11890106  1.0
  C  C101  1  0.42109356  0.88093960  0.31992638  1.0
  C  C102  1  0.67733907  0.19525609  0.72308089  1.0
  C  C103  1  0.95450742  0.27685918  0.47223636  1.0
  C  C104  1  0.48286783  0.52792889  0.80499728  1.0
  C  C105  1  0.04549250  0.72314007  0.52776079  1.0
  C  C106  1  0.51712853  0.47207097  0.19500239  1.0
  C  C107  1  0.32265861  0.80474255  0.27691681  1.0
  C  C108  1  0.26434238  0.87942246  0.51516975  1.0
  C  C109  1  0.74947675  0.48466424  0.36416099  1.0
  C  C110  1  0.38517673  0.63569334  0.12055280  1.0
  C  C111  1  0.25052607  0.51533501  0.63583802  1.0
  C  C112  1  0.61482573  0.36430714  0.87944725  1.0
  C  C113  1  0.73565591  0.12057740  0.48483013  1.0
  C  C114  1  0.37601134  0.94961869  0.55963655  1.0
  C  C115  1  0.81664895  0.44021056  0.38996852  1.0
  C  C116  1  0.42635670  0.60994570  0.05023434  1.0
  C  C117  1  0.18335224  0.55978930  0.61003164  1.0
  C  C118  1  0.57364484  0.39005294  0.94976583  1.0
  C  C119  1  0.62398665  0.05038056  0.44036250  1.0
  C  C120  1  0.36336809  0.02316249  0.56425610  1.0
  C  C121  1  0.79920926  0.43561050  0.45886310  1.0
  C  C122  1  0.33989378  0.54116990  0.97672330  1.0
  C  C123  1  0.20079254  0.56439059  0.54113821  1.0
  C  C124  1  0.66010680  0.45882874  0.02327678  1.0
  C  C125  1  0.63662990  0.97683676  0.43574137  1.0
  C  C126  1  0.23708050  0.02192369  0.52331908  1.0
  C  C127  1  0.71374143  0.47654772  0.49848232  1.0
  C  C128  1  0.21475939  0.50164444  0.97805773  1.0
  C  C129  1  0.28626037  0.52345337  0.50151846  1.0
  C  C130  1  0.78524017  0.49835604  0.02194411  1.0
  C  C131  1  0.76292104  0.97807494  0.47667849  1.0
  C  C132  1  0.13175824  0.94870486  0.48008704  1.0
  C  C133  1  0.65178340  0.51980929  0.46846008  1.0
  C  C134  1  0.18302663  0.53158607  0.05140883  1.0
  C  C135  1  0.34821906  0.48019119  0.53153893  1.0
  C  C136  1  0.81697420  0.46841502  0.94859290  1.0
  C  C137  1  0.86824041  0.05129378  0.51991075  1.0
  C  C138  1  0.75263955  0.75975232  0.47691698  1.0
  C  C139  1  0.27582160  0.52285790  0.28282925  1.0
  C  C140  1  0.99299803  0.71714207  0.23997373  1.0
  C  C141  1  0.72417823  0.47714503  0.71717164  1.0
  C  C142  1  0.00699904  0.28285534  0.76002439  1.0
  C  C143  1  0.24736418  0.24024877  0.52308452  1.0
  C  C144  1  0.67787998  0.78134227  0.53774711  1.0
  C  C145  1  0.14034448  0.46199143  0.24351622  1.0
  C  C146  1  0.89663887  0.75635050  0.21835812  1.0
  C  C147  1  0.85965408  0.53801089  0.75648530  1.0
  C  C148  1  0.10336135  0.24364937  0.78164300  1.0
  C  C149  1  0.32212217  0.21865760  0.46225473  1.0
  C  C150  1  0.55410845  0.72605248  0.52656761  1.0
  C  C151  1  0.02778238  0.47318393  0.19943231  1.0
  C  C152  1  0.82814988  0.80047161  0.27366836  1.0
  C  C153  1  0.97221521  0.52681839  0.80056964  1.0
  C  C154  1  0.17185130  0.19952825  0.72633181  1.0
  C  C155  1  0.44589370  0.27394739  0.47343527  1.0
  C  C156  1  0.48628062  0.75656999  0.58691861  1.0
  C  C157  1  0.89969493  0.41275636  0.16951422  1.0
  C  C158  1  0.72980095  0.83028680  0.24313959  1.0
  C  C159  1  0.10030266  0.58724596  0.83048877  1.0
  C  C160  1  0.27020024  0.16971306  0.75686058  1.0
  C  C161  1  0.51372407  0.24343110  0.41308456  1.0
  C  C162  1  0.53729725  0.83543365  0.65357305  1.0
  C  C163  1  0.88413093  0.34612895  0.18178148  1.0
  C  C164  1  0.70194313  0.81803218  0.16425320  1.0
  C  C165  1  0.11586762  0.65387337  0.81822109  1.0
  C  C166  1  0.29805872  0.18196707  0.83574624  1.0
  C  C167  1  0.46270424  0.16456683  0.34642847  1.0
  C  C168  1  0.65975333  0.88895586  0.66454596  1.0
  C  C169  1  0.99560833  0.33518766  0.22438457  1.0
  C  C170  1  0.77091259  0.77547974  0.11072247  1.0
  C  C171  1  0.00439119  0.66481466  0.77561758  1.0
  C  C172  1  0.22909052  0.22452012  0.88927894  1.0
  C  C173  1  0.34024816  0.11104462  0.33545556  1.0
  C  C174  1  0.72797332  0.86112406  0.60691544  1.0
  C  C175  1  0.12139017  0.39280184  0.25412969  1.0
  C  C176  1  0.86699130  0.74572626  0.13857046  1.0
  C  C177  1  0.87860904  0.60719986  0.74587111  1.0
  C  C178  1  0.13301054  0.25427299  0.86143159  1.0
  C  C179  1  0.27203011  0.13887642  0.39308575  1.0
  N  N180  1  0.67971906  0.25266612  0.70038642  1.0
  N  N181  1  0.97936495  0.29951327  0.55230818  1.0
  N  N182  1  0.42763829  0.44788532  0.74748875  1.0
  N  N183  1  0.02063786  0.70048599  0.44769031  1.0
  N  N184  1  0.57235868  0.55211577  0.25251206  1.0
  N  N185  1  0.32027730  0.74733374  0.29961222  1.0
  N  N186  1  0.14401609  0.87843844  0.47601615  1.0
  N  N187  1  0.66824912  0.52385563  0.40227847  1.0
  N  N188  1  0.26588033  0.59762334  0.12167062  1.0
  N  N189  1  0.33175303  0.47614423  0.59772127  1.0
  N  N190  1  0.73412081  0.40237837  0.87833037  1.0
  N  N191  1  0.85598190  0.12156081  0.52398238  1.0
  O  O192  1  0.86468270  0.81212479  0.49294430  1.0
  O  O193  1  0.37183013  0.50680046  0.31915960  1.0
  O  O194  1  0.05280736  0.68081037  0.18765009  1.0
  O  O195  1  0.62817097  0.49320309  0.68084222  1.0
  O  O196  1  0.94718875  0.31918704  0.81234794  1.0
  O  O197  1  0.13532073  0.18787568  0.50705638  1.0
  O  O198  1  0.70881926  0.69172332  0.40848335  1.0
  O  O199  1  0.30038884  0.59134914  0.28332860  1.0
  O  O200  1  0.01709317  0.71675071  0.30801343  1.0
  O  O201  1  0.69960876  0.40865318  0.71667126  1.0
  O  O202  1  0.98290841  0.28324609  0.69198540  1.0
  O  O203  1  0.29118223  0.30827716  0.59151765  1.0
  O  O204  1  0.49756855  0.65037994  0.46570896  1.0
  O  O205  1  0.03203715  0.53414161  0.18476489  1.0
  O  O206  1  0.84728826  0.81532769  0.34935915  1.0
  O  O207  1  0.96795851  0.46586071  0.81523687  1.0
  O  O208  1  0.15271324  0.18467279  0.65064185  1.0
  O  O209  1  0.50243584  0.34962053  0.53429495  1.0
