# generated using pymatgen
data_ZnH8C12(IN2)2
_symmetry_space_group_name_H-M   'P 1'
_cell_length_a   14.64586693
_cell_length_b   18.31047413
_cell_length_c   34.30107293
_cell_angle_alpha   93.28584287
_cell_angle_beta   102.30643598
_cell_angle_gamma   113.57289907
_symmetry_Int_Tables_number   1
_chemical_formula_structural   ZnH8C12(IN2)2
_chemical_formula_sum   'Zn12 H96 C144 I24 N48'
_cell_volume   8132.23167324
_cell_formula_units_Z   12
loop_
 _symmetry_equiv_pos_site_id
 _symmetry_equiv_pos_as_xyz
  1  'x, y, z'
loop_
 _atom_site_type_symbol
 _atom_site_label
 _atom_site_symmetry_multiplicity
 _atom_site_fract_x
 _atom_site_fract_y
 _atom_site_fract_z
 _atom_site_occupancy
  Zn  Zn0  1  0.14045276  0.17357948  0.94828073  1.0
  Zn  Zn1  1  0.03902292  0.27064933  0.57435256  1.0
  Zn  Zn2  1  0.44121130  0.43375750  0.76106559  1.0
  Zn  Zn3  1  0.48202753  0.67366976  0.44841897  1.0
  Zn  Zn4  1  0.30602383  0.77074447  0.07438501  1.0
  Zn  Zn5  1  0.25349412  0.93364996  0.26103537  1.0
  Zn  Zn6  1  0.51797486  0.32633386  0.55158234  1.0
  Zn  Zn7  1  0.69397086  0.22925013  0.92561441  1.0
  Zn  Zn8  1  0.74650608  0.06634706  0.73896376  1.0
  Zn  Zn9  1  0.85955018  0.82641872  0.05171957  1.0
  Zn  Zn10  1  0.96097467  0.72935189  0.42564823  1.0
  Zn  Zn11  1  0.55879151  0.56624432  0.23893569  1.0
  H  H12  1  0.16868104  0.20398808  0.86583699  1.0
  H  H13  1  0.09331753  0.25652445  0.80696156  1.0
  H  H14  1  0.90647900  0.30167325  0.87883235  1.0
  H  H15  1  0.99058088  0.24945960  0.93467886  1.0
  H  H16  1  0.87101151  0.30466988  0.60011504  1.0
  H  H17  1  0.82871163  0.33066692  0.66447016  1.0
  H  H18  1  0.12091259  0.33645018  0.72848257  1.0
  H  H19  1  0.15537582  0.31616215  0.66121008  1.0
  H  H20  1  0.58104570  0.43936793  0.71083683  1.0
  H  H21  1  0.73728824  0.41143547  0.71266472  1.0
  H  H22  1  0.73276279  0.35739842  0.83343743  1.0
  H  H23  1  0.57570295  0.38461505  0.82612496  1.0
  H  H24  1  0.84288997  0.15604453  0.51483911  1.0
  H  H25  1  0.69808512  0.16376791  0.46235805  1.0
  H  H26  1  0.84470748  0.42211493  0.49850609  1.0
  H  H27  1  0.98854979  0.40461886  0.54670564  1.0
  H  H28  1  0.22473712  0.07482916  0.30279761  1.0
  H  H29  1  0.33539986  0.19816748  0.35536249  1.0
  H  H30  1  0.59132535  0.13722468  0.35657828  1.0
  H  H31  1  0.47107138  0.01707468  0.30347210  1.0
  H  H32  1  0.42819592  0.54001662  0.38360680  1.0
  H  H33  1  0.46342213  0.41830046  0.37131707  1.0
  H  H34  1  0.64565428  0.47831925  0.49503783  1.0
  H  H35  1  0.60526842  0.59968985  0.50196190  1.0
  H  H36  1  0.40133213  0.70376400  0.36595899  1.0
  H  H37  1  0.46999493  0.75616400  0.30696727  1.0
  H  H38  1  0.77401361  0.80127432  0.37852149  1.0
  H  H39  1  0.69399202  0.74942464  0.43453300  1.0
  H  H40  1  0.53371267  0.80467722  0.10006697  1.0
  H  H41  1  0.66654059  0.83095633  0.16437765  1.0
  H  H42  1  0.44407519  0.83632074  0.22850487  1.0
  H  H43  1  0.32198121  0.81606391  0.16127217  1.0
  H  H44  1  0.06931509  0.93931674  0.21083919  1.0
  H  H45  1  0.88693839  0.91143422  0.21261156  1.0
  H  H46  1  0.95776266  0.85732950  0.33338963  1.0
  H  H47  1  0.13480970  0.88457419  0.32613932  1.0
  H  H48  1  0.32805476  0.65630578  0.01475429  1.0
  H  H49  1  0.42820680  0.66418764  0.96226925  1.0
  H  H50  1  0.57597826  0.92250260  0.99854493  1.0
  H  H51  1  0.46292796  0.90484358  0.04681290  1.0
  H  H52  1  0.65274121  0.57478893  0.80277116  1.0
  H  H53  1  0.71814254  0.69820594  0.85533955  1.0
  H  H54  1  0.40265415  0.63753254  0.85668219  1.0
  H  H55  1  0.34943745  0.51727708  0.80357860  1.0
  H  H56  1  0.99526225  0.04011458  0.88331127  1.0
  H  H57  1  0.82612010  0.91837195  0.87117683  1.0
  H  H58  1  0.82834639  0.97840592  0.99502284  1.0
  H  H59  1  0.99713673  0.09960885  0.00184341  1.0
  H  H60  1  0.59867208  0.29623783  0.63404183  1.0
  H  H61  1  0.53000810  0.24383179  0.69303265  1.0
  H  H62  1  0.22599186  0.19873111  0.62148016  1.0
  H  H63  1  0.30601364  0.25058501  0.56546969  1.0
  H  H64  1  0.46628159  0.19531011  0.89993303  1.0
  H  H65  1  0.33345513  0.16903887  0.83562189  1.0
  H  H66  1  0.55592352  0.16367868  0.77149479  1.0
  H  H67  1  0.67801619  0.18393309  0.83872787  1.0
  H  H68  1  0.93068577  0.06068150  0.78915917  1.0
  H  H69  1  0.11306336  0.08856824  0.78738760  1.0
  H  H70  1  0.04224011  0.14267355  0.66666667  1.0
  H  H71  1  0.86519144  0.11542586  0.67385971  1.0
  H  H72  1  0.67194540  0.34369247  0.98524371  1.0
  H  H73  1  0.57179435  0.33581241  0.03772919  1.0
  H  H74  1  0.42402115  0.07749681  0.00145567  1.0
  H  H75  1  0.53707010  0.09515463  0.95318753  1.0
  H  H76  1  0.34725668  0.42521415  0.19722739  1.0
  H  H77  1  0.28185835  0.30180140  0.14465767  1.0
  H  H78  1  0.59734508  0.36247173  0.14331739  1.0
  H  H79  1  0.65056116  0.48272473  0.19642288  1.0
  H  H80  1  0.00473930  0.95988364  0.11668860  1.0
  H  H81  1  0.17387820  0.08162930  0.12882227  1.0
  H  H82  1  0.17165377  0.02159230  0.00497661  1.0
  H  H83  1  0.00286593  0.90038755  0.99815650  1.0
  H  H84  1  0.83131608  0.79600714  0.13416150  1.0
  H  H85  1  0.90667815  0.74347195  0.19303830  1.0
  H  H86  1  0.09352492  0.69832673  0.12117013  1.0
  H  H87  1  0.00942480  0.75053979  0.06532231  1.0
  H  H88  1  0.12899452  0.69533917  0.39988737  1.0
  H  H89  1  0.17129752  0.66934271  0.33553343  1.0
  H  H90  1  0.87909031  0.66354922  0.27151863  1.0
  H  H91  1  0.84462703  0.68383846  0.33879088  1.0
  H  H92  1  0.41895269  0.56063091  0.28916191  1.0
  H  H93  1  0.26270725  0.58855672  0.28733382  1.0
  H  H94  1  0.26723351  0.64260042  0.16656112  1.0
  H  H95  1  0.42429637  0.61538677  0.17387572  1.0
  H  H96  1  0.15710603  0.84395247  0.48516139  1.0
  H  H97  1  0.30190883  0.83622788  0.53764193  1.0
  H  H98  1  0.15528573  0.57788208  0.50149386  1.0
  H  H99  1  0.01144515  0.59537876  0.45329362  1.0
  H  H100  1  0.77526123  0.92517091  0.69720000  1.0
  H  H101  1  0.66459668  0.80183441  0.64463473  1.0
  H  H102  1  0.40867159  0.86277533  0.64342212  1.0
  H  H103  1  0.52892831  0.98292655  0.69652859  1.0
  H  H104  1  0.57180881  0.45999004  0.61639366  1.0
  H  H105  1  0.53657987  0.58170504  0.62868135  1.0
  H  H106  1  0.35434551  0.52167958  0.50496104  1.0
  H  H107  1  0.39473648  0.40031195  0.49803986  1.0
  C  C108  1  0.11042822  0.22646907  0.86706842  1.0
  C  C109  1  0.06825046  0.25488453  0.83467822  1.0
  C  C110  1  0.99296677  0.28199026  0.83819670  1.0
  C  C111  1  0.96400338  0.28050164  0.87458091  1.0
  C  C112  1  0.01079372  0.25166771  0.90581875  1.0
  C  C113  1  0.92518972  0.31308053  0.62907475  1.0
  C  C114  1  0.90155683  0.32753359  0.66497482  1.0
  C  C115  1  0.97112804  0.33465954  0.70156013  1.0
  C  C116  1  0.06426982  0.33068120  0.70068203  1.0
  C  C117  1  0.08322752  0.31834705  0.66340037  1.0
  C  C118  1  0.61814761  0.42124253  0.73724598  1.0
  C  C119  1  0.70386152  0.40584019  0.73841145  1.0
  C  C120  1  0.74627750  0.38145793  0.77304932  1.0
  C  C121  1  0.70112234  0.37466283  0.80558451  1.0
  C  C122  1  0.61465625  0.39062145  0.80187577  1.0
  C  C123  1  0.94634718  0.31098044  0.80341403  1.0
  C  C124  1  0.94139634  0.34026364  0.73979985  1.0
  C  C125  1  0.83430132  0.36029716  0.77363253  1.0
  C  C126  1  0.84041114  0.21350956  0.50943136  1.0
  C  C127  1  0.76100310  0.21812477  0.48076123  1.0
  C  C128  1  0.76171704  0.29390150  0.47642622  1.0
  C  C129  1  0.84329805  0.36264853  0.50076614  1.0
  C  C130  1  0.92161368  0.35308147  0.52775802  1.0
  C  C131  1  0.30676803  0.09160489  0.31510777  1.0
  C  C132  1  0.36792856  0.15978239  0.34410932  1.0
  C  C133  1  0.47195460  0.17679149  0.35975431  1.0
  C  C134  1  0.51083850  0.12561144  0.34487125  1.0
  C  C135  1  0.44490636  0.05948234  0.31553668  1.0
  C  C136  1  0.47579002  0.52382591  0.40738224  1.0
  C  C137  1  0.49436332  0.45625570  0.40080728  1.0
  C  C138  1  0.55601743  0.43876984  0.43266902  1.0
  C  C139  1  0.59694026  0.49022605  0.46984291  1.0
  C  C140  1  0.57453590  0.55685101  0.47387773  1.0
  C  C141  1  0.67590134  0.30035818  0.44733983  1.0
  C  C142  1  0.53931470  0.24558009  0.39250580  1.0
  C  C143  1  0.57889618  0.36799484  0.42681200  1.0
  C  C144  1  0.48326709  0.72623879  0.36710173  1.0
  C  C145  1  0.52123976  0.75456298  0.33464664  1.0
  C  C146  1  0.62708374  0.78161233  0.33804534  1.0
  C  C147  1  0.69109278  0.78014554  0.37437267  1.0
  C  C148  1  0.64696997  0.75152117  0.40570032  1.0
  C  C149  1  0.51698287  0.81316225  0.12904278  1.0
  C  C150  1  0.59104210  0.82777008  0.16491367  1.0
  C  C151  1  0.56516697  0.83480439  0.20151119  1.0
  C  C152  1  0.46714977  0.83070388  0.20068390  1.0
  C  C153  1  0.39854634  0.81837438  0.16342505  1.0
  C  C154  1  0.04040838  0.92122013  0.23723761  1.0
  C  C155  1  0.94045649  0.90586071  0.23837789  1.0
  C  C156  1  0.90814721  0.88144428  0.27299231  1.0
  C  C157  1  0.97894321  0.87464224  0.30554932  1.0
  C  C158  1  0.07767350  0.89059401  0.30187717  1.0
  C  C159  1  0.66783433  0.81066955  0.30325344  1.0
  C  C160  1  0.63868199  0.84034711  0.23973019  1.0
  C  C161  1  0.79952830  0.86024490  0.27353458  1.0
  C  C162  1  0.38263448  0.71381128  0.00938530  1.0
  C  C163  1  0.43802887  0.71849766  0.98070882  1.0
  C  C164  1  0.50875342  0.79432136  0.97639968  1.0
  C  C165  1  0.52021063  0.86300956  0.00078883  1.0
  C  C166  1  0.45935027  0.85335429  0.02780926  1.0
  C  C167  1  0.59985852  0.59162414  0.81512509  1.0
  C  C168  1  0.63597065  0.65981477  0.84411192  1.0
  C  C169  1  0.56467424  0.67693571  0.85978140  1.0
  C  C170  1  0.45972974  0.62581048  0.84494681  1.0
  C  C171  1  0.43008775  0.55962406  0.81561275  1.0
  C  C172  1  0.95548179  0.02388820  0.90716255  1.0
  C  C173  1  0.86278316  0.95630772  0.90066433  1.0
  C  C174  1  0.81571767  0.93887576  0.93259900  1.0
  C  C175  1  0.86361012  0.99029852  0.96977324  1.0
  C  C176  1  0.95672568  0.05682143  0.97375034  1.0
  C  C177  1  0.57194196  0.80078641  0.94730323  1.0
  C  C178  1  0.59893660  0.74580497  0.89250788  1.0
  C  C179  1  0.71616789  0.86819304  0.92678968  1.0
  C  C180  1  0.51673958  0.27376241  0.63290017  1.0
  C  C181  1  0.47876285  0.24543462  0.66535389  1.0
  C  C182  1  0.37292019  0.21838768  0.66195511  1.0
  C  C183  1  0.30891134  0.21985868  0.62562911  1.0
  C  C184  1  0.35303549  0.24848425  0.59430220  1.0
  C  C185  1  0.48301125  0.18682871  0.87095675  1.0
  C  C186  1  0.40895683  0.17222331  0.83508551  1.0
  C  C187  1  0.43483146  0.16519322  0.79848896  1.0
  C  C188  1  0.53284968  0.16929432  0.79931636  1.0
  C  C189  1  0.60145184  0.18162021  0.83657468  1.0
  C  C190  1  0.95958927  0.07877992  0.76276081  1.0
  C  C191  1  0.05954538  0.09413810  0.76162203  1.0
  C  C192  1  0.09185281  0.11855757  0.72700697  1.0
  C  C193  1  0.02106058  0.12536142  0.69445036  1.0
  C  C194  1  0.92232690  0.10940724  0.69812183  1.0
  C  C195  1  0.33216581  0.18932865  0.69674718  1.0
  C  C196  1  0.36131573  0.15965048  0.76027048  1.0
  C  C197  1  0.20047176  0.13975572  0.72646612  1.0
  C  C198  1  0.61736498  0.28618694  0.99061410  1.0
  C  C199  1  0.56197194  0.28150177  0.01929015  1.0
  C  C200  1  0.49124678  0.20567567  0.02359887  1.0
  C  C201  1  0.47978873  0.13699106  0.99921180  1.0
  C  C202  1  0.54064541  0.14664213  0.97218944  1.0
  C  C203  1  0.40014211  0.40838013  0.18487433  1.0
  C  C204  1  0.36402785  0.34019073  0.15588618  1.0
  C  C205  1  0.43532328  0.32306799  0.14021626  1.0
  C  C206  1  0.54027188  0.37419561  0.15505189  1.0
  C  C207  1  0.56991087  0.44037778  0.18438728  1.0
  C  C208  1  0.04452148  0.97611062  0.09283721  1.0
  C  C209  1  0.13721518  0.04369231  0.09933532  1.0
  C  C210  1  0.18428170  0.06112488  0.06740018  1.0
  C  C211  1  0.13639036  0.00970030  0.03022685  1.0
  C  C212  1  0.04327693  0.94317618  0.02624961  1.0
  C  C213  1  0.42805876  0.19921544  0.05269612  1.0
  C  C214  1  0.40106260  0.25420053  0.10749000  1.0
  C  C215  1  0.28383316  0.13180941  0.07320972  1.0
  C  C216  1  0.88956927  0.77352553  0.13293038  1.0
  C  C217  1  0.93174517  0.74511307  0.16532197  1.0
  C  C218  1  0.00703193  0.71800914  0.16180412  1.0
  C  C219  1  0.03599676  0.71949655  0.12542029  1.0
  C  C220  1  0.98921094  0.74833106  0.09418376  1.0
  C  C221  1  0.07481403  0.68692432  0.37092585  1.0
  C  C222  1  0.09844961  0.67247362  0.33502873  1.0
  C  C223  1  0.02887622  0.66534109  0.29844008  1.0
  C  C224  1  0.93573511  0.66931937  0.29932144  1.0
  C  C225  1  0.91677673  0.68165358  0.33659955  1.0
  C  C226  1  0.38184941  0.57875507  0.26275463  1.0
  C  C227  1  0.29613626  0.59415624  0.26158714  1.0
  C  C228  1  0.25371740  0.61854092  0.22694910  1.0
  C  C229  1  0.29887686  0.62533233  0.19441709  1.0
  C  C230  1  0.38534061  0.60938101  0.19812325  1.0
  C  C231  1  0.05365353  0.68902139  0.19658677  1.0
  C  C232  1  0.05860963  0.65973757  0.26020170  1.0
  C  C233  1  0.16569506  0.63969928  0.22636536  1.0
  C  C234  1  0.15958412  0.78648865  0.49056882  1.0
  C  C235  1  0.23899225  0.78187102  0.51923917  1.0
  C  C236  1  0.23827789  0.70609611  0.52357362  1.0
  C  C237  1  0.15669552  0.63734786  0.49923411  1.0
  C  C238  1  0.07838092  0.64691552  0.47224264  1.0
  C  C239  1  0.69323134  0.90839576  0.68489142  1.0
  C  C240  1  0.63207151  0.84021826  0.65588934  1.0
  C  C241  1  0.52804164  0.82320855  0.64024486  1.0
  C  C242  1  0.48915811  0.87438796  0.65512968  1.0
  C  C243  1  0.55509128  0.94051770  0.68446261  1.0
  C  C244  1  0.52421387  0.47617532  0.59261795  1.0
  C  C245  1  0.50563936  0.54374978  0.59919208  1.0
  C  C246  1  0.44398306  0.56122901  0.56732962  1.0
  C  C247  1  0.40306078  0.50977639  0.53015736  1.0
  C  C248  1  0.42546626  0.44314963  0.52612199  1.0
  C  C249  1  0.32409494  0.69964064  0.55265988  1.0
  C  C250  1  0.46068178  0.75442296  0.60749379  1.0
  C  C251  1  0.42109933  0.63200641  0.57318714  1.0
  I  I252  1  0.24963919  0.11303921  0.92022490  1.0
  I  I253  1  0.19287529  0.26402977  0.01543158  1.0
  I  I254  1  0.00117568  0.12199022  0.57482735  1.0
  I  I255  1  0.20295881  0.38180878  0.56623967  1.0
  I  I256  1  0.38589644  0.45149317  0.68811343  1.0
  I  I257  1  0.31288367  0.33671248  0.79558032  1.0
  I  I258  1  0.28418874  0.61314286  0.42040332  1.0
  I  I259  1  0.58737050  0.76419082  0.51552426  1.0
  I  I260  1  0.19599971  0.62199597  0.07481072  1.0
  I  I261  1  0.24497553  0.88183681  0.06640937  1.0
  I  I262  1  0.25359193  0.95158737  0.18809956  1.0
  I  I263  1  0.31959957  0.83672286  0.29549211  1.0
  I  I264  1  0.71581271  0.38685775  0.57959751  1.0
  I  I265  1  0.41262919  0.23581039  0.48447701  1.0
  I  I266  1  0.80399359  0.37799863  0.92518799  1.0
  I  I267  1  0.75502456  0.11816258  0.93359216  1.0
  I  I268  1  0.74641334  0.04840483  0.81189898  1.0
  I  I269  1  0.68040537  0.16327775  0.70450903  1.0
  I  I270  1  0.75036133  0.88695840  0.07977486  1.0
  I  I271  1  0.80712584  0.73597025  0.98456832  1.0
  I  I272  1  0.99882643  0.87801162  0.42517241  1.0
  I  I273  1  0.79703921  0.61819065  0.43375992  1.0
  I  I274  1  0.61410547  0.54850442  0.31188733  1.0
  I  I275  1  0.68711881  0.66328872  0.20442149  1.0
  N  N276  1  0.08204663  0.22456538  0.90199509  1.0
  N  N277  1  0.01391045  0.30790162  0.62823741  1.0
  N  N278  1  0.57356777  0.41325222  0.76827705  1.0
  N  N279  1  0.98354063  0.31259951  0.77068358  1.0
  N  N280  1  0.86973570  0.36817952  0.74038632  1.0
  N  N281  1  0.86947408  0.33204728  0.80600433  1.0
  N  N282  1  0.91958350  0.27990088  0.53232912  1.0
  N  N283  1  0.34421014  0.04202375  0.30118969  1.0
  N  N284  1  0.51465974  0.57298927  0.44330689  1.0
  N  N285  1  0.61802380  0.23784535  0.41734116  1.0
  N  N286  1  0.51616817  0.30904676  0.39556709  1.0
  N  N287  1  0.66054028  0.36710855  0.45314620  1.0
  N  N288  1  0.54483513  0.72445322  0.40199923  1.0
  N  N289  1  0.42221750  0.80790222  0.12824778  1.0
  N  N290  1  0.10790411  0.91318565  0.26828378  1.0
  N  N291  1  0.59962212  0.81248185  0.27057570  1.0
  N  N292  1  0.73885279  0.86838491  0.24033936  1.0
  N  N293  1  0.76833020  0.83167945  0.30582162  1.0
  N  N294  1  0.39274410  0.78012390  0.03233607  1.0
  N  N295  1  0.49891809  0.54210553  0.80122270  1.0
  N  N296  1  0.00193604  0.07295796  0.94310461  1.0
  N  N297  1  0.53726546  0.73824314  0.91731085  1.0
  N  N298  1  0.68872412  0.80914093  0.89558783  1.0
  N  N299  1  0.65989589  0.86747887  0.95309749  1.0
  N  N300  1  0.45516759  0.27555103  0.59800154  1.0
  N  N301  1  0.57777626  0.19208934  0.87175232  1.0
  N  N302  1  0.89209669  0.08681378  0.73171578  1.0
  N  N303  1  0.40038047  0.18751700  0.72942254  1.0
  N  N304  1  0.26115036  0.13161754  0.75966023  1.0
  N  N305  1  0.23167299  0.16832180  0.69417734  1.0
  N  N306  1  0.60725596  0.21987673  0.96766375  1.0
  N  N307  1  0.50108123  0.45789631  0.19877768  1.0
  N  N308  1  0.99806764  0.92703904  0.05689541  1.0
  N  N309  1  0.46273276  0.26176056  0.08268688  1.0
  N  N310  1  0.31127513  0.19086337  0.10441030  1.0
  N  N311  1  0.34010524  0.13252115  0.04690241  1.0
  N  N312  1  0.91795668  0.77543222  0.09800521  1.0
  N  N313  1  0.98609506  0.69210259  0.37176478  1.0
  N  N314  1  0.42643467  0.58675022  0.23172277  1.0
  N  N315  1  0.01646385  0.68740410  0.22931850  1.0
  N  N316  1  0.13026235  0.63181868  0.25961412  1.0
  N  N317  1  0.13052123  0.66794973  0.19399523  1.0
  N  N318  1  0.08041143  0.72009673  0.46767072  1.0
  N  N319  1  0.65578783  0.95797689  0.69880995  1.0
  N  N320  1  0.48534372  0.42701376  0.55669420  1.0
  N  N321  1  0.38197044  0.76215225  0.58265949  1.0
  N  N322  1  0.48383022  0.69095206  0.60443252  1.0
  N  N323  1  0.33946127  0.63288965  0.54685426  1.0
