# generated using pymatgen
data_Zn2H20C21(NO5)2
_symmetry_space_group_name_H-M   'P 1'
_cell_length_a   9.72742956
_cell_length_b   11.16148993
_cell_length_c   14.08583835
_cell_angle_alpha   87.04948070
_cell_angle_beta   84.11819477
_cell_angle_gamma   88.74509647
_symmetry_Int_Tables_number   1
_chemical_formula_structural   Zn2H20C21(NO5)2
_chemical_formula_sum   'Zn2 H20 C21 N2 O10'
_cell_volume   1519.05540923
_cell_formula_units_Z   1
loop_
 _symmetry_equiv_pos_site_id
 _symmetry_equiv_pos_as_xyz
  1  'x, y, z'
loop_
 _atom_site_type_symbol
 _atom_site_label
 _atom_site_symmetry_multiplicity
 _atom_site_fract_x
 _atom_site_fract_y
 _atom_site_fract_z
 _atom_site_occupancy
  Zn  Zn0  1  0.36345942  0.49490934  0.50690091  1.0
  Zn  Zn1  1  0.64317799  0.49544710  0.51268144  1.0
  H  H2  1  0.34194681  0.52162664  0.02783322  1.0
  H  H3  1  0.86319548  0.97685353  0.59135794  1.0
  H  H4  1  0.97691886  0.17924928  0.56447508  1.0
  H  H5  1  0.07794643  0.06408144  0.50710510  1.0
  H  H6  1  0.97881909  0.16562366  0.43847028  1.0
  H  H7  1  0.23911348  0.98264970  0.40450495  1.0
  H  H8  1  0.24999417  0.84176470  0.47057844  1.0
  H  H9  1  0.31671543  0.88343746  0.25381045  1.0
  H  H10  1  0.32516179  0.74278816  0.31771198  1.0
  H  H11  1  0.06883639  0.75747458  0.37015719  1.0
  H  H12  1  0.09938348  0.76799357  0.24364079  1.0
  H  H13  1  0.89724783  0.49024225  0.57641999  1.0
  H  H14  1  0.05957070  0.89906113  0.30773460  1.0
  H  H15  1  0.65870745  0.49301464  0.98745284  1.0
  H  H16  1  0.39790491  0.09108163  0.51823453  1.0
  H  H17  1  0.67287896  0.87391539  0.56141099  1.0
  H  H18  1  0.14794991  0.37811208  0.40122489  1.0
  H  H19  1  0.09586752  0.57211751  0.53295925  1.0
  H  H20  1  0.89324097  0.43654692  0.37543369  1.0
  H  H21  1  0.85684519  0.97046156  0.46540402  1.0
  C  C22  1  0.51164781  0.72977557  0.49073761  1.0
  C  C23  1  0.49422934  0.26369645  0.51738905  1.0
  C  C24  1  0.54319501  0.49533797  0.32045566  1.0
  C  C25  1  0.55673415  0.49674136  0.21721473  1.0
  C  C26  1  0.55919940  0.50130165  0.03060878  1.0
  C  C27  1  0.44184640  0.51317218  0.98521326  1.0
  C  C28  1  0.44425685  0.51432248  0.88543422  1.0
  C  C29  1  0.55825831  0.49936278  0.13032959  1.0
  C  C30  1  0.85867070  0.03157590  0.52422131  1.0
  C  C31  1  0.98029250  0.11532020  0.50753612  1.0
  C  C32  1  0.29139872  0.89398076  0.40623955  1.0
  C  C33  1  0.44940294  0.51347903  0.79849268  1.0
  C  C34  1  0.27041553  0.82990507  0.31634435  1.0
  C  C35  1  0.11639109  0.81270229  0.30896299  1.0
  C  C36  1  0.61042875  0.05841851  0.52212874  1.0
  C  C37  1  0.49729078  0.13314065  0.51914601  1.0
  C  C38  1  0.60133016  0.92827704  0.52207348  1.0
  C  C39  1  0.51283089  0.86491797  0.47621853  1.0
  C  C40  1  0.08874126  0.44349156  0.44516613  1.0
  C  C41  1  0.93700213  0.45296211  0.44225741  1.0
  C  C42  1  0.46693588  0.50858280  0.69565212  1.0
  N  N43  1  0.15524968  0.50961623  0.49546485  1.0
  N  N44  1  0.85304618  0.47997327  0.51414157  1.0
  O  O45  1  0.40053705  0.67718911  0.47876291  1.0
  O  O46  1  0.43497775  0.92129444  0.41240287  1.0
  O  O47  1  0.62245643  0.67900150  0.51409788  1.0
  O  O48  1  0.35947825  0.52375884  0.65119775  1.0
  O  O49  1  0.59021837  0.48915256  0.65903974  1.0
  O  O50  1  0.37353286  0.31489630  0.52647842  1.0
  O  O51  1  0.60798050  0.32082235  0.50523318  1.0
  O  O52  1  0.42117566  0.47823235  0.36070632  1.0
  O  O53  1  0.65155635  0.51234707  0.36144113  1.0
  O  O54  1  0.73579921  0.10613313  0.53101304  1.0
