# generated using pymatgen
data_Zn3H13(C13O6)2
_symmetry_space_group_name_H-M   'P 1'
_cell_length_a   18.88890898
_cell_length_b   18.92060815
_cell_length_c   18.88989358
_cell_angle_alpha   109.36194043
_cell_angle_beta   109.25942422
_cell_angle_gamma   109.36023493
_symmetry_Int_Tables_number   1
_chemical_formula_structural   Zn3H13(C13O6)2
_chemical_formula_sum   'Zn6 H26 C52 O24'
_cell_volume   5224.48605727
_cell_formula_units_Z   2
loop_
 _symmetry_equiv_pos_site_id
 _symmetry_equiv_pos_as_xyz
  1  'x, y, z'
loop_
 _atom_site_type_symbol
 _atom_site_label
 _atom_site_symmetry_multiplicity
 _atom_site_fract_x
 _atom_site_fract_y
 _atom_site_fract_z
 _atom_site_occupancy
  Zn  Zn0  1  0.94070137  0.44276455  0.00032210  1.0
  Zn  Zn1  1  0.05868353  0.55747911  0.99949896  1.0
  Zn  Zn2  1  0.50046441  0.44245387  0.44132156  1.0
  Zn  Zn3  1  0.49961926  0.55716822  0.55928925  1.0
  Zn  Zn4  1  0.94173465  0.00006834  0.44196962  1.0
  Zn  Zn5  1  0.05798824  0.99980788  0.55819886  1.0
  H  H6  1  0.26307967  0.50757375  0.13034235  1.0
  H  H7  1  0.99220990  0.61985703  0.26029294  1.0
  H  H8  1  0.88042305  0.50436578  0.73886229  1.0
  H  H9  1  0.76115681  0.49571566  0.61961639  1.0
  H  H10  1  0.62482652  0.50188395  0.76211565  1.0
  H  H11  1  0.73787448  0.49803640  0.87514383  1.0
  H  H12  1  0.13721161  0.37647235  0.87455085  1.0
  H  H13  1  0.13783545  0.25966494  0.76229987  1.0
  H  H14  1  0.86042934  0.12467341  0.62194477  1.0
  H  H15  1  0.85989065  0.23521424  0.74049865  1.0
  H  H16  1  0.75944214  0.76476187  0.64010168  1.0
  H  H17  1  0.05617309  0.50882316  0.22491196  1.0
  H  H18  1  0.87802481  0.87528007  0.63954203  1.0
  H  H19  1  0.73762806  0.74023609  0.36214919  1.0
  H  H20  1  0.62536333  0.62346615  0.36278693  1.0
  H  H21  1  0.23957674  0.38002330  0.50772131  1.0
  H  H22  1  0.12154718  0.26088078  0.50006355  1.0
  H  H23  1  0.26175486  0.12241231  0.49785623  1.0
  H  H24  1  0.37339586  0.23559674  0.49281169  1.0
  H  H25  1  0.04234880  0.50540565  0.34910957  1.0
  H  H26  1  0.27500557  0.49097024  0.44370940  1.0
  H  H27  1  0.36968330  0.49244254  0.23693751  1.0
  H  H28  1  0.00714379  0.76433432  0.12654115  1.0
  H  H29  1  0.00208474  0.87749105  0.23820142  1.0
  H  H30  1  0.99985394  0.73896847  0.37833158  1.0
  H  H31  1  0.15074675  0.49427145  0.45749403  1.0
  C  C32  1  0.99698671  0.61559130  0.11806193  1.0
  C  C33  1  0.17447663  0.50183273  0.26163619  1.0
  C  C34  1  0.18548398  0.50504611  0.19120601  1.0
  C  C35  1  0.25570196  0.50382478  0.18404671  1.0
  C  C36  1  0.31596900  0.49616371  0.24431032  1.0
  C  C37  1  0.30878217  0.49488710  0.31449435  1.0
  C  C38  1  0.00363034  0.75857950  0.18094515  1.0
  C  C39  1  0.00177538  0.82169836  0.24325632  1.0
  C  C40  1  0.00072751  0.81454188  0.31450363  1.0
  C  C41  1  0.99952056  0.74290431  0.32199284  1.0
  C  C42  1  0.99611048  0.67734896  0.25704623  1.0
  C  C43  1  0.11985105  0.50559449  0.12081265  1.0
  C  C44  1  0.99906770  0.68535361  0.18676959  1.0
  C  C45  1  0.82332365  0.50209841  0.74232099  1.0
  C  C46  1  0.75768286  0.49794610  0.67669484  1.0
  C  C47  1  0.68647677  0.49844419  0.68431063  1.0
  C  C48  1  0.68013186  0.50055660  0.75683922  1.0
  C  C49  1  0.74315494  0.49937323  0.81984478  1.0
  C  C50  1  0.81570198  0.50154155  0.81350286  1.0
  C  C51  1  0.07705758  0.32006014  0.81996046  1.0
  C  C52  1  0.07737539  0.25579428  0.75729783  1.0
  C  C53  1  0.99906962  0.18560315  0.68569446  1.0
  C  C54  1  0.99864998  0.38005951  0.88292945  1.0
  C  C55  1  0.92058092  0.17912739  0.67845907  1.0
  C  C56  1  0.92029858  0.24073098  0.74379445  1.0
  C  C57  1  0.99854904  0.31200582  0.81425995  1.0
  C  C58  1  0.61700285  0.61987640  0.50135673  1.0
  C  C59  1  0.37916871  0.49432607  0.38012186  1.0
  C  C60  1  0.38185564  0.38431681  0.50296815  1.0
  C  C61  1  0.61777625  0.49776432  0.61581577  1.0
  C  C62  1  0.88257698  0.88234263  0.50069735  1.0
  C  C63  1  0.00045344  0.88283917  0.38242191  1.0
  C  C64  1  0.11751787  0.11704736  0.49949130  1.0
  C  C65  1  0.88420226  0.50220714  0.88218656  1.0
  C  C66  1  0.99926815  0.11755385  0.61737180  1.0
  C  C67  1  0.75614104  0.75922681  0.57967991  1.0
  C  C68  1  0.82148983  0.82081579  0.57938989  1.0
  C  C69  1  0.81424546  0.81431159  0.50088886  1.0
  C  C70  1  0.74262661  0.74411965  0.42259980  1.0
  C  C71  1  0.67995744  0.67987214  0.42292428  1.0
  C  C72  1  0.68565852  0.68793472  0.50143202  1.0
  C  C73  1  0.24284241  0.32253581  0.50381717  1.0
  C  C74  1  0.17790397  0.25696120  0.50041319  1.0
  C  C75  1  0.18540833  0.18533367  0.49920869  1.0
  C  C76  1  0.10435515  0.50504477  0.27245617  1.0
  C  C77  1  0.25667735  0.17820236  0.49818290  1.0
  C  C78  1  0.31897939  0.24133259  0.49632427  1.0
  C  C79  1  0.31313301  0.31455192  0.50087041  1.0
  C  C80  1  0.09652947  0.50284773  0.34180077  1.0
  C  C81  1  0.15807604  0.49688880  0.40334578  1.0
  C  C82  1  0.22747347  0.49478960  0.39556513  1.0
  C  C83  1  0.23830800  0.49803151  0.32546354  1.0
  O  O84  1  0.95924386  0.53916830  0.10590203  1.0
  O  O85  1  0.60363575  0.64248278  0.56540679  1.0
  O  O86  1  0.39608789  0.43369360  0.35386967  1.0
  O  O87  1  0.41853695  0.55634900  0.45752306  1.0
  O  O88  1  0.42374093  0.36277329  0.46708329  1.0
  O  O89  1  0.39401566  0.46074057  0.54071539  1.0
  O  O90  1  0.60565319  0.46272005  0.53901758  1.0
  O  O91  1  0.57614694  0.53280352  0.63941142  1.0
  O  O92  1  0.85976039  0.89410140  0.43568850  1.0
  O  O93  1  0.95881901  0.92398468  0.56546526  1.0
  O  O94  1  0.96578450  0.92477290  0.35915395  1.0
  O  O95  1  0.03288083  0.63713830  0.07617993  1.0
  O  O96  1  0.03463671  0.89413397  0.45889027  1.0
  O  O97  1  0.04103760  0.10573887  0.46532373  1.0
  O  O98  1  0.14079626  0.07511604  0.53414853  1.0
  O  O99  1  0.93447926  0.07590879  0.54113884  1.0
  O  O100  1  0.06427387  0.10578464  0.64019226  1.0
  O  O101  1  0.04244608  0.44355906  0.08142702  1.0
  O  O102  1  0.14610986  0.56622545  0.10388944  1.0
  O  O103  1  0.93460288  0.35746211  0.89630234  1.0
  O  O104  1  0.06293973  0.45629791  0.92321768  1.0
  O  O105  1  0.86059282  0.46714265  0.92378622  1.0
  O  O106  1  0.96100418  0.53724181  0.89430595  1.0
  O  O107  1  0.57672810  0.54364389  0.43706552  1.0
