# generated using pymatgen
data_Al2H13C26O10F3
_symmetry_space_group_name_H-M   'P 1'
_cell_length_a   6.64413798
_cell_length_b   11.13759670
_cell_length_c   17.70547077
_cell_angle_alpha   89.40424653
_cell_angle_beta   79.64330769
_cell_angle_gamma   73.08615868
_symmetry_Int_Tables_number   1
_chemical_formula_structural   Al2H13C26O10F3
_chemical_formula_sum   'Al2 H13 C26 O10 F3'
_cell_volume   1231.87935518
_cell_formula_units_Z   1
loop_
 _symmetry_equiv_pos_site_id
 _symmetry_equiv_pos_as_xyz
  1  'x, y, z'
loop_
 _atom_site_type_symbol
 _atom_site_label
 _atom_site_symmetry_multiplicity
 _atom_site_fract_x
 _atom_site_fract_y
 _atom_site_fract_z
 _atom_site_occupancy
  Al  Al0  1  0.99316463  0.50380904  0.49353111  1.0
  Al  Al1  1  0.49191331  0.50533080  0.49509603  1.0
  H  H2  1  0.14601581  0.63775031  0.55894747  1.0
  H  H3  1  0.83291056  0.36768751  0.43402107  1.0
  H  H4  1  0.06607668  0.47962725  0.26109268  1.0
  H  H5  1  0.15102896  0.46397147  0.11726774  1.0
  H  H6  1  0.64309387  0.58024820  0.26528403  1.0
  H  H7  1  0.35874358  0.41889999  0.72694956  1.0
  H  H8  1  0.94787364  0.50991161  0.72264369  1.0
  H  H9  1  0.88836832  0.51198297  0.86649112  1.0
  H  H10  1  0.86312672  0.88355592  0.42893782  1.0
  H  H11  1  0.14168596  0.90013163  0.62729498  1.0
  H  H12  1  0.05143222  0.88813090  0.53929205  1.0
  H  H13  1  0.93540188  0.12400358  0.53460676  1.0
  H  H14  1  0.02732223  0.13555824  0.62203701  1.0
  C  C15  1  0.63721667  0.72990747  0.49722271  1.0
  C  C16  1  0.68291364  0.47824461  0.63128594  1.0
  C  C17  1  0.34975964  0.27886786  0.48721236  1.0
  C  C18  1  0.30876761  0.52703478  0.35730857  1.0
  C  C19  1  0.34963771  0.52921101  0.27174849  1.0
  C  C20  1  0.20987323  0.49833897  0.22984737  1.0
  C  C21  1  0.25750827  0.48907276  0.15019392  1.0
  C  C22  1  0.44643509  0.51102582  0.10973270  1.0
  C  C23  1  0.57881686  0.54645594  0.15366116  1.0
  C  C24  1  0.53490700  0.55521188  0.23308414  1.0
  C  C25  1  0.50082887  0.49613865  0.02900049  1.0
  C  C26  1  0.54294721  0.48042376  0.95918504  1.0
  C  C27  1  0.58825479  0.46928962  0.87829588  1.0
  C  C28  1  0.44569683  0.43978450  0.83653530  1.0
  C  C29  1  0.47514920  0.43892535  0.75720665  1.0
  C  C30  1  0.65641107  0.46658448  0.71625259  1.0
  C  C31  1  0.80709609  0.49025501  0.75578533  1.0
  C  C32  1  0.77374454  0.49184200  0.83542252  1.0
  C  C33  1  0.56134466  0.86862919  0.49297844  1.0
  C  C34  1  0.42306317  0.13959690  0.48606996  1.0
  C  C35  1  0.35360237  0.94032306  0.52427531  1.0
  C  C36  1  0.63091188  0.06456431  0.45279593  1.0
  C  C37  1  0.28868807  0.07091799  0.52101390  1.0
  C  C38  1  0.70014913  0.93459440  0.45607935  1.0
  C  C39  1  0.13886888  0.93625406  0.56936773  1.0
  C  C40  1  0.06585132  0.08437104  0.56609444  1.0
  O  O41  1  0.83848283  0.67733473  0.48491779  1.0
  O  O42  1  0.53474760  0.46404132  0.59866146  1.0
  O  O43  1  0.49086277  0.33681982  0.47654923  1.0
  O  O44  1  0.13894106  0.50151150  0.38922745  1.0
  O  O45  1  0.14784781  0.33009948  0.50022130  1.0
  O  O46  1  0.44979196  0.54650545  0.39174999  1.0
  O  O47  1  0.49349428  0.67401870  0.51373139  1.0
  O  O48  1  0.84977599  0.50574802  0.59821894  1.0
  O  O49  1  0.19835035  0.55659609  0.53163559  1.0
  O  O50  1  0.78506980  0.45191493  0.45742883  1.0
  F  F51  1  0.75914745  0.57098355  0.11589407  1.0
  F  F52  1  0.26911071  0.41389241  0.87660085  1.0
  F  F53  1  0.77494579  0.11963178  0.41393946  1.0
