# generated using pymatgen
data_Zn3H8C12N2(OF)4
_symmetry_space_group_name_H-M   'P 1'
_cell_length_a   8.19449276
_cell_length_b   11.66355958
_cell_length_c   11.66355925
_cell_angle_alpha   70.69689305
_cell_angle_beta   75.44883826
_cell_angle_gamma   75.44895576
_symmetry_Int_Tables_number   1
_chemical_formula_structural   Zn3H8C12N2(OF)4
_chemical_formula_sum   'Zn6 H16 C24 N4 O8 F8'
_cell_volume   1000.94241175
_cell_formula_units_Z   2
loop_
 _symmetry_equiv_pos_site_id
 _symmetry_equiv_pos_as_xyz
  1  'x, y, z'
loop_
 _atom_site_type_symbol
 _atom_site_label
 _atom_site_symmetry_multiplicity
 _atom_site_fract_x
 _atom_site_fract_y
 _atom_site_fract_z
 _atom_site_occupancy
  Zn  Zn0  1  0.55856395  0.92437140  0.89779569  1.0
  Zn  Zn1  1  0.94143620  0.10220488  0.07562892  1.0
  Zn  Zn2  1  0.44143578  0.07562836  0.10220601  1.0
  Zn  Zn3  1  0.05856353  0.89779488  0.92437192  1.0
  Zn  Zn4  1  0.24999992  0.86714204  0.13285737  1.0
  Zn  Zn5  1  0.74999981  0.13285772  0.86714262  1.0
  H  H6  1  0.23709489  0.29595654  0.95408619  1.0
  H  H7  1  0.49380874  0.24158855  0.23659760  1.0
  H  H8  1  0.40939654  0.46775443  0.22912806  1.0
  H  H9  1  0.14549124  0.52467157  0.93382741  1.0
  H  H10  1  0.26290409  0.04591434  0.70404235  1.0
  H  H11  1  0.00619351  0.76340073  0.75841282  1.0
  H  H12  1  0.09060484  0.77086927  0.53224655  1.0
  H  H13  1  0.35450567  0.06617274  0.47532724  1.0
  H  H14  1  0.76290988  0.70404322  0.04591204  1.0
  H  H15  1  0.50618972  0.75841121  0.76340518  1.0
  H  H16  1  0.59060193  0.53224533  0.77087386  1.0
  H  H17  1  0.85451329  0.47532911  0.06617056  1.0
  H  H18  1  0.73709588  0.95408450  0.29595704  1.0
  H  H19  1  0.99380646  0.23659811  0.24158828  1.0
  H  H20  1  0.90939410  0.22912864  0.46775504  1.0
  H  H21  1  0.64549051  0.93382609  0.52467282  1.0
  C  C22  1  0.27238982  0.33831032  0.01262967  1.0
  C  C23  1  0.41519568  0.30778861  0.17188363  1.0
  C  C24  1  0.36882896  0.43214583  0.16754841  1.0
  C  C25  1  0.22161529  0.46380628  0.00231711  1.0
  C  C26  1  0.26927635  0.51214314  0.08128171  1.0
  C  C27  1  0.21608407  0.64850431  0.07075516  1.0
  C  C28  1  0.22761056  0.98737013  0.66168893  1.0
  C  C29  1  0.08480174  0.82811625  0.69220968  1.0
  C  C30  1  0.13117320  0.83244906  0.56785563  1.0
  C  C31  1  0.27838470  0.99768214  0.53619226  1.0
  C  C32  1  0.23072197  0.91871711  0.48785624  1.0
  C  C33  1  0.28391753  0.92924379  0.35149520  1.0
  C  C34  1  0.72761345  0.66169036  0.98736937  1.0
  C  C35  1  0.58480302  0.69221022  0.82811684  1.0
  C  C36  1  0.63117305  0.56785486  0.83245171  1.0
  C  C37  1  0.77838948  0.53619348  0.99768112  1.0
  C  C38  1  0.73072361  0.48785569  0.91871768  1.0
  C  C39  1  0.78391565  0.35149545  0.92924568  1.0
  C  C40  1  0.77238917  0.01262963  0.33831020  1.0
  C  C41  1  0.91519396  0.17188443  0.30779070  1.0
  C  C42  1  0.86882424  0.16754978  0.43214592  1.0
  C  C43  1  0.72161377  0.00231761  0.46380709  1.0
  C  C44  1  0.76927523  0.08128265  0.51214419  1.0
  C  C45  1  0.71608244  0.07075505  0.64850504  1.0
  N  N46  1  0.36715217  0.26175457  0.09637208  1.0
  N  N47  1  0.13284796  0.90362645  0.73824385  1.0
  N  N48  1  0.63284732  0.73824612  0.90362763  1.0
  N  N49  1  0.86715327  0.09637239  0.26175531  1.0
  O  O50  1  0.27630041  0.68719111  0.13846105  1.0
  O  O51  1  0.11724430  0.70993668  0.99414096  1.0
  O  O52  1  0.22369884  0.86153869  0.31280911  1.0
  O  O53  1  0.38275494  0.00586007  0.29006301  1.0
  O  O54  1  0.72369908  0.31280958  0.86154038  1.0
  O  O55  1  0.88275747  0.29006494  0.00586061  1.0
  O  O56  1  0.77629962  0.13846107  0.68719110  1.0
  O  O57  1  0.61724250  0.99413877  0.70993768  1.0
  F  F58  1  0.49992775  0.89051925  0.09144428  1.0
  F  F59  1  0.30570272  0.91129574  0.92959629  1.0
  F  F60  1  0.00007073  0.90855663  0.10948122  1.0
  F  F61  1  0.19429633  0.07040395  0.08870470  1.0
  F  F62  1  0.50007072  0.10948052  0.90855764  1.0
  F  F63  1  0.69429558  0.08870957  0.07040382  1.0
  F  F64  1  0.99992876  0.09144406  0.89051936  1.0
  F  F65  1  0.80570364  0.92959489  0.91129641  1.0
