# generated using pymatgen
data_Zn4H5C24S4N2ClO17
_symmetry_space_group_name_H-M   'P 1'
_cell_length_a   19.60436053
_cell_length_b   19.61440145
_cell_length_c   33.31091064
_cell_angle_alpha   79.15844966
_cell_angle_beta   79.15303831
_cell_angle_gamma   63.96241245
_symmetry_Int_Tables_number   1
_chemical_formula_structural   Zn4H5C24S4N2ClO17
_chemical_formula_sum   'Zn16 H20 C96 S16 N8 Cl4 O68'
_cell_volume   11222.26466295
_cell_formula_units_Z   4
loop_
 _symmetry_equiv_pos_site_id
 _symmetry_equiv_pos_as_xyz
  1  'x, y, z'
loop_
 _atom_site_type_symbol
 _atom_site_label
 _atom_site_symmetry_multiplicity
 _atom_site_fract_x
 _atom_site_fract_y
 _atom_site_fract_z
 _atom_site_occupancy
  Zn  Zn0  1  0.59918122  0.94588908  0.52296930  1.0
  Zn  Zn1  1  0.51696747  0.01126885  0.43966710  1.0
  Zn  Zn2  1  0.43820681  0.94157371  0.51893990  1.0
  Zn  Zn3  1  0.44639527  0.10034312  0.51953422  1.0
  Zn  Zn4  1  0.65063765  0.30681075  0.72868804  1.0
  Zn  Zn5  1  0.81080917  0.31081978  0.73499678  1.0
  Zn  Zn6  1  0.73493141  0.22798688  0.80980113  1.0
  Zn  Zn7  1  0.80447189  0.15298766  0.72570783  1.0
  Zn  Zn8  1  0.23444250  0.73029866  0.31106963  1.0
  Zn  Zn9  1  0.30395229  0.65021120  0.22835839  1.0
  Zn  Zn10  1  0.15183614  0.80589048  0.22980880  1.0
  Zn  Zn11  1  0.31361037  0.80804079  0.23521286  1.0
  Zn  Zn12  1  0.94070832  0.43827063  0.01820965  1.0
  Zn  Zn13  1  0.94526603  0.59889097  0.02160848  1.0
  Zn  Zn14  1  0.09982702  0.44440416  0.02259963  1.0
  Zn  Zn15  1  0.01712768  0.51432487  0.94002869  1.0
  H  H16  1  0.75273799  0.05668524  0.64257355  1.0
  H  H17  1  0.53470962  0.24938650  0.65648441  1.0
  H  H18  1  0.70191997  0.00978456  0.59503273  1.0
  H  H19  1  0.41062203  0.89467052  0.30306410  1.0
  H  H20  1  0.29545002  0.79717471  0.40355629  1.0
  H  H21  1  0.45179868  0.94448200  0.35372277  1.0
  H  H22  1  0.76341232  0.53760551  0.65801785  1.0
  H  H23  1  0.29855174  0.51511797  0.39812771  1.0
  H  H24  1  0.02096315  0.79552957  0.40002681  1.0
  H  H25  1  0.03611098  0.04858857  0.65607874  1.0
  H  H26  1  0.94627052  0.44888911  0.84852894  1.0
  H  H27  1  0.84170759  0.35036424  0.95399499  1.0
  H  H28  1  0.89398174  0.40065487  0.80257584  1.0
  H  H29  1  0.23136693  0.45430583  0.85150269  1.0
  H  H30  1  0.85854969  0.83768774  0.95742927  1.0
  H  H31  1  0.20689452  0.50024959  0.10142284  1.0
  H  H32  1  0.99920109  0.70649055  0.09765314  1.0
  H  H33  1  0.25043136  0.55271199  0.14966372  1.0
  H  H34  1  0.71771269  0.70192215  0.09695049  1.0
  H  H35  1  0.99088132  0.21254281  0.09371647  1.0
  C  C36  1  0.68278431  0.93580781  0.44047223  1.0
  C  C37  1  0.42908100  0.92755398  0.43432371  1.0
  C  C38  1  0.55997509  0.82011254  0.56302288  1.0
  C  C39  1  0.31853943  0.06483202  0.56137072  1.0
  C  C40  1  0.56802421  0.07263645  0.56776625  1.0
  C  C41  1  0.44054329  0.17728243  0.43633339  1.0
  C  C42  1  0.69209804  0.43400476  0.68844262  1.0
  C  C43  1  0.81094204  0.32231010  0.82134073  1.0
  C  C44  1  0.56909984  0.30459802  0.81124099  1.0
  C  C45  1  0.81705600  0.06425937  0.80777759  1.0
  C  C46  1  0.67668418  0.18535324  0.67995599  1.0
  C  C47  1  0.93602942  0.18782600  0.69055184  1.0
  C  C48  1  0.30815180  0.56337332  0.31121298  1.0
  C  C49  1  0.18014011  0.68264283  0.18137643  1.0
  C  C50  1  0.06708425  0.81425511  0.31307285  1.0
  C  C51  1  0.19132539  0.93129751  0.19071414  1.0
  C  C52  1  0.32481060  0.81247441  0.32106165  1.0
  C  C53  1  0.43138444  0.68989428  0.18871138  1.0
  C  C54  1  0.81591340  0.56284441  0.06166835  1.0
  C  C55  1  0.07173848  0.57037202  0.06845978  1.0
  C  C56  1  0.06240718  0.31511839  0.06299252  1.0
  C  C57  1  0.18449851  0.43726486  0.93853876  1.0
  C  C58  1  0.92868937  0.42939433  0.93229073  1.0
  C  C59  1  0.93815928  0.68290454  0.93806767  1.0
  C  C60  1  0.59125447  0.10350624  0.59807402  1.0
  C  C61  1  0.64690571  0.15646511  0.65185058  1.0
  C  C62  1  0.54347698  0.17127482  0.61604009  1.0
  C  C63  1  0.69444161  0.08838403  0.63485391  1.0
  C  C64  1  0.57160292  0.19716597  0.64269286  1.0
  C  C65  1  0.66622231  0.06263348  0.60855356  1.0
  C  C66  1  0.39908516  0.89746870  0.40691834  1.0
  C  C67  1  0.35107714  0.84228790  0.35045138  1.0
  C  C68  1  0.35411206  0.85576968  0.42096301  1.0
  C  C69  1  0.39515986  0.88402376  0.33603482  1.0
  C  C70  1  0.33039726  0.82890101  0.39267862  1.0
  C  C71  1  0.41806569  0.91133963  0.36416031  1.0
  C  C72  1  0.54704331  0.69419666  0.59791486  1.0
  C  C73  1  0.70630374  0.55401595  0.65034518  1.0
  C  C74  1  0.58495602  0.74176045  0.58506553  1.0
  C  C75  1  0.66666667  0.50876745  0.66302776  1.0
  C  C76  1  0.66194985  0.62210931  0.62685207  1.0
  C  C77  1  0.58991919  0.62664852  0.62238299  1.0
  C  C78  1  0.42015398  0.26926250  0.36708704  1.0
  C  C79  1  0.32635949  0.47104003  0.37755948  1.0
  C  C80  1  0.41274950  0.25110381  0.40973366  1.0
  C  C81  1  0.33446321  0.48724496  0.33515035  1.0
  C  C82  1  0.35858850  0.39123620  0.38905912  1.0
  C  C83  1  0.39056031  0.34902896  0.35507278  1.0
  C  C84  1  0.77401099  0.92950384  0.37165870  1.0
  C  C85  1  0.97631618  0.82650856  0.37996091  1.0
  C  C86  1  0.75691281  0.91746290  0.41419497  1.0
  C  C87  1  0.99143395  0.83926391  0.33764716  1.0
  C  C88  1  0.89668276  0.85913122  0.39212751  1.0
  C  C89  1  0.85345402  0.89539144  0.35874241  1.0
  C  C90  1  0.19750780  0.16284001  0.60148398  1.0
  C  C91  1  0.05450467  0.09475196  0.65059375  1.0
  C  C92  1  0.24189908  0.09374917  0.58538443  1.0
  C  C93  1  0.01151708  0.16408304  0.66586663  1.0
  C  C94  1  0.12309073  0.09422235  0.62768917  1.0
  C  C95  1  0.13038442  0.16306331  0.62625805  1.0
  C  C96  1  0.83814725  0.34916838  0.85183980  1.0
  C  C97  1  0.89721466  0.40223235  0.90411753  1.0
  C  C98  1  0.82316983  0.33527646  0.89514687  1.0
  C  C99  1  0.91194984  0.41703180  0.86127840  1.0
  C  C100  1  0.85300319  0.36166016  0.92072505  1.0
  C  C101  1  0.88277339  0.39042467  0.83592791  1.0
  C  C102  1  0.47802680  0.32309205  0.88089692  1.0
  C  C103  1  0.27579674  0.42346972  0.87171187  1.0
  C  C104  1  0.49565307  0.33303059  0.83825935  1.0
  C  C105  1  0.26028821  0.41184186  0.91405742  1.0
  C  C106  1  0.35551531  0.39004213  0.85975269  1.0
  C  C107  1  0.39829298  0.35406223  0.89332562  1.0
  C  C108  1  0.88601955  0.91468299  0.81952884  1.0
  C  C109  1  0.87635660  0.82885397  0.92517053  1.0
  C  C110  1  0.84691452  0.98770813  0.83178787  1.0
  C  C111  1  0.91474531  0.75715247  0.91208493  1.0
  C  C112  1  0.86488239  0.88613690  0.89110984  1.0
  C  C113  1  0.89505482  0.85645919  0.85305715  1.0
  C  C114  1  0.14973171  0.65793617  0.15142516  1.0
  C  C115  1  0.09990533  0.60017729  0.09695360  1.0
  C  C116  1  0.07843764  0.70179942  0.13611598  1.0
  C  C117  1  0.17127271  0.55644125  0.11132241  1.0
  C  C118  1  0.05420288  0.67257142  0.10923650  1.0
  C  C119  1  0.19521216  0.58557054  0.13808789  1.0
  C  C120  1  0.54649231  0.59670689  0.14341638  1.0
  C  C121  1  0.69764867  0.65713776  0.10121521  1.0
  C  C122  1  0.50362576  0.66500909  0.16054209  1.0
  C  C123  1  0.73968072  0.58797317  0.08558447  1.0
  C  C124  1  0.62754058  0.65951647  0.12288921  1.0
  C  C125  1  0.61801208  0.59231967  0.12282029  1.0
  C  C126  1  0.21057534  0.05002603  0.14913890  1.0
  C  C127  1  0.04856084  0.19516605  0.10080596  1.0
  C  C128  1  0.17100876  0.00428634  0.16322493  1.0
  C  C129  1  0.08892820  0.23970380  0.08771958  1.0
  C  C130  1  0.09285812  0.12654278  0.12389794  1.0
  C  C131  1  0.16584624  0.12060477  0.12754637  1.0
  S  S132  1  0.67431486  0.70195240  0.60188967  1.0
  S  S133  1  0.57587183  0.54816710  0.64709916  1.0
  S  S134  1  0.36732196  0.33208518  0.43492643  1.0
  S  S135  1  0.38178215  0.40671337  0.30902619  1.0
  S  S136  1  0.83866324  0.86635189  0.43839301  1.0
  S  S137  1  0.91003622  0.88942784  0.31238479  1.0
  S  S138  1  0.19991799  0.03010780  0.59971459  1.0
  S  S139  1  0.05400880  0.22819536  0.65339789  1.0
  S  S140  1  0.41414625  0.38297771  0.81371798  1.0
  S  S141  1  0.34129680  0.36013366  0.93952821  1.0
  S  S142  1  0.82373494  0.98462151  0.88465853  1.0
  S  S143  1  0.93626473  0.75846948  0.85878757  1.0
  S  S144  1  0.54985401  0.72510284  0.14968332  1.0
  S  S145  1  0.69525072  0.52551433  0.09708530  1.0
  S  S146  1  0.07988231  0.04682715  0.14851376  1.0
  S  S147  1  0.17989473  0.19952696  0.10350368  1.0
  N  N148  1  0.47401967  0.70524203  0.58694541  1.0
  N  N149  1  0.44868339  0.21660903  0.33601206  1.0
  N  N150  1  0.72028221  0.97566382  0.34192912  1.0
  N  N151  1  0.21115240  0.23168221  0.59310099  1.0
  N  N152  1  0.53138098  0.29003565  0.91166127  1.0
  N  N153  1  0.92030052  0.89528259  0.77814914  1.0
  N  N154  1  0.52326597  0.53582630  0.14269867  1.0
  N  N155  1  0.29050250  0.02988272  0.15226416  1.0
  Cl  Cl156  1  0.44868339  0.22411053  0.60824186  1.0
  Cl  Cl157  1  0.32378394  0.83647502  0.47219823  1.0
  Cl  Cl158  1  0.76962378  0.28605558  0.91977728  1.0
  Cl  Cl159  1  0.01748810  0.79310786  0.14761250  1.0
  O  O160  1  0.50117096  0.99910338  0.50032200  1.0
  O  O161  1  0.68466923  0.93647999  0.47863449  1.0
  O  O162  1  0.45301457  0.97837874  0.41704210  1.0
  O  O163  1  0.48875268  0.86005747  0.56219988  1.0
  O  O164  1  0.62552842  0.94637554  0.42354221  1.0
  O  O165  1  0.61396433  0.84095135  0.54794356  1.0
  O  O166  1  0.43003007  0.90006194  0.47213430  1.0
  O  O167  1  0.33499935  0.00611981  0.54354320  1.0
  O  O168  1  0.51582903  0.11990563  0.54615649  1.0
  O  O169  1  0.36138724  0.09796156  0.56150938  1.0
  O  O170  1  0.60437161  0.00082655  0.56528972  1.0
  O  O171  1  0.49398214  0.11965942  0.42105906  1.0
  O  O172  1  0.40840299  0.18001297  0.47366160  1.0
  O  O173  1  0.75049823  0.25016039  0.74942385  1.0
  O  O174  1  0.64597277  0.40187771  0.69480449  1.0
  O  O175  1  0.83810258  0.33148565  0.78366715  1.0
  O  O176  1  0.62605922  0.24870694  0.82582751  1.0
  O  O177  1  0.75695031  0.40842468  0.70164719  1.0
  O  O178  1  0.56704088  0.33858887  0.77438379  1.0
  O  O179  1  0.76338907  0.29286064  0.83461111  1.0
  O  O180  1  0.79738122  0.12016006  0.82855115  1.0
  O  O181  1  0.74653723  0.14616820  0.68598338  1.0
  O  O182  1  0.81091598  0.06840269  0.77007241  1.0
  O  O183  1  0.63030094  0.24651499  0.69548126  1.0
  O  O184  1  0.90737987  0.25490478  0.70152076  1.0
  O  O185  1  0.90623367  0.13976148  0.69838757  1.0
  O  O186  1  0.25139962  0.74896796  0.25088161  1.0
  O  O187  1  0.27791951  0.62088913  0.33154660  1.0
  O  O188  1  0.25116524  0.64426500  0.18560654  1.0
  O  O189  1  0.06731188  0.83662111  0.27440798  1.0
  O  O190  1  0.31789976  0.56453513  0.27205959  1.0
  O  O191  1  0.12495312  0.77302220  0.33237281  1.0
  O  O192  1  0.13357958  0.73841358  0.20082778  1.0
  O  O193  1  0.14945257  0.89608882  0.19100471  1.0
  O  O194  1  0.34851050  0.82260944  0.28293904  1.0
  O  O195  1  0.24532611  0.91160074  0.21226779  1.0
  O  O196  1  0.28076897  0.77948455  0.33654049  1.0
  O  O197  1  0.40875934  0.63921943  0.20674390  1.0
  O  O198  1  0.39990157  0.76112051  0.19330165  1.0
  O  O199  1  0.00079183  0.49916388  0.00047499  1.0
  O  O200  1  0.84425182  0.49536434  0.05118284  1.0
  O  O201  1  0.00574190  0.61341313  0.05724923  1.0
  O  O202  1  0.10853802  0.34733167  0.05558019  1.0
  O  O203  1  0.84657488  0.61017995  0.05357793  1.0
  O  O204  1  0.99630002  0.34123543  0.05115050  1.0
  O  O205  1  0.11594928  0.50433920  0.05774674  1.0
  O  O206  1  0.18439192  0.42029755  0.97753402  1.0
  O  O207  1  0.96900526  0.46581263  0.91528995  1.0
  O  O208  1  0.12643538  0.47363079  0.91876894  1.0
  O  O209  1  0.91283100  0.41383508  0.97087326  1.0
  O  O210  1  0.92263333  0.68446282  0.97693328  1.0
  O  O211  1  0.97237604  0.62371653  0.91894957  1.0
  O  O212  1  0.43950739  0.67172636  0.61196880  1.0
  O  O213  1  0.45263393  0.74298592  0.55400420  1.0
  O  O214  1  0.47392762  0.24066129  0.30186598  1.0
  O  O215  1  0.44315320  0.15507165  0.34446481  1.0
  O  O216  1  0.74074922  0.95712185  0.30634544  1.0
  O  O217  1  0.66125872  0.03033750  0.35298761  1.0
  O  O218  1  0.18149099  0.27570085  0.62025538  1.0
  O  O219  1  0.24725574  0.24380344  0.56006633  1.0
  O  O220  1  0.50687851  0.26367957  0.94536249  1.0
  O  O221  1  0.59437104  0.29263321  0.90354830  1.0
  O  O222  1  0.92734397  0.83222611  0.77096349  1.0
  O  O223  1  0.94265280  0.93931896  0.75393569  1.0
  O  O224  1  0.57666321  0.47118024  0.13999346  1.0
  O  O225  1  0.45490530  0.55175773  0.14283573  1.0
  O  O226  1  0.30637412  0.08480816  0.15230276  1.0
  O  O227  1  0.33684868  0.96222604  0.15277384  1.0
