# generated using pymatgen
data_Zn2H23C45S5N2ClO23
_symmetry_space_group_name_H-M   'P 1'
_cell_length_a   16.49642511
_cell_length_b   17.91242943
_cell_length_c   33.14159175
_cell_angle_alpha   89.68334692
_cell_angle_beta   90.66057741
_cell_angle_gamma   89.96938066
_symmetry_Int_Tables_number   1
_chemical_formula_structural   Zn2H23C45S5N2ClO23
_chemical_formula_sum   'Zn4 H46 C90 S10 N4 Cl2 O46'
_cell_volume   9792.24160990
_cell_formula_units_Z   2
loop_
 _symmetry_equiv_pos_site_id
 _symmetry_equiv_pos_as_xyz
  1  'x, y, z'
loop_
 _atom_site_type_symbol
 _atom_site_label
 _atom_site_symmetry_multiplicity
 _atom_site_fract_x
 _atom_site_fract_y
 _atom_site_fract_z
 _atom_site_occupancy
  Zn  Zn0  1  0.41825454  0.50070233  0.50065643  1.0
  Zn  Zn1  1  0.58630026  0.50008822  0.50151386  1.0
  Zn  Zn2  1  0.58155411  0.49747782  0.96197242  1.0
  Zn  Zn3  1  0.41354672  0.49668463  0.96102641  1.0
  H  H4  1  0.71878191  0.40780357  0.53782677  1.0
  H  H5  1  0.87154971  0.40612719  0.53844048  1.0
  H  H6  1  0.71170994  0.58685020  0.45797949  1.0
  H  H7  1  0.29213376  0.42342795  0.54873164  1.0
  H  H8  1  0.28648220  0.57902177  0.45563362  1.0
  H  H9  1  0.13360983  0.57989539  0.45380108  1.0
  H  H10  1  0.36641436  0.26060147  0.49566412  1.0
  H  H11  1  0.36853021  0.12086186  0.49483689  1.0
  H  H12  1  0.62639095  0.26413998  0.50559732  1.0
  H  H13  1  0.37013109  0.73749481  0.50485974  1.0
  H  H14  1  0.62977541  0.73996422  0.49509764  1.0
  H  H15  1  0.62842448  0.87965619  0.49411993  1.0
  H  H16  1  0.63698576  0.49381832  0.63187943  1.0
  H  H17  1  0.70865275  0.49266239  0.69837314  1.0
  H  H18  1  0.37715149  0.49655270  0.62583960  1.0
  H  H19  1  0.36301996  0.49376923  0.83063556  1.0
  H  H20  1  0.29137551  0.49309065  0.76415117  1.0
  H  H21  1  0.62285175  0.49647360  0.83667405  1.0
  H  H22  1  0.62698491  0.50130824  0.09051977  1.0
  H  H23  1  0.62797782  0.50138192  0.16610499  1.0
  H  H24  1  0.36655269  0.49053354  0.08948438  1.0
  H  H25  1  0.63336906  0.49441937  0.37342779  1.0
  H  H26  1  0.37292676  0.50552704  0.37191391  1.0
  H  H27  1  0.37235339  0.50365908  0.29633325  1.0
  H  H28  1  0.28099077  0.40464943  0.92504136  1.0
  H  H29  1  0.12821486  0.40378612  0.92408263  1.0
  H  H30  1  0.28819737  0.58360436  0.00387248  1.0
  H  H31  1  0.70778021  0.42123575  0.91393669  1.0
  H  H32  1  0.71341978  0.57629988  0.00637315  1.0
  H  H33  1  0.86626109  0.57809003  0.00765741  1.0
  H  H34  1  0.63384356  0.25707541  0.96507111  1.0
  H  H35  1  0.63193833  0.11731606  0.96502595  1.0
  H  H36  1  0.37378713  0.26089412  0.95576743  1.0
  H  H37  1  0.62921828  0.73380278  0.95676540  1.0
  H  H38  1  0.36961086  0.73709728  0.96674635  1.0
  H  H39  1  0.37125590  0.87681124  0.96650950  1.0
  H  H40  1  0.96941341  0.67356008  0.48222064  1.0
  H  H41  1  0.03173278  0.46563968  0.58920598  1.0
  H  H42  1  0.61960668  0.01728568  0.54033919  1.0
  H  H43  1  0.37819523  0.98291742  0.53958750  1.0
  H  H44  1  0.37732585  0.42151528  0.22207350  1.0
  H  H45  1  0.62329736  0.42213408  0.24167374  1.0
  H  H46  1  0.03115573  0.67176943  0.97938418  1.0
  H  H47  1  0.96853018  0.46394590  0.87308897  1.0
  H  H48  1  0.38028126  0.01545818  0.91953749  1.0
  H  H49  1  0.62207269  0.97914835  0.92014268  1.0
  C  C50  1  0.49520916  0.35430056  0.50067735  1.0
  C  C51  1  0.50964931  0.49713058  0.57975637  1.0
  C  C52  1  0.50070314  0.64663514  0.50039924  1.0
  C  C53  1  0.50262890  0.50213088  0.42227178  1.0
  C  C54  1  0.50482818  0.35096456  0.96113604  1.0
  C  C55  1  0.49028651  0.49625802  0.88276909  1.0
  C  C56  1  0.49857289  0.64335645  0.96214616  1.0
  C  C57  1  0.49717185  0.49726732  0.04034329  1.0
  C  C58  1  0.75381496  0.44792732  0.52036085  1.0
  C  C59  1  0.83793927  0.44768122  0.52091634  1.0
  C  C60  1  0.87993323  0.50187388  0.49837640  1.0
  C  C61  1  0.83336040  0.55292394  0.47507511  1.0
  C  C62  1  0.74921092  0.54860262  0.47580403  1.0
  C  C63  1  0.96537803  0.50365768  0.50016083  1.0
  C  C64  1  0.03902558  0.50123683  0.50275001  1.0
  C  C65  1  0.12449703  0.50017615  0.50299696  1.0
  C  C66  1  0.17073190  0.45550242  0.53004816  1.0
  C  C67  1  0.25490491  0.45762142  0.52848164  1.0
  C  C68  1  0.25102322  0.54455408  0.47612624  1.0
  C  C69  1  0.16690605  0.54533628  0.47546288  1.0
  C  C70  1  0.49602501  0.27061162  0.50051270  1.0
  C  C71  1  0.42351997  0.23019533  0.49776042  1.0
  C  C72  1  0.42466215  0.15263795  0.49760707  1.0
  C  C73  1  0.49876116  0.11351982  0.50073949  1.0
  C  C74  1  0.57150924  0.15530060  0.50385209  1.0
  C  C75  1  0.57011523  0.23270189  0.50343740  1.0
  C  C76  1  0.49890798  0.03467130  0.50122268  1.0
  C  C77  1  0.49875808  0.96640105  0.50079203  1.0
  C  C78  1  0.49847203  0.88758585  0.49981562  1.0
  C  C79  1  0.42556121  0.84608032  0.50258807  1.0
  C  C80  1  0.42650763  0.76865457  0.50251517  1.0
  C  C81  1  0.50034633  0.73040318  0.49992137  1.0
  C  C82  1  0.57289756  0.77055326  0.49710259  1.0
  C  C83  1  0.57219525  0.84813526  0.49683527  1.0
  C  C84  1  0.57926674  0.49398744  0.64756366  1.0
  C  C85  1  0.57745487  0.49354322  0.68986985  1.0
  C  C86  1  0.65048235  0.49316592  0.71364458  1.0
  C  C87  1  0.43226304  0.49535205  0.64417606  1.0
  C  C88  1  0.42761253  0.49412243  0.68631751  1.0
  C  C89  1  0.35199575  0.49364499  0.70770479  1.0
  C  C90  1  0.42074355  0.49401659  0.81495177  1.0
  C  C91  1  0.42257171  0.49368927  0.77264582  1.0
  C  C92  1  0.34954052  0.49339606  0.74888064  1.0
  C  C93  1  0.56774426  0.49535236  0.81834418  1.0
  C  C94  1  0.57241526  0.49417244  0.77621112  1.0
  C  C95  1  0.64802368  0.49352663  0.75482097  1.0
  C  C96  1  0.50729666  0.49530219  0.62493710  1.0
  C  C97  1  0.50103362  0.49369134  0.70984270  1.0
  C  C98  1  0.49270168  0.49517110  0.83758009  1.0
  C  C99  1  0.49900559  0.49374658  0.75267761  1.0
  C  C100  1  0.49719435  0.49661196  0.08554766  1.0
  C  C101  1  0.57055147  0.49903355  0.10719571  1.0
  C  C102  1  0.57113100  0.49840693  0.14908189  1.0
  C  C103  1  0.49772664  0.49442095  0.17038239  1.0
  C  C104  1  0.42397227  0.49146656  0.14807956  1.0
  C  C105  1  0.42365972  0.49291495  0.10621511  1.0
  C  C106  1  0.49931331  0.49263780  0.21293737  1.0
  C  C107  1  0.50117797  0.49317568  0.24980650  1.0
  C  C108  1  0.50261142  0.49621161  0.29233647  1.0
  C  C109  1  0.57627352  0.49375891  0.31475610  1.0
  C  C110  1  0.57637137  0.49642284  0.35658205  1.0
  C  C111  1  0.50272742  0.50076246  0.37709176  1.0
  C  C112  1  0.42945615  0.50275308  0.35534786  1.0
  C  C113  1  0.42909240  0.50099360  0.31348063  1.0
  C  C114  1  0.24598837  0.44496226  0.94219201  1.0
  C  C115  1  0.16185814  0.44515838  0.94144895  1.0
  C  C116  1  0.11992071  0.49952398  0.96360977  1.0
  C  C117  1  0.16653459  0.55022528  0.98678898  1.0
  C  C118  1  0.25067508  0.54553859  0.98620090  1.0
  C  C119  1  0.03450103  0.50179636  0.96162399  1.0
  C  C120  1  0.96085280  0.49975108  0.95896241  1.0
  C  C121  1  0.87537659  0.49861589  0.95882852  1.0
  C  C122  1  0.82913908  0.45385860  0.93210407  1.0
  C  C123  1  0.74498403  0.45551489  0.93392436  1.0
  C  C124  1  0.74884612  0.54216145  0.98589413  1.0
  C  C125  1  0.83296765  0.54345591  0.98625977  1.0
  C  C126  1  0.50418472  0.26725585  0.96068757  1.0
  C  C127  1  0.57676311  0.22673702  0.96295987  1.0
  C  C128  1  0.57573745  0.14917648  0.96260227  1.0
  C  C129  1  0.50165287  0.11018038  0.95945070  1.0
  C  C130  1  0.42883552  0.15207653  0.95673651  1.0
  C  C131  1  0.43013795  0.22944314  0.95764775  1.0
  C  C132  1  0.50143319  0.03134978  0.95870389  1.0
  C  C133  1  0.50117969  0.96308824  0.95920795  1.0
  C  C134  1  0.50120046  0.88426799  0.96062451  1.0
  C  C135  1  0.57403873  0.84255115  0.95815202  1.0
  C  C136  1  0.57291616  0.76513589  0.95887364  1.0
  C  C137  1  0.49900668  0.72711642  0.96187896  1.0
  C  C138  1  0.42654196  0.76750786  0.96439929  1.0
  C  C139  1  0.42738651  0.84509239  0.96398013  1.0
  S  S140  1  0.87838364  0.62392942  0.44457633  1.0
  S  S141  1  0.12475259  0.39515977  0.56622749  1.0
  S  S142  1  0.66740909  0.10962449  0.50767452  1.0
  S  S143  1  0.33012898  0.89255987  0.50540979  1.0
  S  S144  1  0.32929404  0.48696220  0.17355360  1.0
  S  S145  1  0.67112795  0.48831945  0.28951857  1.0
  S  S146  1  0.12163800  0.62089517  0.01717632  1.0
  S  S147  1  0.87513253  0.39367425  0.89618706  1.0
  S  S148  1  0.33290299  0.10661054  0.95281395  1.0
  S  S149  1  0.66953634  0.88878127  0.95507982  1.0
  N  N150  1  0.71066228  0.49774007  0.49848375  1.0
  N  N151  1  0.29380762  0.50150302  0.50204516  1.0
  N  N152  1  0.28919324  0.49456013  0.96386379  1.0
  N  N153  1  0.70605714  0.49896643  0.96032695  1.0
  Cl  Cl154  1  0.73824786  0.49285924  0.78219856  1.0
  Cl  Cl155  1  0.26177541  0.49314613  0.68032901  1.0
  O  O156  1  0.42645524  0.38584101  0.50375928  1.0
  O  O157  1  0.56345344  0.38692839  0.49771572  1.0
  O  O158  1  0.57862287  0.49119698  0.56308504  1.0
  O  O159  1  0.44195171  0.50479069  0.56123618  1.0
  O  O160  1  0.56905441  0.61447989  0.50487485  1.0
  O  O161  1  0.43219063  0.61466763  0.49635518  1.0
  O  O162  1  0.43415884  0.49529674  0.43929696  1.0
  O  O163  1  0.57090799  0.50962358  0.44000577  1.0
  O  O164  1  0.57351071  0.38272801  0.95830640  1.0
  O  O165  1  0.43650793  0.38339536  0.96431013  1.0
  O  O166  1  0.42128572  0.48984927  0.89939575  1.0
  O  O167  1  0.55791187  0.50364568  0.90133086  1.0
  O  O168  1  0.43021225  0.61128880  0.95786481  1.0
  O  O169  1  0.56704808  0.61131133  0.96652536  1.0
  O  O170  1  0.56561739  0.49036277  0.02333288  1.0
  O  O171  1  0.42882913  0.50449255  0.02257210  1.0
  O  O172  1  0.91087103  0.68083680  0.47887297  1.0
  O  O173  1  0.81389905  0.66171089  0.42378797  1.0
  O  O174  1  0.94761925  0.59362192  0.42440060  1.0
  O  O175  1  0.08770443  0.45473811  0.59754120  1.0
  O  O176  1  0.18843350  0.35751908  0.58770489  1.0
  O  O177  1  0.05839291  0.35642218  0.54719682  1.0
  O  O178  1  0.65645767  0.05847593  0.54758683  1.0
  O  O179  1  0.72769082  0.16373501  0.51848610  1.0
  O  O180  1  0.67650476  0.06137688  0.47345499  1.0
  O  O181  1  0.34091187  0.94162975  0.54589755  1.0
  O  O182  1  0.26889734  0.83863508  0.51475119  1.0
  O  O183  1  0.32211845  0.94258691  0.47146418  1.0
  O  O184  1  0.33923937  0.41096068  0.19972758  1.0
  O  O185  1  0.26653773  0.47153639  0.14459379  1.0
  O  O186  1  0.32448840  0.54883053  0.20095147  1.0
  O  O187  1  0.66115487  0.41186629  0.26422274  1.0
  O  O188  1  0.73358105  0.47322095  0.31879549  1.0
  O  O189  1  0.67637013  0.54963506  0.26142253  1.0
  O  O190  1  0.08968921  0.67876376  0.98287976  1.0
  O  O191  1  0.18616250  0.65785464  0.03810857  1.0
  O  O192  1  0.05209225  0.59049683  0.03720038  1.0
  O  O193  1  0.91257622  0.45331811  0.86470030  1.0
  O  O194  1  0.81146210  0.35642355  0.87476156  1.0
  O  O195  1  0.94125560  0.35455178  0.91547466  1.0
  O  O196  1  0.34354790  0.05707745  0.91257979  1.0
  O  O197  1  0.27258374  0.16123634  0.94242146  1.0
  O  O198  1  0.32396854  0.05698237  0.98675612  1.0
  O  O199  1  0.65905874  0.93755190  0.91417350  1.0
  O  O200  1  0.73075643  0.83463939  0.94629838  1.0
  O  O201  1  0.67739473  0.93906284  0.98861823  1.0
