# generated using pymatgen
data_ZnH10C22S2N5O18
_symmetry_space_group_name_H-M   'P 1'
_cell_length_a   10.94531503
_cell_length_b   14.12272670
_cell_length_c   15.23289742
_cell_angle_alpha   90.01302791
_cell_angle_beta   90.26471996
_cell_angle_gamma   89.67611448
_symmetry_Int_Tables_number   1
_chemical_formula_structural   ZnH10C22S2N5O18
_chemical_formula_sum   'Zn2 H20 C44 S4 N10 O36'
_cell_volume   2354.60333730
_cell_formula_units_Z   2
loop_
 _symmetry_equiv_pos_site_id
 _symmetry_equiv_pos_as_xyz
  1  'x, y, z'
loop_
 _atom_site_type_symbol
 _atom_site_label
 _atom_site_symmetry_multiplicity
 _atom_site_fract_x
 _atom_site_fract_y
 _atom_site_fract_z
 _atom_site_occupancy
  Zn  Zn0  1  0.49056607  0.59795234  0.50118146  1.0
  Zn  Zn1  1  0.49951378  0.39609010  0.49571176  1.0
  H  H2  1  0.79532404  0.27947062  0.87713540  1.0
  H  H3  1  0.25516669  0.83373383  0.24536024  1.0
  H  H4  1  0.91066520  0.43225809  0.88037054  1.0
  H  H5  1  0.18296935  0.68559504  0.17131913  1.0
  H  H6  1  0.81165898  0.28081281  0.59450207  1.0
  H  H7  1  0.14385710  0.71748670  0.49410069  1.0
  H  H8  1  0.74436069  0.20555703  0.73372200  1.0
  H  H9  1  0.23159160  0.84956144  0.40831964  1.0
  H  H10  1  0.67322337  0.60324248  0.22615718  1.0
  H  H11  1  0.48724794  0.34064688  0.77586816  1.0
  H  H12  1  0.38533468  0.40837198  0.05494402  1.0
  H  H13  1  0.59133422  0.63438161  0.93428225  1.0
  H  H14  1  0.32681020  0.24744436  0.52066333  1.0
  H  H15  1  0.59089672  0.74311648  0.40288319  1.0
  H  H16  1  0.31455981  0.07227494  0.53256573  1.0
  H  H17  1  0.60255040  0.91778856  0.38812301  1.0
  H  H18  1  0.79204543  0.61183095  0.92297663  1.0
  H  H19  1  0.61705041  0.32292207  0.06902111  1.0
  H  H20  1  0.39628642  0.23961268  0.21614503  1.0
  H  H21  1  0.81677925  0.61003541  0.68664663  1.0
  C  C22  1  0.51425891  0.51876493  0.33050095  1.0
  C  C23  1  0.50528087  0.48529057  0.66693418  1.0
  C  C24  1  0.73199117  0.49668447  0.51235583  1.0
  C  C25  1  0.26252878  0.48330195  0.48651116  1.0
  C  C26  1  0.88644416  0.39823593  0.81853368  1.0
  C  C27  1  0.17646069  0.69460231  0.24207245  1.0
  C  C28  1  0.91841183  0.44159308  0.73951262  1.0
  C  C29  1  0.12462988  0.62167445  0.29118499  1.0
  C  C30  1  0.89111290  0.40173700  0.65650581  1.0
  C  C31  1  0.11342765  0.62763922  0.38272857  1.0
  C  C32  1  0.82925015  0.31526981  0.65703408  1.0
  C  C33  1  0.15300582  0.71141774  0.42320215  1.0
  C  C34  1  0.79382970  0.27235315  0.73539962  1.0
  C  C35  1  0.20335112  0.78488037  0.37480891  1.0
  C  C36  1  0.82244135  0.31352576  0.81623039  1.0
  C  C37  1  0.21607353  0.77642647  0.28386123  1.0
  C  C38  1  0.06498355  0.43808410  0.55707148  1.0
  C  C39  1  0.93057413  0.55511991  0.45352658  1.0
  C  C40  1  0.12580659  0.49100088  0.49307944  1.0
  C  C41  1  0.86953067  0.49899939  0.51442333  1.0
  C  C42  1  0.05734355  0.55529964  0.44164286  1.0
  C  C43  1  0.93975219  0.44423528  0.57373720  1.0
  C  C44  1  0.62837417  0.55097545  0.09732641  1.0
  C  C45  1  0.52448099  0.40263616  0.90280293  1.0
  C  C46  1  0.61094426  0.55965483  0.18785920  1.0
  C  C47  1  0.51057341  0.40468944  0.81188638  1.0
  C  C48  1  0.52010987  0.50992164  0.23218252  1.0
  C  C49  1  0.53222875  0.48678146  0.76332456  1.0
  C  C50  1  0.44302208  0.45120678  0.18261231  1.0
  C  C51  1  0.57517620  0.56648371  0.80894282  1.0
  C  C52  1  0.45308788  0.44833643  0.09169980  1.0
  C  C53  1  0.57044001  0.56850187  0.90016929  1.0
  C  C54  1  0.54642560  0.49580108  0.04658105  1.0
  C  C55  1  0.54632933  0.48746082  0.94986879  1.0
  C  C56  1  0.61096897  0.09811828  0.47363530  1.0
  C  C57  1  0.44214065  0.89908369  0.57760801  1.0
  C  C58  1  0.60517606  0.19540285  0.45996238  1.0
  C  C59  1  0.43141479  0.80093287  0.57614905  1.0
  C  C60  1  0.40567483  0.20262433  0.50615794  1.0
  C  C61  1  0.54809281  0.78962944  0.45100812  1.0
  C  C62  1  0.40091682  0.10473872  0.51471211  1.0
  C  C63  1  0.55620106  0.88749044  0.44454713  1.0
  C  C64  1  0.50594959  0.04962093  0.50084900  1.0
  C  C65  1  0.50324570  0.94515731  0.50884777  1.0
  S  S66  1  0.75563321  0.62291242  0.06107343  1.0
  S  S67  1  0.52634392  0.28487198  0.94857523  1.0
  S  S68  1  0.32509941  0.37832378  0.22786598  1.0
  S  S69  1  0.66460776  0.66214850  0.76478009  1.0
  N  N70  1  0.50684332  0.24745568  0.47861411  1.0
  N  N71  1  0.48381914  0.74711444  0.51484838  1.0
  N  N72  1  0.72774302  0.04682154  0.45960828  1.0
  N  N73  1  0.38781231  0.95644906  0.64926843  1.0
  N  N74  1  0.71199200  0.24376060  0.41919817  1.0
  N  N75  1  0.35014474  0.75378273  0.64186226  1.0
  N  N76  1  0.98403173  0.53144972  0.74788804  1.0
  N  N77  1  0.08073908  0.53836351  0.24158760  1.0
  N  N78  1  0.13783614  0.37422562  0.61503575  1.0
  N  N79  1  0.85662846  0.61885834  0.39678874  1.0
  O  O80  1  0.51038933  0.60118424  0.36324858  1.0
  O  O81  1  0.49730643  0.40488497  0.63011474  1.0
  O  O82  1  0.51658559  0.44066571  0.37147013  1.0
  O  O83  1  0.48878569  0.56568754  0.63120215  1.0
  O  O84  1  0.67623101  0.57502934  0.50480539  1.0
  O  O85  1  0.31125734  0.40216584  0.49634431  1.0
  O  O86  1  0.68565022  0.41465479  0.51462294  1.0
  O  O87  1  0.31790815  0.56035497  0.47459296  1.0
  O  O88  1  0.77609814  0.01235846  0.52538233  1.0
  O  O89  1  0.76391854  0.04188875  0.38298781  1.0
  O  O90  1  0.46031835  0.99418846  0.69991577  1.0
  O  O91  1  0.27533062  0.96492265  0.64790778  1.0
  O  O92  1  0.69038871  0.28760106  0.35143190  1.0
  O  O93  1  0.81167775  0.23173272  0.45604232  1.0
  O  O94  1  0.28885416  0.68755760  0.61369650  1.0
  O  O95  1  0.34859653  0.78794678  0.71604399  1.0
  O  O96  1  0.95718136  0.59705492  0.69440666  1.0
  O  O97  1  0.06035210  0.53994437  0.80635644  1.0
  O  O98  1  0.01497420  0.48124517  0.28064075  1.0
  O  O99  1  0.11248884  0.53123045  0.16402608  1.0
  O  O100  1  0.19809711  0.41147607  0.67428357  1.0
  O  O101  1  0.12939803  0.28833579  0.60073806  1.0
  O  O102  1  0.79584420  0.58127133  0.33824490  1.0
  O  O103  1  0.86284213  0.70472123  0.41192265  1.0
  O  O104  1  0.70518962  0.71359787  0.03561123  1.0
  O  O105  1  0.84694336  0.61648003  0.12853401  1.0
  O  O106  1  0.80820239  0.57133104  0.97645316  1.0
  O  O107  1  0.41734965  0.26567318  0.99781648  1.0
  O  O108  1  0.56533421  0.22176212  0.88041241  1.0
  O  O109  1  0.64150775  0.28992154  0.01503684  1.0
  O  O110  1  0.27547932  0.42336348  0.30398431  1.0
  O  O111  1  0.24964565  0.34507789  0.15710055  1.0
  O  O112  1  0.40234548  0.28696857  0.26305607  1.0
  O  O113  1  0.59181385  0.74257153  0.74033133  1.0
  O  O114  1  0.76122148  0.67510791  0.83016297  1.0
  O  O115  1  0.72371693  0.61818928  0.68089993  1.0
